# generated using pymatgen
data_Tl4SnS3
_symmetry_space_group_name_H-M   'P 1'
_cell_length_a   8.14443970
_cell_length_b   8.14443970
_cell_length_c   14.51139494
_cell_angle_alpha   90.00000000
_cell_angle_beta   90.00000000
_cell_angle_gamma   90.00000000
_symmetry_Int_Tables_number   1
_chemical_formula_structural   Tl4SnS3
_chemical_formula_sum   'Tl16 Sn4 S12'
_cell_volume   962.56836939
_cell_formula_units_Z   4
loop_
 _symmetry_equiv_pos_site_id
 _symmetry_equiv_pos_as_xyz
  1  'x, y, z'
loop_
 _atom_site_type_symbol
 _atom_site_label
 _atom_site_symmetry_multiplicity
 _atom_site_fract_x
 _atom_site_fract_y
 _atom_site_fract_z
 _atom_site_occupancy
  S  S0  1  0.92027631  0.07972369  0.75000000  1
  S  S1  1  0.42027631  0.92027631  0.75000000  1
  S  S2  1  0.07972369  0.57972369  0.75000000  1
  S  S3  1  0.57972369  0.42027631  0.75000000  1
  S  S4  1  0.07972369  0.92027631  0.25000000  1
  S  S5  1  0.57972369  0.07972369  0.25000000  1
  S  S6  1  0.92027631  0.42027631  0.25000000  1
  S  S7  1  0.25000000  0.25000000  0.41470284  1
  S  S8  1  0.42027631  0.57972369  0.25000000  1
  S  S9  1  0.75000000  0.75000000  0.58529716  1
  S  S10  1  0.75000000  0.75000000  0.08529716  1
  S  S11  1  0.25000000  0.25000000  0.91470284  1
  Sn  Sn12  1  0.25000000  0.25000000  0.74004640  1
  Sn  Sn13  1  0.75000000  0.75000000  0.75995360  1
  Sn  Sn14  1  0.75000000  0.75000000  0.25995360  1
  Sn  Sn15  1  0.25000000  0.25000000  0.24004640  1
  Tl  Tl16  1  0.89033549  0.40952643  0.60923792  1
  Tl  Tl17  1  0.60966451  0.09047357  0.60923792  1
  Tl  Tl18  1  0.90952643  0.39033549  0.89076208  1
  Tl  Tl19  1  0.40952643  0.60966451  0.60923792  1
  Tl  Tl20  1  0.09047357  0.89033549  0.60923792  1
  Tl  Tl21  1  0.10966451  0.90952643  0.89076208  1
  Tl  Tl22  1  0.39033549  0.59047357  0.89076208  1
  Tl  Tl23  1  0.59047357  0.10966451  0.89076208  1
  Tl  Tl24  1  0.10966451  0.59047357  0.39076208  1
  Tl  Tl25  1  0.39033549  0.90952643  0.39076208  1
  Tl  Tl26  1  0.09047357  0.60966451  0.10923792  1
  Tl  Tl27  1  0.59047357  0.39033549  0.39076208  1
  Tl  Tl28  1  0.90952643  0.10966451  0.39076208  1
  Tl  Tl29  1  0.89033549  0.09047357  0.10923792  1
  Tl  Tl30  1  0.60966451  0.40952643  0.10923792  1
  Tl  Tl31  1  0.40952643  0.89033549  0.10923792  1
