# generated using pymatgen
data_Pr3Er
_symmetry_space_group_name_H-M   'P 1'
_cell_length_a   7.39232982
_cell_length_b   7.39232969
_cell_length_c   5.94381915
_cell_angle_alpha   90.00000000
_cell_angle_beta   90.00000000
_cell_angle_gamma   119.99999609
_symmetry_Int_Tables_number   1
_chemical_formula_structural   Pr3Er
_chemical_formula_sum   'Pr6 Er2'
_cell_volume   281.29298322
_cell_formula_units_Z   2
loop_
 _symmetry_equiv_pos_site_id
 _symmetry_equiv_pos_as_xyz
  1  'x, y, z'
loop_
 _atom_site_type_symbol
 _atom_site_label
 _atom_site_symmetry_multiplicity
 _atom_site_fract_x
 _atom_site_fract_y
 _atom_site_fract_z
 _atom_site_occupancy
  Pr  Pr0  1  0.16771051  0.33542002  0.25000000  1
  Pr  Pr1  1  0.66457898  0.83229049  0.25000000  1
  Pr  Pr2  1  0.16771051  0.83229049  0.25000000  1
  Pr  Pr3  1  0.83228949  0.66457798  0.75000100  1
  Pr  Pr4  1  0.33542202  0.16771051  0.75000100  1
  Pr  Pr5  1  0.83228849  0.16771051  0.75000100  1
  Er  Er6  1  0.33333400  0.66666700  0.75000100  1
  Er  Er7  1  0.66666800  0.33333400  0.25000000  1
