# generated using pymatgen
data_LiAuO2
_symmetry_space_group_name_H-M   'P 1'
_cell_length_a   4.07963514
_cell_length_b   5.40146693
_cell_length_c   5.85106894
_cell_angle_alpha   112.77728059
_cell_angle_beta   110.40311969
_cell_angle_gamma   89.99999674
_symmetry_Int_Tables_number   1
_chemical_formula_structural   LiAuO2
_chemical_formula_sum   'Li2 Au2 O4'
_cell_volume   110.05402715
_cell_formula_units_Z   2
loop_
 _symmetry_equiv_pos_site_id
 _symmetry_equiv_pos_as_xyz
  1  'x, y, z'
loop_
 _atom_site_type_symbol
 _atom_site_label
 _atom_site_symmetry_multiplicity
 _atom_site_fract_x
 _atom_site_fract_y
 _atom_site_fract_z
 _atom_site_occupancy
  Li  Li0  1  0.62771240  0.25000000  0.00000000  1
  Li  Li1  1  0.37228760  0.75000000  -0.00000000  1
  Au  Au2  1  -0.00000000  -0.00000000  0.50000000  1
  Au  Au3  1  0.50000000  0.50000000  0.50000000  1
  O  O4  1  0.68540474  0.63232807  0.27959548  1
  O  O5  1  0.59419074  0.13232807  0.27959548  1
  O  O6  1  0.40580926  0.86767193  0.72040452  1
  O  O7  1  0.31459526  0.36767193  0.72040452  1
