# generated using pymatgen
data_SrEu2Al2O7
_symmetry_space_group_name_H-M   'P 1'
_cell_length_a   3.76325780
_cell_length_b   3.76325780
_cell_length_c   10.31271522
_cell_angle_alpha   100.51291332
_cell_angle_beta   100.51291332
_cell_angle_gamma   90.00000000
_symmetry_Int_Tables_number   1
_chemical_formula_structural   SrEu2Al2O7
_chemical_formula_sum   'Sr1 Eu2 Al2 O7'
_cell_volume   141.10397120
_cell_formula_units_Z   1
loop_
 _symmetry_equiv_pos_site_id
 _symmetry_equiv_pos_as_xyz
  1  'x, y, z'
loop_
 _atom_site_type_symbol
 _atom_site_label
 _atom_site_symmetry_multiplicity
 _atom_site_fract_x
 _atom_site_fract_y
 _atom_site_fract_z
 _atom_site_occupancy
  Eu  Eu0  1  0.68236073  0.68236073  0.36472247  1
  Eu  Eu1  1  0.31763927  0.31763927  0.63527753  1
  Sr  Sr2  1  0.50000000  0.50000000  0.00000000  1
  Al  Al3  1  0.09501417  0.09501417  0.19002834  1
  Al  Al4  1  0.90498583  0.90498583  0.80997166  1
  O  O5  1  0.00000000  0.00000000  0.00000000  1
  O  O6  1  0.60143731  0.10143731  0.20287461  1
  O  O7  1  0.10143731  0.60143731  0.20287461  1
  O  O8  1  0.20010927  0.20010927  0.40021754  1
  O  O9  1  0.79989073  0.79989073  0.59978246  1
  O  O10  1  0.89856269  0.39856269  0.79712539  1
  O  O11  1  0.39856269  0.89856269  0.79712539  1
