# generated using pymatgen
data_AgPbO2
_symmetry_space_group_name_H-M   'P 1'
_cell_length_a   3.56053022
_cell_length_b   6.50055919
_cell_length_c   6.75842161
_cell_angle_alpha   98.11290325
_cell_angle_beta   105.27275927
_cell_angle_gamma   89.99999548
_symmetry_Int_Tables_number   1
_chemical_formula_structural   AgPbO2
_chemical_formula_sum   'Ag2 Pb2 O4'
_cell_volume   149.27860964
_cell_formula_units_Z   2
loop_
 _symmetry_equiv_pos_site_id
 _symmetry_equiv_pos_as_xyz
  1  'x, y, z'
loop_
 _atom_site_type_symbol
 _atom_site_label
 _atom_site_symmetry_multiplicity
 _atom_site_fract_x
 _atom_site_fract_y
 _atom_site_fract_z
 _atom_site_occupancy
  Ag  Ag0  1  0.74968012  0.80467305  0.49936023  1
  Ag  Ag1  1  0.25031988  0.19532695  0.50063977  1
  Pb  Pb2  1  0.50000000  -0.00000000  -0.00000000  1
  Pb  Pb3  1  0.00000000  0.50000000  -0.00000000  1
  O  O4  1  0.91236013  0.82962106  0.82472026  1
  O  O5  1  0.41239583  0.26206253  0.82479166  1
  O  O6  1  0.58760417  0.73793747  0.17520834  1
  O  O7  1  0.08763987  0.17037894  0.17527974  1
