# generated using pymatgen
data_DyCrS3
_symmetry_space_group_name_H-M   'P 1'
_cell_length_a   3.70121956
_cell_length_b   12.99148837
_cell_length_c   16.20421950
_cell_angle_alpha   90.00000000
_cell_angle_beta   90.00000000
_cell_angle_gamma   90.00000000
_symmetry_Int_Tables_number   1
_chemical_formula_structural   DyCrS3
_chemical_formula_sum   'Dy8 Cr8 S24'
_cell_volume   779.16937599
_cell_formula_units_Z   8
loop_
 _symmetry_equiv_pos_site_id
 _symmetry_equiv_pos_as_xyz
  1  'x, y, z'
loop_
 _atom_site_type_symbol
 _atom_site_label
 _atom_site_symmetry_multiplicity
 _atom_site_fract_x
 _atom_site_fract_y
 _atom_site_fract_z
 _atom_site_occupancy
  Dy  Dy0  1  0.50000000  0.25841231  0.89431214  1
  Dy  Dy1  1  0.50000000  0.74158769  0.10568786  1
  Dy  Dy2  1  -0.00000000  0.24158769  0.39431214  1
  Dy  Dy3  1  -0.00000000  0.75841231  0.60568786  1
  Dy  Dy4  1  0.50000000  0.67052210  0.84627637  1
  Dy  Dy5  1  0.50000000  0.32947790  0.15372363  1
  Dy  Dy6  1  0.00000000  0.82947790  0.34627637  1
  Dy  Dy7  1  0.00000000  0.17052210  0.65372363  1
  Cr  Cr8  1  0.50000000  -0.00000000  0.00000000  1
  Cr  Cr9  1  -0.00000000  0.50000000  0.50000000  1
  Cr  Cr10  1  0.50000000  -0.00000000  0.50000000  1
  Cr  Cr11  1  0.00000000  0.50000000  0.00000000  1
  Cr  Cr12  1  0.50000000  0.52146195  0.31637143  1
  Cr  Cr13  1  0.50000000  0.47853805  0.68362857  1
  Cr  Cr14  1  0.00000000  0.97853805  0.81637143  1
  Cr  Cr15  1  0.00000000  0.02146195  0.18362857  1
  S  S16  1  0.50000000  0.89081457  0.88404248  1
  S  S17  1  0.50000000  0.10918543  0.11595752  1
  S  S18  1  -0.00000000  0.60918543  0.38404248  1
  S  S19  1  -0.00000000  0.39081457  0.61595752  1
  S  S20  1  0.50000000  0.52710177  0.09517044  1
  S  S21  1  0.50000000  0.47289823  0.90482956  1
  S  S22  1  0.00000000  0.97289823  0.59517044  1
  S  S23  1  0.00000000  0.02710177  0.40482956  1
  S  S24  1  0.50000000  0.80338377  0.71408041  1
  S  S25  1  0.50000000  0.19661623  0.28591959  1
  S  S26  1  0.00000000  0.69661623  0.21408041  1
  S  S27  1  0.00000000  0.30338377  0.78591959  1
  S  S28  1  0.50000000  0.91570558  0.23681069  1
  S  S29  1  0.50000000  0.08429442  0.76318931  1
  S  S30  1  -0.00000000  0.58429442  0.73681069  1
  S  S31  1  -0.00000000  0.41570558  0.26318931  1
  S  S32  1  0.50000000  0.58668781  0.56880002  1
  S  S33  1  0.50000000  0.41331219  0.43119998  1
  S  S34  1  0.00000000  0.91331219  0.06880002  1
  S  S35  1  -0.00000000  0.08668781  0.93119998  1
  S  S36  1  0.50000000  0.81545906  0.47149966  1
  S  S37  1  0.50000000  0.18454094  0.52850034  1
  S  S38  1  0.00000000  0.68454094  0.97149966  1
  S  S39  1  0.00000000  0.31545906  0.02850034  1
