# generated using pymatgen
data_Li4Co15O28
_symmetry_space_group_name_H-M   'P 1'
_cell_length_a   8.17327352
_cell_length_b   8.72043566
_cell_length_c   7.69778352
_cell_angle_alpha   107.06780206
_cell_angle_beta   78.10015337
_cell_angle_gamma   74.07330167
_symmetry_Int_Tables_number   1
_chemical_formula_structural   Li4Co15O28
_chemical_formula_sum   'Li4 Co15 O28'
_cell_volume   479.19438118
_cell_formula_units_Z   1
loop_
 _symmetry_equiv_pos_site_id
 _symmetry_equiv_pos_as_xyz
  1  'x, y, z'
loop_
 _atom_site_type_symbol
 _atom_site_label
 _atom_site_symmetry_multiplicity
 _atom_site_fract_x
 _atom_site_fract_y
 _atom_site_fract_z
 _atom_site_occupancy
  Li  Li0  1  0.27288807  0.28439001  0.55708077  1
  Li  Li1  1  0.43032677  0.42457464  0.85286529  1
  Li  Li2  1  0.56967323  0.57542536  0.14713471  1
  Li  Li3  1  0.72711193  0.71560999  0.44291923  1
  Co  Co4  1  0.00000000  0.00000000  0.00000000  1
  Co  Co5  1  0.07155329  0.07194619  0.64015922  1
  Co  Co6  1  0.07428269  0.57194968  0.13893568  1
  Co  Co7  1  0.21432947  0.21524219  0.92913579  1
  Co  Co8  1  0.50000000  0.00000000  0.00000000  1
  Co  Co9  1  0.35479757  0.35687385  0.21654333  1
  Co  Co10  1  0.21102910  0.71173149  0.43159704  1
  Co  Co11  1  0.63907163  0.14398581  0.29055208  1
  Co  Co12  1  0.50000000  0.50000000  0.50000000  1
  Co  Co13  1  0.36092837  0.85601419  0.70944792  1
  Co  Co14  1  0.78897090  0.28826851  0.56840296  1
  Co  Co15  1  0.64520243  0.64312615  0.78345667  1
  Co  Co16  1  0.78567053  0.78475781  0.07086421  1
  Co  Co17  1  0.92571731  0.42805032  0.86106432  1
  Co  Co18  1  0.92844671  0.92805381  0.35984078  1
  O  O19  1  0.01718135  0.27851598  0.59991267  1
  O  O20  1  0.01219218  0.78828755  0.09273835  1
  O  O21  1  0.13034054  0.36554713  0.18429900  1
  O  O22  1  0.26706616  0.00575188  0.97193138  1
  O  O23  1  0.16256495  0.41603790  0.87501831  1
  O  O24  1  0.29882612  0.06645627  0.66736646  1
  O  O25  1  0.15295366  0.91978029  0.38615192  1
  O  O26  1  0.30661625  0.56104563  0.16509349  1
  O  O27  1  0.12696573  0.86818199  0.69914933  1
  O  O28  1  0.27368838  0.49997672  0.47346494  1
  O  O29  1  0.41456601  0.15077559  0.26389481  1
  O  O30  1  0.43905196  0.21023408  0.95392618  1
  O  O31  1  0.58283574  0.34923208  0.24066046  1
  O  O32  1  0.44573660  0.70521882  0.44912058  1
  O  O33  1  0.55426340  0.29478118  0.55087942  1
  O  O34  1  0.41716426  0.65076792  0.75933954  1
  O  O35  1  0.56094804  0.78976592  0.04607382  1
  O  O36  1  0.58543399  0.84922441  0.73610519  1
  O  O37  1  0.72631162  0.50002328  0.52653506  1
  O  O38  1  0.87303427  0.13181801  0.30085067  1
  O  O39  1  0.69338375  0.43895437  0.83490651  1
  O  O40  1  0.84704634  0.08021971  0.61384808  1
  O  O41  1  0.70117388  0.93354373  0.33263354  1
  O  O42  1  0.83743505  0.58396210  0.12498169  1
  O  O43  1  0.73293384  0.99424812  0.02806862  1
  O  O44  1  0.86965946  0.63445287  0.81570100  1
  O  O45  1  0.98780782  0.21171245  0.90726165  1
  O  O46  1  0.98281865  0.72148402  0.40008733  1
