# generated using pymatgen
data_TlGeCl3
_symmetry_space_group_name_H-M   'P 1'
_cell_length_a   5.32192957
_cell_length_b   5.32841910
_cell_length_c   5.32778823
_cell_angle_alpha   89.16190115
_cell_angle_beta   89.09958321
_cell_angle_gamma   89.35282317
_symmetry_Int_Tables_number   1
_chemical_formula_structural   TlGeCl3
_chemical_formula_sum   'Tl1 Ge1 Cl3'
_cell_volume   151.03853251
_cell_formula_units_Z   1
loop_
 _symmetry_equiv_pos_site_id
 _symmetry_equiv_pos_as_xyz
  1  'x, y, z'
loop_
 _atom_site_type_symbol
 _atom_site_label
 _atom_site_symmetry_multiplicity
 _atom_site_fract_x
 _atom_site_fract_y
 _atom_site_fract_z
 _atom_site_occupancy
  Tl  Tl0  1  0.00901728  0.99075799  0.98908921  1
  Ge  Ge1  1  0.46745931  0.48230500  0.48036673  1
  Cl  Cl2  1  0.47688971  0.02168802  0.49695152  1
  Cl  Cl3  1  0.00561292  0.50437299  0.50356301  1
  Cl  Cl4  1  0.48102078  0.50087501  0.02002953  1
