# generated using pymatgen
data_RbTlBr3
_symmetry_space_group_name_H-M   'P 1'
_cell_length_a   5.83303366
_cell_length_b   5.83635246
_cell_length_c   5.83575794
_cell_angle_alpha   90.00743946
_cell_angle_beta   90.06098967
_cell_angle_gamma   90.00685260
_symmetry_Int_Tables_number   1
_chemical_formula_structural   RbTlBr3
_chemical_formula_sum   'Rb1 Tl1 Br3'
_cell_volume   198.67032887
_cell_formula_units_Z   1
loop_
 _symmetry_equiv_pos_site_id
 _symmetry_equiv_pos_as_xyz
  1  'x, y, z'
loop_
 _atom_site_type_symbol
 _atom_site_label
 _atom_site_symmetry_multiplicity
 _atom_site_fract_x
 _atom_site_fract_y
 _atom_site_fract_z
 _atom_site_occupancy
  Rb  Rb0  1  0.99888591  0.99736528  0.99695653  1
  Tl  Tl1  1  0.48277187  0.49779506  0.49232268  1
  Br  Br2  1  0.48532357  0.99930994  0.49536492  1
  Br  Br3  1  0.98403253  0.50707218  0.50990708  1
  Br  Br4  1  0.48898711  0.49845855  0.99544878  1
