# generated using pymatgen
data_Li2FeCu(PO4)2
_symmetry_space_group_name_H-M   'P 1'
_cell_length_a   10.08065970
_cell_length_b   6.04845315
_cell_length_c   4.71349186
_cell_angle_alpha   90.00000000
_cell_angle_beta   91.27657378
_cell_angle_gamma   90.00000000
_symmetry_Int_Tables_number   1
_chemical_formula_structural   Li2FeCu(PO4)2
_chemical_formula_sum   'Li4 Fe2 Cu2 P4 O16'
_cell_volume   287.32157093
_cell_formula_units_Z   2
loop_
 _symmetry_equiv_pos_site_id
 _symmetry_equiv_pos_as_xyz
  1  'x, y, z'
loop_
 _atom_site_type_symbol
 _atom_site_label
 _atom_site_symmetry_multiplicity
 _atom_site_fract_x
 _atom_site_fract_y
 _atom_site_fract_z
 _atom_site_occupancy
  Li  Li0  1  0.00000000  0.00000000  0.00000000  1
  Li  Li1  1  0.00000000  0.50000000  0.00000000  1
  Li  Li2  1  0.50000000  0.00000000  0.50000000  1
  Li  Li3  1  0.50000000  0.50000000  0.50000000  1
  Fe  Fe4  1  0.21890758  0.75000000  0.47869836  1
  Fe  Fe5  1  0.78109242  0.25000000  0.52130164  1
  Cu  Cu6  1  0.28459186  0.25000000  0.94854121  1
  Cu  Cu7  1  0.71540814  0.75000000  0.05145879  1
  P  P8  1  0.09692727  0.25000000  0.41933592  1
  P  P9  1  0.40693996  0.75000000  0.92074446  1
  P  P10  1  0.59306004  0.25000000  0.07925554  1
  P  P11  1  0.90307273  0.75000000  0.58066408  1
  O  O12  1  0.04643357  0.75000000  0.70780251  1
  O  O13  1  0.10157856  0.25000000  0.74960236  1
  O  O14  1  0.16503496  0.04146219  0.29397351  1
  O  O15  1  0.16503496  0.45853781  0.29397351  1
  O  O16  1  0.33435457  0.54842986  0.77556817  1
  O  O17  1  0.33435457  0.95157014  0.77556817  1
  O  O18  1  0.40368369  0.75000000  0.24415455  1
  O  O19  1  0.44846257  0.25000000  0.19380063  1
  O  O20  1  0.55153743  0.75000000  0.80619937  1
  O  O21  1  0.59631631  0.25000000  0.75584545  1
  O  O22  1  0.66564543  0.04842986  0.22443183  1
  O  O23  1  0.66564543  0.45157014  0.22443183  1
  O  O24  1  0.83496504  0.54146219  0.70602649  1
  O  O25  1  0.83496504  0.95853781  0.70602649  1
  O  O26  1  0.89842144  0.75000000  0.25039764  1
  O  O27  1  0.95356643  0.25000000  0.29219749  1
