# generated using pymatgen
data_CsSrI3
_symmetry_space_group_name_H-M   'P 1'
_cell_length_a   6.46480892
_cell_length_b   6.47140349
_cell_length_c   6.47314275
_cell_angle_alpha   89.98906053
_cell_angle_beta   89.83027861
_cell_angle_gamma   89.98575642
_symmetry_Int_Tables_number   1
_chemical_formula_structural   CsSrI3
_chemical_formula_sum   'Cs1 Sr1 I3'
_cell_volume   270.81170383
_cell_formula_units_Z   1
loop_
 _symmetry_equiv_pos_site_id
 _symmetry_equiv_pos_as_xyz
  1  'x, y, z'
loop_
 _atom_site_type_symbol
 _atom_site_label
 _atom_site_symmetry_multiplicity
 _atom_site_fract_x
 _atom_site_fract_y
 _atom_site_fract_z
 _atom_site_occupancy
  Cs  Cs0  1  0.00041525  0.99824206  0.99614935  1
  Sr  Sr1  1  0.48229231  0.49648147  0.48996391  1
  I  I2  1  0.48648972  0.99762626  0.49879645  1
  I  I3  1  0.98321987  0.50973173  0.51266797  1
  I  I4  1  0.48758185  0.49791647  0.99241932  1
