# generated using pymatgen
data_CaMn2O4
_symmetry_space_group_name_H-M   'P 1'
_cell_length_a   6.34174664
_cell_length_b   6.28156807
_cell_length_c   6.28586801
_cell_angle_alpha   90.31898303
_cell_angle_beta   119.65076760
_cell_angle_gamma   119.48784451
_symmetry_Int_Tables_number   1
_chemical_formula_structural   CaMn2O4
_chemical_formula_sum   'Ca2 Mn4 O8'
_cell_volume   178.86289560
_cell_formula_units_Z   2
loop_
 _symmetry_equiv_pos_site_id
 _symmetry_equiv_pos_as_xyz
  1  'x, y, z'
loop_
 _atom_site_type_symbol
 _atom_site_label
 _atom_site_symmetry_multiplicity
 _atom_site_fract_x
 _atom_site_fract_y
 _atom_site_fract_z
 _atom_site_occupancy
  Ca  Ca0  1  0.25121490  0.12348362  0.87419418  1
  Ca  Ca1  1  0.74898418  0.87680229  0.12584165  1
  Mn  Mn2  1  0.49994804  0.99952585  0.49977572  1
  Mn  Mn3  1  0.50009707  0.50002909  0.50009294  1
  Mn  Mn4  1  0.00003086  0.49992996  0.99997425  1
  Mn  Mn5  1  0.99984233  0.50001457  0.49988802  1
  O  O6  1  0.07371526  0.77580061  0.22491619  1
  O  O7  1  0.42286110  0.77777497  0.70184070  1
  O  O8  1  0.42579600  0.65179357  0.22685019  1
  O  O9  1  0.92318859  0.69875965  0.65079723  1
  O  O10  1  0.57460156  0.34866076  0.77348647  1
  O  O11  1  0.57681752  0.22207011  0.29825419  1
  O  O12  1  0.07684049  0.30151965  0.34910628  1
  O  O13  1  0.92606310  0.22383631  0.77498200  1
