# generated using pymatgen
data_V3Zn2O8
_symmetry_space_group_name_H-M   'P 1'
_cell_length_a   4.97873581
_cell_length_b   5.98020843
_cell_length_c   5.84893055
_cell_angle_alpha   120.74528738
_cell_angle_beta   100.97172627
_cell_angle_gamma   89.99999705
_symmetry_Int_Tables_number   1
_chemical_formula_structural   V3Zn2O8
_chemical_formula_sum   'V3 Zn2 O8'
_cell_volume   145.95293918
_cell_formula_units_Z   1
loop_
 _symmetry_equiv_pos_site_id
 _symmetry_equiv_pos_as_xyz
  1  'x, y, z'
loop_
 _atom_site_type_symbol
 _atom_site_label
 _atom_site_symmetry_multiplicity
 _atom_site_fract_x
 _atom_site_fract_y
 _atom_site_fract_z
 _atom_site_occupancy
  V  V0  1  0.49999842  -0.00000019  0.00000162  1
  V  V1  1  0.00000005  0.73787248  0.99999952  1
  V  V2  1  0.00000005  0.26212705  -0.00000048  1
  Zn  Zn3  1  0.60024893  0.71126992  0.42253883  1
  Zn  Zn4  1  0.39975027  0.28873082  0.57746065  1
  O  O5  1  0.10907117  0.39629903  0.79259906  1
  O  O6  1  0.89092835  0.60370004  0.20740108  1
  O  O7  1  0.13815789  0.90018375  0.80036751  1
  O  O8  1  0.86184244  0.09981546  0.19963192  1
  O  O9  1  0.36171570  0.34536160  0.23790091  1
  O  O10  1  0.36171570  0.89253931  0.23790091  1
  O  O11  1  0.63828501  0.10745974  0.76209873  1
  O  O12  1  0.63828501  0.65463799  0.76209873  1
