# generated using pymatgen
data_CaFeReO6
_symmetry_space_group_name_H-M   'P 1'
_cell_length_a   5.33793303
_cell_length_b   5.51484099
_cell_length_c   7.64696596
_cell_angle_alpha   90.00000000
_cell_angle_beta   90.06284494
_cell_angle_gamma   90.00000000
_symmetry_Int_Tables_number   1
_chemical_formula_structural   CaFeReO6
_chemical_formula_sum   'Ca2 Fe2 Re2 O12'
_cell_volume   225.11011561
_cell_formula_units_Z   2
loop_
 _symmetry_equiv_pos_site_id
 _symmetry_equiv_pos_as_xyz
  1  'x, y, z'
loop_
 _atom_site_type_symbol
 _atom_site_label
 _atom_site_symmetry_multiplicity
 _atom_site_fract_x
 _atom_site_fract_y
 _atom_site_fract_z
 _atom_site_occupancy
  Ca  Ca0  1  0.01506406  0.06141606  0.24725439  1
  Ca  Ca1  1  0.51506306  0.43858394  0.74725439  1
  Fe  Fe2  1  0.01159104  0.50624328  0.99871552  1
  Fe  Fe3  1  0.51159204  0.99375672  0.49871452  1
  Re  Re4  1  0.50370561  0.98726735  0.99781959  1
  Re  Re5  1  0.00370661  0.51273265  0.49782059  1
  O  O6  1  0.08281268  0.51874091  0.74145545  1
  O  O7  1  0.43133398  0.01016437  0.75819396  1
  O  O8  1  0.93133598  0.48983663  0.25819396  1
  O  O9  1  0.58281168  0.98125809  0.24145645  1
  O  O10  1  0.77508871  0.20541232  0.96827026  1
  O  O11  1  0.71189367  0.69687675  0.54450031  1
  O  O12  1  0.21189467  0.80312225  0.04450031  1
  O  O13  1  0.27508771  0.29458768  0.46827126  1
  O  O14  1  0.28985696  0.27115108  0.03470298  1
  O  O15  1  0.19280230  0.79046898  0.45668255  1
  O  O16  1  0.78985596  0.22884892  0.53470198  1
  O  O17  1  0.69280130  0.70953202  0.95668155  1
