# generated using pymatgen
data_Sb2S5
_symmetry_space_group_name_H-M   'P 1'
_cell_length_a   7.82243449
_cell_length_b   8.96168047
_cell_length_c   14.62369328
_cell_angle_alpha   113.83565625
_cell_angle_beta   90.00000000
_cell_angle_gamma   90.00000000
_symmetry_Int_Tables_number   1
_chemical_formula_structural   Sb2S5
_chemical_formula_sum   'Sb8 S20'
_cell_volume   937.71552480
_cell_formula_units_Z   4
loop_
 _symmetry_equiv_pos_site_id
 _symmetry_equiv_pos_as_xyz
  1  'x, y, z'
loop_
 _atom_site_type_symbol
 _atom_site_label
 _atom_site_symmetry_multiplicity
 _atom_site_fract_x
 _atom_site_fract_y
 _atom_site_fract_z
 _atom_site_occupancy
  Sb  Sb0  1  0.09787751  0.92029457  0.38151326  1
  Sb  Sb1  1  0.59787751  0.57970543  0.61848674  1
  Sb  Sb2  1  0.90212249  0.07970543  0.61848674  1
  Sb  Sb3  1  0.40212249  0.42029457  0.38151326  1
  Sb  Sb4  1  0.17775656  0.52891572  0.11888956  1
  Sb  Sb5  1  0.67775656  0.97108428  0.88111044  1
  Sb  Sb6  1  0.82224344  0.47108428  0.88111044  1
  Sb  Sb7  1  0.32224344  0.02891572  0.11888956  1
  S  S8  1  0.28279327  0.64302506  0.28875501  1
  S  S9  1  0.78279327  0.85697494  0.71124499  1
  S  S10  1  0.71720673  0.35697494  0.71124499  1
  S  S11  1  0.21720673  0.14302506  0.28875501  1
  S  S12  1  0.36473752  0.90312459  0.83264058  1
  S  S13  1  0.86473752  0.59687541  0.16735942  1
  S  S14  1  0.63526248  0.09687541  0.16735942  1
  S  S15  1  0.13526248  0.40312459  0.83264058  1
  S  S16  1  0.36120613  0.66181993  0.75045157  1
  S  S17  1  0.86120613  0.83818007  0.24954843  1
  S  S18  1  0.63879387  0.33818007  0.24954843  1
  S  S19  1  0.13879387  0.16181993  0.75045157  1
  S  S20  1  0.05267776  0.81619282  0.51114861  1
  S  S21  1  0.55267776  0.68380718  0.48885139  1
  S  S22  1  0.94732224  0.18380718  0.48885139  1
  S  S23  1  0.44732224  0.31619282  0.51114861  1
  S  S24  1  0.78081104  0.77831306  0.95157074  1
  S  S25  1  0.28081104  0.72168694  0.04842926  1
  S  S26  1  0.21918896  0.22168694  0.04842926  1
  S  S27  1  0.71918896  0.27831306  0.95157074  1
