# generated using pymatgen
data_Dy4Fe29Si5
_symmetry_space_group_name_H-M   'P 1'
_cell_length_a   6.37100954
_cell_length_b   6.36457679
_cell_length_c   12.74142129
_cell_angle_alpha   81.35046952
_cell_angle_beta   82.43453228
_cell_angle_gamma   82.41012179
_symmetry_Int_Tables_number   1
_chemical_formula_structural   Dy4Fe29Si5
_chemical_formula_sum   'Dy4 Fe29 Si5'
_cell_volume   502.99277779
_cell_formula_units_Z   1
loop_
 _symmetry_equiv_pos_site_id
 _symmetry_equiv_pos_as_xyz
  1  'x, y, z'
loop_
 _atom_site_type_symbol
 _atom_site_label
 _atom_site_symmetry_multiplicity
 _atom_site_fract_x
 _atom_site_fract_y
 _atom_site_fract_z
 _atom_site_occupancy
  Dy  Dy0  1  0.66182283  0.65064672  0.32671162  1
  Dy  Dy1  1  0.65403643  0.65566669  0.82616271  1
  Dy  Dy2  1  0.34596357  0.34433331  0.17383729  1
  Dy  Dy3  1  0.33817717  0.34935328  0.67328838  1
  Fe  Fe4  1  0.33683633  0.33349668  0.42550745  1
  Fe  Fe5  1  0.33830789  0.33870934  0.92204616  1
  Fe  Fe6  1  0.34145006  0.84499457  0.16912593  1
  Fe  Fe7  1  0.33466221  0.85039207  0.66720408  1
  Fe  Fe8  1  0.84502888  0.33902033  0.17046258  1
  Fe  Fe9  1  0.83433939  0.34634131  0.67163746  1
  Fe  Fe10  1  0.66169211  0.66129066  0.07795384  1
  Fe  Fe11  1  0.66316367  0.66650332  0.57449255  1
  Fe  Fe12  1  0.66533779  0.14960793  0.33279592  1
  Fe  Fe13  1  0.65854994  0.15500543  0.83087407  1
  Fe  Fe14  1  0.16566061  0.65365869  0.32836254  1
  Fe  Fe15  1  0.15497112  0.66097967  0.82953742  1
  Fe  Fe16  1  0.31496619  0.68843118  0.49856833  1
  Fe  Fe17  1  0.30489643  0.69576552  0.99947598  1
  Fe  Fe18  1  0.69656195  0.00014822  0.15301107  1
  Fe  Fe19  1  0.68492003  0.00461812  0.65415652  1
  Fe  Fe20  1  0.00057093  0.29283766  0.35363601  1
  Fe  Fe21  1  0.99851807  0.30090058  0.84969655  1
  Fe  Fe22  1  0.31507997  0.99538188  0.34584348  1
  Fe  Fe23  1  0.30343805  0.99985178  0.84698893  1
  Fe  Fe24  1  0.00148193  0.69909942  0.15030345  1
  Fe  Fe25  1  0.99942907  0.70716234  0.64636399  1
  Fe  Fe26  1  0.68503381  0.31156882  0.50143167  1
  Fe  Fe27  1  0.69510357  0.30423448  0.00052402  1
  Fe  Fe28  1  0.00347648  0.99807546  0.24999812  1
  Fe  Fe29  1  0.99652352  0.00192454  0.75000188  1
  Fe  Fe30  1  0.00000000  0.50000000  -0.00000000  1
  Fe  Fe31  1  0.00000000  0.50000000  0.50000000  1
  Fe  Fe32  1  0.50000000  -0.00000000  -0.00000000  1
  Si  Si33  1  0.50000000  -0.00000000  0.50000000  1
  Si  Si34  1  0.92831238  0.88837883  0.44423309  1
  Si  Si35  1  0.89967103  0.89849807  0.94979474  1
  Si  Si36  1  0.10032897  0.10150193  0.05020526  1
  Si  Si37  1  0.07168762  0.11162117  0.55576691  1
