# generated using pymatgen
data_La2MgCoO6
_symmetry_space_group_name_H-M   'P 1'
_cell_length_a   5.53247084
_cell_length_b   5.53247049
_cell_length_c   5.53247105
_cell_angle_alpha   61.03852911
_cell_angle_beta   61.03853016
_cell_angle_gamma   61.03853295
_symmetry_Int_Tables_number   1
_chemical_formula_structural   La2MgCoO6
_chemical_formula_sum   'La2 Mg1 Co1 O6'
_cell_volume   122.54120474
_cell_formula_units_Z   1
loop_
 _symmetry_equiv_pos_site_id
 _symmetry_equiv_pos_as_xyz
  1  'x, y, z'
loop_
 _atom_site_type_symbol
 _atom_site_label
 _atom_site_symmetry_multiplicity
 _atom_site_fract_x
 _atom_site_fract_y
 _atom_site_fract_z
 _atom_site_occupancy
  La  La0  1  0.75075186  0.75075186  0.75075186  1
  La  La1  1  0.24924814  0.24924814  0.24924814  1
  Mg  Mg2  1  0.50000000  0.50000000  0.50000000  1
  Co  Co3  1  0.00000000  0.00000000  0.00000000  1
  O  O4  1  0.31801650  0.75903159  0.16945301  1
  O  O5  1  0.75903159  0.16945301  0.31801650  1
  O  O6  1  0.16945301  0.31801650  0.75903159  1
  O  O7  1  0.68198350  0.24096841  0.83054699  1
  O  O8  1  0.83054699  0.68198350  0.24096841  1
  O  O9  1  0.24096841  0.83054699  0.68198350  1
