# generated using pymatgen
data_Ba2ZnCuBi2F14
_symmetry_space_group_name_H-M   'P 1'
_cell_length_a   5.37059286
_cell_length_b   7.76671622
_cell_length_c   16.18337031
_cell_angle_alpha   90.06880260
_cell_angle_beta   89.96194522
_cell_angle_gamma   110.16263467
_symmetry_Int_Tables_number   1
_chemical_formula_structural   Ba2ZnCuBi2F14
_chemical_formula_sum   'Ba4 Zn2 Cu2 Bi4 F28'
_cell_volume   633.67045751
_cell_formula_units_Z   2
loop_
 _symmetry_equiv_pos_site_id
 _symmetry_equiv_pos_as_xyz
  1  'x, y, z'
loop_
 _atom_site_type_symbol
 _atom_site_label
 _atom_site_symmetry_multiplicity
 _atom_site_fract_x
 _atom_site_fract_y
 _atom_site_fract_z
 _atom_site_occupancy
  Ba  Ba0  1  0.08308119  0.36183526  0.62697513  1
  Ba  Ba1  1  0.27945411  0.36252841  0.12771824  1
  Ba  Ba2  1  0.91570514  0.63450568  0.37332998  1
  Ba  Ba3  1  0.71853813  0.63558193  0.87331492  1
  Zn  Zn4  1  0.43806543  0.99965918  0.75085334  1
  Zn  Zn5  1  0.55967723  0.99681047  0.25086128  1
  Cu  Cu6  1  0.49813196  0.99887691  0.00030532  1
  Cu  Cu7  1  0.50034414  0.99807836  0.49983048  1
  Bi  Bi8  1  0.05697146  0.21622747  0.87793713  1
  Bi  Bi9  1  0.94047767  0.78242028  0.12302451  1
  Bi  Bi10  1  0.15928410  0.21488147  0.37766002  1
  Bi  Bi11  1  0.84052707  0.78211394  0.62268235  1
  F  F12  1  0.82041102  0.95654803  0.32804941  1
  F  F13  1  0.86665100  0.29301333  0.45479939  1
  F  F14  1  0.13077173  0.70318431  0.54497427  1
  F  F15  1  0.59953275  0.49235728  0.59915696  1
  F  F16  1  0.65804998  0.04822101  0.60764048  1
  F  F17  1  0.60668394  0.95051238  0.89241678  1
  F  F18  1  0.42472717  0.29543828  0.95587319  1
  F  F19  1  0.85703525  0.04044308  0.17181645  1
  F  F20  1  0.35105075  0.35809829  0.78146978  1
  F  F21  1  0.39889830  0.50463683  0.40173400  1
  F  F22  1  0.77193750  0.20960579  0.76333087  1
  F  F23  1  0.10850823  0.50713877  0.89932217  1
  F  F24  1  0.44242843  0.21014119  0.26400163  1
  F  F25  1  0.22812617  0.78630904  0.23673308  1
  F  F26  1  0.38867110  0.04766722  0.10810764  1
  F  F27  1  0.64919430  0.63726048  0.21984749  1
  F  F28  1  0.12700116  0.84645953  0.98664783  1
  F  F29  1  0.18157800  0.03936649  0.67179665  1
  F  F30  1  0.86840234  0.15099381  0.01404285  1
  F  F31  1  0.72146340  0.84784665  0.48613573  1
  F  F32  1  0.57170666  0.70265234  0.04534604  1
  F  F33  1  0.55872180  0.78800292  0.73694561  1
  F  F34  1  0.01557223  0.36164028  0.28122861  1
  F  F35  1  0.27881991  0.14840074  0.51358009  1
  F  F36  1  0.34374658  0.94866005  0.39173946  1
  F  F37  1  0.13827268  0.95794789  0.82863483  1
  F  F38  1  0.98523941  0.63561994  0.71898799  1
  F  F39  1  0.89190158  0.49253768  0.10034601  1
