# generated using pymatgen
data_CaV2O4
_symmetry_space_group_name_H-M   'P 1'
_cell_length_a   6.30344918
_cell_length_b   6.30774644
_cell_length_c   6.31924519
_cell_angle_alpha   90.06090970
_cell_angle_beta   119.86406697
_cell_angle_gamma   120.21252198
_symmetry_Int_Tables_number   1
_chemical_formula_structural   CaV2O4
_chemical_formula_sum   'Ca2 V4 O8'
_cell_volume   177.36283152
_cell_formula_units_Z   2
loop_
 _symmetry_equiv_pos_site_id
 _symmetry_equiv_pos_as_xyz
  1  'x, y, z'
loop_
 _atom_site_type_symbol
 _atom_site_label
 _atom_site_symmetry_multiplicity
 _atom_site_fract_x
 _atom_site_fract_y
 _atom_site_fract_z
 _atom_site_occupancy
  Ca  Ca0  1  0.24979586  0.12496916  0.87493138  1
  Ca  Ca1  1  0.75020602  0.87503312  0.12506809  1
  V  V2  1  0.49999883  0.99999885  0.50000000  1
  V  V3  1  0.50000264  0.50000112  0.50000213  1
  V  V4  1  -0.00000139  0.49999848  0.99999877  1
  V  V5  1  0.99999949  0.49999960  0.50000046  1
  O  O6  1  0.03714639  0.73404453  0.26444005  1
  O  O7  1  0.46845080  0.73531800  0.69673327  1
  O  O8  1  0.46259573  0.72595755  0.26482210  1
  O  O9  1  0.96943580  0.69855783  0.72872481  1
  O  O10  1  0.53740534  0.27404345  0.73517745  1
  O  O11  1  0.53154773  0.26468118  0.30326630  1
  O  O12  1  0.03056526  0.30144355  0.27127557  1
  O  O13  1  0.96285248  0.26595459  0.73555961  1
