# generated using pymatgen
data_ZnCu4(SnSe4)2
_symmetry_space_group_name_H-M   'P 1'
_cell_length_a   5.70786135
_cell_length_b   11.40275941
_cell_length_c   6.96068716
_cell_angle_alpha   114.07817507
_cell_angle_beta   114.10851350
_cell_angle_gamma   90.03855222
_symmetry_Int_Tables_number   1
_chemical_formula_structural   ZnCu4(SnSe4)2
_chemical_formula_sum   'Zn1 Cu4 Sn2 Se8'
_cell_volume   369.85315325
_cell_formula_units_Z   1
loop_
 _symmetry_equiv_pos_site_id
 _symmetry_equiv_pos_as_xyz
  1  'x, y, z'
loop_
 _atom_site_type_symbol
 _atom_site_label
 _atom_site_symmetry_multiplicity
 _atom_site_fract_x
 _atom_site_fract_y
 _atom_site_fract_z
 _atom_site_occupancy
  Zn  Zn0  1  0.99899223  0.50002001  0.99847888  1
  Cu  Cu1  1  0.23555529  0.37042717  0.49206789  1
  Cu  Cu2  1  0.26192036  0.88091612  0.50594482  1
  Cu  Cu3  1  0.75017599  0.12085290  0.49606442  1
  Cu  Cu4  1  0.74209368  0.62626483  0.49972889  1
  Sn  Sn5  1  0.49702510  0.24199191  0.99884866  1
  Sn  Sn6  1  0.50009883  0.75628383  0.99879574  1
  Se  Se7  1  0.62120329  0.31081304  0.72902275  1
  Se  Se8  1  0.63415991  0.81703548  0.73476893  1
  Se  Se9  1  0.37274762  0.44540809  0.26797554  1
  Se  Se10  1  0.36343282  0.94918346  0.25997824  1
  Se  Se11  1  0.89369617  0.17998847  0.26163477  1
  Se  Se12  1  0.89489133  0.68964190  0.26979142  1
  Se  Se13  1  0.09922614  0.04907226  0.73322288  1
  Se  Se14  1  0.10449424  0.55308853  0.72831218  1
