# generated using pymatgen
data_Mg2FeIrO6
_symmetry_space_group_name_H-M   'P 1'
_cell_length_a   5.14318107
_cell_length_b   5.32963783
_cell_length_c   7.59766838
_cell_angle_alpha   90.00000000
_cell_angle_beta   90.39992034
_cell_angle_gamma   90.00000000
_symmetry_Int_Tables_number   1
_chemical_formula_structural   Mg2FeIrO6
_chemical_formula_sum   'Mg4 Fe2 Ir2 O12'
_cell_volume   208.25683652
_cell_formula_units_Z   2
loop_
 _symmetry_equiv_pos_site_id
 _symmetry_equiv_pos_as_xyz
  1  'x, y, z'
loop_
 _atom_site_type_symbol
 _atom_site_label
 _atom_site_symmetry_multiplicity
 _atom_site_fract_x
 _atom_site_fract_y
 _atom_site_fract_z
 _atom_site_occupancy
  Mg  Mg0  1  0.01174629  0.93908215  0.24811055  1
  Mg  Mg1  1  0.48825371  0.43908215  0.25188945  1
  Mg  Mg2  1  0.51174629  0.56091785  0.74811055  1
  Mg  Mg3  1  0.98825371  0.06091785  0.75188945  1
  Fe  Fe4  1  0.00000000  0.50000000  0.00000000  1
  Fe  Fe5  1  0.50000000  0.00000000  0.50000000  1
  Ir  Ir6  1  0.00000000  0.50000000  0.50000000  1
  Ir  Ir7  1  0.50000000  0.00000000  0.00000000  1
  O  O8  1  0.13472477  0.43074295  0.74539544  1
  O  O9  1  0.18248897  0.18490593  0.07074513  1
  O  O10  1  0.17626427  0.18754493  0.42697578  1
  O  O11  1  0.32373573  0.68754493  0.07302422  1
  O  O12  1  0.31751103  0.68490593  0.42925487  1
  O  O13  1  0.36527523  0.93074295  0.75460456  1
  O  O14  1  0.63472477  0.06925705  0.24539544  1
  O  O15  1  0.68248897  0.31509407  0.57074513  1
  O  O16  1  0.67626427  0.31245507  0.92697578  1
  O  O17  1  0.81751103  0.81509407  0.92925487  1
  O  O18  1  0.82373573  0.81245507  0.57302422  1
  O  O19  1  0.86527523  0.56925705  0.25460456  1
