# generated using pymatgen
data_TeO3
_symmetry_space_group_name_H-M   'P 1'
_cell_length_a   5.10700430
_cell_length_b   5.27332600
_cell_length_c   7.37632302
_cell_angle_alpha   89.98361062
_cell_angle_beta   89.98411896
_cell_angle_gamma   90.00270709
_symmetry_Int_Tables_number   1
_chemical_formula_structural   TeO3
_chemical_formula_sum   'Te4 O12'
_cell_volume   198.65099140
_cell_formula_units_Z   4
loop_
 _symmetry_equiv_pos_site_id
 _symmetry_equiv_pos_as_xyz
  1  'x, y, z'
loop_
 _atom_site_type_symbol
 _atom_site_label
 _atom_site_symmetry_multiplicity
 _atom_site_fract_x
 _atom_site_fract_y
 _atom_site_fract_z
 _atom_site_occupancy
  Te  Te0  1  0.50004137  -0.00022778  0.00079480  1
  Te  Te1  1  0.00030028  0.50025394  0.99912125  1
  Te  Te2  1  0.99990736  0.49984865  0.49928833  1
  Te  Te3  1  0.49974008  0.99968199  0.50094111  1
  O  O4  1  0.87691065  0.52149131  0.74909398  1
  O  O5  1  0.37762607  0.97647186  0.25091579  1
  O  O6  1  0.62321683  0.02151202  0.75087023  1
  O  O7  1  0.12238986  0.47642810  0.24910067  1
  O  O8  1  0.68391825  0.31015952  0.44006856  1
  O  O9  1  0.18528128  0.19085236  0.56157212  1
  O  O10  1  0.81607773  0.81044799  0.05976665  1
  O  O11  1  0.31472133  0.69122849  0.93846428  1
  O  O12  1  0.68404173  0.31097750  0.05988032  1
  O  O13  1  0.18531420  0.19027818  0.93864316  1
  O  O14  1  0.31476561  0.68997722  0.56135799  1
  O  O15  1  0.81574736  0.81061664  0.44012276  1
