# generated using pymatgen
data_CaSnP2O7
_symmetry_space_group_name_H-M   'P 1'
_cell_length_a   6.94663716
_cell_length_b   6.87417039
_cell_length_c   7.03304764
_cell_angle_alpha   65.11895097
_cell_angle_beta   85.81096981
_cell_angle_gamma   84.58094661
_symmetry_Int_Tables_number   1
_chemical_formula_structural   CaSnP2O7
_chemical_formula_sum   'Ca2 Sn2 P4 O14'
_cell_volume   303.10454165
_cell_formula_units_Z   2
loop_
 _symmetry_equiv_pos_site_id
 _symmetry_equiv_pos_as_xyz
  1  'x, y, z'
loop_
 _atom_site_type_symbol
 _atom_site_label
 _atom_site_symmetry_multiplicity
 _atom_site_fract_x
 _atom_site_fract_y
 _atom_site_fract_z
 _atom_site_occupancy
  Ca  Ca0  1  0.86216945  0.26970505  0.16340486  1
  Ca  Ca1  1  0.13783055  0.73029495  0.83659514  1
  Sn  Sn2  1  0.66394166  0.11154575  0.74640873  1
  Sn  Sn3  1  0.33605834  0.88845425  0.25359127  1
  P  P4  1  0.15349827  0.23576563  0.74063964  1
  P  P5  1  0.84650173  0.76423437  0.25936036  1
  P  P6  1  0.65068814  0.64640784  0.69401032  1
  P  P7  1  0.34931186  0.35359216  0.30598968  1
  O  O8  1  0.72935991  0.62367643  0.47432224  1
  O  O9  1  0.27064009  0.37632357  0.52567776  1
  O  O10  1  0.99387573  0.12583907  0.68818820  1
  O  O11  1  0.00612427  0.87416093  0.31181180  1
  O  O12  1  0.55686628  0.25421848  0.34395280  1
  O  O13  1  0.44313372  0.74578152  0.65604720  1
  O  O14  1  0.33163995  0.58456226  0.13792367  1
  O  O15  1  0.66836005  0.41543774  0.86207533  1
  O  O16  1  0.91494320  0.60839210  0.16281629  1
  O  O17  1  0.08505680  0.39160790  0.83718371  1
  O  O18  1  0.70811742  0.95396037  0.11715129  1
  O  O19  1  0.29188258  0.04603963  0.88284871  1
  O  O20  1  0.20973385  0.20962406  0.27352947  1
  O  O21  1  0.79026615  0.79037594  0.72647053  1
