# generated using pymatgen
data_Y2W2O7
_symmetry_space_group_name_H-M   'P 1'
_cell_length_a   7.49035501
_cell_length_b   7.48941060
_cell_length_c   7.43383370
_cell_angle_alpha   58.86274265
_cell_angle_beta   58.85997043
_cell_angle_gamma   59.18136214
_symmetry_Int_Tables_number   1
_chemical_formula_structural   Y2W2O7
_chemical_formula_sum   'Y4 W4 O14'
_cell_volume   287.93278923
_cell_formula_units_Z   2
loop_
 _symmetry_equiv_pos_site_id
 _symmetry_equiv_pos_as_xyz
  1  'x, y, z'
loop_
 _atom_site_type_symbol
 _atom_site_label
 _atom_site_symmetry_multiplicity
 _atom_site_fract_x
 _atom_site_fract_y
 _atom_site_fract_z
 _atom_site_occupancy
  Y  Y0  1  0.50000000  0.99999978  0.50000028  1
  Y  Y1  1  0.99999966  0.50000003  0.49999987  1
  Y  Y2  1  0.49999989  0.50000012  0.00000019  1
  Y  Y3  1  0.50000019  0.50000009  0.49999978  1
  W  W4  1  0.00000041  0.49999956  0.99999996  1
  W  W5  1  0.50000018  -0.00000007  0.00000021  1
  W  W6  1  0.00000025  -0.00000007  0.49999981  1
  W  W7  1  -0.00000019  0.00000008  0.00000012  1
  O  O8  1  0.62496442  0.62487659  0.62675404  1
  O  O9  1  0.37503511  0.37512325  0.37324625  1
  O  O10  1  0.32779741  0.91215350  0.92140594  1
  O  O11  1  0.09296124  0.64436806  0.65778187  1
  O  O12  1  0.91200728  0.32786321  0.92156655  1
  O  O13  1  0.91057481  0.91027951  0.33112443  1
  O  O14  1  0.33876565  0.33870276  0.92897215  1
  O  O15  1  0.35563770  0.90732799  0.34225904  1
  O  O16  1  0.90703867  0.35563140  0.34221871  1
  O  O17  1  0.66123389  0.66129774  0.07102794  1
  O  O18  1  0.08942571  0.08972054  0.66887461  1
  O  O19  1  0.67220266  0.08784667  0.07859389  1
  O  O20  1  0.64436231  0.09267243  0.65774092  1
  O  O21  1  0.08799275  0.67213684  0.07843345  1
