# generated using pymatgen
data_LiMn4O8
_symmetry_space_group_name_H-M   'P 1'
_cell_length_a   5.70683373
_cell_length_b   5.70667517
_cell_length_c   9.48908306
_cell_angle_alpha   89.64778778
_cell_angle_beta   89.63082725
_cell_angle_gamma   117.58736669
_symmetry_Int_Tables_number   1
_chemical_formula_structural   LiMn4O8
_chemical_formula_sum   'Li2 Mn8 O16'
_cell_volume   273.87607973
_cell_formula_units_Z   2
loop_
 _symmetry_equiv_pos_site_id
 _symmetry_equiv_pos_as_xyz
  1  'x, y, z'
loop_
 _atom_site_type_symbol
 _atom_site_label
 _atom_site_symmetry_multiplicity
 _atom_site_fract_x
 _atom_site_fract_y
 _atom_site_fract_z
 _atom_site_occupancy
  Li  Li0  1  0.37092464  0.87421242  0.07501861  1
  Li  Li1  1  0.62413456  0.62086921  0.57496038  1
  Mn  Mn2  1  0.87269894  0.88256141  0.86354917  1
  Mn  Mn3  1  0.36873386  0.37908373  0.86495921  1
  Mn  Mn4  1  0.11762640  0.13259474  0.13888758  1
  Mn  Mn5  1  0.64701864  0.60695205  0.13980448  1
  Mn  Mn6  1  0.35694777  0.89699737  0.63981428  1
  Mn  Mn7  1  0.88272013  0.36766400  0.63893997  1
  Mn  Mn8  1  0.63243395  0.12264296  0.36319632  1
  Mn  Mn9  1  0.12925942  0.61883843  0.36463545  1
  O  O10  1  0.22370176  0.02971932  0.78802816  1
  O  O11  1  0.72167572  0.53007137  0.77674646  1
  O  O12  1  0.76579305  0.98128481  0.21677644  1
  O  O13  1  0.27708003  0.48569660  0.21447344  1
  O  O14  1  0.73121590  0.01577517  0.71654835  1
  O  O15  1  0.23568810  0.52706229  0.71418679  1
  O  O16  1  0.28021810  0.97188096  0.27690970  1
  O  O17  1  0.77989652  0.47392049  0.28820285  1
  O  O18  1  0.53329894  0.71567975  0.96310759  1
  O  O19  1  0.02172712  0.22948471  0.95982243  1
  O  O20  1  0.45293780  0.24960980  0.03853747  1
  O  O21  1  0.99039302  0.78899014  0.04587514  1
  O  O22  1  0.46562289  0.78331092  0.46287803  1
  O  O23  1  0.97928946  0.27155800  0.45949658  1
  O  O24  1  0.53922184  0.24044737  0.54557239  1
  O  O25  1  -0.00030255  0.70303597  0.53827176  1
