# generated using pymatgen
data_LaYMg6
_symmetry_space_group_name_H-M   'P 1'
_cell_length_a   6.69629825
_cell_length_b   6.69629741
_cell_length_c   5.23569786
_cell_angle_alpha   90.00000000
_cell_angle_beta   90.00000000
_cell_angle_gamma   116.73277092
_symmetry_Int_Tables_number   1
_chemical_formula_structural   LaYMg6
_chemical_formula_sum   'La1 Y1 Mg6'
_cell_volume   209.67715636
_cell_formula_units_Z   1
loop_
 _symmetry_equiv_pos_site_id
 _symmetry_equiv_pos_as_xyz
  1  'x, y, z'
loop_
 _atom_site_type_symbol
 _atom_site_label
 _atom_site_symmetry_multiplicity
 _atom_site_fract_x
 _atom_site_fract_y
 _atom_site_fract_z
 _atom_site_occupancy
  La  La0  1  0.40056100  0.09943900  0.75000000  1
  Y  Y1  1  0.09804324  0.40195676  0.25000000  1
  Mg  Mg2  1  0.06522531  0.88498390  0.25000000  1
  Mg  Mg3  1  0.61501610  0.43477469  0.25000000  1
  Mg  Mg4  1  0.58614385  0.91385615  0.25000000  1
  Mg  Mg5  1  0.42977431  0.61324600  0.75000000  1
  Mg  Mg6  1  0.88675400  0.07022569  0.75000000  1
  Mg  Mg7  1  0.91848219  0.58151781  0.75000000  1
