# generated using pymatgen
data_NdPbAu
_symmetry_space_group_name_H-M   'P 1'
_cell_length_a   4.89468867
_cell_length_b   4.89437517
_cell_length_c   7.70663664
_cell_angle_alpha   90.00000000
_cell_angle_beta   90.00000000
_cell_angle_gamma   120.00211893
_symmetry_Int_Tables_number   1
_chemical_formula_structural   NdPbAu
_chemical_formula_sum   'Nd2 Pb2 Au2'
_cell_volume   159.88531297
_cell_formula_units_Z   2
loop_
 _symmetry_equiv_pos_site_id
 _symmetry_equiv_pos_as_xyz
  1  'x, y, z'
loop_
 _atom_site_type_symbol
 _atom_site_label
 _atom_site_symmetry_multiplicity
 _atom_site_fract_x
 _atom_site_fract_y
 _atom_site_fract_z
 _atom_site_occupancy
  Nd  Nd0  1  0.00000000  0.00000000  0.50000000  1
  Nd  Nd1  1  0.00000000  0.00000000  0.00000000  1
  Pb  Pb2  1  0.33333240  0.66666480  0.75000000  1
  Pb  Pb3  1  0.66666760  0.33333520  0.25000000  1
  Au  Au4  1  0.33332291  0.66664583  0.25000000  1
  Au  Au5  1  0.66667709  0.33335417  0.75000000  1
