# generated using pymatgen
data_Ce3ZrO8
_symmetry_space_group_name_H-M   'P 1'
_cell_length_a   5.43929993
_cell_length_b   7.66242303
_cell_length_c   7.66242303
_cell_angle_alpha   90.37486985
_cell_angle_beta   90.16466144
_cell_angle_gamma   90.16466143
_symmetry_Int_Tables_number   1
_chemical_formula_structural   Ce3ZrO8
_chemical_formula_sum   'Ce6 Zr2 O16'
_cell_volume   319.34664008
_cell_formula_units_Z   2
loop_
 _symmetry_equiv_pos_site_id
 _symmetry_equiv_pos_as_xyz
  1  'x, y, z'
loop_
 _atom_site_type_symbol
 _atom_site_label
 _atom_site_symmetry_multiplicity
 _atom_site_fract_x
 _atom_site_fract_y
 _atom_site_fract_z
 _atom_site_occupancy
  Ce  Ce0  1  0.00969124  0.00715216  0.00294538  1
  Ce  Ce1  1  0.00000000  0.00041693  0.49958307  1
  Ce  Ce2  1  0.50963135  0.25296530  0.75716609  1
  Ce  Ce3  1  0.49036865  0.74283391  0.24703570  1
  Ce  Ce4  1  0.99030876  0.49705462  0.49284784  1
  Ce  Ce5  1  0.50000000  0.74958277  0.75041723  1
  Zr  Zr6  1  0.50000000  0.24271949  0.25728051  1
  Zr  Zr7  1  0.00000000  0.50720988  0.99279012  1
  O  O8  1  0.30601493  0.23903450  0.01975849  1
  O  O9  1  0.23712165  0.99312917  0.25810982  1
  O  O10  1  0.72652694  0.01888379  0.23897232  1
  O  O11  1  0.80599553  0.26977961  0.98903604  1
  O  O12  1  0.27347306  0.26102768  0.48111621  1
  O  O13  1  0.24764514  0.01088343  0.74395653  1
  O  O14  1  0.74765523  0.99399769  0.76093246  1
  O  O15  1  0.76287835  0.24189018  0.50687083  1
  O  O16  1  0.26306215  0.75700317  0.99196989  1
  O  O17  1  0.19400447  0.51096396  0.23022039  1
  O  O18  1  0.69398507  0.48024151  0.26096550  1
  O  O19  1  0.77358637  0.73103422  0.01094310  1
  O  O20  1  0.25234477  0.73906754  0.50600231  1
  O  O21  1  0.22641363  0.48905690  0.76896578  1
  O  O22  1  0.73693785  0.50803011  0.74299683  1
  O  O23  1  0.75235386  0.75604347  0.48911657  1
