# generated using pymatgen
data_CrGaFeSe4
_symmetry_space_group_name_H-M   'P 1'
_cell_length_a   3.84243148
_cell_length_b   3.84243101
_cell_length_c   12.95889271
_cell_angle_alpha   81.47420608
_cell_angle_beta   98.52579479
_cell_angle_gamma   120.00000380
_symmetry_Int_Tables_number   1
_chemical_formula_structural   CrGaFeSe4
_chemical_formula_sum   'Cr1 Ga1 Fe1 Se4'
_cell_volume   163.24951907
_cell_formula_units_Z   1
loop_
 _symmetry_equiv_pos_site_id
 _symmetry_equiv_pos_as_xyz
  1  'x, y, z'
loop_
 _atom_site_type_symbol
 _atom_site_label
 _atom_site_symmetry_multiplicity
 _atom_site_fract_x
 _atom_site_fract_y
 _atom_site_fract_z
 _atom_site_occupancy
  Cr  Cr0  1  0.50031371  0.49968629  0.50094112  1
  Ga  Ga1  1  0.06968005  0.93031995  0.20904014  1
  Fe  Fe2  1  0.93189870  0.06810130  0.79569611  1
  Se  Se3  1  0.70782830  0.29217170  0.12348491  1
  Se  Se4  1  0.28969650  0.71030350  0.86908951  1
  Se  Se5  1  0.86778003  0.13221997  0.60334010  1
  Se  Se6  1  0.13280270  0.86719730  0.39840811  1
