# generated using pymatgen
data_K2S2O3
_symmetry_space_group_name_H-M   'P 1'
_cell_length_a   9.29210023
_cell_length_b   10.24837241
_cell_length_c   13.51636052
_cell_angle_alpha   111.88355003
_cell_angle_beta   90.00000000
_cell_angle_gamma   90.00000000
_symmetry_Int_Tables_number   1
_chemical_formula_structural   K2S2O3
_chemical_formula_sum   'K16 S16 O24'
_cell_volume   1194.40054560
_cell_formula_units_Z   8
loop_
 _symmetry_equiv_pos_site_id
 _symmetry_equiv_pos_as_xyz
  1  'x, y, z'
loop_
 _atom_site_type_symbol
 _atom_site_label
 _atom_site_symmetry_multiplicity
 _atom_site_fract_x
 _atom_site_fract_y
 _atom_site_fract_z
 _atom_site_occupancy
  K  K0  1  0.81102224  0.58265122  0.44695313  1
  K  K1  1  0.31102224  0.41734878  0.05304687  1
  K  K2  1  0.18897776  0.41734878  0.55304687  1
  K  K3  1  0.68897776  0.58265122  0.94695313  1
  K  K4  1  0.51162679  0.78395568  0.30522000  1
  K  K5  1  0.01162679  0.21604432  0.19478000  1
  K  K6  1  0.48837321  0.21604432  0.69478000  1
  K  K7  1  0.98837321  0.78395568  0.80522000  1
  K  K8  1  0.82509269  0.12118140  0.46036116  1
  K  K9  1  0.32509269  0.87881860  0.03963884  1
  K  K10  1  0.17490731  0.87881860  0.53963884  1
  K  K11  1  0.67490731  0.12118140  0.96036116  1
  K  K12  1  0.99090566  0.73504432  0.20600597  1
  K  K13  1  0.49090566  0.26495568  0.29399403  1
  K  K14  1  0.00909434  0.26495568  0.79399403  1
  K  K15  1  0.50909434  0.73504432  0.70600597  1
  S  S16  1  0.84885223  0.90479987  0.05739475  1
  S  S17  1  0.34885223  0.09520013  0.44260525  1
  S  S18  1  0.15114777  0.09520013  0.94260525  1
  S  S19  1  0.65114777  0.90479987  0.55739475  1
  S  S20  1  0.88483979  0.40822155  0.06465417  1
  S  S21  1  0.38483979  0.59177845  0.43534583  1
  S  S22  1  0.11516021  0.59177845  0.93534583  1
  S  S23  1  0.61516021  0.40822155  0.56465417  1
  S  S24  1  0.66602820  0.94106014  0.14572690  1
  S  S25  1  0.16602820  0.05893986  0.35427310  1
  S  S26  1  0.33397180  0.05893986  0.85427310  1
  S  S27  1  0.83397180  0.94106014  0.64572690  1
  S  S28  1  0.72889475  0.45682598  0.17857093  1
  S  S29  1  0.22889475  0.54317402  0.32142907  1
  S  S30  1  0.27110525  0.54317402  0.82142907  1
  S  S31  1  0.77110525  0.45682598  0.67857093  1
  O  O32  1  0.58383489  0.80624905  0.11502845  1
  O  O33  1  0.08383489  0.19375095  0.38497155  1
  O  O34  1  0.41616511  0.19375095  0.88497155  1
  O  O35  1  0.91616511  0.80624905  0.61502845  1
  O  O36  1  0.07694102  0.95363630  0.37847324  1
  O  O37  1  0.57694102  0.04636370  0.12152676  1
  O  O38  1  0.92305898  0.04636370  0.62152676  1
  O  O39  1  0.42305898  0.95363630  0.87847324  1
  O  O40  1  0.70533287  0.99302392  0.26070590  1
  O  O41  1  0.20533287  0.00697608  0.23929410  1
  O  O42  1  0.29466713  0.00697608  0.73929410  1
  O  O43  1  0.79466713  0.99302392  0.76070590  1
  O  O44  1  0.74514451  0.60815522  0.24880432  1
  O  O45  1  0.24514451  0.39184478  0.25119568  1
  O  O46  1  0.25485549  0.39184478  0.75119568  1
  O  O47  1  0.75485549  0.60815522  0.74880432  1
  O  O48  1  0.75005255  0.36766387  0.24323977  1
  O  O49  1  0.25005255  0.63233613  0.25676023  1
  O  O50  1  0.24994745  0.63233613  0.75676023  1
  O  O51  1  0.74994745  0.36766387  0.74323977  1
  O  O52  1  0.58685427  0.42904706  0.12424042  1
  O  O53  1  0.08685427  0.57095294  0.37575958  1
  O  O54  1  0.41314573  0.57095294  0.87575958  1
  O  O55  1  0.91314573  0.42904706  0.62424042  1
