# generated using pymatgen
data_VO2
_symmetry_space_group_name_H-M   'P 1'
_cell_length_a   5.15044264
_cell_length_b   5.48363799
_cell_length_c   9.21873736
_cell_angle_alpha   89.42372353
_cell_angle_beta   90.00171079
_cell_angle_gamma   90.00365338
_symmetry_Int_Tables_number   1
_chemical_formula_structural   VO2
_chemical_formula_sum   'V8 O16'
_cell_volume   260.35313145
_cell_formula_units_Z   8
loop_
 _symmetry_equiv_pos_site_id
 _symmetry_equiv_pos_as_xyz
  1  'x, y, z'
loop_
 _atom_site_type_symbol
 _atom_site_label
 _atom_site_symmetry_multiplicity
 _atom_site_fract_x
 _atom_site_fract_y
 _atom_site_fract_z
 _atom_site_occupancy
  V  V0  1  0.63118489  0.11034489  0.63049462  1
  V  V1  1  0.35715115  0.40243495  0.12677602  1
  V  V2  1  0.85714920  0.59750843  0.37312966  1
  V  V3  1  0.13122153  0.88973696  0.86960080  1
  V  V4  1  0.36885690  0.88958330  0.36960397  1
  V  V5  1  0.64289061  0.59770312  0.87314039  1
  V  V6  1  0.14275246  0.40233872  0.62678170  1
  V  V7  1  0.86883265  0.11035704  0.13054318  1
  O  O8  1  0.32892418  0.15034580  0.51533481  1
  O  O9  1  0.68659078  0.35540055  0.00414252  1
  O  O10  1  0.18668084  0.64456886  0.49577935  1
  O  O11  1  0.82898891  0.84955061  0.98471030  1
  O  O12  1  0.67101275  0.84949296  0.48471398  1
  O  O13  1  0.31342657  0.64487525  0.99592014  1
  O  O14  1  0.81331892  0.35519506  0.50406838  1
  O  O15  1  0.17095664  0.15056912  0.01529802  1
  O  O16  1  0.95459314  0.11281455  0.72529789  1
  O  O17  1  0.03854942  0.38871223  0.23042086  1
  O  O18  1  0.53858522  0.61121438  0.26957018  1
  O  O19  1  0.45462955  0.88725988  0.77474771  1
  O  O20  1  0.04540964  0.88709968  0.27465978  1
  O  O21  1  0.96150287  0.61124607  0.76957904  1
  O  O22  1  0.46142384  0.38885660  0.73036073  1
  O  O23  1  0.54536734  0.11279198  0.22532596  1
