# generated using pymatgen
data_La3BN2O3
_symmetry_space_group_name_H-M   'P 1'
_cell_length_a   3.71563542
_cell_length_b   11.06076418
_cell_length_c   12.74595297
_cell_angle_alpha   90.00000000
_cell_angle_beta   90.00000000
_cell_angle_gamma   90.00000000
_symmetry_Int_Tables_number   1
_chemical_formula_structural   La3BN2O3
_chemical_formula_sum   'La12 B4 N8 O12'
_cell_volume   523.83020739
_cell_formula_units_Z   4
loop_
 _symmetry_equiv_pos_site_id
 _symmetry_equiv_pos_as_xyz
  1  'x, y, z'
loop_
 _atom_site_type_symbol
 _atom_site_label
 _atom_site_symmetry_multiplicity
 _atom_site_fract_x
 _atom_site_fract_y
 _atom_site_fract_z
 _atom_site_occupancy
  La  La0  1  0.25000000  0.41751041  0.38393691  1
  La  La1  1  0.25000000  0.08248959  0.88393691  1
  La  La2  1  0.75000000  0.58248959  0.61606309  1
  La  La3  1  0.75000000  0.91751041  0.11606309  1
  La  La4  1  0.25000000  0.27529944  0.62751306  1
  La  La5  1  0.25000000  0.22470056  0.12751306  1
  La  La6  1  0.75000000  0.72470056  0.37248694  1
  La  La7  1  0.75000000  0.77529944  0.87248694  1
  La  La8  1  0.75000000  0.11123446  0.38543513  1
  La  La9  1  0.75000000  0.38876554  0.88543513  1
  La  La10  1  0.25000000  0.88876554  0.61456487  1
  La  La11  1  0.25000000  0.61123446  0.11456487  1
  B  B12  1  0.75000000  0.08156244  0.70956975  1
  B  B13  1  0.75000000  0.41843756  0.20956975  1
  B  B14  1  0.25000000  0.91843756  0.29043025  1
  B  B15  1  0.25000000  0.58156244  0.79043025  1
  N  N16  1  0.25000000  0.46748583  0.73294944  1
  N  N17  1  0.25000000  0.03251417  0.23294944  1
  N  N18  1  0.75000000  0.53251417  0.26705056  1
  N  N19  1  0.75000000  0.96748583  0.76705056  1
  N  N20  1  0.75000000  0.19961483  0.76148802  1
  N  N21  1  0.75000000  0.30038517  0.26148802  1
  N  N22  1  0.25000000  0.80038517  0.23851198  1
  N  N23  1  0.25000000  0.69961483  0.73851198  1
  O  O24  1  0.25000000  0.60972696  0.46678004  1
  O  O25  1  0.25000000  0.89027304  0.96678004  1
  O  O26  1  0.75000000  0.39027304  0.53321996  1
  O  O27  1  0.75000000  0.10972696  0.03321996  1
  O  O28  1  0.25000000  0.21070529  0.44610400  1
  O  O29  1  0.25000000  0.28929471  0.94610400  1
  O  O30  1  0.75000000  0.78929471  0.55389600  1
  O  O31  1  0.75000000  0.71070529  0.05389600  1
  O  O32  1  0.75000000  0.07861298  0.59597883  1
  O  O33  1  0.75000000  0.42138702  0.09597883  1
  O  O34  1  0.25000000  0.92138702  0.40402117  1
  O  O35  1  0.25000000  0.57861298  0.90402117  1
