# generated using pymatgen
data_Cr3GaFe3As2
_symmetry_space_group_name_H-M   'P 1'
_cell_length_a   3.81982240
_cell_length_b   6.00280868
_cell_length_c   6.00129435
_cell_angle_alpha   120.00834029
_cell_angle_beta   90.00000000
_cell_angle_gamma   90.00000000
_symmetry_Int_Tables_number   1
_chemical_formula_structural   Cr3GaFe3As2
_chemical_formula_sum   'Cr3 Ga1 Fe3 As2'
_cell_volume   119.16171032
_cell_formula_units_Z   1
loop_
 _symmetry_equiv_pos_site_id
 _symmetry_equiv_pos_as_xyz
  1  'x, y, z'
loop_
 _atom_site_type_symbol
 _atom_site_label
 _atom_site_symmetry_multiplicity
 _atom_site_fract_x
 _atom_site_fract_y
 _atom_site_fract_z
 _atom_site_occupancy
  Cr  Cr0  1  0.50000000  0.57488146  1.00000000  1
  Cr  Cr1  1  0.50000000  0.42529751  0.42532759  1
  Cr  Cr2  1  0.50000000  0.99996992  0.57467241  1
  Ga  Ga3  1  0.50000000  0.00000058  1.00000000  1
  Fe  Fe4  1  -0.00000000  0.24215140  1.00000000  1
  Fe  Fe5  1  -0.00000000  0.75771143  0.75776140  1
  Fe  Fe6  1  -0.00000000  0.99995003  0.24223860  1
  As  As7  1  0.00000000  0.33331879  0.66669991  1
  As  As8  1  0.00000000  0.66661888  0.33330009  1
