# generated using pymatgen
data_Ti(NbSe2)2
_symmetry_space_group_name_H-M   'P 1'
_cell_length_a   3.50607347
_cell_length_b   6.39055126
_cell_length_c   7.20305336
_cell_angle_alpha   114.44817451
_cell_angle_beta   104.08576927
_cell_angle_gamma   90.00000000
_symmetry_Int_Tables_number   1
_chemical_formula_structural   Ti(NbSe2)2
_chemical_formula_sum   'Ti1 Nb2 Se4'
_cell_volume   141.57117118
_cell_formula_units_Z   1
loop_
 _symmetry_equiv_pos_site_id
 _symmetry_equiv_pos_as_xyz
  1  'x, y, z'
loop_
 _atom_site_type_symbol
 _atom_site_label
 _atom_site_symmetry_multiplicity
 _atom_site_fract_x
 _atom_site_fract_y
 _atom_site_fract_z
 _atom_site_occupancy
  Ti  Ti0  1  0.00000000  0.00000000  -0.00000000  1
  Nb  Nb1  1  0.74338897  0.67700081  0.48677794  1
  Nb  Nb2  1  0.25661103  0.32299919  0.51322206  1
  Se  Se3  1  0.10151002  0.44550353  0.20302004  1
  Se  Se4  1  0.89848998  0.55449647  0.79697996  1
  Se  Se5  1  0.36298231  0.02514437  0.72596461  1
  Se  Se6  1  0.63701769  0.97485563  0.27403539  1
