# generated using pymatgen
data_MoW3(SeS)4
_symmetry_space_group_name_H-M   'P 1'
_cell_length_a   3.25709280
_cell_length_b   3.25707903
_cell_length_c   36.94139768
_cell_angle_alpha   90.00029772
_cell_angle_beta   90.00000104
_cell_angle_gamma   120.00014057
_symmetry_Int_Tables_number   1
_chemical_formula_structural   MoW3(SeS)4
_chemical_formula_sum   'Mo1 W3 Se4 S4'
_cell_volume   339.39213119
_cell_formula_units_Z   1
loop_
 _symmetry_equiv_pos_site_id
 _symmetry_equiv_pos_as_xyz
  1  'x, y, z'
loop_
 _atom_site_type_symbol
 _atom_site_label
 _atom_site_symmetry_multiplicity
 _atom_site_fract_x
 _atom_site_fract_y
 _atom_site_fract_z
 _atom_site_occupancy
  Mo  Mo0  1  0.33331203  0.66662317  0.09391039  1
  W  W1  1  0.33331096  0.66662134  0.46971905  1
  W  W2  1  0.66668428  0.33337013  0.28175806  1
  W  W3  1  0.66668989  0.33337998  0.65756586  1
  Se  Se4  1  0.33334683  0.66669409  0.32797236  1
  Se  Se5  1  0.66665014  0.33330042  0.42346705  1
  Se  Se6  1  0.66665259  0.33330571  0.51591126  1
  Se  Se7  1  0.33334430  0.66668891  0.23551354  1
  S  S8  1  0.33335559  0.66671048  0.69952385  1
  S  S9  1  0.66664719  0.33329437  0.05215709  1
  S  S10  1  0.66664971  0.33329953  0.13565908  1
  S  S11  1  0.33335650  0.66671190  0.61559040  1
