# generated using pymatgen
data_Cr2NiSe4
_symmetry_space_group_name_H-M   'P 1'
_cell_length_a   3.60701151
_cell_length_b   6.29379308
_cell_length_c   6.58649566
_cell_angle_alpha   116.33026175
_cell_angle_beta   105.89162940
_cell_angle_gamma   90.00000000
_symmetry_Int_Tables_number   1
_chemical_formula_structural   Cr2NiSe4
_chemical_formula_sum   'Cr2 Ni1 Se4'
_cell_volume   127.60480070
_cell_formula_units_Z   1
loop_
 _symmetry_equiv_pos_site_id
 _symmetry_equiv_pos_as_xyz
  1  'x, y, z'
loop_
 _atom_site_type_symbol
 _atom_site_label
 _atom_site_symmetry_multiplicity
 _atom_site_fract_x
 _atom_site_fract_y
 _atom_site_fract_z
 _atom_site_occupancy
  Cr  Cr0  1  0.25996330  0.28097791  0.51992660  1
  Cr  Cr1  1  0.74003670  0.71902209  0.48007340  1
  Ni  Ni2  1  -0.00000000  0.00000000  -0.00000000  1
  Se  Se3  1  0.11637160  0.44834541  0.23274320  1
  Se  Se4  1  0.88362840  0.55165459  0.76725680  1
  Se  Se5  1  0.36787018  0.02520920  0.73574037  1
  Se  Se6  1  0.63212982  0.97479080  0.26425963  1
