# generated using pymatgen
data_Mg14AlSn
_symmetry_space_group_name_H-M   'P 1'
_cell_length_a   6.32553075
_cell_length_b   6.32553025
_cell_length_c   10.36845657
_cell_angle_alpha   90.00000000
_cell_angle_beta   90.00000000
_cell_angle_gamma   120.00000267
_symmetry_Int_Tables_number   1
_chemical_formula_structural   Mg14AlSn
_chemical_formula_sum   'Mg14 Al1 Sn1'
_cell_volume   359.28463192
_cell_formula_units_Z   1
loop_
 _symmetry_equiv_pos_site_id
 _symmetry_equiv_pos_as_xyz
  1  'x, y, z'
loop_
 _atom_site_type_symbol
 _atom_site_label
 _atom_site_symmetry_multiplicity
 _atom_site_fract_x
 _atom_site_fract_y
 _atom_site_fract_z
 _atom_site_occupancy
  Mg  Mg0  1  0.16682914  0.83341407  0.12500000  1
  Mg  Mg1  1  0.16645610  0.83322755  0.62500000  1
  Mg  Mg2  1  0.66658593  0.33317086  0.12500000  1
  Mg  Mg3  1  0.66677245  0.33354390  0.62500000  1
  Mg  Mg4  1  0.66658593  0.83341407  0.12500000  1
  Mg  Mg5  1  0.66677245  0.83322755  0.62500000  1
  Mg  Mg6  1  0.33323356  0.16676644  0.37178531  1
  Mg  Mg7  1  0.33323356  0.16676644  0.87821469  1
  Mg  Mg8  1  0.33323356  0.66646812  0.37178531  1
  Mg  Mg9  1  0.33323356  0.66646812  0.87821469  1
  Mg  Mg10  1  0.83353188  0.16676644  0.37178531  1
  Mg  Mg11  1  0.83353188  0.16676644  0.87821469  1
  Mg  Mg12  1  0.83333300  0.66666700  0.37422801  1
  Mg  Mg13  1  0.83333300  0.66666700  0.87577199  1
  Al  Al14  1  0.16666700  0.33333300  0.12500000  1
  Sn  Sn15  1  0.16666700  0.33333300  0.62500000  1
