# generated using pymatgen
data_CaMg14FeO16
_symmetry_space_group_name_H-M   'P 1'
_cell_length_a   8.62355829
_cell_length_b   8.58823350
_cell_length_c   4.33602881
_cell_angle_alpha   90.00000000
_cell_angle_beta   90.00000000
_cell_angle_gamma   90.00000000
_symmetry_Int_Tables_number   1
_chemical_formula_structural   CaMg14FeO16
_chemical_formula_sum   'Ca1 Mg14 Fe1 O16'
_cell_volume   321.13120290
_cell_formula_units_Z   1
loop_
 _symmetry_equiv_pos_site_id
 _symmetry_equiv_pos_as_xyz
  1  'x, y, z'
loop_
 _atom_site_type_symbol
 _atom_site_label
 _atom_site_symmetry_multiplicity
 _atom_site_fract_x
 _atom_site_fract_y
 _atom_site_fract_z
 _atom_site_occupancy
  Ca  Ca0  1  0.00000000  0.00000000  0.00000000  1
  Mg  Mg1  1  0.50000000  0.00000000  0.00000000  1
  Mg  Mg2  1  0.50000000  0.50000000  0.00000000  1
  Mg  Mg3  1  0.00000000  0.25594456  0.50000000  1
  Mg  Mg4  1  0.00000000  0.74405544  0.50000000  1
  Mg  Mg5  1  0.50000000  0.25107527  0.50000000  1
  Mg  Mg6  1  0.50000000  0.74892473  0.50000000  1
  Mg  Mg7  1  0.25567617  0.00000000  0.50000000  1
  Mg  Mg8  1  0.24993555  0.50000000  0.50000000  1
  Mg  Mg9  1  0.74432383  0.00000000  0.50000000  1
  Mg  Mg10  1  0.75006445  0.50000000  0.50000000  1
  Mg  Mg11  1  0.25440610  0.25340412  0.00000000  1
  Mg  Mg12  1  0.25440610  0.74659588  0.00000000  1
  Mg  Mg13  1  0.74559390  0.25340412  0.00000000  1
  Mg  Mg14  1  0.74559390  0.74659588  0.00000000  1
  Fe  Fe15  1  0.00000000  0.50000000  0.00000000  1
  O  O16  1  0.26326950  0.00000000  0.00000000  1
  O  O17  1  0.25875317  0.50000000  0.00000000  1
  O  O18  1  0.73673050  0.00000000  0.00000000  1
  O  O19  1  0.74124683  0.50000000  0.00000000  1
  O  O20  1  0.24915285  0.24995531  0.50000000  1
  O  O21  1  0.24915285  0.75004469  0.50000000  1
  O  O22  1  0.75084715  0.24995531  0.50000000  1
  O  O23  1  0.75084715  0.75004469  0.50000000  1
  O  O24  1  0.00000000  0.00000000  0.50000000  1
  O  O25  1  0.00000000  0.50000000  0.50000000  1
  O  O26  1  0.50000000  0.00000000  0.50000000  1
  O  O27  1  0.50000000  0.50000000  0.50000000  1
  O  O28  1  0.00000000  0.26161433  0.00000000  1
  O  O29  1  0.00000000  0.73838567  0.00000000  1
  O  O30  1  0.50000000  0.25140550  0.00000000  1
  O  O31  1  0.50000000  0.74859450  0.00000000  1
