# generated using pymatgen
data_Co3Pt
_symmetry_space_group_name_H-M   'P 1'
_cell_length_a   2.63673064
_cell_length_b   2.63673064
_cell_length_c   8.29124928
_cell_angle_alpha   90.00000000
_cell_angle_beta   90.00000000
_cell_angle_gamma   119.99904189
_symmetry_Int_Tables_number   1
_chemical_formula_structural   Co3Pt
_chemical_formula_sum   'Co3 Pt1'
_cell_volume   49.92135071
_cell_formula_units_Z   1
loop_
 _symmetry_equiv_pos_site_id
 _symmetry_equiv_pos_as_xyz
  1  'x, y, z'
loop_
 _atom_site_type_symbol
 _atom_site_label
 _atom_site_symmetry_multiplicity
 _atom_site_fract_x
 _atom_site_fract_y
 _atom_site_fract_z
 _atom_site_occupancy
  Co  Co0  1  0.66670016  0.33329984  0.87500000  1
  Co  Co1  1  0.33332234  0.66667766  0.10779155  1
  Co  Co2  1  0.33332234  0.66667766  0.64220845  1
  Pt  Pt3  1  0.66665517  0.33334483  0.37500000  1
