# generated using pymatgen
data_MgCd
_symmetry_space_group_name_H-M   'P 1'
_cell_length_a   11.70847192
_cell_length_b   3.19819627
_cell_length_c   7.31411223
_cell_angle_alpha   90.00000000
_cell_angle_beta   104.64930938
_cell_angle_gamma   90.00000000
_symmetry_Int_Tables_number   1
_chemical_formula_structural   MgCd
_chemical_formula_sum   'Mg6 Cd6'
_cell_volume   264.98072208
_cell_formula_units_Z   6
loop_
 _symmetry_equiv_pos_site_id
 _symmetry_equiv_pos_as_xyz
  1  'x, y, z'
loop_
 _atom_site_type_symbol
 _atom_site_label
 _atom_site_symmetry_multiplicity
 _atom_site_fract_x
 _atom_site_fract_y
 _atom_site_fract_z
 _atom_site_occupancy
  Mg  Mg0  1  0.50204262  0.50000000  0.00365996  1
  Mg  Mg1  1  0.05538508  -0.00000000  0.60878280  1
  Mg  Mg2  1  0.33175514  -0.00000000  0.66576401  1
  Mg  Mg3  1  0.00204262  -0.00000000  0.00365996  1
  Mg  Mg4  1  0.55538508  0.50000000  0.60878280  1
  Mg  Mg5  1  0.83175514  0.50000000  0.66576401  1
  Cd  Cd6  1  0.39050461  -0.00000000  0.27993564  1
  Cd  Cd7  1  0.16614153  0.50000000  0.33553662  1
  Cd  Cd8  1  0.22083802  0.50000000  0.93965399  1
  Cd  Cd9  1  0.89050461  0.50000000  0.27993564  1
  Cd  Cd10  1  0.66614153  -0.00000000  0.33553662  1
  Cd  Cd11  1  0.72083802  0.00000000  0.93965399  1
