# generated using pymatgen
data_Mg14MnCrO16
_symmetry_space_group_name_H-M   'P 1'
_cell_length_a   8.65639603
_cell_length_b   8.52436642
_cell_length_c   4.28415118
_cell_angle_alpha   90.00000000
_cell_angle_beta   90.00000000
_cell_angle_gamma   90.00000000
_symmetry_Int_Tables_number   1
_chemical_formula_structural   Mg14MnCrO16
_chemical_formula_sum   'Mg14 Mn1 Cr1 O16'
_cell_volume   316.12876499
_cell_formula_units_Z   1
loop_
 _symmetry_equiv_pos_site_id
 _symmetry_equiv_pos_as_xyz
  1  'x, y, z'
loop_
 _atom_site_type_symbol
 _atom_site_label
 _atom_site_symmetry_multiplicity
 _atom_site_fract_x
 _atom_site_fract_y
 _atom_site_fract_z
 _atom_site_occupancy
  Mg  Mg0  1  0.50000000  0.00000000  0.00000000  1
  Mg  Mg1  1  0.50000000  0.50000000  0.00000000  1
  Mg  Mg2  1  0.00000000  0.25133310  0.50000000  1
  Mg  Mg3  1  0.00000000  0.74866690  0.50000000  1
  Mg  Mg4  1  0.50000000  0.25041985  0.50000000  1
  Mg  Mg5  1  0.50000000  0.74958015  0.50000000  1
  Mg  Mg6  1  0.25248430  0.00000000  0.50000000  1
  Mg  Mg7  1  0.25294275  0.50000000  0.50000000  1
  Mg  Mg8  1  0.74751570  0.00000000  0.50000000  1
  Mg  Mg9  1  0.74705725  0.50000000  0.50000000  1
  Mg  Mg10  1  0.25316466  0.25167023  0.00000000  1
  Mg  Mg11  1  0.25316466  0.74832977  0.00000000  1
  Mg  Mg12  1  0.74683534  0.25167023  0.00000000  1
  Mg  Mg13  1  0.74683534  0.74832977  0.00000000  1
  Mn  Mn14  1  0.00000000  0.00000000  0.00000000  1
  Cr  Cr15  1  0.00000000  0.50000000  0.00000000  1
  O  O16  1  0.25638934  0.00000000  0.00000000  1
  O  O17  1  0.26426493  0.50000000  0.00000000  1
  O  O18  1  0.74361066  0.00000000  0.00000000  1
  O  O19  1  0.73573507  0.50000000  0.00000000  1
  O  O20  1  0.24863143  0.24982652  0.50000000  1
  O  O21  1  0.24863143  0.75017348  0.50000000  1
  O  O22  1  0.75136857  0.24982652  0.50000000  1
  O  O23  1  0.75136857  0.75017348  0.50000000  1
  O  O24  1  0.00000000  0.00000000  0.50000000  1
  O  O25  1  0.00000000  0.50000000  0.50000000  1
  O  O26  1  0.50000000  0.00000000  0.50000000  1
  O  O27  1  0.50000000  0.50000000  0.50000000  1
  O  O28  1  0.00000000  0.25606902  0.00000000  1
  O  O29  1  0.00000000  0.74393098  0.00000000  1
  O  O30  1  0.50000000  0.24830729  0.00000000  1
  O  O31  1  0.50000000  0.75169271  0.00000000  1
