# generated using pymatgen
data_Mg14CuNiO16
_symmetry_space_group_name_H-M   'P 1'
_cell_length_a   8.49369717
_cell_length_b   8.53024756
_cell_length_c   4.24116593
_cell_angle_alpha   90.00000000
_cell_angle_beta   90.00000000
_cell_angle_gamma   90.00000000
_symmetry_Int_Tables_number   1
_chemical_formula_structural   Mg14CuNiO16
_chemical_formula_sum   'Mg14 Cu1 Ni1 O16'
_cell_volume   307.28663526
_cell_formula_units_Z   1
loop_
 _symmetry_equiv_pos_site_id
 _symmetry_equiv_pos_as_xyz
  1  'x, y, z'
loop_
 _atom_site_type_symbol
 _atom_site_label
 _atom_site_symmetry_multiplicity
 _atom_site_fract_x
 _atom_site_fract_y
 _atom_site_fract_z
 _atom_site_occupancy
  Mg  Mg0  1  0.50000000  0.00000000  0.00000000  1
  Mg  Mg1  1  0.50000000  0.50000000  0.00000000  1
  Mg  Mg2  1  0.00000000  0.25144590  0.50000000  1
  Mg  Mg3  1  0.00000000  0.74855410  0.50000000  1
  Mg  Mg4  1  0.50000000  0.25002288  0.50000000  1
  Mg  Mg5  1  0.50000000  0.74997712  0.50000000  1
  Mg  Mg6  1  0.24829122  0.00000000  0.50000000  1
  Mg  Mg7  1  0.24868602  0.50000000  0.50000000  1
  Mg  Mg8  1  0.75170878  0.00000000  0.50000000  1
  Mg  Mg9  1  0.75131398  0.50000000  0.50000000  1
  Mg  Mg10  1  0.24795498  0.25069052  0.00000000  1
  Mg  Mg11  1  0.24795498  0.74930948  0.00000000  1
  Mg  Mg12  1  0.75204502  0.25069052  0.00000000  1
  Mg  Mg13  1  0.75204502  0.74930948  0.00000000  1
  Cu  Cu14  1  0.00000000  0.00000000  0.00000000  1
  Ni  Ni15  1  0.00000000  0.50000000  0.00000000  1
  O  O16  1  0.25011677  0.00000000  0.00000000  1
  O  O17  1  0.25179081  0.50000000  0.00000000  1
  O  O18  1  0.74988323  0.00000000  0.00000000  1
  O  O19  1  0.74820919  0.50000000  0.00000000  1
  O  O20  1  0.24907781  0.24964068  0.50000000  1
  O  O21  1  0.24907781  0.75035932  0.50000000  1
  O  O22  1  0.75092219  0.24964068  0.50000000  1
  O  O23  1  0.75092219  0.75035932  0.50000000  1
  O  O24  1  0.00000000  0.00000000  0.50000000  1
  O  O25  1  0.00000000  0.50000000  0.50000000  1
  O  O26  1  0.50000000  0.00000000  0.50000000  1
  O  O27  1  0.50000000  0.50000000  0.50000000  1
  O  O28  1  0.00000000  0.25853441  0.00000000  1
  O  O29  1  0.00000000  0.74146559  0.00000000  1
  O  O30  1  0.50000000  0.24933574  0.00000000  1
  O  O31  1  0.50000000  0.75066426  0.00000000  1
