# generated using pymatgen
data_SmGaSb2
_symmetry_space_group_name_H-M   'P 1'
_cell_length_a   4.33543166
_cell_length_b   4.37271106
_cell_length_c   11.43215513
_cell_angle_alpha   90.00000000
_cell_angle_beta   100.93035636
_cell_angle_gamma   90.00000000
_symmetry_Int_Tables_number   1
_chemical_formula_structural   SmGaSb2
_chemical_formula_sum   'Sm2 Ga2 Sb4'
_cell_volume   212.79434885
_cell_formula_units_Z   2
loop_
 _symmetry_equiv_pos_site_id
 _symmetry_equiv_pos_as_xyz
  1  'x, y, z'
loop_
 _atom_site_type_symbol
 _atom_site_label
 _atom_site_symmetry_multiplicity
 _atom_site_fract_x
 _atom_site_fract_y
 _atom_site_fract_z
 _atom_site_occupancy
  Ga  Ga0  1  0.15836987  0.00000000  0.00000000  1
  Ga  Ga1  1  0.84163013  0.50000000  0.00000000  1
  Sb  Sb2  1  0.75022177  0.75000000  0.50044355  1
  Sb  Sb3  1  0.24977823  0.25000000  0.49955645  1
  Sb  Sb4  1  0.59232317  0.25000000  0.18464634  1
  Sb  Sb5  1  0.40767683  0.75000000  0.81535366  1
  Sm  Sm6  1  0.13727578  0.75000000  0.27455157  1
  Sm  Sm7  1  0.86272422  0.25000000  0.72544843  1
