# generated using pymatgen
data_Mg30AlCoO32
_symmetry_space_group_name_H-M   'P 1'
_cell_length_a   8.49789056
_cell_length_b   8.50102627
_cell_length_c   8.50102627
_cell_angle_alpha   90.00000000
_cell_angle_beta   90.00000000
_cell_angle_gamma   90.00000000
_symmetry_Int_Tables_number   1
_chemical_formula_structural   Mg30AlCoO32
_chemical_formula_sum   'Mg30 Al1 Co1 O32'
_cell_volume   614.12086112
_cell_formula_units_Z   1
loop_
 _symmetry_equiv_pos_site_id
 _symmetry_equiv_pos_as_xyz
  1  'x, y, z'
loop_
 _atom_site_type_symbol
 _atom_site_label
 _atom_site_symmetry_multiplicity
 _atom_site_fract_x
 _atom_site_fract_y
 _atom_site_fract_z
 _atom_site_occupancy
  Mg  Mg0  1  0.00000000  0.00000000  0.50000000  1
  Mg  Mg1  1  0.00000000  0.50000000  0.00000000  1
  Mg  Mg2  1  0.50000000  0.00000000  0.00000000  1
  Mg  Mg3  1  0.50000000  0.00000000  0.50000000  1
  Mg  Mg4  1  0.50000000  0.50000000  0.00000000  1
  Mg  Mg5  1  0.50000000  0.50000000  0.50000000  1
  Mg  Mg6  1  0.00000000  0.25413125  0.25413125  1
  Mg  Mg7  1  0.00000000  0.25413125  0.74586875  1
  Mg  Mg8  1  0.00000000  0.74586875  0.25413125  1
  Mg  Mg9  1  0.00000000  0.74586875  0.74586875  1
  Mg  Mg10  1  0.50000000  0.25133203  0.25133203  1
  Mg  Mg11  1  0.50000000  0.25133203  0.74866797  1
  Mg  Mg12  1  0.50000000  0.74866797  0.25133203  1
  Mg  Mg13  1  0.50000000  0.74866797  0.74866797  1
  Mg  Mg14  1  0.25016807  0.00000000  0.25163720  1
  Mg  Mg15  1  0.25016807  0.00000000  0.74836280  1
  Mg  Mg16  1  0.24767775  0.50000000  0.25346108  1
  Mg  Mg17  1  0.24767775  0.50000000  0.74653892  1
  Mg  Mg18  1  0.74983193  0.00000000  0.25163720  1
  Mg  Mg19  1  0.74983193  0.00000000  0.74836280  1
  Mg  Mg20  1  0.75232225  0.50000000  0.25346108  1
  Mg  Mg21  1  0.75232225  0.50000000  0.74653892  1
  Mg  Mg22  1  0.25016807  0.25163720  0.00000000  1
  Mg  Mg23  1  0.24767775  0.25346108  0.50000000  1
  Mg  Mg24  1  0.25016807  0.74836280  0.00000000  1
  Mg  Mg25  1  0.24767775  0.74653892  0.50000000  1
  Mg  Mg26  1  0.74983193  0.25163720  0.00000000  1
  Mg  Mg27  1  0.75232225  0.25346108  0.50000000  1
  Mg  Mg28  1  0.74983193  0.74836280  0.00000000  1
  Mg  Mg29  1  0.75232225  0.74653892  0.50000000  1
  Al  Al30  1  0.00000000  0.00000000  0.00000000  1
  Co  Co31  1  0.00000000  0.50000000  0.50000000  1
  O  O32  1  0.23603496  0.00000000  0.00000000  1
  O  O33  1  0.24950055  0.00000000  0.50000000  1
  O  O34  1  0.24950055  0.50000000  0.00000000  1
  O  O35  1  0.26121588  0.50000000  0.50000000  1
  O  O36  1  0.76396504  0.00000000  0.00000000  1
  O  O37  1  0.75049945  0.00000000  0.50000000  1
  O  O38  1  0.75049945  0.50000000  0.00000000  1
  O  O39  1  0.73878412  0.50000000  0.50000000  1
  O  O40  1  0.24958897  0.24943833  0.24943833  1
  O  O41  1  0.24958897  0.24943833  0.75056167  1
  O  O42  1  0.24958897  0.75056167  0.24943833  1
  O  O43  1  0.24958897  0.75056167  0.75056167  1
  O  O44  1  0.75041103  0.24943833  0.24943833  1
  O  O45  1  0.75041103  0.24943833  0.75056167  1
  O  O46  1  0.75041103  0.75056167  0.24943833  1
  O  O47  1  0.75041103  0.75056167  0.75056167  1
  O  O48  1  0.00000000  0.00000000  0.23295315  1
  O  O49  1  0.00000000  0.00000000  0.76704685  1
  O  O50  1  0.00000000  0.50000000  0.23557554  1
  O  O51  1  0.00000000  0.50000000  0.76442446  1
  O  O52  1  0.50000000  0.00000000  0.24687887  1
  O  O53  1  0.50000000  0.00000000  0.75312113  1
  O  O54  1  0.50000000  0.50000000  0.24757401  1
  O  O55  1  0.50000000  0.50000000  0.75242599  1
  O  O56  1  0.00000000  0.23295315  0.00000000  1
  O  O57  1  0.00000000  0.23557554  0.50000000  1
  O  O58  1  0.00000000  0.76704685  0.00000000  1
  O  O59  1  0.00000000  0.76442446  0.50000000  1
  O  O60  1  0.50000000  0.24687887  0.00000000  1
  O  O61  1  0.50000000  0.24757401  0.50000000  1
  O  O62  1  0.50000000  0.75312113  0.00000000  1
  O  O63  1  0.50000000  0.75242599  0.50000000  1
