# generated using pymatgen
data_CeMg
_symmetry_space_group_name_H-M   'P 1'
_cell_length_a   3.11910083
_cell_length_b   3.11910137
_cell_length_c   17.66765484
_cell_angle_alpha   90.00000000
_cell_angle_beta   90.00000000
_cell_angle_gamma   120.00000421
_symmetry_Int_Tables_number   1
_chemical_formula_structural   CeMg
_chemical_formula_sum   'Ce3 Mg3'
_cell_volume   148.85671222
_cell_formula_units_Z   3
loop_
 _symmetry_equiv_pos_site_id
 _symmetry_equiv_pos_as_xyz
  1  'x, y, z'
loop_
 _atom_site_type_symbol
 _atom_site_label
 _atom_site_symmetry_multiplicity
 _atom_site_fract_x
 _atom_site_fract_y
 _atom_site_fract_z
 _atom_site_occupancy
  Ce  Ce0  1  0.66666700  0.33333300  0.83540562  1
  Ce  Ce1  1  -0.00000000  0.00000000  0.65942732  1
  Ce  Ce2  1  0.66666700  0.33333300  0.17091897  1
  Mg  Mg3  1  -0.00000000  -0.00000000  0.00230240  1
  Mg  Mg4  1  0.66666700  0.33333300  0.49247367  1
  Mg  Mg5  1  -0.00000000  -0.00000000  0.33947203  1
