# generated using pymatgen
data_CaHoCr2O6
_symmetry_space_group_name_H-M   'P 1'
_cell_length_a   5.30358524
_cell_length_b   5.53434495
_cell_length_c   7.58341456
_cell_angle_alpha   90.00035161
_cell_angle_beta   90.12144131
_cell_angle_gamma   89.99991163
_symmetry_Int_Tables_number   1
_chemical_formula_structural   CaHoCr2O6
_chemical_formula_sum   'Ca2 Ho2 Cr4 O12'
_cell_volume   222.58689966
_cell_formula_units_Z   2
loop_
 _symmetry_equiv_pos_site_id
 _symmetry_equiv_pos_as_xyz
  1  'x, y, z'
loop_
 _atom_site_type_symbol
 _atom_site_label
 _atom_site_symmetry_multiplicity
 _atom_site_fract_x
 _atom_site_fract_y
 _atom_site_fract_z
 _atom_site_occupancy
  Ca  Ca0  1  0.48748654  0.44779836  0.75043011  1
  Ca  Ca1  1  0.98749816  0.05219385  0.25049920  1
  Ho  Ho2  1  0.01942060  0.93326388  0.74956767  1
  Ho  Ho3  1  0.51943372  0.56674368  0.24955473  1
  Cr  Cr4  1  0.00068370  0.49609748  0.00042574  1
  Cr  Cr5  1  0.00017593  0.49478754  0.49988906  1
  Cr  Cr6  1  0.50066556  0.00389828  0.50043234  1
  Cr  Cr7  1  0.50019281  0.00521752  0.99988848  1
  O  O8  1  0.10724755  0.47044234  0.25494362  1
  O  O9  1  0.19973104  0.19304259  0.94703057  1
  O  O10  1  0.18806693  0.19886100  0.55295482  1
  O  O11  1  0.29799484  0.71204215  0.94972915  1
  O  O12  1  0.28877061  0.70561791  0.54983565  1
  O  O13  1  0.41039813  0.96482932  0.24515577  1
  O  O14  1  0.60725317  0.02957361  0.75493953  1
  O  O15  1  0.69970934  0.30695932  0.44703653  1
  O  O16  1  0.68810125  0.30113263  0.05296544  1
  O  O17  1  0.78880851  0.79440331  0.04983234  1
  O  O18  1  0.79796522  0.78793606  0.44973741  1
  O  O19  1  0.91039338  0.53516215  0.74515084  1
