# generated using pymatgen
data_MgTiV(PO4)3
_symmetry_space_group_name_H-M   'P 1'
_cell_length_a   8.54094455
_cell_length_b   8.54094457
_cell_length_c   8.54094463
_cell_angle_alpha   60.70233513
_cell_angle_beta   60.70233827
_cell_angle_gamma   60.70234192
_symmetry_Int_Tables_number   1
_chemical_formula_structural   MgTiV(PO4)3
_chemical_formula_sum   'Mg2 Ti2 V2 P6 O24'
_cell_volume   447.54118487
_cell_formula_units_Z   2
loop_
 _symmetry_equiv_pos_site_id
 _symmetry_equiv_pos_as_xyz
  1  'x, y, z'
loop_
 _atom_site_type_symbol
 _atom_site_label
 _atom_site_symmetry_multiplicity
 _atom_site_fract_x
 _atom_site_fract_y
 _atom_site_fract_z
 _atom_site_occupancy
  Mg  Mg0  1  0.99864337  0.99864337  0.99864337  1
  Mg  Mg1  1  0.49864337  0.49864337  0.49864337  1
  Ti  Ti2  1  0.14454720  0.14454720  0.14454720  1
  Ti  Ti3  1  0.64454720  0.64454720  0.64454720  1
  V  V4  1  0.35743448  0.35743448  0.35743448  1
  V  V5  1  0.85743448  0.85743448  0.85743448  1
  P  P6  1  0.04553943  0.45492465  0.75176327  1
  P  P7  1  0.45492465  0.75176327  0.04553943  1
  P  P8  1  0.75176327  0.04553943  0.45492465  1
  P  P9  1  0.25176327  0.95492465  0.54553943  1
  P  P10  1  0.54553943  0.25176327  0.95492465  1
  P  P11  1  0.95492465  0.54553943  0.25176327  1
  O  O12  1  0.11096730  0.50434066  0.31695459  1
  O  O13  1  0.31695459  0.11096730  0.50434066  1
  O  O14  1  0.05394903  0.25777819  0.91312635  1
  O  O15  1  0.50434066  0.31695459  0.11096730  1
  O  O16  1  0.00434066  0.61096730  0.81695459  1
  O  O17  1  0.24082418  0.43758901  0.59235519  1
  O  O18  1  0.25777819  0.91312635  0.05394903  1
  O  O19  1  0.43758901  0.59235519  0.24082418  1
  O  O20  1  0.18592772  0.00227264  0.38105973  1
  O  O21  1  0.59235519  0.24082418  0.43758901  1
  O  O22  1  0.09235519  0.93758901  0.74082418  1
  O  O23  1  0.38105973  0.18592772  0.00227264  1
  O  O24  1  0.61096730  0.81695459  0.00434066  1
  O  O25  1  0.91312635  0.05394903  0.25777819  1
  O  O26  1  0.41312635  0.75777819  0.55394903  1
  O  O27  1  0.81695459  0.00434066  0.61096730  1
  O  O28  1  0.55394903  0.41312635  0.75777819  1
  O  O29  1  0.74082418  0.09235519  0.93758901  1
  O  O30  1  0.75777819  0.55394903  0.41312635  1
  O  O31  1  0.00227264  0.38105973  0.18592772  1
  O  O32  1  0.50227264  0.68592772  0.88105973  1
  O  O33  1  0.93758901  0.74082418  0.09235519  1
  O  O34  1  0.68592772  0.88105973  0.50227264  1
  O  O35  1  0.88105973  0.50227264  0.68592772  1
