# generated using pymatgen
data_Ca2AlMoO5
_symmetry_space_group_name_H-M   'P 1'
_cell_length_a   5.65364494
_cell_length_b   5.93405540
_cell_length_c   8.25888117
_cell_angle_alpha   111.05270925
_cell_angle_beta   108.52305829
_cell_angle_gamma   89.99462730
_symmetry_Int_Tables_number   1
_chemical_formula_structural   Ca2AlMoO5
_chemical_formula_sum   'Ca4 Al2 Mo2 O10'
_cell_volume   243.14294033
_cell_formula_units_Z   2
loop_
 _symmetry_equiv_pos_site_id
 _symmetry_equiv_pos_as_xyz
  1  'x, y, z'
loop_
 _atom_site_type_symbol
 _atom_site_label
 _atom_site_symmetry_multiplicity
 _atom_site_fract_x
 _atom_site_fract_y
 _atom_site_fract_z
 _atom_site_occupancy
  Ca  Ca0  1  0.07827823  0.65610281  0.22877116  1
  Ca  Ca1  1  0.41768707  0.92117347  0.76755831  1
  Ca  Ca2  1  0.91760006  0.34832961  0.76765591  1
  Ca  Ca3  1  0.57777135  0.07435021  0.22869458  1
  Al  Al4  1  0.29251035  0.33359000  0.50273750  1
  Al  Al5  1  0.79252328  0.67100895  0.50271427  1
  Mo  Mo6  1  0.49626811  0.49976798  0.99962530  1
  Mo  Mo7  1  0.99618687  0.00161782  0.99961743  1
  O  O8  1  0.60549683  0.42307962  0.50549958  1
  O  O9  1  0.10558594  0.58439217  0.50551661  1
  O  O10  1  0.67238609  0.72495667  0.29719651  1
  O  O11  1  0.31370063  0.27302778  0.70084379  1
  O  O12  1  0.17244103  0.07405935  0.29734361  1
  O  O13  1  0.81350826  0.92960966  0.70073011  1
  O  O14  1  0.29687516  0.79463245  0.96253016  1
  O  O15  1  0.19566909  0.33246012  0.03758376  1
  O  O16  1  0.69555517  0.20674234  0.03762417  1
  O  O17  1  0.79702449  0.66973899  0.96271225  1
