# generated using pymatgen
data_YCo(WO4)2
_symmetry_space_group_name_H-M   'P 1'
_cell_length_a   5.19026074
_cell_length_b   5.89878153
_cell_length_c   9.95496283
_cell_angle_alpha   89.89553708
_cell_angle_beta   93.44942317
_cell_angle_gamma   90.03417418
_symmetry_Int_Tables_number   1
_chemical_formula_structural   YCo(WO4)2
_chemical_formula_sum   'Y2 Co2 W4 O16'
_cell_volume   304.23055620
_cell_formula_units_Z   2
loop_
 _symmetry_equiv_pos_site_id
 _symmetry_equiv_pos_as_xyz
  1  'x, y, z'
loop_
 _atom_site_type_symbol
 _atom_site_label
 _atom_site_symmetry_multiplicity
 _atom_site_fract_x
 _atom_site_fract_y
 _atom_site_fract_z
 _atom_site_occupancy
  Y  Y0  1  0.25002948  0.67117784  0.25011747  1
  Y  Y1  1  0.74985683  0.34775364  0.75016510  1
  Co  Co2  1  0.74727949  0.32589372  0.24998147  1
  Co  Co3  1  0.25011965  0.73027867  0.74944373  1
  W  W4  1  0.24854184  0.16087471  0.49239734  1
  W  W5  1  0.25151193  0.16078766  0.00764387  1
  W  W6  1  0.74586158  0.83033440  0.50207073  1
  W  W7  1  0.75437889  0.82996371  0.99767020  1
  O  O8  1  0.40670005  0.34923808  0.13950489  1
  O  O9  1  0.09424954  0.34979860  0.36049442  1
  O  O10  1  0.57662732  0.64099385  0.85911710  1
  O  O11  1  0.92330281  0.64143311  0.64130140  1
  O  O12  1  0.44602243  0.91267305  0.61131086  1
  O  O13  1  0.05416520  0.91343350  0.88852912  1
  O  O14  1  0.55002212  0.09058808  0.38864348  1
  O  O15  1  0.95156085  0.09017162  0.11150983  1
  O  O16  1  0.87290490  0.60959876  0.12271095  1
  O  O17  1  0.62661857  0.61009548  0.37775728  1
  O  O18  1  0.10904842  0.37481004  0.89111315  1
  O  O19  1  0.39117254  0.37427492  0.60872035  1
  O  O20  1  0.42338235  0.88022611  0.09701346  1
  O  O21  1  0.55792631  0.11241421  0.90411881  1
  O  O22  1  0.07705717  0.88074677  0.40275969  1
  O  O23  1  0.94165874  0.11244144  0.59590432  1
