# generated using pymatgen
data_Ba2ZnFe2CuF14
_symmetry_space_group_name_H-M   'P 1'
_cell_length_a   5.29367298
_cell_length_b   7.49450383
_cell_length_c   14.70375225
_cell_angle_alpha   91.46425529
_cell_angle_beta   90.06493313
_cell_angle_gamma   110.62598138
_symmetry_Int_Tables_number   1
_chemical_formula_structural   Ba2ZnFe2CuF14
_chemical_formula_sum   'Ba4 Zn2 Fe4 Cu2 F28'
_cell_volume   545.74560876
_cell_formula_units_Z   2
loop_
 _symmetry_equiv_pos_site_id
 _symmetry_equiv_pos_as_xyz
  1  'x, y, z'
loop_
 _atom_site_type_symbol
 _atom_site_label
 _atom_site_symmetry_multiplicity
 _atom_site_fract_x
 _atom_site_fract_y
 _atom_site_fract_z
 _atom_site_occupancy
  Ba  Ba0  1  0.11219264  0.37568783  0.62437862  1
  Ba  Ba1  1  0.26445610  0.37715951  0.12438351  1
  Ba  Ba2  1  0.88777389  0.62441049  0.37661510  1
  Ba  Ba3  1  0.73473195  0.62371849  0.87648839  1
  Zn  Zn4  1  0.43002671  0.00128169  0.75020605  1
  Zn  Zn5  1  0.57050783  0.00149396  0.25029769  1
  Fe  Fe6  1  0.09485575  0.23736394  0.87371676  1
  Fe  Fe7  1  0.90426761  0.76323557  0.12693711  1
  Fe  Fe8  1  0.14129633  0.23860920  0.37353800  1
  Fe  Fe9  1  0.85865524  0.76128241  0.62742103  1
  Cu  Cu10  1  0.49950558  0.00089477  0.00016123  1
  Cu  Cu11  1  0.50042137  0.99951813  0.50024059  1
  F  F12  1  0.89174980  0.98513000  0.33925688  1
  F  F13  1  0.86855656  0.27806713  0.45664372  1
  F  F14  1  0.13271726  0.72145111  0.54460119  1
  F  F15  1  0.64928543  0.49752601  0.59822658  1
  F  F16  1  0.61124503  0.09441634  0.62270608  1
  F  F17  1  0.51412360  0.90585421  0.87737396  1
  F  F18  1  0.40801520  0.27673204  0.95663653  1
  F  F19  1  0.90758700  0.01631976  0.16196205  1
  F  F20  1  0.36323727  0.32733009  0.77640210  1
  F  F21  1  0.34999633  0.50275401  0.40202521  1
  F  F22  1  0.80387174  0.22709552  0.78854047  1
  F  F23  1  0.15108126  0.50183966  0.90238684  1
  F  F24  1  0.42164183  0.22654190  0.28884519  1
  F  F25  1  0.19783366  0.77502563  0.21144764  1
  F  F26  1  0.48492184  0.09630415  0.12290307  1
  F  F27  1  0.63794813  0.67048806  0.22424989  1
  F  F28  1  0.12113085  0.83906140  0.01504072  1
  F  F29  1  0.10925974  0.01486758  0.66130798  1
  F  F30  1  0.87780976  0.16356386  0.98566856  1
  F  F31  1  0.71640700  0.83691681  0.51533060  1
  F  F32  1  0.59010766  0.72389560  0.04420804  1
  F  F33  1  0.57849473  0.77382324  0.71195587  1
  F  F34  1  0.96394357  0.32935377  0.27617434  1
  F  F35  1  0.28663195  0.16373638  0.48499581  1
  F  F36  1  0.38937940  0.90457235  0.37754333  1
  F  F37  1  0.08920054  0.98394715  0.83872709  1
  F  F38  1  0.03424347  0.66962490  0.72473900  1
  F  F39  1  0.85049837  0.49975733  0.09711818  1
