# generated using pymatgen
data_ZnMo2P2O9
_symmetry_space_group_name_H-M   'P 1'
_cell_length_a   6.65291709
_cell_length_b   7.53933530
_cell_length_c   14.80563561
_cell_angle_alpha   90.00001420
_cell_angle_beta   89.99977523
_cell_angle_gamma   90.00000691
_symmetry_Int_Tables_number   1
_chemical_formula_structural   ZnMo2P2O9
_chemical_formula_sum   'Zn4 Mo8 P8 O36'
_cell_volume   742.62954959
_cell_formula_units_Z   4
loop_
 _symmetry_equiv_pos_site_id
 _symmetry_equiv_pos_as_xyz
  1  'x, y, z'
loop_
 _atom_site_type_symbol
 _atom_site_label
 _atom_site_symmetry_multiplicity
 _atom_site_fract_x
 _atom_site_fract_y
 _atom_site_fract_z
 _atom_site_occupancy
  Zn  Zn0  1  0.74999433  0.95746482  0.76580190  1
  Zn  Zn1  1  0.74999986  0.54250770  0.26573178  1
  Zn  Zn2  1  0.25000559  0.45746508  0.73419647  1
  Zn  Zn3  1  0.25000958  0.04250656  0.23426827  1
  Mo  Mo4  1  0.75000124  0.36732300  0.87652607  1
  Mo  Mo5  1  0.24999980  0.63265908  0.12345891  1
  Mo  Mo6  1  0.24999988  0.86732452  0.62347422  1
  Mo  Mo7  1  0.75000095  0.13266028  0.37654091  1
  Mo  Mo8  1  0.49999589  0.00000831  0.00000121  1
  Mo  Mo9  1  0.50000397  0.50000934  0.49999890  1
  Mo  Mo10  1  0.99999601  0.50000926  0.49999877  1
  Mo  Mo11  1  0.00000384  0.00000787  0.00000100  1
  P  P12  1  0.25000018  0.37157211  0.92312132  1
  P  P13  1  0.74999979  0.62844240  0.07686019  1
  P  P14  1  0.75000082  0.87157308  0.57687889  1
  P  P15  1  0.24999989  0.12844322  0.42313965  1
  P  P16  1  0.74999985  0.39469462  0.69037730  1
  P  P17  1  0.74999918  0.10530038  0.19038155  1
  P  P18  1  0.25000128  0.89469539  0.80962266  1
  P  P19  1  0.25000035  0.60530085  0.30961831  1
  O  O20  1  0.05217290  0.60544408  0.36563493  1
  O  O21  1  0.55216587  0.39457618  0.63436426  1
  O  O22  1  0.94782404  0.10544288  0.13436438  1
  O  O23  1  0.44783534  0.89457653  0.86563535  1
  O  O24  1  0.94782954  0.39457483  0.63436302  1
  O  O25  1  0.44782898  0.60544305  0.36563424  1
  O  O26  1  0.05216992  0.89457593  0.86563640  1
  O  O27  1  0.55216800  0.10544153  0.13436697  1
  O  O28  1  0.25000023  0.31555507  0.47062178  1
  O  O29  1  0.74999993  0.68446523  0.52938561  1
  O  O30  1  0.74999941  0.81555434  0.02937782  1
  O  O31  1  0.24999978  0.18446292  0.97061485  1
  O  O32  1  0.75000023  0.11826863  0.93692411  1
  O  O33  1  0.24999981  0.88171051  0.06305814  1
  O  O34  1  0.24999970  0.61826882  0.56307681  1
  O  O35  1  0.75000021  0.38171261  0.43694128  1
  O  O36  1  0.75000013  0.22174229  0.75126354  1
  O  O37  1  0.25000046  0.77823929  0.24872007  1
  O  O38  1  0.25000132  0.72174455  0.74873617  1
  O  O39  1  0.75000019  0.27823923  0.25127977  1
  O  O40  1  0.42947029  0.11533479  0.35610503  1
  O  O41  1  0.92947319  0.88465762  0.64391608  1
  O  O42  1  0.57053162  0.61533384  0.14389367  1
  O  O43  1  0.07052791  0.38465717  0.85608432  1
  O  O44  1  0.57052581  0.88465861  0.64391645  1
  O  O45  1  0.07053151  0.11533492  0.35610511  1
  O  O46  1  0.42947545  0.38465670  0.85608433  1
  O  O47  1  0.92946989  0.61533508  0.14389503  1
  O  O48  1  0.75000110  0.48301758  0.00680192  1
  O  O49  1  0.25000124  0.04823962  0.74003283  1
  O  O50  1  0.24999984  0.45175602  0.24003337  1
  O  O51  1  0.75000036  0.54823823  0.75996720  1
  O  O52  1  0.75000099  0.01699725  0.50683187  1
  O  O53  1  0.25000011  0.98301962  0.49319816  1
  O  O54  1  0.24999976  0.51699432  0.99316796  1
  O  O55  1  0.74999968  0.95175624  0.25996689  1
