# generated using pymatgen
data_CoSiH15N6(OF3)2
_symmetry_space_group_name_H-M   'P 1'
_cell_length_a   6.77311483
_cell_length_b   8.17329509
_cell_length_c   10.47259606
_cell_angle_alpha   90.20688050
_cell_angle_beta   102.55550846
_cell_angle_gamma   89.86374310
_symmetry_Int_Tables_number   1
_chemical_formula_structural   CoSiH15N6(OF3)2
_chemical_formula_sum   'Co2 Si2 H30 N12 O4 F12'
_cell_volume   565.88031047
_cell_formula_units_Z   2
loop_
 _symmetry_equiv_pos_site_id
 _symmetry_equiv_pos_as_xyz
  1  'x, y, z'
loop_
 _atom_site_type_symbol
 _atom_site_label
 _atom_site_symmetry_multiplicity
 _atom_site_fract_x
 _atom_site_fract_y
 _atom_site_fract_z
 _atom_site_occupancy
  Co  Co0  1  0.26035902  0.25039679  0.28344904  1
  Co  Co1  1  0.73964098  0.74960321  0.71655096  1
  Si  Si2  1  0.16587739  0.25180861  0.80877574  1
  Si  Si3  1  0.83412261  0.74819139  0.19122426  1
  H  H4  1  0.35255333  0.39470775  0.08044755  1
  H  H5  1  0.64679581  0.89605197  0.91827767  1
  H  H6  1  0.64744667  0.60529225  0.91955245  1
  H  H7  1  0.35320419  0.10394803  0.08172233  1
  H  H8  1  0.21907629  0.40110511  0.49978997  1
  H  H9  1  0.77718777  0.90166698  0.49958642  1
  H  H10  1  0.78092371  0.59889489  0.50021003  1
  H  H11  1  0.22281223  0.09833302  0.50041358  1
  H  H12  1  0.19281610  0.54389060  0.38341488  1
  H  H13  1  0.80490152  0.04455423  0.61627200  1
  H  H14  1  0.80718390  0.45610940  0.61658512  1
  H  H15  1  0.19509848  0.95544577  0.38372800  1
  H  H16  1  0.00410206  0.42382429  0.38910620  1
  H  H17  1  0.99342429  0.92496080  0.60825018  1
  H  H18  1  0.99589794  0.57617571  0.61089380  1
  H  H19  1  0.00657571  0.07503920  0.39174982  1
  H  H20  1  0.49092534  0.48475250  0.21262700  1
  H  H21  1  0.50894417  0.98660006  0.78660777  1
  H  H22  1  0.50907466  0.51524750  0.78737300  1
  H  H23  1  0.49105583  0.01339994  0.21339223  1
  H  H24  1  0.24777214  0.53084176  0.16015206  1
  H  H25  1  0.75274496  0.03071878  0.83911406  1
  H  H26  1  0.75222786  0.46915824  0.83984794  1
  H  H27  1  0.24725504  0.96928122  0.16088594  1
  H  H28  1  0.00023835  0.20324299  0.06988697  1
  H  H29  1  0.99976165  0.79675701  0.93011303  1
  H  H30  1  0.93644671  0.37084759  0.14188776  1
  H  H31  1  0.06355329  0.62915241  0.85811224  1
  H  H32  1  0.88304773  0.18513164  0.19167989  1
  H  H33  1  0.11695227  0.81486836  0.80832011  1
  N  N34  1  0.35066838  0.43687623  0.17268590  1
  N  N35  1  0.64892965  0.93766251  0.82617954  1
  N  N36  1  0.64933162  0.56312377  0.82731410  1
  N  N37  1  0.35107035  0.06233749  0.17382046  1
  N  N38  1  0.98871494  0.25242690  0.15849717  1
  N  N39  1  0.01128506  0.74757310  0.84150283  1
  N  N40  1  0.15849861  0.42534593  0.40295366  1
  N  N41  1  0.83928931  0.92591551  0.59619786  1
  N  N42  1  0.84150139  0.57465407  0.59704634  1
  N  N43  1  0.16071069  0.07408449  0.40380214  1
  N  N44  1  0.52770714  0.25048449  0.40151030  1
  N  N45  1  0.47229286  0.74951551  0.59848970  1
  O  O46  1  0.68098881  0.25020856  0.35483803  1
  O  O47  1  0.31901119  0.74979144  0.64516197  1
  O  O48  1  0.53603627  0.25049737  0.52131058  1
  O  O49  1  0.46396373  0.74950263  0.47868942  1
  F  F50  1  0.92793269  0.25081628  0.70939386  1
  F  F51  1  0.07206731  0.74918372  0.29060614  1
  F  F52  1  0.24339748  0.39491757  0.70947647  1
  F  F53  1  0.76100291  0.90445277  0.28242194  1
  F  F54  1  0.75660252  0.60508243  0.29052353  1
  F  F55  1  0.23899709  0.09554723  0.71757806  1
  F  F56  1  0.08982923  0.40844115  0.89910997  1
  F  F57  1  0.91606865  0.88968513  0.09189090  1
  F  F58  1  0.91017077  0.59155885  0.10089003  1
  F  F59  1  0.08393135  0.11031487  0.90810910  1
  F  F60  1  0.39884749  0.25231126  0.91287459  1
  F  F61  1  0.60115251  0.74768874  0.08712541  1
