# generated using pymatgen
data_CaLaTaCrO6
_symmetry_space_group_name_H-M   'P 1'
_cell_length_a   5.48775312
_cell_length_b   5.65142204
_cell_length_c   8.54495655
_cell_angle_alpha   90.00000000
_cell_angle_beta   89.26912315
_cell_angle_gamma   90.00000000
_symmetry_Int_Tables_number   1
_chemical_formula_structural   CaLaTaCrO6
_chemical_formula_sum   'Ca2 La2 Ta2 Cr2 O12'
_cell_volume   264.98837985
_cell_formula_units_Z   2
loop_
 _symmetry_equiv_pos_site_id
 _symmetry_equiv_pos_as_xyz
  1  'x, y, z'
loop_
 _atom_site_type_symbol
 _atom_site_label
 _atom_site_symmetry_multiplicity
 _atom_site_fract_x
 _atom_site_fract_y
 _atom_site_fract_z
 _atom_site_occupancy
  Ca  Ca0  1  0.47876582  0.44992189  0.74495821  1
  Ca  Ca1  1  0.97876582  0.05007811  0.24495821  1
  La  La2  1  0.01914967  0.95338624  0.75579186  1
  La  La3  1  0.51914967  0.54661376  0.25579186  1
  Ta  Ta4  1  0.50020336  0.00319667  0.00191697  1
  Ta  Ta5  1  0.00020336  0.49680333  0.50191697  1
  Cr  Cr6  1  0.50191460  0.99840707  0.50061151  1
  Cr  Cr7  1  0.00191460  0.50159293  0.00061151  1
  O  O8  1  0.10697583  0.45264938  0.27889596  1
  O  O9  1  0.21295194  0.20736298  0.95094641  1
  O  O10  1  0.20220589  0.21411511  0.56464349  1
  O  O11  1  0.30105356  0.71789079  0.93405426  1
  O  O12  1  0.28960667  0.70102947  0.54791450  1
  O  O13  1  0.38717166  0.95693847  0.22026583  1
  O  O14  1  0.60697583  0.04735062  0.77889596  1
  O  O15  1  0.71295194  0.29263702  0.45094641  1
  O  O16  1  0.70220589  0.28588489  0.06464349  1
  O  O17  1  0.80105356  0.78210921  0.43405426  1
  O  O18  1  0.78960667  0.79897053  0.04791450  1
  O  O19  1  0.88717166  0.54306153  0.72026583  1
