# generated using pymatgen
data_Ti3P3O13
_symmetry_space_group_name_H-M   'P 1'
_cell_length_a   6.37787158
_cell_length_b   7.68142567
_cell_length_c   10.46725863
_cell_angle_alpha   98.47958412
_cell_angle_beta   90.00000000
_cell_angle_gamma   90.00000000
_symmetry_Int_Tables_number   1
_chemical_formula_structural   Ti3P3O13
_chemical_formula_sum   'Ti6 P6 O26'
_cell_volume   507.19727910
_cell_formula_units_Z   2
loop_
 _symmetry_equiv_pos_site_id
 _symmetry_equiv_pos_as_xyz
  1  'x, y, z'
loop_
 _atom_site_type_symbol
 _atom_site_label
 _atom_site_symmetry_multiplicity
 _atom_site_fract_x
 _atom_site_fract_y
 _atom_site_fract_z
 _atom_site_occupancy
  Ti  Ti0  1  0.25000000  0.35347709  0.18964925  1
  Ti  Ti1  1  0.75000000  0.64652291  0.81035075  1
  Ti  Ti2  1  0.25000000  0.79076776  0.44152205  1
  Ti  Ti3  1  0.50000000  0.00000000  -0.00000000  1
  Ti  Ti4  1  0.75000000  0.20923224  0.55847795  1
  Ti  Ti5  1  0.00000000  0.00000000  -0.00000000  1
  P  P6  1  0.25000000  0.22063052  0.48054628  1
  P  P7  1  0.75000000  0.77936948  0.51945372  1
  P  P8  1  0.25000000  0.74402330  0.76519223  1
  P  P9  1  0.75000000  0.25597670  0.23480777  1
  P  P10  1  0.75000000  0.30400173  0.87952586  1
  P  P11  1  0.25000000  0.69599827  0.12047414  1
  O  O12  1  0.75000000  0.33241156  0.73417709  1
  O  O13  1  0.55156748  0.74938738  0.43550001  1
  O  O14  1  0.25000000  0.79550279  0.62709966  1
  O  O15  1  0.55288181  0.20346952  0.91212512  1
  O  O16  1  0.75000000  0.65812606  0.62240484  1
  O  O17  1  0.75000000  0.86853859  0.90160234  1
  O  O18  1  0.25000000  0.34187394  0.37759516  1
  O  O19  1  0.05288181  0.79653048  0.08787488  1
  O  O20  1  0.25000000  0.02158365  0.41352194  1
  O  O21  1  0.75000000  0.97841635  0.58647806  1
  O  O22  1  0.05381257  0.63835215  0.78837811  1
  O  O23  1  0.25000000  0.13146141  0.09839766  1
  O  O24  1  0.55381257  0.36164785  0.21162189  1
  O  O25  1  0.75000000  0.49877603  0.94596114  1
  O  O26  1  0.75000000  0.20449721  0.37290034  1
  O  O27  1  0.44711819  0.79653048  0.08787488  1
  O  O28  1  0.94843252  0.74938738  0.43550001  1
  O  O29  1  0.44843252  0.25061262  0.56449999  1
  O  O30  1  0.44618743  0.63835215  0.78837811  1
  O  O31  1  0.25000000  0.66758844  0.26582291  1
  O  O32  1  0.75000000  0.08293825  0.13101543  1
  O  O33  1  0.25000000  0.91706175  0.86898457  1
  O  O34  1  0.94618743  0.36164785  0.21162189  1
  O  O35  1  0.94711819  0.20346952  0.91212512  1
  O  O36  1  0.05156748  0.25061262  0.56449999  1
  O  O37  1  0.25000000  0.50122397  0.05403886  1
