# generated using pymatgen
data_Ca2Mo3O8
_symmetry_space_group_name_H-M   'P 1'
_cell_length_a   6.45273233
_cell_length_b   6.45273250
_cell_length_c   10.36704330
_cell_angle_alpha   90.00000000
_cell_angle_beta   90.00000000
_cell_angle_gamma   120.00000322
_symmetry_Int_Tables_number   1
_chemical_formula_structural   Ca2Mo3O8
_chemical_formula_sum   'Ca4 Mo6 O16'
_cell_volume   373.82887360
_cell_formula_units_Z   2
loop_
 _symmetry_equiv_pos_site_id
 _symmetry_equiv_pos_as_xyz
  1  'x, y, z'
loop_
 _atom_site_type_symbol
 _atom_site_label
 _atom_site_symmetry_multiplicity
 _atom_site_fract_x
 _atom_site_fract_y
 _atom_site_fract_z
 _atom_site_occupancy
  Ca  Ca0  1  0.66666700  0.33333400  0.02730779  1
  Ca  Ca1  1  0.33333300  0.66666600  0.52730879  1
  Ca  Ca2  1  0.66666700  0.33333400  0.41369910  1
  Ca  Ca3  1  0.33333300  0.66666600  0.91370010  1
  Mo  Mo4  1  0.67191286  0.83595693  0.24448723  1
  Mo  Mo5  1  0.83595793  0.16404407  0.74448723  1
  Mo  Mo6  1  0.16404407  0.32808814  0.24448723  1
  Mo  Mo7  1  0.83595593  0.67191286  0.74448723  1
  Mo  Mo8  1  0.32808814  0.16404407  0.74448723  1
  Mo  Mo9  1  0.16404407  0.83595693  0.24448723  1
  O  O10  1  0.83839453  0.16160647  0.15750408  1
  O  O11  1  0.67678906  0.83839453  0.65750308  1
  O  O12  1  0.16160647  0.32321194  0.65750308  1
  O  O13  1  0.83839353  0.67678906  0.15750408  1
  O  O14  1  0.32321094  0.16160647  0.15750408  1
  O  O15  1  0.16160647  0.83839453  0.65750308  1
  O  O16  1  0.52584407  0.47415493  0.85451262  1
  O  O17  1  0.05168914  0.52584407  0.35451162  1
  O  O18  1  0.47415593  0.94831186  0.35451162  1
  O  O19  1  0.52584407  0.05168914  0.85451262  1
  O  O20  1  -0.00000000  -0.00000000  0.34746631  1
  O  O21  1  -0.00000000  -0.00000000  0.84746631  1
  O  O22  1  0.33333300  0.66666600  0.13551800  1
  O  O23  1  0.94830986  0.47415493  0.85451262  1
  O  O24  1  0.47415493  0.52584407  0.35451162  1
  O  O25  1  0.66666700  0.33333400  0.63551800  1
