# generated using pymatgen
data_Cr(Te2Rh)2
_symmetry_space_group_name_H-M   'P 1'
_cell_length_a   4.10278467
_cell_length_b   6.89078786
_cell_length_c   7.07022809
_cell_angle_alpha   120.28425420
_cell_angle_beta   90.00000000
_cell_angle_gamma   107.31955371
_symmetry_Int_Tables_number   1
_chemical_formula_structural   Cr(Te2Rh)2
_chemical_formula_sum   'Cr1 Te4 Rh2'
_cell_volume   162.02624999
_cell_formula_units_Z   1
loop_
 _symmetry_equiv_pos_site_id
 _symmetry_equiv_pos_as_xyz
  1  'x, y, z'
loop_
 _atom_site_type_symbol
 _atom_site_label
 _atom_site_symmetry_multiplicity
 _atom_site_fract_x
 _atom_site_fract_y
 _atom_site_fract_z
 _atom_site_occupancy
  Cr  Cr0  1  0.00000000  0.00000000  0.00000000  1
  Te  Te1  1  0.36782260  0.73564519  0.03485132  1
  Te  Te2  1  0.63217740  0.26435481  0.96514868  1
  Te  Te3  1  0.12947739  0.25895478  0.46599864  1
  Te  Te4  1  0.87052261  0.74104522  0.53400136  1
  Rh  Rh5  1  0.25329522  0.50659044  0.26268431  1
  Rh  Rh6  1  0.74670478  0.49340956  0.73731569  1
