# generated using pymatgen
data_MnCO3
_symmetry_space_group_name_H-M   'P 1'
_cell_length_a   3.83009714
_cell_length_b   4.88027235
_cell_length_c   6.19824277
_cell_angle_alpha   88.52768335
_cell_angle_beta   74.08032225
_cell_angle_gamma   89.66293265
_symmetry_Int_Tables_number   1
_chemical_formula_structural   MnCO3
_chemical_formula_sum   'Mn2 C2 O6'
_cell_volume   111.37673008
_cell_formula_units_Z   2
loop_
 _symmetry_equiv_pos_site_id
 _symmetry_equiv_pos_as_xyz
  1  'x, y, z'
loop_
 _atom_site_type_symbol
 _atom_site_label
 _atom_site_symmetry_multiplicity
 _atom_site_fract_x
 _atom_site_fract_y
 _atom_site_fract_z
 _atom_site_occupancy
  Mn  Mn0  1  0.03018652  0.31527368  0.24926387  1
  Mn  Mn1  1  0.96981348  0.68472632  0.75073613  1
  C  C2  1  0.50291475  0.81115657  0.24978948  1
  C  C3  1  0.49708525  0.18884343  0.75021052  1
  O  O4  1  0.52745347  0.07633757  0.24588644  1
  O  O5  1  0.47254653  0.92366243  0.75411356  1
  O  O6  1  0.75059598  0.66467149  0.11620188  1
  O  O7  1  0.24940402  0.33532851  0.88379812  1
  O  O8  1  0.77374205  0.31275351  0.61448170  1
  O  O9  1  0.22625795  0.68724649  0.38551830  1
