# generated using pymatgen
data_K(FeSe)2
_symmetry_space_group_name_H-M   'P 1'
_cell_length_a   3.78355896
_cell_length_b   3.78355896
_cell_length_c   7.91886399
_cell_angle_alpha   103.82134993
_cell_angle_beta   103.82134993
_cell_angle_gamma   90.00000000
_symmetry_Int_Tables_number   1
_chemical_formula_structural   K(FeSe)2
_chemical_formula_sum   'K1 Fe2 Se2'
_cell_volume   106.69546652
_cell_formula_units_Z   1
loop_
 _symmetry_equiv_pos_site_id
 _symmetry_equiv_pos_as_xyz
  1  'x, y, z'
loop_
 _atom_site_type_symbol
 _atom_site_label
 _atom_site_symmetry_multiplicity
 _atom_site_fract_x
 _atom_site_fract_y
 _atom_site_fract_z
 _atom_site_occupancy
  K  K0  1  -0.00000000  0.00000000  0.00000000  1
  Fe  Fe1  1  0.25000000  0.75000000  0.50000000  1
  Fe  Fe2  1  0.75000000  0.25000000  0.50000000  1
  Se  Se3  1  0.64118295  0.64118295  0.28236590  1
  Se  Se4  1  0.35881705  0.35881705  0.71763410  1
