# generated using pymatgen
data_CaCrP2O7
_symmetry_space_group_name_H-M   'P 1'
_cell_length_a   7.45725652
_cell_length_b   9.03721469
_cell_length_c   8.87511540
_cell_angle_alpha   90.00000000
_cell_angle_beta   111.19975220
_cell_angle_gamma   90.00000000
_symmetry_Int_Tables_number   1
_chemical_formula_structural   CaCrP2O7
_chemical_formula_sum   'Ca4 Cr4 P8 O28'
_cell_volume   557.64163352
_cell_formula_units_Z   4
loop_
 _symmetry_equiv_pos_site_id
 _symmetry_equiv_pos_as_xyz
  1  'x, y, z'
loop_
 _atom_site_type_symbol
 _atom_site_label
 _atom_site_symmetry_multiplicity
 _atom_site_fract_x
 _atom_site_fract_y
 _atom_site_fract_z
 _atom_site_occupancy
  Ca  Ca0  1  0.13914989  0.95404774  0.86256404  1
  Ca  Ca1  1  0.36085011  0.45404774  0.63743596  1
  Ca  Ca2  1  0.63914989  0.54595226  0.36256404  1
  Ca  Ca3  1  0.86085011  0.04595226  0.13743596  1
  Cr  Cr4  1  0.38073493  0.07654474  0.60456650  1
  Cr  Cr5  1  0.61926507  0.92345526  0.39543350  1
  Cr  Cr6  1  0.11926507  0.57654474  0.89543350  1
  Cr  Cr7  1  0.88073493  0.42345526  0.10456650  1
  P  P8  1  0.17891382  0.72113130  0.24007232  1
  P  P9  1  0.44596662  0.23965975  0.96329411  1
  P  P10  1  0.67891382  0.77886870  0.74007232  1
  P  P11  1  0.94596662  0.26034025  0.46329411  1
  P  P12  1  0.32108618  0.22113130  0.25992768  1
  P  P13  1  0.05403338  0.73965975  0.53670589  1
  P  P14  1  0.55403338  0.76034025  0.03670589  1
  P  P15  1  0.82108618  0.27886870  0.75992768  1
  O  O16  1  0.36955832  0.17848135  0.10117050  1
  O  O17  1  0.58218445  0.63458751  0.66630487  1
  O  O18  1  0.08218445  0.86541249  0.16630487  1
  O  O19  1  0.34517128  0.38316634  0.89127101  1
  O  O20  1  0.63044168  0.82151865  0.89882950  1
  O  O21  1  0.40403675  0.08634303  0.37340361  1
  O  O22  1  0.65482872  0.61683366  0.10872899  1
  O  O23  1  0.38959891  0.10543226  0.84748649  1
  O  O24  1  0.16570782  0.24347904  0.54625509  1
  O  O25  1  0.59596325  0.91365697  0.62659639  1
  O  O26  1  0.90403675  0.41365697  0.87340361  1
  O  O27  1  0.89775309  0.77738635  0.80104336  1
  O  O28  1  0.60224691  0.27738635  0.69895664  1
  O  O29  1  0.86955832  0.32151865  0.60117050  1
  O  O30  1  0.09596325  0.58634303  0.12659639  1
  O  O31  1  0.91781555  0.13458751  0.83369513  1
  O  O32  1  0.10224691  0.22261365  0.19895664  1
  O  O33  1  0.61040109  0.89456774  0.15251351  1
  O  O34  1  0.66570782  0.25652096  0.04625509  1
  O  O35  1  0.33429218  0.74347904  0.95374491  1
  O  O36  1  0.15482872  0.88316634  0.60872899  1
  O  O37  1  0.88959891  0.39456774  0.34748649  1
  O  O38  1  0.11040109  0.60543226  0.65251351  1
  O  O39  1  0.41781555  0.36541249  0.33369513  1
  O  O40  1  0.39775309  0.72261365  0.30104336  1
  O  O41  1  0.84517128  0.11683366  0.39127101  1
  O  O42  1  0.83429218  0.75652096  0.45374491  1
  O  O43  1  0.13044168  0.67848135  0.39882950  1
