# generated using pymatgen
data_CuAgS
_symmetry_space_group_name_H-M   'P 1'
_cell_length_a   3.90669546
_cell_length_b   3.90669546
_cell_length_c   8.20762329
_cell_angle_alpha   90.00000000
_cell_angle_beta   90.00000000
_cell_angle_gamma   117.62668672
_symmetry_Int_Tables_number   1
_chemical_formula_structural   CuAgS
_chemical_formula_sum   'Cu2 Ag2 S2'
_cell_volume   110.98498316
_cell_formula_units_Z   2
loop_
 _symmetry_equiv_pos_site_id
 _symmetry_equiv_pos_as_xyz
  1  'x, y, z'
loop_
 _atom_site_type_symbol
 _atom_site_label
 _atom_site_symmetry_multiplicity
 _atom_site_fract_x
 _atom_site_fract_y
 _atom_site_fract_z
 _atom_site_occupancy
  Cu  Cu0  1  0.43927140  0.56072860  0.28313715  1
  Cu  Cu1  1  0.56072860  0.43927140  0.78313715  1
  Ag  Ag2  1  0.98955354  0.01044646  0.02710278  1
  Ag  Ag3  1  0.01044646  0.98955354  0.52710278  1
  S  S4  1  0.79161054  0.20838946  0.28166007  1
  S  S5  1  0.20838946  0.79161054  0.78166007  1
