# generated using pymatgen
data_Y3Au2
_symmetry_space_group_name_H-M   'P 1'
_cell_length_a   3.79651145
_cell_length_b   8.20568443
_cell_length_c   8.20568443
_cell_angle_alpha   90.00000000
_cell_angle_beta   90.00000000
_cell_angle_gamma   90.00000000
_symmetry_Int_Tables_number   1
_chemical_formula_structural   Y3Au2
_chemical_formula_sum   'Y6 Au4'
_cell_volume   255.63148103
_cell_formula_units_Z   2
loop_
 _symmetry_equiv_pos_site_id
 _symmetry_equiv_pos_as_xyz
  1  'x, y, z'
loop_
 _atom_site_type_symbol
 _atom_site_label
 _atom_site_symmetry_multiplicity
 _atom_site_fract_x
 _atom_site_fract_y
 _atom_site_fract_z
 _atom_site_occupancy
  Y  Y0  1  0.00000000  0.50000000  0.50000000  1
  Y  Y1  1  0.00000000  -0.00000000  -0.00000000  1
  Y  Y2  1  0.50000000  0.16181722  0.66181722  1
  Y  Y3  1  0.50000000  0.83818278  0.33818278  1
  Y  Y4  1  0.50000000  0.33818278  0.16181722  1
  Y  Y5  1  0.50000000  0.66181722  0.83818278  1
  Au  Au6  1  -0.00000000  0.63316105  0.13316105  1
  Au  Au7  1  0.00000000  0.36683895  0.86683895  1
  Au  Au8  1  0.00000000  0.86683895  0.63316105  1
  Au  Au9  1  -0.00000000  0.13316105  0.36683895  1
