# generated using pymatgen
data_MoW3(SeS)4
_symmetry_space_group_name_H-M   'P 1'
_cell_length_a   3.25552430
_cell_length_b   3.25553028
_cell_length_c   36.55751017
_cell_angle_alpha   90.00096626
_cell_angle_beta   89.99996687
_cell_angle_gamma   119.99991176
_symmetry_Int_Tables_number   1
_chemical_formula_structural   MoW3(SeS)4
_chemical_formula_sum   'Mo1 W3 Se4 S4'
_cell_volume   335.54464130
_cell_formula_units_Z   1
loop_
 _symmetry_equiv_pos_site_id
 _symmetry_equiv_pos_as_xyz
  1  'x, y, z'
loop_
 _atom_site_type_symbol
 _atom_site_label
 _atom_site_symmetry_multiplicity
 _atom_site_fract_x
 _atom_site_fract_y
 _atom_site_fract_z
 _atom_site_occupancy
  Mo  Mo0  1  0.33330761  0.66661481  0.09391647  1
  W  W1  1  0.33330363  0.66660652  0.46967921  1
  W  W2  1  0.66669477  0.33339039  0.28179723  1
  W  W3  1  0.66669416  0.33338889  0.65760512  1
  Se  Se4  1  0.33335205  0.66670487  0.70429205  1
  Se  Se5  1  0.66663872  0.33327657  0.42292226  1
  Se  Se6  1  0.66665280  0.33330513  0.51631964  1
  Se  Se7  1  0.33335391  0.66670806  0.61083222  1
  S  S8  1  0.33335872  0.66671802  0.32419188  1
  S  S9  1  0.66664718  0.33329339  0.05165047  1
  S  S10  1  0.66664409  0.33328787  0.13616806  1
  S  S11  1  0.33335237  0.66670548  0.23937339  1
