# generated using pymatgen
data_Cs3KZr2(Si3O10)2
_symmetry_space_group_name_H-M   'P 1'
_cell_length_a   7.46609529
_cell_length_b   10.84153044
_cell_length_c   13.55065275
_cell_angle_alpha   89.94900890
_cell_angle_beta   90.00000000
_cell_angle_gamma   90.00000000
_symmetry_Int_Tables_number   1
_chemical_formula_structural   Cs3KZr2(Si3O10)2
_chemical_formula_sum   'Cs6 K2 Zr4 Si12 O40'
_cell_volume   1096.84223746
_cell_formula_units_Z   2
loop_
 _symmetry_equiv_pos_site_id
 _symmetry_equiv_pos_as_xyz
  1  'x, y, z'
loop_
 _atom_site_type_symbol
 _atom_site_label
 _atom_site_symmetry_multiplicity
 _atom_site_fract_x
 _atom_site_fract_y
 _atom_site_fract_z
 _atom_site_occupancy
  Cs  Cs0  1  0.75809547  0.56653175  0.60278564  1
  Cs  Cs1  1  0.25809547  0.93346825  0.39721436  1
  Cs  Cs2  1  0.26468359  0.08133773  0.91962214  1
  Cs  Cs3  1  0.76468359  0.41866227  0.08037786  1
  Cs  Cs4  1  0.30336707  0.20980106  0.61580105  1
  Cs  Cs5  1  0.80336707  0.29019894  0.38419895  1
  K  K6  1  0.48126940  0.75263417  0.08912449  1
  K  K7  1  0.98126940  0.74736583  0.91087551  1
  Zr  Zr8  1  0.25750468  0.55748507  0.71688545  1
  Zr  Zr9  1  0.75750468  0.94251493  0.28311455  1
  Zr  Zr10  1  0.75722212  0.05788501  0.78869727  1
  Zr  Zr11  1  0.25722212  0.44211499  0.21130273  1
  Si  Si12  1  0.96631598  0.34413455  0.82092612  1
  Si  Si13  1  0.46631598  0.15586545  0.17907388  1
  Si  Si14  1  0.05412959  0.84759016  0.67980348  1
  Si  Si15  1  0.55412959  0.65240984  0.32019652  1
  Si  Si16  1  0.75483798  0.94924792  0.55148063  1
  Si  Si17  1  0.25483798  0.55075208  0.44851937  1
  Si  Si18  1  0.25837454  0.45428432  0.94766588  1
  Si  Si19  1  0.75837454  0.04571568  0.05233412  1
  Si  Si20  1  0.46052751  0.84837538  0.68154520  1
  Si  Si21  1  0.96052751  0.65162462  0.31845480  1
  Si  Si22  1  0.55970674  0.34948422  0.82378884  1
  Si  Si23  1  0.05970674  0.15051578  0.17621116  1
  O  O24  1  0.26005408  0.51781931  0.56441648  1
  O  O25  1  0.76005408  0.98218069  0.43558352  1
  O  O26  1  0.75692366  0.00878948  0.93698664  1
  O  O27  1  0.25692366  0.49121052  0.06301336  1
  O  O28  1  0.06771169  0.70216442  0.70747006  1
  O  O29  1  0.56771169  0.79783558  0.29252994  1
  O  O30  1  0.95398931  0.19726188  0.79759023  1
  O  O31  1  0.45398931  0.30273812  0.20240977  1
  O  O32  1  0.24380301  0.57226616  0.87343101  1
  O  O33  1  0.74380301  0.92773384  0.12656899  1
  O  O34  1  0.73897991  0.06610022  0.62844077  1
  O  O35  1  0.23897991  0.43389978  0.37155923  1
  O  O36  1  0.93472370  0.86674611  0.57827763  1
  O  O37  1  0.43472370  0.63325389  0.42172237  1
  O  O38  1  0.08554872  0.36134731  0.92381187  1
  O  O39  1  0.58554872  0.13865269  0.07618813  1
  O  O40  1  0.05829957  0.42241877  0.73220143  1
  O  O41  1  0.55829957  0.07758123  0.26779857  1
  O  O42  1  0.96815283  0.92733663  0.76979180  1
  O  O43  1  0.46815283  0.57266337  0.23020820  1
  O  O44  1  0.45264297  0.70187944  0.70959318  1
  O  O45  1  0.95264297  0.79812056  0.29040682  1
  O  O46  1  0.56695626  0.20177933  0.80253653  1
  O  O47  1  0.06695626  0.29822067  0.19746347  1
  O  O48  1  0.46635597  0.42704804  0.73469492  1
  O  O49  1  0.96635597  0.07295196  0.26530508  1
  O  O50  1  0.54375890  0.93121911  0.76984813  1
  O  O51  1  0.04375890  0.56878089  0.23015187  1
  O  O52  1  0.57629624  0.86366722  0.57763659  1
  O  O53  1  0.07629624  0.63633278  0.42236341  1
  O  O54  1  0.44377090  0.37424020  0.92642865  1
  O  O55  1  0.94377090  0.12575980  0.07357135  1
  O  O56  1  0.25795396  0.90047705  0.65290353  1
  O  O57  1  0.75795396  0.59952295  0.34709647  1
  O  O58  1  0.76514400  0.40049123  0.84684063  1
  O  O59  1  0.26514400  0.09950877  0.15315937  1
  O  O60  1  0.60805984  0.71754140  0.86185247  1
  O  O61  1  0.10805984  0.78245860  0.13814753  1
  O  O62  1  0.37483981  0.25824535  0.40378225  1
  O  O63  1  0.87483981  0.24175465  0.59621775  1
