# generated using pymatgen
data_O2
_symmetry_space_group_name_H-M   'P 1'
_cell_length_a   4.50086611
_cell_length_b   6.05038513
_cell_length_c   6.05038513
_cell_angle_alpha   97.98026509
_cell_angle_beta   108.39850193
_cell_angle_gamma   108.39850193
_symmetry_Int_Tables_number   1
_chemical_formula_structural   O2
_chemical_formula_sum   O8
_cell_volume   143.05341281
_cell_formula_units_Z   4
loop_
 _symmetry_equiv_pos_site_id
 _symmetry_equiv_pos_as_xyz
  1  'x, y, z'
loop_
 _atom_site_type_symbol
 _atom_site_label
 _atom_site_symmetry_multiplicity
 _atom_site_fract_x
 _atom_site_fract_y
 _atom_site_fract_z
 _atom_site_occupancy
  O  O0  1  0.39395981  0.71120580  0.00691530  1
  O  O1  1  0.10604019  0.99308470  0.28879420  1
  O  O2  1  0.60604019  0.28879420  0.99308470  1
  O  O3  1  0.89395981  0.00691530  0.71120580  1
  O  O4  1  0.13913346  0.59869249  0.82202709  1
  O  O5  1  0.36086654  0.17797291  0.40130751  1
  O  O6  1  0.86086654  0.40130751  0.17797291  1
  O  O7  1  0.63913346  0.82202709  0.59869249  1
