# generated using pymatgen
data_Li4Yb5Ge4
_symmetry_space_group_name_H-M   'P 1'
_cell_length_a   3.92860641
_cell_length_b   8.91470817
_cell_length_c   8.91470817
_cell_angle_alpha   87.21710900
_cell_angle_beta   77.27075657
_cell_angle_gamma   77.27075648
_symmetry_Int_Tables_number   1
_chemical_formula_structural   Li4Yb5Ge4
_chemical_formula_sum   'Li4 Yb5 Ge4'
_cell_volume   297.05581709
_cell_formula_units_Z   1
loop_
 _symmetry_equiv_pos_site_id
 _symmetry_equiv_pos_as_xyz
  1  'x, y, z'
loop_
 _atom_site_type_symbol
 _atom_site_label
 _atom_site_symmetry_multiplicity
 _atom_site_fract_x
 _atom_site_fract_y
 _atom_site_fract_z
 _atom_site_occupancy
  Li  Li0  1  0.08147653  0.31760275  0.51944420  1
  Li  Li1  1  0.60092072  0.48055580  0.31760275  1
  Li  Li2  1  0.39907928  0.51944420  0.68239725  1
  Li  Li3  1  0.91852347  0.68239725  0.48055580  1
  Ge  Ge4  1  0.24955111  0.31050688  0.19039089  1
  Ge  Ge5  1  0.75044889  0.68949312  0.80960911  1
  Ge  Ge6  1  0.56005800  0.19039089  0.68949312  1
  Ge  Ge7  1  0.43994200  0.80960911  0.31050688  1
  Yb  Yb8  1  0.78680873  0.08332637  0.34305617  1
  Yb  Yb9  1  0.12986490  0.65694383  0.08332637  1
  Yb  Yb10  1  0.21319127  0.91667363  0.65694383  1
  Yb  Yb11  1  0.50000000  0.00000000  0.00000000  1
  Yb  Yb12  1  0.87013510  0.34305617  0.91667363  1
