# generated using pymatgen
data_V2H2O5
_symmetry_space_group_name_H-M   'P 1'
_cell_length_a   3.06305701
_cell_length_b   4.96920065
_cell_length_c   6.13659462
_cell_angle_alpha   94.07252328
_cell_angle_beta   104.45225137
_cell_angle_gamma   90.00000029
_symmetry_Int_Tables_number   1
_chemical_formula_structural   V2H2O5
_chemical_formula_sum   'V2 H2 O5'
_cell_volume   90.20548581
_cell_formula_units_Z   1
loop_
 _symmetry_equiv_pos_site_id
 _symmetry_equiv_pos_as_xyz
  1  'x, y, z'
loop_
 _atom_site_type_symbol
 _atom_site_label
 _atom_site_symmetry_multiplicity
 _atom_site_fract_x
 _atom_site_fract_y
 _atom_site_fract_z
 _atom_site_occupancy
  V  V0  1  0.85656772  0.60237771  0.71313543  1
  V  V1  1  0.14343228  0.39762229  0.28686457  1
  H  H2  1  0.63954916  0.95270606  0.27909833  1
  H  H3  1  0.36045084  0.04729394  0.72090167  1
  O  O4  1  0.00000000  0.50000000  0.00000000  1
  O  O5  1  0.69231515  0.64673886  0.38463030  1
  O  O6  1  0.30768485  0.35326114  0.61536970  1
  O  O7  1  0.37876761  0.85384849  0.75753522  1
  O  O8  1  0.62123239  0.14615151  0.24246478  1
