# generated using pymatgen
data_MoW(SeS)2
_symmetry_space_group_name_H-M   'P 1'
_cell_length_a   3.25695657
_cell_length_b   3.25695474
_cell_length_c   36.50742126
_cell_angle_alpha   89.99983100
_cell_angle_beta   90.00000000
_cell_angle_gamma   120.00001847
_symmetry_Int_Tables_number   1
_chemical_formula_structural   MoW(SeS)2
_chemical_formula_sum   'Mo2 W2 Se4 S4'
_cell_volume   335.37863993
_cell_formula_units_Z   2
loop_
 _symmetry_equiv_pos_site_id
 _symmetry_equiv_pos_as_xyz
  1  'x, y, z'
loop_
 _atom_site_type_symbol
 _atom_site_label
 _atom_site_symmetry_multiplicity
 _atom_site_fract_x
 _atom_site_fract_y
 _atom_site_fract_z
 _atom_site_occupancy
  Mo  Mo0  1  0.33330943  0.66661886  0.09391854  1
  Mo  Mo1  1  0.33330565  0.66661130  0.46966990  1
  W  W2  1  0.66668981  0.33337963  0.28180819  1
  W  W3  1  0.66669100  0.33338200  0.65759029  1
  Se  Se4  1  0.33335031  0.66670162  0.70441031  1
  Se  Se5  1  0.66664452  0.33328805  0.42308085  1
  Se  Se6  1  0.66665013  0.33329925  0.51616990  1
  Se  Se7  1  0.33337028  0.66674156  0.61072081  1
  S  S8  1  0.33335173  0.66670445  0.32427319  1
  S  S9  1  0.66664284  0.33328468  0.05154194  1
  S  S10  1  0.66664288  0.33328477  0.13627749  1
  S  S11  1  0.33335141  0.66670383  0.23928660  1
