# generated using pymatgen
data_BiAs2O7
_symmetry_space_group_name_H-M   'P 1'
_cell_length_a   7.59761333
_cell_length_b   9.91637743
_cell_length_c   10.18655044
_cell_angle_alpha   90.00000000
_cell_angle_beta   109.43297114
_cell_angle_gamma   90.00000000
_symmetry_Int_Tables_number   1
_chemical_formula_structural   BiAs2O7
_chemical_formula_sum   'Bi4 As8 O28'
_cell_volume   723.74155531
_cell_formula_units_Z   4
loop_
 _symmetry_equiv_pos_site_id
 _symmetry_equiv_pos_as_xyz
  1  'x, y, z'
loop_
 _atom_site_type_symbol
 _atom_site_label
 _atom_site_symmetry_multiplicity
 _atom_site_fract_x
 _atom_site_fract_y
 _atom_site_fract_z
 _atom_site_occupancy
  Bi  Bi0  1  0.81308810  0.06629596  0.70989456  1
  Bi  Bi1  1  0.18691190  0.56629596  0.79010544  1
  Bi  Bi2  1  0.18691190  0.93370404  0.29010544  1
  Bi  Bi3  1  0.81308810  0.43370404  0.20989456  1
  As  As4  1  0.40954109  0.25080477  0.74504862  1
  As  As5  1  0.59045891  0.75080477  0.75495138  1
  As  As6  1  0.59045891  0.74919523  0.25495138  1
  As  As7  1  0.40954109  0.24919523  0.24504862  1
  As  As8  1  0.03339620  0.28965331  0.96653016  1
  As  As9  1  0.96660380  0.78965331  0.53346984  1
  As  As10  1  0.96660380  0.71034669  0.03346984  1
  As  As11  1  0.03339620  0.21034669  0.46653016  1
  O  O12  1  0.86292091  0.30775598  0.04136734  1
  O  O13  1  0.13707909  0.80775598  0.45863266  1
  O  O14  1  0.13707909  0.69224402  0.95863266  1
  O  O15  1  0.86292091  0.19224402  0.54136734  1
  O  O16  1  0.37280125  0.42375276  0.72798374  1
  O  O17  1  0.62719875  0.92375276  0.77201626  1
  O  O18  1  0.62719875  0.57624724  0.27201626  1
  O  O19  1  0.37280125  0.07624724  0.22798374  1
  O  O20  1  0.37833365  0.18040357  0.88372573  1
  O  O21  1  0.62166635  0.68040357  0.61627427  1
  O  O22  1  0.62166635  0.81959643  0.11627427  1
  O  O23  1  0.37833365  0.31959643  0.38372573  1
  O  O24  1  0.25137616  0.16927496  0.58900375  1
  O  O25  1  0.74862384  0.66927496  0.91099625  1
  O  O26  1  0.74862384  0.83072504  0.41099625  1
  O  O27  1  0.25137616  0.33072504  0.08900375  1
  O  O28  1  0.00633811  0.10191271  0.33080697  1
  O  O29  1  0.99366189  0.60191271  0.16919303  1
  O  O30  1  0.99366189  0.89808729  0.66919303  1
  O  O31  1  0.00633811  0.39808729  0.83080697  1
  O  O32  1  0.62082942  0.26764268  0.21796735  1
  O  O33  1  0.37917058  0.76764268  0.28203265  1
  O  O34  1  0.37917058  0.73235732  0.78203265  1
  O  O35  1  0.62082942  0.23235732  0.71796735  1
  O  O36  1  0.02035108  0.37560602  0.40923195  1
  O  O37  1  0.97964892  0.87560602  0.09076805  1
  O  O38  1  0.97964892  0.62439398  0.59076805  1
  O  O39  1  0.02035108  0.12439398  0.90923195  1
