# generated using pymatgen
data_La5Mg
_symmetry_space_group_name_H-M   'P 1'
_cell_length_a   13.04932343
_cell_length_b   3.79555503
_cell_length_c   8.88477733
_cell_angle_alpha   90.00000000
_cell_angle_beta   107.48099036
_cell_angle_gamma   90.00000000
_symmetry_Int_Tables_number   1
_chemical_formula_structural   La5Mg
_chemical_formula_sum   'La10 Mg2'
_cell_volume   419.73457258
_cell_formula_units_Z   2
loop_
 _symmetry_equiv_pos_site_id
 _symmetry_equiv_pos_as_xyz
  1  'x, y, z'
loop_
 _atom_site_type_symbol
 _atom_site_label
 _atom_site_symmetry_multiplicity
 _atom_site_fract_x
 _atom_site_fract_y
 _atom_site_fract_z
 _atom_site_occupancy
  La  La0  1  0.99470515  -0.00000000  0.03686592  1
  La  La1  1  0.18560899  0.50000000  0.33267677  1
  La  La2  1  0.04873716  -0.00000000  0.57365055  1
  La  La3  1  0.33717070  -0.00000000  0.68399651  1
  La  La4  1  0.21472956  0.50000000  0.93429903  1
  La  La5  1  0.49470515  0.50000000  0.03686592  1
  La  La6  1  0.68560899  -0.00000000  0.33267677  1
  La  La7  1  0.54873716  0.50000000  0.57365055  1
  La  La8  1  0.83717070  0.50000000  0.68399651  1
  La  La9  1  0.71472956  0.00000000  0.93429903  1
  Mg  Mg10  1  0.38571543  0.00000000  0.27184422  1
  Mg  Mg11  1  0.88571543  0.50000000  0.27184422  1
