# generated using pymatgen
data_Mg2Cd
_symmetry_space_group_name_H-M   'P 1'
_cell_length_a   9.44169442
_cell_length_b   5.41765536
_cell_length_c   5.14332863
_cell_angle_alpha   90.00000000
_cell_angle_beta   90.00000000
_cell_angle_gamma   90.00000000
_symmetry_Int_Tables_number   1
_chemical_formula_structural   Mg2Cd
_chemical_formula_sum   'Mg8 Cd4'
_cell_volume   263.09075597
_cell_formula_units_Z   4
loop_
 _symmetry_equiv_pos_site_id
 _symmetry_equiv_pos_as_xyz
  1  'x, y, z'
loop_
 _atom_site_type_symbol
 _atom_site_label
 _atom_site_symmetry_multiplicity
 _atom_site_fract_x
 _atom_site_fract_y
 _atom_site_fract_z
 _atom_site_occupancy
  Mg  Mg0  1  0.66390969  0.32930444  0.75000000  1
  Mg  Mg1  1  0.83609031  0.82930444  0.75000000  1
  Mg  Mg2  1  0.66390969  0.67069556  0.25000000  1
  Mg  Mg3  1  0.83609031  0.17069556  0.25000000  1
  Mg  Mg4  1  0.16390969  0.82930444  0.75000000  1
  Mg  Mg5  1  0.33609031  0.32930444  0.75000000  1
  Mg  Mg6  1  0.16390969  0.17069556  0.25000000  1
  Mg  Mg7  1  0.33609031  0.67069556  0.25000000  1
  Cd  Cd8  1  0.50000000  0.82888982  0.75000000  1
  Cd  Cd9  1  0.50000000  0.17111018  0.25000000  1
  Cd  Cd10  1  -0.00000000  0.32888982  0.75000000  1
  Cd  Cd11  1  -0.00000000  0.67111018  0.25000000  1
