# generated using pymatgen
data_Mg2Cd
_symmetry_space_group_name_H-M   'P 1'
_cell_length_a   11.48460408
_cell_length_b   3.23140738
_cell_length_c   7.35823546
_cell_angle_alpha   90.00000000
_cell_angle_beta   102.78912052
_cell_angle_gamma   90.00000000
_symmetry_Int_Tables_number   1
_chemical_formula_structural   Mg2Cd
_chemical_formula_sum   'Mg8 Cd4'
_cell_volume   266.30007354
_cell_formula_units_Z   4
loop_
 _symmetry_equiv_pos_site_id
 _symmetry_equiv_pos_as_xyz
  1  'x, y, z'
loop_
 _atom_site_type_symbol
 _atom_site_label
 _atom_site_symmetry_multiplicity
 _atom_site_fract_x
 _atom_site_fract_y
 _atom_site_fract_z
 _atom_site_occupancy
  Mg  Mg0  1  0.99848915  0.00000000  0.00102671  1
  Mg  Mg1  1  0.16588549  0.50000000  0.33367725  1
  Mg  Mg2  1  0.33580920  -0.00000000  0.66551263  1
  Mg  Mg3  1  0.22159650  0.50000000  0.94315643  1
  Mg  Mg4  1  0.49848915  0.50000000  0.00102671  1
  Mg  Mg5  1  0.66588549  -0.00000000  0.33367725  1
  Mg  Mg6  1  0.83580920  0.50000000  0.66551263  1
  Mg  Mg7  1  0.72159650  -0.00000000  0.94315643  1
  Cd  Cd8  1  0.38680407  0.00000000  0.27520075  1
  Cd  Cd9  1  0.05808259  -0.00000000  0.61475923  1
  Cd  Cd10  1  0.88680407  0.50000000  0.27520075  1
  Cd  Cd11  1  0.55808259  0.50000000  0.61475923  1
