# generated using pymatgen
data_BaPr2FeS5
_symmetry_space_group_name_H-M   'P 1'
_cell_length_a   7.94573316
_cell_length_b   7.94573316
_cell_length_c   8.79457199
_cell_angle_alpha   116.85542388
_cell_angle_beta   116.85542390
_cell_angle_gamma   90.00000000
_symmetry_Int_Tables_number   1
_chemical_formula_structural   BaPr2FeS5
_chemical_formula_sum   'Ba2 Pr4 Fe2 S10'
_cell_volume   427.16176166
_cell_formula_units_Z   2
loop_
 _symmetry_equiv_pos_site_id
 _symmetry_equiv_pos_as_xyz
  1  'x, y, z'
loop_
 _atom_site_type_symbol
 _atom_site_label
 _atom_site_symmetry_multiplicity
 _atom_site_fract_x
 _atom_site_fract_y
 _atom_site_fract_z
 _atom_site_occupancy
  S  S0  1  0.48853610  0.98853610  0.27249188  1
  S  S1  1  0.21604422  0.71604422  0.72750812  1
  S  S2  1  0.51146390  0.01146390  0.72750812  1
  S  S3  1  0.71604422  0.51146390  0.72750812  1
  S  S4  1  0.01146390  0.21604422  0.72750812  1
  S  S5  1  0.28395578  0.48853610  0.27249188  1
  S  S6  1  0.98853610  0.78395578  0.27249188  1
  S  S7  1  0.78395578  0.28395578  0.27249188  1
  S  S8  1  0.00000000  0.00000000  0.00000000  1
  S  S9  1  0.50000000  0.50000000  0.00000000  1
  Fe  Fe10  1  0.75000000  0.25000000  0.50000000  1
  Fe  Fe11  1  0.25000000  0.75000000  0.50000000  1
  Ba  Ba12  1  0.75000000  0.75000000  0.50000000  1
  Ba  Ba13  1  0.25000000  0.25000000  0.50000000  1
  Pr  Pr14  1  0.66192283  0.83807717  0.00000000  1
  Pr  Pr15  1  0.16192283  0.66192283  0.00000000  1
  Pr  Pr16  1  0.83807717  0.33807717  0.00000000  1
  Pr  Pr17  1  0.33807717  0.16192283  0.00000000  1
