# generated using pymatgen
data_SrCa7Fe2(Co3O10)2
_symmetry_space_group_name_H-M   'P 1'
_cell_length_a   10.66062021
_cell_length_b   11.16152606
_cell_length_c   17.04766602
_cell_angle_alpha   108.91137392
_cell_angle_beta   108.01730219
_cell_angle_gamma   90.38863372
_symmetry_Int_Tables_number   1
_chemical_formula_structural   SrCa7Fe2(Co3O10)2
_chemical_formula_sum   'Sr4 Ca28 Fe8 Co24 O80'
_cell_volume   1811.92402358
_cell_formula_units_Z   4
loop_
 _symmetry_equiv_pos_site_id
 _symmetry_equiv_pos_as_xyz
  1  'x, y, z'
loop_
 _atom_site_type_symbol
 _atom_site_label
 _atom_site_symmetry_multiplicity
 _atom_site_fract_x
 _atom_site_fract_y
 _atom_site_fract_z
 _atom_site_occupancy
  Sr  Sr0  1  0.30281154  0.56122671  0.60730777  1
  Sr  Sr1  1  0.05471372  0.29724147  0.60953681  1
  Sr  Sr2  1  0.55571123  0.29358926  0.61040093  1
  Sr  Sr3  1  0.45052370  0.20082807  0.89080913  1
  Ca  Ca4  1  0.30441730  0.06940443  0.10858846  1
  Ca  Ca5  1  0.30196082  0.06578064  0.60507102  1
  Ca  Ca6  1  0.30637542  0.56790285  0.11160925  1
  Ca  Ca7  1  0.80566492  0.06445107  0.10854624  1
  Ca  Ca8  1  0.80179389  0.06555709  0.60641152  1
  Ca  Ca9  1  0.80868251  0.56589023  0.11057651  1
  Ca  Ca10  1  0.80910929  0.56708555  0.60600375  1
  Ca  Ca11  1  0.18917378  0.43318973  0.38769564  1
  Ca  Ca12  1  0.19703770  0.43455797  0.89691783  1
  Ca  Ca13  1  0.19301930  0.93062767  0.38932239  1
  Ca  Ca14  1  0.19589406  0.93689812  0.89471460  1
  Ca  Ca15  1  0.70165590  0.43454370  0.38998689  1
  Ca  Ca16  1  0.70165834  0.43144275  0.89776156  1
  Ca  Ca17  1  0.69642203  0.93003326  0.38876153  1
  Ca  Ca18  1  0.69692103  0.93711448  0.89491350  1
  Ca  Ca19  1  0.05619521  0.29353651  0.10871749  1
  Ca  Ca20  1  0.05207454  0.79354523  0.10882059  1
  Ca  Ca21  1  0.05445437  0.78714474  0.60461634  1
  Ca  Ca22  1  0.55826640  0.29193928  0.11013029  1
  Ca  Ca23  1  0.55614885  0.79241786  0.11129978  1
  Ca  Ca24  1  0.55556617  0.79383482  0.60809193  1
  Ca  Ca25  1  0.44303301  0.20763986  0.38815137  1
  Ca  Ca26  1  0.44813980  0.70564674  0.38870618  1
  Ca  Ca27  1  0.44648114  0.71446818  0.89607884  1
  Ca  Ca28  1  0.94170925  0.20846156  0.38929724  1
  Ca  Ca29  1  0.95002946  0.20952214  0.89471968  1
  Ca  Ca30  1  0.94713659  0.70362805  0.38951517  1
  Ca  Ca31  1  0.94511343  0.71499696  0.89536589  1
  Fe  Fe32  1  0.10383611  0.08852032  0.74985013  1
  Fe  Fe33  1  0.10527772  0.59763272  0.75297436  1
  Fe  Fe34  1  0.61173291  0.59704998  0.75410788  1
  Fe  Fe35  1  0.35932893  0.41255874  0.75534643  1
  Fe  Fe36  1  0.35466299  0.90922389  0.24877892  1
  Fe  Fe37  1  0.35613145  0.90701089  0.74815819  1
  Fe  Fe38  1  0.85746498  0.41067563  0.75334413  1
  Fe  Fe39  1  0.85477670  0.90807374  0.75075694  1
  Co  Co40  1  0.00573213  0.00129214  0.00099711  1
  Co  Co41  1  0.00381786  0.99788601  0.49806303  1
  Co  Co42  1  0.00686888  0.50080458  0.00128772  1
  Co  Co43  1  0.00156034  0.49816325  0.49414454  1
  Co  Co44  1  0.50716158  0.00002363  0.00334989  1
  Co  Co45  1  0.50238363  0.99365862  0.49287962  1
  Co  Co46  1  0.50799515  0.50057177  0.00177840  1
  Co  Co47  1  0.50477244  0.49910928  0.49592598  1
  Co  Co48  1  0.25702083  0.25193324  0.00227004  1
  Co  Co49  1  0.24792741  0.24546236  0.49166718  1
  Co  Co50  1  0.25651650  0.75210750  0.00303121  1
  Co  Co51  1  0.25474232  0.74844697  0.49776292  1
  Co  Co52  1  0.75949077  0.25013392  0.00412914  1
  Co  Co53  1  0.75276453  0.24759786  0.49583681  1
  Co  Co54  1  0.75586777  0.75054520  0.00117678  1
  Co  Co55  1  0.75800564  0.74948930  0.49990725  1
  Co  Co56  1  0.10431553  0.09260604  0.24785966  1
  Co  Co57  1  0.10957005  0.59452839  0.24954662  1
  Co  Co58  1  0.60894231  0.09423602  0.24989588  1
  Co  Co59  1  0.61079511  0.09193126  0.74961271  1
  Co  Co60  1  0.60890747  0.59378801  0.24966891  1
  Co  Co61  1  0.35776324  0.40666398  0.24951017  1
  Co  Co62  1  0.85796405  0.40616000  0.24955637  1
  Co  Co63  1  0.85723469  0.90501939  0.24984892  1
  O  O64  1  0.12466989  0.12113558  0.48367026  1
  O  O65  1  0.12361732  0.12179882  0.98851133  1
  O  O66  1  0.11775536  0.61523683  0.48008629  1
  O  O67  1  0.12699436  0.62811235  0.98948400  1
  O  O68  1  0.61653312  0.11334621  0.48528805  1
  O  O69  1  0.63012949  0.11920335  0.99356263  1
  O  O70  1  0.62825187  0.62615476  0.48682904  1
  O  O71  1  0.62347920  0.61743198  0.99203133  1
  O  O72  1  0.13946956  0.38515321  0.01586201  1
  O  O73  1  0.12616811  0.37622648  0.50400619  1
  O  O74  1  0.13727090  0.88466175  0.01771534  1
  O  O75  1  0.13419028  0.88009033  0.50872352  1
  O  O76  1  0.64246441  0.38173401  0.01917351  1
  O  O77  1  0.62831487  0.38280426  0.50525192  1
  O  O78  1  0.63335043  0.87772849  0.01473814  1
  O  O79  1  0.63718983  0.88163148  0.51436968  1
  O  O80  1  0.36798988  0.10967705  0.48046585  1
  O  O81  1  0.37496917  0.11645301  0.99388740  1
  O  O82  1  0.37931772  0.61242479  0.48551866  1
  O  O83  1  0.37197087  0.61673638  0.98500922  1
  O  O84  1  0.87025596  0.11201969  0.48447002  1
  O  O85  1  0.87443125  0.11691482  0.98677344  1
  O  O86  1  0.87437058  0.61505373  0.48222195  1
  O  O87  1  0.87462985  0.61703002  0.98907298  1
  O  O88  1  0.39053496  0.38980897  0.01454500  1
  O  O89  1  0.37670382  0.37090739  0.50339424  1
  O  O90  1  0.38322782  0.87916277  0.01477446  1
  O  O91  1  0.38981820  0.88385748  0.50781748  1
  O  O92  1  0.88729730  0.38149174  0.01386308  1
  O  O93  1  0.88083267  0.38787518  0.51016691  1
  O  O94  1  0.88746120  0.88553284  0.01661774  1
  O  O95  1  0.88180660  0.87600656  0.50992070  1
  O  O96  1  0.08594255  0.10354686  0.14157793  1
  O  O97  1  0.08760531  0.09371891  0.63865484  1
  O  O98  1  0.08665600  0.60407990  0.14183824  1
  O  O99  1  0.07935670  0.59862836  0.63807706  1
  O  O100  1  0.58792266  0.10264458  0.14301418  1
  O  O101  1  0.59196085  0.09497123  0.64223243  1
  O  O102  1  0.58692022  0.60385912  0.14221802  1
  O  O103  1  0.58876010  0.60016042  0.64035972  1
  O  O104  1  0.44599252  0.39778412  0.35696169  1
  O  O105  1  0.45670906  0.40190939  0.86381444  1
  O  O106  1  0.45033060  0.89089348  0.35653363  1
  O  O107  1  0.44822314  0.90112445  0.86000432  1
  O  O108  1  0.94023736  0.40120611  0.35998883  1
  O  O109  1  0.95210926  0.39665852  0.86153024  1
  O  O110  1  0.94341071  0.89569957  0.35718680  1
  O  O111  1  0.95064529  0.89855376  0.86079685  1
  O  O112  1  0.33708463  0.29128516  0.14217190  1
  O  O113  1  0.33112710  0.29136862  0.64286491  1
  O  O114  1  0.33893599  0.78498091  0.14008986  1
  O  O115  1  0.33677270  0.79082086  0.63664890  1
  O  O116  1  0.84136939  0.28791939  0.14411383  1
  O  O117  1  0.82813781  0.28804612  0.64174942  1
  O  O118  1  0.83603789  0.78858514  0.14266885  1
  O  O119  1  0.84067620  0.78687727  0.64029720  1
  O  O120  1  0.19203915  0.21052499  0.35449748  1
  O  O121  1  0.19299443  0.21249985  0.85961737  1
  O  O122  1  0.19753263  0.70964831  0.35708291  1
  O  O123  1  0.19785865  0.72003400  0.86106172  1
  O  O124  1  0.69466982  0.21048627  0.35699438  1
  O  O125  1  0.69373911  0.20738504  0.85767565  1
  O  O126  1  0.69552861  0.71005481  0.35725621  1
  O  O127  1  0.70338883  0.71909035  0.86287866  1
  O  O128  1  0.42385391  0.06903113  0.24917723  1
  O  O129  1  0.42297239  0.06299715  0.74202296  1
  O  O130  1  0.42609762  0.56801829  0.24983040  1
  O  O131  1  0.43205297  0.57363617  0.75786916  1
  O  O132  1  0.92364218  0.06754910  0.24975092  1
  O  O133  1  0.92111803  0.06983125  0.74987388  1
  O  O134  1  0.92726260  0.56687550  0.24970492  1
  O  O135  1  0.92287868  0.57220283  0.75167468  1
  O  O136  1  0.17518762  0.43254577  0.24912109  1
  O  O137  1  0.18043920  0.44205426  0.75954676  1
  O  O138  1  0.17317146  0.93100223  0.24930027  1
  O  O139  1  0.17355884  0.92849454  0.75029013  1
  O  O140  1  0.67591517  0.43212365  0.24886011  1
  O  O141  1  0.68022055  0.43886616  0.75991005  1
  O  O142  1  0.67475362  0.93246415  0.25014067  1
  O  O143  1  0.67350634  0.92680798  0.75117600  1
