# generated using pymatgen
data_Tm2CuO4
_symmetry_space_group_name_H-M   'P 1'
_cell_length_a   7.70189978
_cell_length_b   5.48364062
_cell_length_c   6.13602053
_cell_angle_alpha   109.14951932
_cell_angle_beta   103.47914483
_cell_angle_gamma   44.62017392
_symmetry_Int_Tables_number   1
_chemical_formula_structural   Tm2CuO4
_chemical_formula_sum   'Tm4 Cu2 O8'
_cell_volume   171.95647935
_cell_formula_units_Z   2
loop_
 _symmetry_equiv_pos_site_id
 _symmetry_equiv_pos_as_xyz
  1  'x, y, z'
loop_
 _atom_site_type_symbol
 _atom_site_label
 _atom_site_symmetry_multiplicity
 _atom_site_fract_x
 _atom_site_fract_y
 _atom_site_fract_z
 _atom_site_occupancy
  Tm  Tm0  1  0.01986132  0.65723960  0.31117149  1
  Tm  Tm1  1  0.51952559  0.30333665  0.68878982  1
  Tm  Tm2  1  0.48045272  0.69669514  0.31120726  1
  Tm  Tm3  1  0.98012115  0.34276953  0.68882993  1
  Cu  Cu4  1  0.00000817  0.99998594  0.99999550  1
  Cu  Cu5  1  0.50000742  0.99999297  0.00000789  1
  O  O6  1  0.19491761  0.12197048  0.03300486  1
  O  O7  1  0.25204868  0.25153517  0.52621874  1
  O  O8  1  0.30515907  0.51167203  0.03315416  1
  O  O9  1  0.24782956  0.75574735  0.52638936  1
  O  O10  1  0.75214845  0.24427700  0.47360427  1
  O  O11  1  0.69487534  0.48828802  0.96683608  1
  O  O12  1  0.74792919  0.74849032  0.47378754  1
  O  O13  1  0.80511573  0.87799979  0.96700309  1
