# generated using pymatgen
data_Zr4FeBiPb4O15
_symmetry_space_group_name_H-M   'P 1'
_cell_length_a   5.94281135
_cell_length_b   29.79905290
_cell_length_c   10.37748577
_cell_angle_alpha   29.46898625
_cell_angle_beta   54.06511618
_cell_angle_gamma   59.27366884
_symmetry_Int_Tables_number   1
_chemical_formula_structural   Zr4FeBiPb4O15
_chemical_formula_sum   'Zr8 Fe2 Bi2 Pb8 O30'
_cell_volume   732.02418108
_cell_formula_units_Z   2
loop_
 _symmetry_equiv_pos_site_id
 _symmetry_equiv_pos_as_xyz
  1  'x, y, z'
loop_
 _atom_site_type_symbol
 _atom_site_label
 _atom_site_symmetry_multiplicity
 _atom_site_fract_x
 _atom_site_fract_y
 _atom_site_fract_z
 _atom_site_occupancy
  Zr  Zr0  1  0.22223102  0.19845547  0.22815302  1
  Zr  Zr1  1  0.71377850  0.99957083  0.72687322  1
  Zr  Zr2  1  0.22389172  0.40217806  0.21830785  1
  Zr  Zr3  1  0.72389172  0.19782194  0.72919817  1
  Zr  Zr4  1  0.21377850  0.60042917  0.22472737  1
  Zr  Zr5  1  0.72223102  0.40154453  0.72043037  1
  Zr  Zr6  1  0.71513938  0.60178630  0.72101430  1
  Zr  Zr7  1  0.21513938  0.99821370  0.22994579  1
  Fe  Fe8  1  0.23287822  0.79928194  0.22741870  1
  Fe  Fe9  1  0.73287822  0.80071806  0.72382841  1
  Bi  Bi10  1  0.01894908  0.80169550  0.00669902  1
  Bi  Bi11  1  0.51894908  0.79830450  0.51517650  1
  Pb  Pb12  1  0.99376888  0.98908427  0.02178055  1
  Pb  Pb13  1  0.99567557  0.20077442  0.99236989  1
  Pb  Pb14  1  0.48177070  0.99073585  0.52266025  1
  Pb  Pb15  1  0.99492805  0.39959721  0.99664190  1
  Pb  Pb16  1  0.49492805  0.20040279  0.49462796  1
  Pb  Pb17  1  0.98177070  0.60926415  0.97633952  1
  Pb  Pb18  1  0.49567557  0.39922558  0.49624200  1
  Pb  Pb19  1  0.49376888  0.61091573  0.46720192  1
  O  O20  1  0.01815070  0.09074504  0.45283776  1
  O  O21  1  0.91677446  0.08368022  0.02305522  1
  O  O22  1  0.52140777  0.10456715  0.41720498  1
  O  O23  1  0.01600949  0.29402719  0.44531824  1
  O  O24  1  0.44849289  0.01636115  0.92553392  1
  O  O25  1  0.91320181  0.28526264  0.01834159  1
  O  O26  1  0.41284908  0.11162840  0.95389867  1
  O  O27  1  0.51600949  0.30597281  0.41545418  1
  O  O28  1  0.02140777  0.49543285  0.44004075  1
  O  O29  1  0.94468958  0.17963641  0.51701415  1
  O  O30  1  0.44468543  0.22110372  0.91342916  1
  O  O31  1  0.91284908  0.48837160  0.01204067  1
  O  O32  1  0.41320181  0.31473736  0.94465480  1
  O  O33  1  0.51815070  0.50925496  0.40656295  1
  O  O34  1  0.02528240  0.69838103  0.42508801  1
  O  O35  1  0.94468543  0.37889628  0.51894779  1
  O  O36  1  0.44468958  0.42036359  0.91519621  1
  O  O37  1  0.90453723  0.68777873  0.01102305  1
  O  O38  1  0.41677446  0.51631978  0.94145630  1
  O  O39  1  0.51897222  0.71079939  0.39905291  1
  O  O40  1  0.01897222  0.88920061  0.45304985  1
  O  O41  1  0.94849289  0.58363885  0.50733968  1
  O  O42  1  0.45407152  0.63025781  0.89078979  1
  O  O43  1  0.91512339  0.87975647  0.02589493  1
  O  O44  1  0.41512339  0.72024353  0.92467729  1
  O  O45  1  0.52528240  0.90161897  0.41699318  1
  O  O46  1  0.93524091  0.77836184  0.51333127  1
  O  O47  1  0.43524091  0.82163816  0.90514046  1
  O  O48  1  0.40453723  0.91222127  0.94991669  1
  O  O49  1  0.95407152  0.96974219  0.54207882  1
