# generated using pymatgen
data_Li9Mn7O16
_symmetry_space_group_name_H-M   'P 1'
_cell_length_a   2.87562734
_cell_length_b   9.87109248
_cell_length_c   10.52753920
_cell_angle_alpha   96.13893344
_cell_angle_beta   90.00000000
_cell_angle_gamma   90.00000000
_symmetry_Int_Tables_number   1
_chemical_formula_structural   Li9Mn7O16
_chemical_formula_sum   'Li9 Mn7 O16'
_cell_volume   297.11670154
_cell_formula_units_Z   1
loop_
 _symmetry_equiv_pos_site_id
 _symmetry_equiv_pos_as_xyz
  1  'x, y, z'
loop_
 _atom_site_type_symbol
 _atom_site_label
 _atom_site_symmetry_multiplicity
 _atom_site_fract_x
 _atom_site_fract_y
 _atom_site_fract_z
 _atom_site_occupancy
  Li  Li0  1  0.50000000  0.00566268  0.24326526  1
  Li  Li1  1  0.50000000  0.00396308  0.75557374  1
  Li  Li2  1  0.00000000  0.24824200  0.36693408  1
  Li  Li3  1  0.00000000  0.25175800  0.88306592  1
  Li  Li4  1  0.50000000  0.49603692  0.49442626  1
  Li  Li5  1  0.50000000  0.49433732  0.00673474  1
  Li  Li6  1  0.00000000  0.75000000  0.12500000  1
  Li  Li7  1  0.00000000  0.75000000  0.62500000  1
  Li  Li8  1  0.50000000  0.25000000  0.12500000  1
  Mn  Mn9  1  -0.00000000  0.01233507  0.01213853  1
  Mn  Mn10  1  0.00000000  0.48766493  0.23786147  1
  Mn  Mn11  1  0.00000000  0.99730148  0.49770970  1
  Mn  Mn12  1  0.50000000  0.25000000  0.62500000  1
  Mn  Mn13  1  0.00000000  0.50269852  0.75229030  1
  Mn  Mn14  1  0.50000000  0.74279861  0.36928772  1
  Mn  Mn15  1  0.50000000  0.75720139  0.88071228  1
  O  O16  1  0.50000000  0.89162862  0.05999041  1
  O  O17  1  0.50000000  0.88538948  0.56105090  1
  O  O18  1  0.00000000  0.11125656  0.16748194  1
  O  O19  1  0.00000000  0.13882308  0.68623372  1
  O  O20  1  0.50000000  0.38639523  0.30714942  1
  O  O21  1  0.50000000  0.39098049  0.81405332  1
  O  O22  1  0.00000000  0.64396533  0.93608370  1
  O  O23  1  0.00000000  0.62252410  0.41918319  1
  O  O24  1  0.50000000  0.10901951  0.43594668  1
  O  O25  1  0.50000000  0.11360477  0.94285058  1
  O  O26  1  0.00000000  0.36117692  0.56376628  1
  O  O27  1  0.00000000  0.38874344  0.08251806  1
  O  O28  1  0.50000000  0.61461052  0.68894910  1
  O  O29  1  0.50000000  0.60837138  0.19000959  1
  O  O30  1  0.00000000  0.85603467  0.31391630  1
  O  O31  1  -0.00000000  0.87747590  0.83081681  1
