# generated using pymatgen
data_LuNiGe2
_symmetry_space_group_name_H-M   'P 1'
_cell_length_a   4.16798440
_cell_length_b   4.01945328
_cell_length_c   8.62368993
_cell_angle_alpha   103.47653876
_cell_angle_beta   90.00000000
_cell_angle_gamma   90.00000000
_symmetry_Int_Tables_number   1
_chemical_formula_structural   LuNiGe2
_chemical_formula_sum   'Lu2 Ni2 Ge4'
_cell_volume   140.49483996
_cell_formula_units_Z   2
loop_
 _symmetry_equiv_pos_site_id
 _symmetry_equiv_pos_as_xyz
  1  'x, y, z'
loop_
 _atom_site_type_symbol
 _atom_site_label
 _atom_site_symmetry_multiplicity
 _atom_site_fract_x
 _atom_site_fract_y
 _atom_site_fract_z
 _atom_site_occupancy
  Lu  Lu0  1  0.75000000  0.10850939  0.21701878  1
  Lu  Lu1  1  0.25000000  0.89149061  0.78298122  1
  Ni  Ni2  1  0.75000000  0.32340237  0.64680475  1
  Ni  Ni3  1  0.25000000  0.67659763  0.35319525  1
  Ge  Ge4  1  0.75000000  0.45957337  0.91914674  1
  Ge  Ge5  1  0.25000000  0.54042663  0.08085326  1
  Ge  Ge6  1  0.75000000  0.74739521  0.49479042  1
  Ge  Ge7  1  0.25000000  0.25260479  0.50520958  1
