# generated using pymatgen
data_Li9Mn7O16
_symmetry_space_group_name_H-M   'P 1'
_cell_length_a   3.01358916
_cell_length_b   7.85811272
_cell_length_c   12.64680278
_cell_angle_alpha   91.36123797
_cell_angle_beta   90.26233081
_cell_angle_gamma   84.00827978
_symmetry_Int_Tables_number   1
_chemical_formula_structural   Li9Mn7O16
_chemical_formula_sum   'Li9 Mn7 O16'
_cell_volume   297.76965535
_cell_formula_units_Z   1
loop_
 _symmetry_equiv_pos_site_id
 _symmetry_equiv_pos_as_xyz
  1  'x, y, z'
loop_
 _atom_site_type_symbol
 _atom_site_label
 _atom_site_symmetry_multiplicity
 _atom_site_fract_x
 _atom_site_fract_y
 _atom_site_fract_z
 _atom_site_occupancy
  Li  Li0  1  0.80034930  0.37904119  0.05271149  1
  Li  Li1  1  0.06176518  0.87508384  0.31269021  1
  Li  Li2  1  0.30808541  0.37718345  0.56360722  1
  Li  Li3  1  0.21824884  0.60616813  0.93419385  1
  Li  Li4  1  0.44191459  0.12281655  0.18639278  1
  Li  Li5  1  0.68823482  0.62491616  0.43730979  1
  Li  Li6  1  0.53175116  0.89383187  0.81580615  1
  Li  Li7  1  0.94965070  0.12095881  0.69728851  1
  Li  Li8  1  0.37500000  0.25000000  0.87500000  1
  Mn  Mn9  1  0.99010559  0.00830838  0.99492349  1
  Mn  Mn10  1  0.75989441  0.49169162  0.75507651  1
  Mn  Mn11  1  0.24925573  0.49948472  0.24866299  1
  Mn  Mn12  1  0.50074427  0.00051528  0.50133701  1
  Mn  Mn13  1  0.61328030  0.75377907  0.12438555  1
  Mn  Mn14  1  0.87500000  0.25000000  0.37500000  1
  Mn  Mn15  1  0.13671970  0.74622093  0.62561445  1
  O  O16  1  0.44636157  0.16171781  0.02613069  1
  O  O17  1  0.62543261  0.68557179  0.27306012  1
  O  O18  1  0.87306967  0.18578671  0.52498858  1
  O  O19  1  0.76838456  0.44837769  0.89671097  1
  O  O20  1  0.99801683  0.93425267  0.14700267  1
  O  O21  1  0.24972947  0.43626071  0.39849806  1
  O  O22  1  0.20220990  0.66344815  0.77251066  1
  O  O23  1  0.50595484  0.93431216  0.65137184  1
  O  O24  1  0.24404616  0.56568784  0.09862816  1
  O  O25  1  0.50027053  0.06373929  0.35150094  1
  O  O26  1  0.75198317  0.56574733  0.60299633  1
  O  O27  1  0.54779010  0.83655185  0.97748934  1
  O  O28  1  0.87693033  0.31421329  0.22501142  1
  O  O29  1  0.12456739  0.81442821  0.47693988  1
  O  O30  1  0.98161444  0.05162231  0.85328903  1
  O  O31  1  0.30363843  0.33828219  0.72386931  1
