# generated using pymatgen
data_Cr3N2
_symmetry_space_group_name_H-M   'P 1'
_cell_length_a   4.71987862
_cell_length_b   4.71987952
_cell_length_c   5.49109869
_cell_angle_alpha   64.47604909
_cell_angle_beta   64.47605269
_cell_angle_gamma   60.02479771
_symmetry_Int_Tables_number   1
_chemical_formula_structural   Cr3N2
_chemical_formula_sum   'Cr6 N4'
_cell_volume   91.91368701
_cell_formula_units_Z   2
loop_
 _symmetry_equiv_pos_site_id
 _symmetry_equiv_pos_as_xyz
  1  'x, y, z'
loop_
 _atom_site_type_symbol
 _atom_site_label
 _atom_site_symmetry_multiplicity
 _atom_site_fract_x
 _atom_site_fract_y
 _atom_site_fract_z
 _atom_site_occupancy
  Cr  Cr0  1  0.57554069  0.24956910  0.24986880  1
  Cr  Cr1  1  0.92452740  0.57547260  0.25000000  1
  Cr  Cr2  1  0.25043090  0.92445931  0.25013120  1
  Cr  Cr3  1  0.74956910  0.07554069  0.74986880  1
  Cr  Cr4  1  0.42445931  0.75043090  0.75013120  1
  Cr  Cr5  1  0.07547260  0.42452740  0.75000000  1
  N  N6  1  0.84064379  0.84044709  0.47812394  1
  N  N7  1  0.34044709  0.34064379  0.97812394  1
  N  N8  1  0.15935621  0.15955291  0.52187606  1
  N  N9  1  0.65955291  0.65935621  0.02187606  1
