# generated using pymatgen
data_Li9Mn7O16
_symmetry_space_group_name_H-M   'P 1'
_cell_length_a   2.87904097
_cell_length_b   5.09991073
_cell_length_c   21.38037006
_cell_angle_alpha   96.85512900
_cell_angle_beta   90.00000037
_cell_angle_gamma   73.60462791
_symmetry_Int_Tables_number   1
_chemical_formula_structural   Li9Mn7O16
_chemical_formula_sum   'Li9 Mn7 O16'
_cell_volume   298.81954886
_cell_formula_units_Z   1
loop_
 _symmetry_equiv_pos_site_id
 _symmetry_equiv_pos_as_xyz
  1  'x, y, z'
loop_
 _atom_site_type_symbol
 _atom_site_label
 _atom_site_symmetry_multiplicity
 _atom_site_fract_x
 _atom_site_fract_y
 _atom_site_fract_z
 _atom_site_occupancy
  Li  Li0  1  0.25184476  0.49631048  0.06540487  1
  Li  Li1  1  0.74815524  0.50368952  0.18459513  1
  Li  Li2  1  0.25662689  0.48674622  0.30765212  1
  Li  Li3  1  0.74877750  0.50244501  0.43764544  1
  Li  Li4  1  0.24985802  0.50028395  0.56242195  1
  Li  Li5  1  0.75014198  0.49971605  0.68757805  1
  Li  Li6  1  0.25122250  0.49755499  0.81235456  1
  Li  Li7  1  0.74337311  0.51325378  0.94234788  1
  Li  Li8  1  0.50000000  -0.00000000  0.12500000  1
  Mn  Mn9  1  0.99034155  0.01931691  0.00829815  1
  Mn  Mn10  1  0.00965845  0.98068309  0.24170185  1
  Mn  Mn11  1  0.50469609  0.99060782  0.37044948  1
  Mn  Mn12  1  0.99972765  0.00054469  0.49845722  1
  Mn  Mn13  1  0.50000000  -0.00000000  0.62500000  1
  Mn  Mn14  1  0.00027235  0.99945531  0.75154278  1
  Mn  Mn15  1  0.49530391  0.00939218  0.87955052  1
  O  O16  1  0.38303226  0.23393548  0.97443459  1
  O  O17  1  0.88417383  0.23165234  0.08419559  1
  O  O18  1  0.39114521  0.21770958  0.22209043  1
  O  O19  1  0.89343911  0.21312178  0.33968174  1
  O  O20  1  0.38306126  0.23387748  0.47171912  1
  O  O21  1  0.88326523  0.23346955  0.59858327  1
  O  O22  1  0.38420542  0.23158916  0.72448264  1
  O  O23  1  0.88224924  0.23550151  0.84991692  1
  O  O24  1  0.11582617  0.76834766  0.16580441  1
  O  O25  1  0.61696774  0.76606452  0.27556541  1
  O  O26  1  0.11775076  0.76449849  0.40008308  1
  O  O27  1  0.61579458  0.76841084  0.52551736  1
  O  O28  1  0.11673477  0.76653045  0.65141673  1
  O  O29  1  0.61693874  0.76612252  0.77828088  1
  O  O30  1  0.10656089  0.78687822  0.91031826  1
  O  O31  1  0.60885479  0.78229042  0.02790957  1
