# generated using pymatgen
data_Ti3MnNi2(PO4)6
_symmetry_space_group_name_H-M   'P 1'
_cell_length_a   8.51507485
_cell_length_b   8.51507577
_cell_length_c   8.51507521
_cell_angle_alpha   61.17008789
_cell_angle_beta   61.17009363
_cell_angle_gamma   61.17008764
_symmetry_Int_Tables_number   1
_chemical_formula_structural   Ti3MnNi2(PO4)6
_chemical_formula_sum   'Ti3 Mn1 Ni2 P6 O24'
_cell_volume   448.05945523
_cell_formula_units_Z   1
loop_
 _symmetry_equiv_pos_site_id
 _symmetry_equiv_pos_as_xyz
  1  'x, y, z'
loop_
 _atom_site_type_symbol
 _atom_site_label
 _atom_site_symmetry_multiplicity
 _atom_site_fract_x
 _atom_site_fract_y
 _atom_site_fract_z
 _atom_site_occupancy
  Ti  Ti0  1  0.14331487  0.14331487  0.14331487  1
  Ti  Ti1  1  0.35429600  0.35429600  0.35429600  1
  Ti  Ti2  1  0.64612765  0.64612765  0.64612765  1
  Mn  Mn3  1  0.85569467  0.85569467  0.85569467  1
  Ni  Ni4  1  0.99785138  0.99785138  0.99785138  1
  Ni  Ni5  1  0.49861603  0.49861603  0.49861603  1
  P  P6  1  0.25507909  0.54280350  0.95311993  1
  P  P7  1  0.54280350  0.95311993  0.25507909  1
  P  P8  1  0.95311993  0.25507909  0.54280350  1
  P  P9  1  0.05018195  0.75309696  0.44965651  1
  P  P10  1  0.44965651  0.05018195  0.75309696  1
  P  P11  1  0.75309696  0.44965651  0.05018195  1
  O  O12  1  0.10925802  0.33765592  0.47916117  1
  O  O13  1  0.33765592  0.47916117  0.10925802  1
  O  O14  1  0.05973845  0.90933274  0.25005168  1
  O  O15  1  0.47916117  0.10925802  0.33765592  1
  O  O16  1  0.02262623  0.81970613  0.59662154  1
  O  O17  1  0.24563576  0.58911874  0.42677629  1
  O  O18  1  0.25005168  0.05973845  0.90933274  1
  O  O19  1  0.42677629  0.24563576  0.58911874  1
  O  O20  1  0.18580077  0.38022248  0.00186045  1
  O  O21  1  0.58911874  0.42677629  0.24563576  1
  O  O22  1  0.10336807  0.73608367  0.95131733  1
  O  O23  1  0.38022248  0.00186045  0.18580077  1
  O  O24  1  0.59662154  0.02262623  0.81970613  1
  O  O25  1  0.90933274  0.25005168  0.05973845  1
  O  O26  1  0.41526636  0.55105664  0.75673470  1
  O  O27  1  0.81970613  0.59662154  0.02262623  1
  O  O28  1  0.55105664  0.75673470  0.41526636  1
  O  O29  1  0.73608367  0.95131733  0.10336807  1
  O  O30  1  0.75673470  0.41526636  0.55105664  1
  O  O31  1  0.00186045  0.18580077  0.38022248  1
  O  O32  1  0.50344647  0.88138375  0.68793613  1
  O  O33  1  0.95131733  0.10336807  0.73608367  1
  O  O34  1  0.68793613  0.50344647  0.88138375  1
  O  O35  1  0.88138375  0.68793613  0.50344647  1
