# generated using pymatgen
data_Ho2Mo2C3
_symmetry_space_group_name_H-M   'P 1'
_cell_length_a   3.38541081
_cell_length_b   5.69187257
_cell_length_c   5.91688168
_cell_angle_alpha   107.43814077
_cell_angle_beta   106.62346070
_cell_angle_gamma   90.00000037
_symmetry_Int_Tables_number   1
_chemical_formula_structural   Ho2Mo2C3
_chemical_formula_sum   'Ho2 Mo2 C3'
_cell_volume   103.76883178
_cell_formula_units_Z   1
loop_
 _symmetry_equiv_pos_site_id
 _symmetry_equiv_pos_as_xyz
  1  'x, y, z'
loop_
 _atom_site_type_symbol
 _atom_site_label
 _atom_site_symmetry_multiplicity
 _atom_site_fract_x
 _atom_site_fract_y
 _atom_site_fract_z
 _atom_site_occupancy
  Ho  Ho0  1  0.61398696  0.81901619  0.22797393  1
  Ho  Ho1  1  0.38601304  0.18098381  0.77202607  1
  Mo  Mo2  1  0.85054809  0.62693746  0.70109619  1
  Mo  Mo3  1  0.14945191  0.37306254  0.29890381  1
  C  C4  1  -0.00000000  0.50000000  -0.00000000  1
  C  C5  1  0.27142850  0.74284948  0.54285700  1
  C  C6  1  0.72857150  0.25715052  0.45714300  1
