# generated using pymatgen
data_V4(PO4)3
_symmetry_space_group_name_H-M   'P 1'
_cell_length_a   6.73337773
_cell_length_b   10.73195205
_cell_length_c   6.73334923
_cell_angle_alpha   71.78511473
_cell_angle_beta   90.00968852
_cell_angle_gamma   108.21446033
_symmetry_Int_Tables_number   1
_chemical_formula_structural   V4(PO4)3
_chemical_formula_sum   'V8 P6 O24'
_cell_volume   436.45452619
_cell_formula_units_Z   2
loop_
 _symmetry_equiv_pos_site_id
 _symmetry_equiv_pos_as_xyz
  1  'x, y, z'
loop_
 _atom_site_type_symbol
 _atom_site_label
 _atom_site_symmetry_multiplicity
 _atom_site_fract_x
 _atom_site_fract_y
 _atom_site_fract_z
 _atom_site_occupancy
  V  V0  1  0.87521218  0.25011865  0.62540097  1
  V  V1  1  0.97765466  0.95507059  0.52258470  1
  V  V2  1  0.77204006  0.54511007  0.22776986  1
  V  V3  1  0.52223421  0.04511620  0.97795852  1
  V  V4  1  0.62550301  0.74992970  0.37426402  1
  V  V5  1  0.37573848  0.24993099  0.12449385  1
  V  V6  1  0.22741479  0.45506851  0.77234904  1
  V  V7  1  0.12460243  0.75011709  0.87478550  1
  P  P8  1  0.87523532  0.25008092  0.22366369  1
  P  P9  1  0.74991156  0.49996399  0.75027710  1
  P  P10  1  0.37500787  0.24983897  0.52626913  1
  P  P11  1  0.52634381  0.75006192  0.87475569  1
  P  P12  1  0.99972949  0.99997265  0.00009960  1
  P  P13  1  0.22374027  0.74981199  0.37497875  1
  O  O14  1  0.85325722  0.08417685  0.89975198  1
  O  O15  1  0.85863156  0.12691331  0.43071644  1
  O  O16  1  0.89125047  0.37332300  0.30758478  1
  O  O17  1  0.89639477  0.41592703  0.73376983  1
  O  O18  1  0.66963762  0.21083467  0.11802869  1
  O  O19  1  0.85025141  0.58417926  0.89672419  1
  O  O20  1  0.89943284  0.91583011  0.23054996  1
  O  O21  1  0.73326058  0.58392761  0.51994047  1
  O  O22  1  0.54122843  0.21068229  0.67116058  1
  O  O23  1  0.51945291  0.41583069  0.85056968  1
  O  O24  1  0.48127558  0.37297175  0.31882098  1
  O  O25  1  0.67102365  0.78916635  0.66917490  1
  O  O26  1  0.63196419  0.71083270  0.08036209  1
  O  O27  1  0.26849900  0.12685292  0.44174379  1
  O  O28  1  0.23007421  0.08393324  0.01672839  1
  O  O29  1  0.20881699  0.28930056  0.63184849  1
  O  O30  1  0.44242333  0.87332608  0.85874471  1
  O  O31  1  0.31928271  0.62691418  0.89136403  1
  O  O32  1  0.43117628  0.87296934  0.26872503  1
  O  O33  1  0.30826236  0.62685313  0.48150943  1
  O  O34  1  0.08082948  0.28916437  0.07897458  1
  O  O35  1  0.11815530  0.78929838  0.54118826  1
  O  O36  1  0.07883328  0.71068147  0.20877806  1
  O  O37  1  0.01621768  0.91592245  0.85359024  1
