# generated using pymatgen
data_Li2V(PO3)4
_symmetry_space_group_name_H-M   'P 1'
_cell_length_a   8.62511089
_cell_length_b   8.62511073
_cell_length_c   7.56698197
_cell_angle_alpha   84.40097690
_cell_angle_beta   95.59902314
_cell_angle_gamma   65.23083131
_symmetry_Int_Tables_number   1
_chemical_formula_structural   Li2V(PO3)4
_chemical_formula_sum   'Li4 V2 P8 O24'
_cell_volume   502.69568928
_cell_formula_units_Z   2
loop_
 _symmetry_equiv_pos_site_id
 _symmetry_equiv_pos_as_xyz
  1  'x, y, z'
loop_
 _atom_site_type_symbol
 _atom_site_label
 _atom_site_symmetry_multiplicity
 _atom_site_fract_x
 _atom_site_fract_y
 _atom_site_fract_z
 _atom_site_occupancy
  Li  Li0  1  0.81717520  0.49773630  0.72829941  1
  Li  Li1  1  0.50226370  0.18282480  0.22829941  1
  Li  Li2  1  0.49773630  0.81717520  0.77170059  1
  Li  Li3  1  0.18282480  0.50226370  0.27170059  1
  V  V4  1  0.86775773  0.86775773  0.25000000  1
  V  V5  1  0.13224227  0.13224227  0.75000000  1
  P  P6  1  0.79102436  0.06358831  0.83021293  1
  P  P7  1  0.56368261  0.77482632  0.37720670  1
  P  P8  1  0.06358831  0.79102436  0.66978707  1
  P  P9  1  0.43631739  0.22517368  0.62279330  1
  P  P10  1  0.93641269  0.20897564  0.33021393  1
  P  P11  1  0.20897564  0.93641269  0.16978607  1
  P  P12  1  0.77482632  0.56368261  0.12279330  1
  P  P13  1  0.22517368  0.43631739  0.87720670  1
  O  O14  1  0.36134687  0.83263419  0.33733199  1
  O  O15  1  0.39095916  0.07938199  0.68540159  1
  O  O16  1  0.38087759  0.30788893  0.42965860  1
  O  O17  1  0.16319057  0.89744642  0.65724405  1
  O  O18  1  0.07938199  0.39095916  0.81459841  1
  O  O19  1  0.83263419  0.36134687  0.16266801  1
  O  O20  1  0.63865313  0.16736581  0.66266801  1
  O  O21  1  0.62799678  0.62799678  0.25000000  1
  O  O22  1  0.83680943  0.10255358  0.34275595  1
  O  O23  1  0.69211107  0.61912241  0.92965860  1
  O  O24  1  0.16736581  0.63865313  0.83733199  1
  O  O25  1  0.37200322  0.37200322  0.75000000  1
  O  O26  1  0.88704523  0.88704523  0.75000000  1
  O  O27  1  0.92061801  0.60904084  0.18540159  1
  O  O28  1  0.89744642  0.16319057  0.84275595  1
  O  O29  1  0.10255358  0.83680943  0.15724405  1
  O  O30  1  0.11295477  0.11295477  0.25000000  1
  O  O31  1  0.60904084  0.92061801  0.31459841  1
  O  O32  1  0.71760817  0.02428145  0.99171917  1
  O  O33  1  0.30788893  0.38087759  0.07034140  1
  O  O34  1  0.28239183  0.97571855  0.00828083  1
  O  O35  1  0.97571855  0.28239183  0.49171917  1
  O  O36  1  0.02428145  0.71760817  0.50828083  1
  O  O37  1  0.61912241  0.69211107  0.57034140  1
