# generated using pymatgen
data_Ti4CrTe8
_symmetry_space_group_name_H-M   'P 1'
_cell_length_a   7.65108245
_cell_length_b   7.66816229
_cell_length_c   13.55627582
_cell_angle_alpha   98.37715701
_cell_angle_beta   73.60862018
_cell_angle_gamma   119.92634714
_symmetry_Int_Tables_number   1
_chemical_formula_structural   Ti4CrTe8
_chemical_formula_sum   'Ti8 Cr2 Te16'
_cell_volume   661.27102194
_cell_formula_units_Z   2
loop_
 _symmetry_equiv_pos_site_id
 _symmetry_equiv_pos_as_xyz
  1  'x, y, z'
loop_
 _atom_site_type_symbol
 _atom_site_label
 _atom_site_symmetry_multiplicity
 _atom_site_fract_x
 _atom_site_fract_y
 _atom_site_fract_z
 _atom_site_occupancy
  Ti  Ti0  1  0.00499359  0.49409572  0.00007136  1
  Ti  Ti1  1  0.01537333  0.01497576  0.99967054  1
  Ti  Ti2  1  0.48462667  0.48502424  0.00032946  1
  Ti  Ti3  1  0.26096923  0.50590428  0.49992864  1
  Ti  Ti4  1  0.49500641  0.00590428  0.99992864  1
  Ti  Ti5  1  0.23903077  0.99409572  0.50007136  1
  Ti  Ti6  1  0.74993189  0.51497576  0.49967054  1
  Ti  Ti7  1  0.75006811  0.98502424  0.50032946  1
  Cr  Cr8  1  0.12101038  0.50000000  0.75000000  1
  Cr  Cr9  1  0.37898962  0.00000000  0.25000000  1
  Te  Te10  1  0.09682635  0.83147558  0.13006317  1
  Te  Te11  1  0.09942232  0.33352540  0.13496067  1
  Te  Te12  1  0.14622500  0.66073421  0.36900241  1
  Te  Te13  1  0.60689850  0.83293864  0.12421083  1
  Te  Te14  1  0.35377500  0.83926579  0.63099759  1
  Te  Te15  1  0.14541294  0.16852442  0.36993683  1
  Te  Te16  1  0.60449420  0.33926579  0.13099759  1
  Te  Te17  1  0.65085659  0.66647460  0.36503933  1
  Te  Te18  1  0.35458706  0.33147558  0.63006317  1
  Te  Te19  1  0.40317365  0.66852442  0.86993683  1
  Te  Te20  1  0.64816968  0.16706136  0.37578917  1
  Te  Te21  1  0.40057768  0.16647460  0.86503933  1
  Te  Te22  1  0.84914341  0.83352540  0.63496067  1
  Te  Te23  1  0.85183032  0.33293864  0.62421083  1
  Te  Te24  1  0.89310150  0.66706136  0.87578917  1
  Te  Te25  1  0.89550580  0.16073421  0.86900241  1
