# generated using pymatgen
data_V4FeCuO12
_symmetry_space_group_name_H-M   'P 1'
_cell_length_a   6.75706503
_cell_length_b   6.75706438
_cell_length_c   5.88305005
_cell_angle_alpha   74.89775421
_cell_angle_beta   105.10224197
_cell_angle_gamma   95.79764041
_symmetry_Int_Tables_number   1
_chemical_formula_structural   V4FeCuO12
_chemical_formula_sum   'V4 Fe1 Cu1 O12'
_cell_volume   250.21590406
_cell_formula_units_Z   1
loop_
 _symmetry_equiv_pos_site_id
 _symmetry_equiv_pos_as_xyz
  1  'x, y, z'
loop_
 _atom_site_type_symbol
 _atom_site_label
 _atom_site_symmetry_multiplicity
 _atom_site_fract_x
 _atom_site_fract_y
 _atom_site_fract_z
 _atom_site_occupancy
  V  V0  1  0.20220014  0.61253247  0.75779466  1
  V  V1  1  0.39053955  0.79183145  0.26814728  1
  V  V2  1  0.61253247  0.20220014  0.74220534  1
  V  V3  1  0.79183145  0.39053955  0.23185272  1
  Fe  Fe4  1  0.91318236  0.91318236  0.25000000  1
  Cu  Cu5  1  0.09576309  0.09576309  0.75000000  1
  O  O6  1  0.03037377  0.80865833  0.61765123  1
  O  O7  1  0.08687438  0.37929309  0.78877824  1
  O  O8  1  0.19620219  0.96146704  0.16511209  1
  O  O9  1  0.36813349  0.63394185  0.55557093  1
  O  O10  1  0.37929309  0.08687438  0.71122176  1
  O  O11  1  0.35046390  0.64049005  0.05313176  1
  O  O12  1  0.63394185  0.36813349  0.94442907  1
  O  O13  1  0.62907571  0.90897714  0.29073301  1
  O  O14  1  0.64049005  0.35046390  0.44686824  1
  O  O15  1  0.80865833  0.03037377  0.88234877  1
  O  O16  1  0.90897714  0.62907571  0.20926699  1
  O  O17  1  0.96146704  0.19620219  0.33488791  1
