# generated using pymatgen
data_NaCoPCO7
_symmetry_space_group_name_H-M   'P 1'
_cell_length_a   8.98693378
_cell_length_b   5.17793615
_cell_length_c   6.35348801
_cell_angle_alpha   90.00000000
_cell_angle_beta   90.00000000
_cell_angle_gamma   87.54354031
_symmetry_Int_Tables_number   1
_chemical_formula_structural   NaCoPCO7
_chemical_formula_sum   'Na2 Co2 P2 C2 O14'
_cell_volume   295.38006526
_cell_formula_units_Z   2
loop_
 _symmetry_equiv_pos_site_id
 _symmetry_equiv_pos_as_xyz
  1  'x, y, z'
loop_
 _atom_site_type_symbol
 _atom_site_label
 _atom_site_symmetry_multiplicity
 _atom_site_fract_x
 _atom_site_fract_y
 _atom_site_fract_z
 _atom_site_occupancy
  Na  Na0  1  0.25138382  0.24234565  0.46047489  1
  Na  Na1  1  0.74861618  0.75765435  0.96047489  1
  Co  Co2  1  0.34208358  0.78618034  0.76927787  1
  Co  Co3  1  0.65791642  0.21381966  0.26927787  1
  P  P4  1  0.43003824  0.71930987  0.25826166  1
  P  P5  1  0.56996176  0.28069013  0.75826166  1
  C  C6  1  0.07538691  0.71336335  0.74159826  1
  C  C7  1  0.92461309  0.28663665  0.24159826  1
  O  O8  1  0.05986674  0.32747728  0.23504499  1
  O  O9  1  0.12976255  0.94245095  0.74972292  1
  O  O10  1  0.17941775  0.52891978  0.74236262  1
  O  O11  1  0.33052325  0.77944453  0.06155960  1
  O  O12  1  0.33159664  0.79298707  0.44937151  1
  O  O13  1  0.42613933  0.13077386  0.74551788  1
  O  O14  1  0.46977336  0.42299905  0.26482079  1
  O  O15  1  0.53022664  0.57700095  0.76482079  1
  O  O16  1  0.57386067  0.86922614  0.24551788  1
  O  O17  1  0.66840336  0.20701293  0.94937151  1
  O  O18  1  0.66947675  0.22055547  0.56155960  1
  O  O19  1  0.82058225  0.47108022  0.24236262  1
  O  O20  1  0.87023745  0.05754905  0.24972292  1
  O  O21  1  0.94013326  0.67252272  0.73504499  1
