# generated using pymatgen
data_Li3Mo(PO4)2
_symmetry_space_group_name_H-M   'P 1'
_cell_length_a   4.99231772
_cell_length_b   9.10747115
_cell_length_c   6.51333693
_cell_angle_alpha   90.00000000
_cell_angle_beta   93.93258627
_cell_angle_gamma   90.00000000
_symmetry_Int_Tables_number   1
_chemical_formula_structural   Li3Mo(PO4)2
_chemical_formula_sum   'Li6 Mo2 P4 O16'
_cell_volume   295.44713632
_cell_formula_units_Z   2
loop_
 _symmetry_equiv_pos_site_id
 _symmetry_equiv_pos_as_xyz
  1  'x, y, z'
loop_
 _atom_site_type_symbol
 _atom_site_label
 _atom_site_symmetry_multiplicity
 _atom_site_fract_x
 _atom_site_fract_y
 _atom_site_fract_z
 _atom_site_occupancy
  Li  Li0  1  0.50000000  0.00000000  0.50000000  1
  Li  Li1  1  0.01497876  0.14412847  0.69190380  1
  Li  Li2  1  0.98502124  0.85587153  0.30809620  1
  Li  Li3  1  0.48502124  0.64412847  0.80809620  1
  Li  Li4  1  0.51497876  0.35587153  0.19190380  1
  Li  Li5  1  0.00000000  0.50000000  0.00000000  1
  Mo  Mo6  1  0.50000000  0.00000000  0.00000000  1
  Mo  Mo7  1  0.00000000  0.50000000  0.50000000  1
  P  P8  1  0.97462608  0.81728898  0.77620822  1
  P  P9  1  0.52537392  0.31728898  0.72379178  1
  P  P10  1  0.47462608  0.68271102  0.27620822  1
  P  P11  1  0.02537392  0.18271102  0.22379178  1
  O  O12  1  0.92347737  0.64689399  0.75643707  1
  O  O13  1  0.28399005  0.84799621  0.79505329  1
  O  O14  1  0.14937287  0.13447587  0.02118532  1
  O  O15  1  0.35062713  0.63447587  0.47881468  1
  O  O16  1  0.85062713  0.86552413  0.97881468  1
  O  O17  1  0.71600995  0.15200379  0.20494671  1
  O  O18  1  0.78399005  0.65200379  0.29505329  1
  O  O19  1  0.34498347  0.60151447  0.09009869  1
  O  O20  1  0.15501653  0.10151447  0.40990131  1
  O  O21  1  0.84498347  0.89848553  0.59009869  1
  O  O22  1  0.64937287  0.36552413  0.52118532  1
  O  O23  1  0.57652263  0.14689399  0.74356293  1
  O  O24  1  0.21600995  0.34799621  0.70494671  1
  O  O25  1  0.65501653  0.39848553  0.90990131  1
  O  O26  1  0.07652263  0.35310601  0.24356293  1
  O  O27  1  0.42347737  0.85310601  0.25643707  1
