# generated using pymatgen
data_Li2Cr(PO3)5
_symmetry_space_group_name_H-M   'P 1'
_cell_length_a   5.16042551
_cell_length_b   13.41502331
_cell_length_c   8.92954899
_cell_angle_alpha   90.00000000
_cell_angle_beta   101.46643780
_cell_angle_gamma   90.00000000
_symmetry_Int_Tables_number   1
_chemical_formula_structural   Li2Cr(PO3)5
_chemical_formula_sum   'Li4 Cr2 P10 O30'
_cell_volume   605.83011300
_cell_formula_units_Z   2
loop_
 _symmetry_equiv_pos_site_id
 _symmetry_equiv_pos_as_xyz
  1  'x, y, z'
loop_
 _atom_site_type_symbol
 _atom_site_label
 _atom_site_symmetry_multiplicity
 _atom_site_fract_x
 _atom_site_fract_y
 _atom_site_fract_z
 _atom_site_occupancy
  Li  Li0  1  0.05683391  0.38208304  0.08967355  1
  Li  Li1  1  0.94316609  0.88208304  0.91032645  1
  Li  Li2  1  0.94316609  0.61791696  0.91032645  1
  Li  Li3  1  0.05683391  0.11791696  0.08967355  1
  Cr  Cr4  1  0.50000000  -0.00000000  0.50000000  1
  Cr  Cr5  1  0.50000000  0.50000000  0.50000000  1
  P  P6  1  0.00242799  0.35941683  0.51927990  1
  P  P7  1  0.65842493  0.57640835  0.18605591  1
  P  P8  1  0.65842493  0.92359165  0.18605591  1
  P  P9  1  0.34157507  0.07640835  0.81394409  1
  P  P10  1  0.34157507  0.42359165  0.81394409  1
  P  P11  1  0.99757201  0.64058317  0.48072010  1
  P  P12  1  0.54406589  0.25000000  0.00964279  1
  P  P13  1  0.45593411  0.75000000  0.99035721  1
  P  P14  1  0.00242799  0.14058317  0.51927990  1
  P  P15  1  0.99757201  0.85941683  0.48072010  1
  O  O16  1  0.19442020  0.46891031  0.92490280  1
  O  O17  1  0.55509327  0.34300991  0.89270971  1
  O  O18  1  0.86308866  0.64547520  0.30415443  1
  O  O19  1  0.84652470  0.57268635  0.56822730  1
  O  O20  1  0.51376110  0.50914400  0.27780292  1
  O  O21  1  0.44490673  0.65699009  0.10729029  1
  O  O22  1  0.19425066  0.75000000  0.88224250  1
  O  O23  1  0.70910199  0.12621466  0.50313935  1
  O  O24  1  0.80557980  0.96891031  0.07509720  1
  O  O25  1  0.51376110  0.99085600  0.27780292  1
  O  O26  1  0.80574934  0.25000000  0.11775750  1
  O  O27  1  0.55509327  0.15699009  0.89270971  1
  O  O28  1  0.15347530  0.42731365  0.43177270  1
  O  O29  1  0.44490673  0.84300991  0.10729029  1
  O  O30  1  0.94720360  0.75000000  0.53803850  1
  O  O31  1  0.48623890  0.00914400  0.72219708  1
  O  O32  1  0.28602344  0.25000000  0.06200202  1
  O  O33  1  0.15347530  0.07268635  0.43177270  1
  O  O34  1  0.84652470  0.92731365  0.56822730  1
  O  O35  1  0.71397656  0.75000000  0.93799798  1
  O  O36  1  0.13691134  0.35452480  0.69584557  1
  O  O37  1  0.80557980  0.53108969  0.07509720  1
  O  O38  1  0.29089801  0.62621466  0.49686065  1
  O  O39  1  0.86308866  0.85452480  0.30415443  1
  O  O40  1  0.05279640  0.25000000  0.46196150  1
  O  O41  1  0.29089801  0.87378534  0.49686065  1
  O  O42  1  0.48623890  0.49085600  0.72219708  1
  O  O43  1  0.13691134  0.14547520  0.69584557  1
  O  O44  1  0.19442020  0.03108969  0.92490280  1
  O  O45  1  0.70910199  0.37378534  0.50313935  1
