# generated using pymatgen
data_Yb2FeC4
_symmetry_space_group_name_H-M   'P 1'
_cell_length_a   4.99791823
_cell_length_b   6.76942060
_cell_length_c   6.76942060
_cell_angle_alpha   67.07538934
_cell_angle_beta   68.33654435
_cell_angle_gamma   68.33654435
_symmetry_Int_Tables_number   1
_chemical_formula_structural   Yb2FeC4
_chemical_formula_sum   'Yb4 Fe2 C8'
_cell_volume   189.12493451
_cell_formula_units_Z   2
loop_
 _symmetry_equiv_pos_site_id
 _symmetry_equiv_pos_as_xyz
  1  'x, y, z'
loop_
 _atom_site_type_symbol
 _atom_site_label
 _atom_site_symmetry_multiplicity
 _atom_site_fract_x
 _atom_site_fract_y
 _atom_site_fract_z
 _atom_site_occupancy
  Yb  Yb0  1  0.14496602  0.52151849  0.18854947  1
  Yb  Yb1  1  0.85503398  0.47848151  0.81145053  1
  Yb  Yb2  1  0.64496602  0.18854947  0.52151849  1
  Yb  Yb3  1  0.35503398  0.81145053  0.47848151  1
  Fe  Fe4  1  0.25000000  -0.00000000  0.00000000  1
  Fe  Fe5  1  0.75000000  -0.00000000  0.00000000  1
  C  C6  1  0.37190246  0.46014467  0.79605041  1
  C  C7  1  0.62809754  0.53985533  0.20394959  1
  C  C8  1  0.87190246  0.79605041  0.46014467  1
  C  C9  1  0.12809754  0.20394959  0.53985533  1
  C  C10  1  0.42021701  0.24882983  0.91073615  1
  C  C11  1  0.57978299  0.75117017  0.08926385  1
  C  C12  1  0.92021701  0.91073615  0.24882983  1
  C  C13  1  0.07978299  0.08926385  0.75117017  1
