# generated using pymatgen
data_Ce3Rh2
_symmetry_space_group_name_H-M   'P 1'
_cell_length_a   7.45569217
_cell_length_b   7.45569216
_cell_length_c   7.45569169
_cell_angle_alpha   71.64448441
_cell_angle_beta   71.64448447
_cell_angle_gamma   71.64448621
_symmetry_Int_Tables_number   1
_chemical_formula_structural   Ce3Rh2
_chemical_formula_sum   'Ce9 Rh6'
_cell_volume   362.47704555
_cell_formula_units_Z   3
loop_
 _symmetry_equiv_pos_site_id
 _symmetry_equiv_pos_as_xyz
  1  'x, y, z'
loop_
 _atom_site_type_symbol
 _atom_site_label
 _atom_site_symmetry_multiplicity
 _atom_site_fract_x
 _atom_site_fract_y
 _atom_site_fract_z
 _atom_site_occupancy
  Ce  Ce0  1  -0.00000000  0.00000000  0.00000000  1
  Ce  Ce1  1  0.79517841  0.79517841  0.79517841  1
  Ce  Ce2  1  0.20482159  0.20482159  0.20482159  1
  Ce  Ce3  1  0.39037396  0.16598074  0.66332242  1
  Ce  Ce4  1  0.16598074  0.66332242  0.39037396  1
  Ce  Ce5  1  0.66332242  0.39037396  0.16598074  1
  Ce  Ce6  1  0.60962604  0.83401926  0.33667758  1
  Ce  Ce7  1  0.83401926  0.33667758  0.60962604  1
  Ce  Ce8  1  0.33667758  0.60962604  0.83401926  1
  Rh  Rh9  1  0.16638735  0.95359087  0.59090583  1
  Rh  Rh10  1  0.95359087  0.59090583  0.16638735  1
  Rh  Rh11  1  0.59090583  0.16638735  0.95359087  1
  Rh  Rh12  1  0.83361265  0.04640913  0.40909417  1
  Rh  Rh13  1  0.04640913  0.40909417  0.83361265  1
  Rh  Rh14  1  0.40909417  0.83361265  0.04640913  1
