# generated using pymatgen
data_NaLi2FePCO7
_symmetry_space_group_name_H-M   'P 1'
_cell_length_a   8.68276312
_cell_length_b   6.57355660
_cell_length_c   10.22044422
_cell_angle_alpha   89.70034664
_cell_angle_beta   87.29457343
_cell_angle_gamma   89.22258573
_symmetry_Int_Tables_number   1
_chemical_formula_structural   NaLi2FePCO7
_chemical_formula_sum   'Na4 Li8 Fe4 P4 C4 O28'
_cell_volume   582.63857829
_cell_formula_units_Z   4
loop_
 _symmetry_equiv_pos_site_id
 _symmetry_equiv_pos_as_xyz
  1  'x, y, z'
loop_
 _atom_site_type_symbol
 _atom_site_label
 _atom_site_symmetry_multiplicity
 _atom_site_fract_x
 _atom_site_fract_y
 _atom_site_fract_z
 _atom_site_occupancy
  Na  Na0  1  0.08618768  0.24587824  0.87940494  1
  Na  Na1  1  0.08561981  0.23383318  0.37873860  1
  Na  Na2  1  0.25478243  0.50353203  0.12176192  1
  Na  Na3  1  0.74375595  0.50252258  0.37546562  1
  Li  Li4  1  0.28013756  0.02879263  0.61818745  1
  Li  Li5  1  0.27944925  0.46752836  0.61861621  1
  Li  Li6  1  0.28212593  0.02928047  0.11048075  1
  Li  Li7  1  0.72768038  0.52276332  0.88140341  1
  Li  Li8  1  0.72930302  0.98317153  0.88042111  1
  Li  Li9  1  0.72339323  0.97412842  0.38027194  1
  Li  Li10  1  0.90910934  0.76008763  0.62711807  1
  Li  Li11  1  0.90253131  0.78058682  0.12251207  1
  Fe  Fe12  1  0.34920969  0.75891170  0.88270914  1
  Fe  Fe13  1  0.34555729  0.74656314  0.39773471  1
  Fe  Fe14  1  0.65721690  0.23964005  0.61111578  1
  Fe  Fe15  1  0.65158679  0.24958231  0.10522147  1
  P  P16  1  0.41867201  0.25419435  0.85125619  1
  P  P17  1  0.41881049  0.23652780  0.36055373  1
  P  P18  1  0.58919248  0.74639948  0.65063462  1
  P  P19  1  0.58308232  0.75921722  0.14128693  1
  C  C20  1  0.03652257  0.75235617  0.86322938  1
  C  C21  1  0.04211108  0.76087068  0.35874009  1
  C  C22  1  0.95696575  0.24606144  0.63907384  1
  C  C23  1  0.94915377  0.23813596  0.13781340  1
  O  O24  1  0.10655452  0.25537332  0.64454274  1
  O  O25  1  0.09805346  0.22139177  0.14541894  1
  O  O26  1  0.07134064  0.74870672  0.98551918  1
  O  O27  1  0.07401618  0.75209950  0.48153424  1
  O  O28  1  0.14662741  0.76462275  0.77226162  1
  O  O29  1  0.15451190  0.75109874  0.26932898  1
  O  O30  1  0.32488435  0.07249257  0.90827240  1
  O  O31  1  0.32324194  0.44510462  0.89317416  1
  O  O32  1  0.31899074  0.05805496  0.41704618  1
  O  O33  1  0.33003976  0.43259902  0.40902243  1
  O  O34  1  0.42899283  0.24203364  0.69754494  1
  O  O35  1  0.42255810  0.74695034  0.60135781  1
  O  O36  1  0.42732749  0.23010834  0.20771176  1
  O  O37  1  0.42230014  0.77282363  0.08318805  1
  O  O38  1  0.58446203  0.25677491  0.90132101  1
  O  O39  1  0.57810625  0.76209891  0.80382618  1
  O  O40  1  0.58285057  0.22611903  0.41132820  1
  O  O41  1  0.56663449  0.76837940  0.29378139  1
  O  O42  1  0.68209935  0.55245289  0.61036758  1
  O  O43  1  0.68911891  0.92309590  0.59221498  1
  O  O44  1  0.67345702  0.56297044  0.09757677  1
  O  O45  1  0.68968745  0.93481542  0.08907894  1
  O  O46  1  0.86851627  0.23061830  0.74480858  1
  O  O47  1  0.85894135  0.24416242  0.24300184  1
  O  O48  1  0.89230569  0.25105003  0.52699029  1
  O  O49  1  0.88740653  0.24905885  0.02457270  1
  O  O50  1  0.89390583  0.74486510  0.82932555  1
  O  O51  1  0.90091173  0.77950896  0.32213321  1
