# generated using pymatgen
data_LaCo5
_symmetry_space_group_name_H-M   'P 1'
_cell_length_a   5.05352213
_cell_length_b   6.42409079
_cell_length_c   6.42409079
_cell_angle_alpha   76.14859501
_cell_angle_beta   66.83839431
_cell_angle_gamma   66.83839431
_symmetry_Int_Tables_number   1
_chemical_formula_structural   LaCo5
_chemical_formula_sum   'La2 Co10'
_cell_volume   175.40196157
_cell_formula_units_Z   2
loop_
 _symmetry_equiv_pos_site_id
 _symmetry_equiv_pos_as_xyz
  1  'x, y, z'
loop_
 _atom_site_type_symbol
 _atom_site_label
 _atom_site_symmetry_multiplicity
 _atom_site_fract_x
 _atom_site_fract_y
 _atom_site_fract_z
 _atom_site_occupancy
  La  La0  1  0.03189858  0.00000000  0.00000000  1
  La  La1  1  0.01133504  0.50000000  0.50000000  1
  Co  Co2  1  0.67331630  0.32001656  0.32001656  1
  Co  Co3  1  0.31334941  0.67998344  0.67998344  1
  Co  Co4  1  0.38443649  0.15603793  0.15603793  1
  Co  Co5  1  0.69651234  0.84396207  0.84396207  1
  Co  Co6  1  0.51871636  0.25809471  0.74190529  1
  Co  Co7  1  0.51871636  0.74190529  0.25809471  1
  Co  Co8  1  0.51808055  0.50598679  0.99371168  1
  Co  Co9  1  0.01777902  0.49401321  0.00628832  1
  Co  Co10  1  0.01777902  0.00628832  0.49401321  1
  Co  Co11  1  0.51808055  0.99371168  0.50598679  1
