# generated using pymatgen
data_NaLi2FePCO7
_symmetry_space_group_name_H-M   'P 1'
_cell_length_a   8.62705947
_cell_length_b   6.66972769
_cell_length_c   10.09074948
_cell_angle_alpha   90.09031948
_cell_angle_beta   87.99843257
_cell_angle_gamma   89.85000615
_symmetry_Int_Tables_number   1
_chemical_formula_structural   NaLi2FePCO7
_chemical_formula_sum   'Na4 Li8 Fe4 P4 C4 O28'
_cell_volume   580.26606084
_cell_formula_units_Z   4
loop_
 _symmetry_equiv_pos_site_id
 _symmetry_equiv_pos_as_xyz
  1  'x, y, z'
loop_
 _atom_site_type_symbol
 _atom_site_label
 _atom_site_symmetry_multiplicity
 _atom_site_fract_x
 _atom_site_fract_y
 _atom_site_fract_z
 _atom_site_occupancy
  Na  Na0  1  0.08398465  0.24194524  0.37758466  1
  Na  Na1  1  0.25279622  0.99705615  0.62689402  1
  Na  Na2  1  0.25645864  0.50204191  0.12472448  1
  Na  Na3  1  0.74508580  0.50191178  0.37564902  1
  Li  Li4  1  0.08684481  0.25531684  0.87478777  1
  Li  Li5  1  0.27522037  0.47533291  0.61654573  1
  Li  Li6  1  0.27610754  0.02307437  0.10895382  1
  Li  Li7  1  0.73271789  0.51729843  0.88423673  1
  Li  Li8  1  0.73229482  0.98437799  0.88370315  1
  Li  Li9  1  0.72386471  0.97416612  0.39006003  1
  Li  Li10  1  0.90591303  0.74348002  0.63019427  1
  Li  Li11  1  0.90423042  0.77113751  0.12319381  1
  Fe  Fe12  1  0.34890655  0.75257916  0.88651228  1
  Fe  Fe13  1  0.35601676  0.74629144  0.38985930  1
  Fe  Fe14  1  0.65018809  0.24343353  0.61509066  1
  Fe  Fe15  1  0.65459357  0.25027543  0.10742194  1
  P  P16  1  0.40881511  0.25644601  0.85160574  1
  P  P17  1  0.41815011  0.23758445  0.35302100  1
  P  P18  1  0.59315811  0.74237805  0.64977329  1
  P  P19  1  0.59212951  0.76158276  0.14059487  1
  C  C20  1  0.03954130  0.74912553  0.86694727  1
  C  C21  1  0.04544186  0.76080056  0.36443566  1
  C  C22  1  0.94656676  0.25706950  0.64591419  1
  C  C23  1  0.95692376  0.23996502  0.12752706  1
  O  O24  1  0.09360546  0.28095560  0.66345233  1
  O  O25  1  0.10289835  0.21671878  0.14646722  1
  O  O26  1  0.08064852  0.75013054  0.98934277  1
  O  O27  1  0.07958340  0.75277054  0.48873580  1
  O  O28  1  0.14627773  0.75091333  0.77209524  1
  O  O29  1  0.15612393  0.74571161  0.27354727  1
  O  O30  1  0.30930105  0.07145047  0.89504280  1
  O  O31  1  0.31100202  0.44019009  0.89817752  1
  O  O32  1  0.31735009  0.05759227  0.40053004  1
  O  O33  1  0.32734542  0.42877336  0.40081571  1
  O  O34  1  0.42725608  0.26208046  0.69639670  1
  O  O35  1  0.42896090  0.72436568  0.59198714  1
  O  O36  1  0.43266601  0.23486992  0.19774996  1
  O  O37  1  0.42737437  0.77418012  0.08434244  1
  O  O38  1  0.57377531  0.25371561  0.90844389  1
  O  O39  1  0.57472246  0.75709827  0.80459638  1
  O  O40  1  0.58282584  0.22843937  0.40923441  1
  O  O41  1  0.57583036  0.77153854  0.29545456  1
  O  O42  1  0.69779026  0.56011086  0.61248838  1
  O  O43  1  0.68526347  0.92598211  0.59429782  1
  O  O44  1  0.68296903  0.56886203  0.09694031  1
  O  O45  1  0.69785604  0.93594022  0.08875986  1
  O  O46  1  0.85100337  0.23779377  0.74751775  1
  O  O47  1  0.85838816  0.25134735  0.22880531  1
  O  O48  1  0.89033849  0.25048305  0.52792370  1
  O  O49  1  0.90466583  0.25367284  0.00860033  1
  O  O50  1  0.89460686  0.74718254  0.83553542  1
  O  O51  1  0.90362080  0.78245894  0.32749118  1
