# generated using pymatgen
data_Ca7Si6CO23
_symmetry_space_group_name_H-M   'P 1'
_cell_length_a   6.69226027
_cell_length_b   9.48127681
_cell_length_c   9.48127681
_cell_angle_alpha   107.93211051
_cell_angle_beta   104.66741656
_cell_angle_gamma   104.66741656
_symmetry_Int_Tables_number   1
_chemical_formula_structural   Ca7Si6CO23
_chemical_formula_sum   'Ca7 Si6 C1 O23'
_cell_volume   516.63767151
_cell_formula_units_Z   1
loop_
 _symmetry_equiv_pos_site_id
 _symmetry_equiv_pos_as_xyz
  1  'x, y, z'
loop_
 _atom_site_type_symbol
 _atom_site_label
 _atom_site_symmetry_multiplicity
 _atom_site_fract_x
 _atom_site_fract_y
 _atom_site_fract_z
 _atom_site_occupancy
  Ca  Ca0  1  0.98461686  0.65200817  0.93090450  1
  Ca  Ca1  1  0.01755892  0.08054985  0.36449564  1
  Ca  Ca2  1  0.01755892  0.36449564  0.08054985  1
  Ca  Ca3  1  0.98461686  0.93090450  0.65200817  1
  Ca  Ca4  1  0.52237169  0.99459249  0.99459249  1
  Ca  Ca5  1  0.50271474  0.25252269  0.75080635  1
  Ca  Ca6  1  0.50271474  0.75080635  0.25252269  1
  Si  Si7  1  0.43199667  0.83193978  0.62450760  1
  Si  Si8  1  0.56705411  0.37551879  0.16936078  1
  Si  Si9  1  0.56705411  0.16936078  0.37551879  1
  Si  Si10  1  0.43199667  0.62450760  0.83193978  1
  Si  Si11  1  0.00095092  0.67926829  0.32754229  1
  Si  Si12  1  0.00095092  0.32754229  0.67926829  1
  C  C13  1  0.97998542  0.98410746  0.98410746  1
  O  O14  1  0.48046739  0.25384224  0.25384224  1
  O  O15  1  0.51841754  0.75356966  0.75356966  1
  O  O16  1  0.18914607  0.70492851  0.49294281  1
  O  O17  1  0.81441841  0.50739399  0.28943647  1
  O  O18  1  0.81441841  0.28943647  0.50739399  1
  O  O19  1  0.18914607  0.49294281  0.70492851  1
  O  O20  1  0.39380565  0.13676607  0.46395314  1
  O  O21  1  0.60740136  0.53808790  0.86319553  1
  O  O22  1  0.60740136  0.86319553  0.53808790  1
  O  O23  1  0.39380565  0.46395314  0.13676607  1
  O  O24  1  0.38683326  0.98489269  0.72881352  1
  O  O25  1  0.60939181  0.26566103  0.01736583  1
  O  O26  1  0.60939181  0.01736583  0.26566103  1
  O  O27  1  0.38683326  0.72881352  0.98489269  1
  O  O28  1  0.10008749  0.65333996  0.18466273  1
  O  O29  1  0.90324719  0.82174796  0.36397835  1
  O  O30  1  0.90324719  0.36397835  0.82174796  1
  O  O31  1  0.10008749  0.18466273  0.65333996  1
  O  O32  1  0.87631978  0.66874995  0.66874995  1
  O  O33  1  0.10245106  0.31019361  0.31019361  1
  O  O34  1  0.10412177  0.91834640  0.91834640  1
  O  O35  1  0.91710924  0.93876702  0.08513994  1
  O  O36  1  0.91710924  0.08513994  0.93876702  1
