# generated using pymatgen
data_SnH5CI3N2
_symmetry_space_group_name_H-M   'P 1'
_cell_length_a   6.55492666
_cell_length_b   6.31822993
_cell_length_c   6.31822993
_cell_angle_alpha   92.58753632
_cell_angle_beta   90.00000000
_cell_angle_gamma   90.00000000
_symmetry_Int_Tables_number   1
_chemical_formula_structural   SnH5CI3N2
_chemical_formula_sum   'Sn1 H5 C1 I3 N2'
_cell_volume   261.40606712
_cell_formula_units_Z   1
loop_
 _symmetry_equiv_pos_site_id
 _symmetry_equiv_pos_as_xyz
  1  'x, y, z'
loop_
 _atom_site_type_symbol
 _atom_site_label
 _atom_site_symmetry_multiplicity
 _atom_site_fract_x
 _atom_site_fract_y
 _atom_site_fract_z
 _atom_site_occupancy
  Sn  Sn0  1  0.50000000  0.38209718  0.61790282  1
  H  H1  1  0.80769636  0.73513502  0.26486498  1
  H  H2  1  0.19230364  0.73513502  0.26486498  1
  H  H3  1  0.69402695  0.90794902  0.09205098  1
  H  H4  1  0.30597305  0.90794902  0.09205098  1
  H  H5  1  0.00000000  0.03293367  0.96706633  1
  C  C6  1  -0.00000000  0.91326581  0.08673419  1
  I  I7  1  0.50000000  0.87131139  0.63082722  1
  I  I8  1  0.50000000  0.36917278  0.12868861  1
  I  I9  1  -0.00000000  0.37867029  0.62132971  1
  N  N10  1  0.82316543  0.84659041  0.15340959  1
  N  N11  1  0.17683457  0.84659041  0.15340959  1
