# generated using pymatgen
data_Dy3SbO3
_symmetry_space_group_name_H-M   'P 1'
_cell_length_a   3.86904278
_cell_length_b   6.84938004
_cell_length_c   10.59903823
_cell_angle_alpha   81.88256384
_cell_angle_beta   79.48350344
_cell_angle_gamma   73.59426352
_symmetry_Int_Tables_number   1
_chemical_formula_structural   Dy3SbO3
_chemical_formula_sum   'Dy6 Sb2 O6'
_cell_volume   263.71889579
_cell_formula_units_Z   2
loop_
 _symmetry_equiv_pos_site_id
 _symmetry_equiv_pos_as_xyz
  1  'x, y, z'
loop_
 _atom_site_type_symbol
 _atom_site_label
 _atom_site_symmetry_multiplicity
 _atom_site_fract_x
 _atom_site_fract_y
 _atom_site_fract_z
 _atom_site_occupancy
  Dy  Dy0  1  0.12069466  0.20148555  0.55712514  1
  Dy  Dy1  1  0.87930534  0.79851445  0.44287486  1
  Dy  Dy2  1  0.34212752  0.10822372  0.20752125  1
  Dy  Dy3  1  0.65787248  0.89177628  0.79247875  1
  Dy  Dy4  1  0.87195445  0.35449389  0.90159722  1
  Dy  Dy5  1  0.12804555  0.64550611  0.09840278  1
  Sb  Sb6  1  0.38234320  0.55470890  0.68060470  1
  Sb  Sb7  1  0.61765680  0.44529110  0.31939530  1
  O  O8  1  0.93674150  0.93442592  0.19209108  1
  O  O9  1  0.06325850  0.06557408  0.80790892  1
  O  O10  1  0.33541755  0.31330394  0.01586096  1
  O  O11  1  0.66458245  0.68669606  0.98413904  1
  O  O12  1  0.31028600  0.97052390  0.40890410  1
  O  O13  1  0.68971400  0.02947610  0.59109590  1
