# generated using pymatgen
data_Tm5Pt3
_symmetry_space_group_name_H-M   'P 1'
_cell_length_a   6.07785802
_cell_length_b   8.38408999
_cell_length_c   8.38588722
_cell_angle_alpha   119.99291104
_cell_angle_beta   90.00000000
_cell_angle_gamma   90.00000000
_symmetry_Int_Tables_number   1
_chemical_formula_structural   Tm5Pt3
_chemical_formula_sum   'Tm10 Pt6'
_cell_volume   370.09835070
_cell_formula_units_Z   2
loop_
 _symmetry_equiv_pos_site_id
 _symmetry_equiv_pos_as_xyz
  1  'x, y, z'
loop_
 _atom_site_type_symbol
 _atom_site_label
 _atom_site_symmetry_multiplicity
 _atom_site_fract_x
 _atom_site_fract_y
 _atom_site_fract_z
 _atom_site_occupancy
  Tm  Tm0  1  0.50000069  0.33333021  0.66670273  1
  Tm  Tm1  1  0.50000069  0.66662748  0.33329727  1
  Tm  Tm2  1  0.00000069  0.66666979  0.33329727  1
  Tm  Tm3  1  0.00000069  0.33337252  0.66670273  1
  Tm  Tm4  1  0.75000638  0.25245152  0.00000000  1
  Tm  Tm5  1  0.74999854  0.74757060  0.74775026  1
  Tm  Tm6  1  0.74999854  -0.00017967  0.25224974  1
  Tm  Tm7  1  0.25000638  0.74754848  1.00000000  1
  Tm  Tm8  1  0.24999854  0.25242940  0.25224974  1
  Tm  Tm9  1  0.24999854  0.00017967  0.74775026  1
  Pt  Pt10  1  0.74999839  0.60947462  0.00000000  1
  Pt  Pt11  1  0.74999839  0.39051125  0.39060437  1
  Pt  Pt12  1  0.74999839  -0.00009312  0.60939563  1
  Pt  Pt13  1  0.24999839  0.39052538  1.00000000  1
  Pt  Pt14  1  0.24999839  0.60948875  0.60939563  1
  Pt  Pt15  1  0.24999839  0.00009312  0.39060437  1
