# generated using pymatgen
data_Lu(Mo3S4)2
_symmetry_space_group_name_H-M   'P 1'
_cell_length_a   6.47657436
_cell_length_b   6.47657420
_cell_length_c   6.47657436
_cell_angle_alpha   89.81593745
_cell_angle_beta   90.18405971
_cell_angle_gamma   90.18406255
_symmetry_Int_Tables_number   1
_chemical_formula_structural   Lu(Mo3S4)2
_chemical_formula_sum   'Lu1 Mo6 S8'
_cell_volume   271.66228464
_cell_formula_units_Z   1
loop_
 _symmetry_equiv_pos_site_id
 _symmetry_equiv_pos_as_xyz
  1  'x, y, z'
loop_
 _atom_site_type_symbol
 _atom_site_label
 _atom_site_symmetry_multiplicity
 _atom_site_fract_x
 _atom_site_fract_y
 _atom_site_fract_z
 _atom_site_occupancy
  Lu  Lu0  1  0.00000000  0.00000000  -0.00000000  1
  Mo  Mo1  1  0.41872993  0.44070419  0.77690920  1
  Mo  Mo2  1  0.22309080  0.58127007  0.44070419  1
  Mo  Mo3  1  0.55929581  0.77690920  0.58127007  1
  Mo  Mo4  1  0.58127007  0.55929581  0.22309080  1
  Mo  Mo5  1  0.77690920  0.41872993  0.55929581  1
  Mo  Mo6  1  0.44070419  0.22309080  0.41872993  1
  S  S7  1  0.23490111  0.76509889  0.76509889  1
  S  S8  1  0.76509889  0.23490111  0.23490111  1
  S  S9  1  0.36722186  0.87240563  0.24832405  1
  S  S10  1  0.75167595  0.63277814  0.87240563  1
  S  S11  1  0.12759437  0.24832405  0.63277814  1
  S  S12  1  0.63277814  0.12759437  0.75167595  1
  S  S13  1  0.24832405  0.36722186  0.12759437  1
  S  S14  1  0.87240563  0.75167595  0.36722186  1
