# generated using pymatgen
data_Ca2FeCuSO3
_symmetry_space_group_name_H-M   'P 1'
_cell_length_a   3.88327818
_cell_length_b   3.88327818
_cell_length_c   14.98957247
_cell_angle_alpha   90.00000000
_cell_angle_beta   90.00000000
_cell_angle_gamma   90.00000000
_symmetry_Int_Tables_number   1
_chemical_formula_structural   Ca2FeCuSO3
_chemical_formula_sum   'Ca4 Fe2 Cu2 S2 O6'
_cell_volume   226.04049577
_cell_formula_units_Z   2
loop_
 _symmetry_equiv_pos_site_id
 _symmetry_equiv_pos_as_xyz
  1  'x, y, z'
loop_
 _atom_site_type_symbol
 _atom_site_label
 _atom_site_symmetry_multiplicity
 _atom_site_fract_x
 _atom_site_fract_y
 _atom_site_fract_z
 _atom_site_occupancy
  Ca  Ca0  1  0.75000000  0.75000000  0.19028573  1
  Ca  Ca1  1  0.25000000  0.25000000  0.80971427  1
  Ca  Ca2  1  0.75000000  0.75000000  0.41444762  1
  Ca  Ca3  1  0.25000000  0.25000000  0.58555238  1
  Fe  Fe4  1  0.75000000  0.75000000  0.68985989  1
  Fe  Fe5  1  0.25000000  0.25000000  0.31014011  1
  Cu  Cu6  1  0.75000000  0.25000000  0.00000000  1
  Cu  Cu7  1  0.25000000  0.75000000  0.00000000  1
  S  S8  1  0.75000000  0.75000000  0.90301194  1
  S  S9  1  0.25000000  0.25000000  0.09698806  1
  O  O10  1  0.75000000  0.25000000  0.71196569  1
  O  O11  1  0.25000000  0.75000000  0.71196569  1
  O  O12  1  0.25000000  0.75000000  0.28803431  1
  O  O13  1  0.75000000  0.25000000  0.28803431  1
  O  O14  1  0.75000000  0.75000000  0.56211471  1
  O  O15  1  0.25000000  0.25000000  0.43788529  1
