# generated using pymatgen
data_K(MoS)3
_symmetry_space_group_name_H-M   'P 1'
_cell_length_a   4.47621581
_cell_length_b   9.59396186
_cell_length_c   9.58965460
_cell_angle_alpha   119.98876571
_cell_angle_beta   90.00000000
_cell_angle_gamma   90.00000000
_symmetry_Int_Tables_number   1
_chemical_formula_structural   K(MoS)3
_chemical_formula_sum   'K2 Mo6 S6'
_cell_volume   356.69067392
_cell_formula_units_Z   2
loop_
 _symmetry_equiv_pos_site_id
 _symmetry_equiv_pos_as_xyz
  1  'x, y, z'
loop_
 _atom_site_type_symbol
 _atom_site_label
 _atom_site_symmetry_multiplicity
 _atom_site_fract_x
 _atom_site_fract_y
 _atom_site_fract_z
 _atom_site_occupancy
  K  K0  1  0.75000000  0.66663419  0.33329989  1
  K  K1  1  0.25000000  0.33336581  0.66670011  1
  Mo  Mo2  1  0.75000000  0.02257993  0.85126170  1
  Mo  Mo3  1  0.75000000  0.14872188  0.17128958  1
  Mo  Mo4  1  0.75000000  0.82869704  0.97742332  1
  Mo  Mo5  1  0.25000000  0.97742007  0.14873830  1
  Mo  Mo6  1  0.25000000  0.85127812  0.82871042  1
  Mo  Mo7  1  0.25000000  0.17130296  0.02257668  1
  S  S8  1  0.75000000  0.72267312  0.68142347  1
  S  S9  1  0.75000000  0.31852005  0.04117877  1
  S  S10  1  0.75000000  0.95878608  0.27742724  1
  S  S11  1  0.25000000  0.27732688  0.31857653  1
  S  S12  1  0.25000000  0.68147995  0.95882123  1
  S  S13  1  0.25000000  0.04121392  0.72257276  1
