# generated using pymatgen
data_Yb(InS2)2
_symmetry_space_group_name_H-M   'P 1'
_cell_length_a   6.07033663
_cell_length_b   6.07033663
_cell_length_c   10.20738692
_cell_angle_alpha   90.00000000
_cell_angle_beta   90.00000000
_cell_angle_gamma   114.40130885
_symmetry_Int_Tables_number   1
_chemical_formula_structural   Yb(InS2)2
_chemical_formula_sum   'Yb2 In4 S8'
_cell_volume   342.53359474
_cell_formula_units_Z   2
loop_
 _symmetry_equiv_pos_site_id
 _symmetry_equiv_pos_as_xyz
  1  'x, y, z'
loop_
 _atom_site_type_symbol
 _atom_site_label
 _atom_site_symmetry_multiplicity
 _atom_site_fract_x
 _atom_site_fract_y
 _atom_site_fract_z
 _atom_site_occupancy
  Yb  Yb0  1  0.50000000  0.50000000  0.25000000  1
  Yb  Yb1  1  0.50000000  0.50000000  0.75000000  1
  In  In2  1  0.77759072  0.21827642  0.50000000  1
  In  In3  1  0.22240928  0.78172358  0.50000000  1
  In  In4  1  0.78172358  0.22240928  0.00000000  1
  In  In5  1  0.21827642  0.77759072  0.00000000  1
  S  S6  1  0.77885525  0.64252446  0.50000000  1
  S  S7  1  0.22114475  0.35747554  0.50000000  1
  S  S8  1  0.35747554  0.22114475  -0.00000000  1
  S  S9  1  0.64252446  0.77885525  -0.00000000  1
  S  S10  1  -0.00000000  0.50000000  0.18422795  1
  S  S11  1  0.50000000  0.00000000  0.31577205  1
  S  S12  1  -0.00000000  0.50000000  0.81577205  1
  S  S13  1  0.50000000  0.00000000  0.68422795  1
