# generated using pymatgen
data_Er3Ga8Rh3
_symmetry_space_group_name_H-M   'P 1'
_cell_length_a   4.19323312
_cell_length_b   8.12823754
_cell_length_c   8.12823754
_cell_angle_alpha   74.78047654
_cell_angle_beta   75.05199754
_cell_angle_gamma   75.05199754
_symmetry_Int_Tables_number   1
_chemical_formula_structural   Er3Ga8Rh3
_chemical_formula_sum   'Er3 Ga8 Rh3'
_cell_volume   252.84298235
_cell_formula_units_Z   1
loop_
 _symmetry_equiv_pos_site_id
 _symmetry_equiv_pos_as_xyz
  1  'x, y, z'
loop_
 _atom_site_type_symbol
 _atom_site_label
 _atom_site_symmetry_multiplicity
 _atom_site_fract_x
 _atom_site_fract_y
 _atom_site_fract_z
 _atom_site_occupancy
  Er  Er0  1  0.50000000  0.50000000  0.50000000  1
  Er  Er1  1  0.17200920  0.82799080  0.82799080  1
  Er  Er2  1  0.82799080  0.17200920  0.17200920  1
  Ga  Ga3  1  0.37523132  0.33990325  0.90963411  1
  Ga  Ga4  1  0.62476868  0.66009675  0.09036589  1
  Ga  Ga5  1  0.37523132  0.90963411  0.33990325  1
  Ga  Ga6  1  0.62476868  0.09036589  0.66009675  1
  Ga  Ga7  1  0.16540544  0.46262952  0.20655960  1
  Ga  Ga8  1  0.83459456  0.53737048  0.79344040  1
  Ga  Ga9  1  0.16540544  0.20655960  0.46262952  1
  Ga  Ga10  1  0.83459456  0.79344040  0.53737048  1
  Rh  Rh11  1  0.50000000  0.00000000  -0.00000000  1
  Rh  Rh12  1  0.00000000  0.78633228  0.21366772  1
  Rh  Rh13  1  -0.00000000  0.21366772  0.78633228  1
