# generated using pymatgen
data_Tb4ZrAl15
_symmetry_space_group_name_H-M   'P 1'
_cell_length_a   6.06908177
_cell_length_b   6.06908177
_cell_length_c   12.51443209
_cell_angle_alpha   75.96684603
_cell_angle_beta   75.96684603
_cell_angle_gamma   60.00000728
_symmetry_Int_Tables_number   1
_chemical_formula_structural   Tb4ZrAl15
_chemical_formula_sum   'Tb4 Zr1 Al15'
_cell_volume   383.23008758
_cell_formula_units_Z   1
loop_
 _symmetry_equiv_pos_site_id
 _symmetry_equiv_pos_as_xyz
  1  'x, y, z'
loop_
 _atom_site_type_symbol
 _atom_site_label
 _atom_site_symmetry_multiplicity
 _atom_site_fract_x
 _atom_site_fract_y
 _atom_site_fract_z
 _atom_site_occupancy
  Tb  Tb0  1  0.13084434  0.13084434  0.60746699  1
  Tb  Tb1  1  0.86915566  0.86915566  0.39253301  1
  Tb  Tb2  1  0.39984434  0.39984434  0.80046698  1
  Tb  Tb3  1  0.60015566  0.60015566  0.19953302  1
  Zr  Zr4  1  0.00000000  -0.00000000  -0.00000000  1
  Al  Al5  1  0.50000000  0.50000000  -0.00000000  1
  Al  Al6  1  0.50000000  -0.00000000  -0.00000000  1
  Al  Al7  1  0.00000000  0.50000000  -0.00000000  1
  Al  Al8  1  0.12831184  0.63641241  0.59886335  1
  Al  Al9  1  0.63641241  0.63641241  0.59886335  1
  Al  Al10  1  0.63641241  0.12831184  0.59886335  1
  Al  Al11  1  0.87168816  0.36358759  0.40113665  1
  Al  Al12  1  0.36358759  0.36358759  0.40113665  1
  Al  Al13  1  0.36358759  0.87168816  0.40113665  1
  Al  Al14  1  0.42784200  0.88296500  0.80622801  1
  Al  Al15  1  0.88296500  0.88296500  0.80622801  1
  Al  Al16  1  0.88296500  0.42784200  0.80622801  1
  Al  Al17  1  0.57215800  0.11703500  0.19377199  1
  Al  Al18  1  0.11703500  0.11703500  0.19377199  1
  Al  Al19  1  0.11703500  0.57215800  0.19377199  1
