# generated using pymatgen
data_Li4Mn3CoO8
_symmetry_space_group_name_H-M   'P 1'
_cell_length_a   3.08611044
_cell_length_b   10.01734065
_cell_length_c   5.12376666
_cell_angle_alpha   76.97288777
_cell_angle_beta   92.62651789
_cell_angle_gamma   95.41697864
_symmetry_Int_Tables_number   1
_chemical_formula_structural   Li4Mn3CoO8
_chemical_formula_sum   'Li4 Mn3 Co1 O8'
_cell_volume   153.58425025
_cell_formula_units_Z   1
loop_
 _symmetry_equiv_pos_site_id
 _symmetry_equiv_pos_as_xyz
  1  'x, y, z'
loop_
 _atom_site_type_symbol
 _atom_site_label
 _atom_site_symmetry_multiplicity
 _atom_site_fract_x
 _atom_site_fract_y
 _atom_site_fract_z
 _atom_site_occupancy
  Li  Li0  1  0.99256124  0.25113138  0.25184264  1
  Li  Li1  1  0.50000000  0.50000000  -0.00000000  1
  Li  Li2  1  0.00743876  0.74886862  0.74815736  1
  Li  Li3  1  0.50000000  0.00000000  0.50000000  1
  Mn  Mn4  1  0.51508356  0.24712710  0.74976114  1
  Mn  Mn5  1  -0.00000000  0.50000000  0.50000000  1
  Mn  Mn6  1  0.48491644  0.75287290  0.25023886  1
  Co  Co7  1  -0.00000000  0.00000000  -0.00000000  1
  O  O8  1  0.53263654  0.12102733  0.10044965  1
  O  O9  1  0.97594293  0.37558699  0.85513022  1
  O  O10  1  0.46610649  0.62783302  0.60522426  1
  O  O11  1  0.95788739  0.87849558  0.35610800  1
  O  O12  1  0.53389351  0.37216698  0.39477574  1
  O  O13  1  0.02405707  0.62441301  0.14486978  1
  O  O14  1  0.46736346  0.87897267  0.89955035  1
  O  O15  1  0.04211261  0.12150442  0.64389200  1
