# generated using pymatgen
data_KMo6S7
_symmetry_space_group_name_H-M   'P 1'
_cell_length_a   9.20452807
_cell_length_b   18.56325692
_cell_length_c   16.58616942
_cell_angle_alpha   90.07005382
_cell_angle_beta   89.85871867
_cell_angle_gamma   119.72559249
_symmetry_Int_Tables_number   1
_chemical_formula_structural   KMo6S7
_chemical_formula_sum   'K8 Mo48 S56'
_cell_volume   2461.07786661
_cell_formula_units_Z   8
loop_
 _symmetry_equiv_pos_site_id
 _symmetry_equiv_pos_as_xyz
  1  'x, y, z'
loop_
 _atom_site_type_symbol
 _atom_site_label
 _atom_site_symmetry_multiplicity
 _atom_site_fract_x
 _atom_site_fract_y
 _atom_site_fract_z
 _atom_site_occupancy
  K  K0  1  0.33433099  0.83313743  0.24947682  1
  K  K1  1  0.00172967  0.50192660  0.75076524  1
  K  K2  1  0.33333846  0.33475419  0.24900266  1
  K  K3  1  0.00095406  0.99853061  0.32877592  1
  K  K4  1  0.66383007  0.66524581  0.74900266  1
  K  K5  1  0.00389285  0.00146939  0.82877592  1
  K  K6  1  0.99787648  0.49807340  0.25076524  1
  K  K7  1  0.66805613  0.16686257  0.74947682  1
  Mo  Mo8  1  0.16463338  0.83346570  0.68333295  1
  Mo  Mo9  1  0.15761380  0.82584233  0.95729725  1
  Mo  Mo10  1  0.16179786  0.75344517  0.54159144  1
  Mo  Mo11  1  0.32633858  0.91573738  0.81678919  1
  Mo  Mo12  1  0.16593498  0.74907816  0.81561192  1
  Mo  Mo13  1  0.34161977  0.91976031  0.54410753  1
  Mo  Mo14  1  0.49303383  0.91940663  0.95636362  1
  Mo  Mo15  1  0.33565949  0.75077624  0.68363100  1
  Mo  Mo16  1  0.50040616  0.91741609  0.68347280  1
  Mo  Mo17  1  0.34724781  0.75343158  0.95791069  1
  Mo  Mo18  1  0.49583672  0.82917015  0.54388995  1
  Mo  Mo19  1  0.50181432  0.83545318  0.81630903  1
  Mo  Mo20  1  0.49970463  0.66629677  0.18346212  1
  Mo  Mo21  1  0.16711109  0.33370323  0.68346212  1
  Mo  Mo22  1  0.16215148  0.32761747  0.95578799  1
  Mo  Mo23  1  0.50691655  0.67238253  0.45578799  1
  Mo  Mo24  1  0.65520650  0.74762261  0.04195456  1
  Mo  Mo25  1  0.15996128  0.25237739  0.54195456  1
  Mo  Mo26  1  0.33095149  0.41684031  0.81635782  1
  Mo  Mo27  1  0.49727087  0.58315969  0.31635782  1
  Mo  Mo28  1  0.66746945  0.75006996  0.31594720  1
  Mo  Mo29  1  0.16732953  0.24993004  0.81594720  1
  Mo  Mo30  1  0.50443547  0.58114016  0.04307023  1
  Mo  Mo31  1  0.34215516  0.41885984  0.54307023  1
  Mo  Mo32  1  0.49683117  0.42002485  0.95564754  1
  Mo  Mo33  1  0.65678147  0.57997515  0.45564754  1
  Mo  Mo34  1  0.83521479  0.74991903  0.18411628  1
  Mo  Mo35  1  0.33537673  0.25008097  0.68411628  1
  Mo  Mo36  1  0.50289345  0.41672117  0.68290971  1
  Mo  Mo37  1  0.66945111  0.58327883  0.18290971  1
  Mo  Mo38  1  0.84001541  0.74591789  0.45732620  1
  Mo  Mo39  1  0.34817963  0.25408211  0.95732620  1
  Mo  Mo40  1  0.49572562  0.32754020  0.54236471  1
  Mo  Mo41  1  0.84064522  0.67245980  0.04236471  1
  Mo  Mo42  1  0.83316511  0.66462832  0.31626436  1
  Mo  Mo43  1  0.50390848  0.33537168  0.81626436  1
  Mo  Mo44  1  0.49770197  0.16653430  0.18333295  1
  Mo  Mo45  1  0.50592914  0.17415767  0.45729725  1
  Mo  Mo46  1  0.65490753  0.24655483  0.04159144  1
  Mo  Mo47  1  0.49486383  0.08426262  0.31678919  1
  Mo  Mo48  1  0.66777865  0.25092184  0.31561192  1
  Mo  Mo49  1  0.50209915  0.08023969  0.04410753  1
  Mo  Mo50  1  0.65422056  0.08059337  0.45636362  1
  Mo  Mo51  1  0.83410701  0.24922376  0.18363100  1
  Mo  Mo52  1  0.66557398  0.08258391  0.18347280  1
  Mo  Mo53  1  0.84038464  0.24656842  0.45791069  1
  Mo  Mo54  1  0.83749641  0.17082985  0.04388995  1
  Mo  Mo55  1  0.83090797  0.16454682  0.31630903  1
  S  S56  1  0.01602734  0.82869173  0.81842874  1
  S  S57  1  0.03679753  0.84312949  0.55747547  1
  S  S58  1  0.30382068  0.97747183  0.94419950  1
  S  S59  1  0.02450059  0.67977187  0.68243615  1
  S  S60  1  0.32939244  0.98695066  0.68365900  1
  S  S61  1  0.04068097  0.67574307  0.93927610  1
  S  S62  1  0.33460179  0.83619240  0.43308955  1
  S  S63  1  0.33617391  0.83462507  0.06701899  1
  S  S64  1  0.31625355  0.67752962  0.56001741  1
  S  S65  1  0.63611051  0.98938591  0.81824191  1
  S  S66  1  0.34215365  0.68203428  0.81761668  1
  S  S67  1  0.64685181  0.97986932  0.55688675  1
  S  S68  1  0.02033792  0.33112542  0.81748821  1
  S  S69  1  0.35808709  0.66887458  0.31748821  1
  S  S70  1  0.35158358  0.65708573  0.05830552  1
  S  S71  1  0.03741212  0.34291427  0.55830552  1
  S  S72  1  0.65110556  0.84545302  0.94231405  1
  S  S73  1  0.64429910  0.83409865  0.68289534  1
  S  S74  1  0.30901226  0.47888647  0.94332008  1
  S  S75  1  0.35123931  0.52111353  0.44332008  1
  S  S76  1  0.66524051  0.81980973  0.18285424  1
  S  S77  1  0.02562105  0.18019027  0.68285424  1
  S  S78  1  0.33501495  0.48781227  0.68188403  1
  S  S79  1  0.35939041  0.51218773  0.18188403  1
  S  S80  1  0.04029450  0.17538644  0.93970715  1
  S  S81  1  0.68952161  0.82461356  0.43970715  1
  S  S82  1  0.33206832  0.33404182  0.43261685  1
  S  S83  1  0.66398468  0.66595818  0.93261685  1
  S  S84  1  0.66760828  0.66454884  0.56629107  1
  S  S85  1  0.33851060  0.33545116  0.06629107  1
  S  S86  1  0.31497839  0.17731076  0.56071824  1
  S  S87  1  0.96035686  0.82268924  0.06071824  1
  S  S88  1  0.64084405  0.48917932  0.81694740  1
  S  S89  1  0.66248542  0.51082068  0.31694740  1
  S  S90  1  0.97862114  0.81791635  0.31757796  1
  S  S91  1  0.34278844  0.18208365  0.81757796  1
  S  S92  1  0.64738421  0.47849036  0.55633392  1
  S  S93  1  0.69040350  0.52150964  0.05633392  1
  S  S94  1  0.35864389  0.17130827  0.31842874  1
  S  S95  1  0.35053855  0.15687051  0.05747547  1
  S  S96  1  0.96287564  0.65515364  0.44188386  1
  S  S97  1  0.65256837  0.34484636  0.94188386  1
  S  S98  1  0.64501332  0.33233639  0.68197909  1
  S  S99  1  0.98034054  0.66766361  0.18197909  1
  S  S100  1  0.34887701  0.02252817  0.44419950  1
  S  S101  1  0.66495684  0.32022813  0.18243615  1
  S  S102  1  0.35549112  0.01304934  0.18365900  1
  S  S103  1  0.68919484  0.32425693  0.43927610  1
  S  S104  1  0.66221699  0.16380760  0.93308955  1
  S  S105  1  0.66692378  0.16537493  0.56701899  1
  S  S106  1  0.96119430  0.32247038  0.06001741  1
  S  S107  1  0.65733870  0.01061409  0.31824191  1
  S  S108  1  0.97808509  0.31796572  0.31761668  1
  S  S109  1  0.68711317  0.02013068  0.05688675  1
  S  S110  1  0.96019952  0.15454698  0.44231405  1
  S  S111  1  0.97610180  0.16590135  0.18289534  1
