# generated using pymatgen
data_Na8(WO3)19
_symmetry_space_group_name_H-M   'P 1'
_cell_length_a   3.90150624
_cell_length_b   3.90150624
_cell_length_c   74.48541509
_cell_angle_alpha   90.00000000
_cell_angle_beta   90.00000000
_cell_angle_gamma   90.00000000
_symmetry_Int_Tables_number   1
_chemical_formula_structural   Na8(WO3)19
_chemical_formula_sum   'Na8 W19 O57'
_cell_volume   1133.79843722
_cell_formula_units_Z   1
loop_
 _symmetry_equiv_pos_site_id
 _symmetry_equiv_pos_as_xyz
  1  'x, y, z'
loop_
 _atom_site_type_symbol
 _atom_site_label
 _atom_site_symmetry_multiplicity
 _atom_site_fract_x
 _atom_site_fract_y
 _atom_site_fract_z
 _atom_site_occupancy
  Na  Na0  1  -0.00000000  0.00000000  0.05280280  1
  Na  Na1  1  0.00000000  -0.00000000  0.57877620  1
  Na  Na2  1  -0.00000000  -0.00000000  0.68358087  1
  Na  Na3  1  0.00000000  -0.00000000  0.73663578  1
  Na  Na4  1  0.00000000  0.00000000  0.78954642  1
  Na  Na5  1  -0.00000000  -0.00000000  0.84203258  1
  Na  Na6  1  0.00000000  0.00000000  0.94799813  1
  Na  Na7  1  -0.00000000  0.00000000  0.89494322  1
  W  W8  1  0.50000000  0.50000000  0.08029318  1
  W  W9  1  0.50000000  0.50000000  0.02604609  1
  W  W10  1  0.50000000  0.50000000  0.18527424  1
  W  W11  1  0.50000000  0.50000000  0.13291203  1
  W  W12  1  0.50000000  0.50000000  0.28972869  1
  W  W13  1  0.50000000  0.50000000  0.23755285  1
  W  W14  1  0.50000000  0.50000000  0.34185031  1
  W  W15  1  0.50000000  0.50000000  0.39402615  1
  W  W16  1  0.50000000  0.50000000  0.44630476  1
  W  W17  1  0.50000000  0.50000000  0.49866697  1
  W  W18  1  0.50000000  0.50000000  0.55128582  1
  W  W19  1  0.50000000  0.50000000  0.65694985  1
  W  W20  1  0.50000000  0.50000000  0.60553291  1
  W  W21  1  0.50000000  0.50000000  0.76303722  1
  W  W22  1  0.50000000  0.50000000  0.71016705  1
  W  W23  1  0.50000000  0.50000000  0.81578900  1
  W  W24  1  0.50000000  0.50000000  0.86854178  1
  W  W25  1  0.50000000  0.50000000  0.92141195  1
  W  W26  1  0.50000000  0.50000000  0.97462915  1
  O  O27  1  -0.00000000  0.50000000  0.02708795  1
  O  O28  1  0.00000000  0.50000000  0.07820325  1
  O  O29  1  0.00000000  0.50000000  0.13132972  1
  O  O30  1  0.00000000  0.50000000  0.18402729  1
  O  O31  1  0.00000000  0.50000000  0.23672805  1
  O  O32  1  0.00000000  0.50000000  0.28943381  1
  O  O33  1  -0.00000000  0.50000000  0.34214519  1
  O  O34  1  -0.00000000  0.50000000  0.39485095  1
  O  O35  1  0.00000000  0.50000000  0.50024928  1
  O  O36  1  -0.00000000  0.50000000  0.55337575  1
  O  O37  1  -0.00000000  0.50000000  0.60449105  1
  O  O38  1  -0.00000000  0.50000000  0.65835234  1
  O  O39  1  0.00000000  0.50000000  0.71049503  1
  O  O40  1  -0.00000000  0.50000000  0.76311593  1
  O  O41  1  -0.00000000  0.50000000  0.81578900  1
  O  O42  1  0.00000000  0.50000000  0.86846307  1
  O  O43  1  -0.00000000  0.50000000  0.92108397  1
  O  O44  1  -0.00000000  0.50000000  0.97322666  1
  O  O45  1  0.50000000  0.50000000  0.00078646  1
  O  O46  1  0.50000000  0.50000000  0.05279140  1
  O  O47  1  0.50000000  0.00000000  0.02708795  1
  O  O48  1  0.50000000  0.50000000  0.10497923  1
  O  O49  1  0.50000000  -0.00000000  0.07820325  1
  O  O50  1  0.50000000  0.50000000  0.15774324  1
  O  O51  1  0.50000000  0.00000000  0.13132972  1
  O  O52  1  0.50000000  0.50000000  0.21038367  1
  O  O53  1  0.50000000  0.00000000  0.18402729  1
  O  O54  1  0.50000000  0.50000000  0.26306489  1
  O  O55  1  0.50000000  0.00000000  0.23672805  1
  O  O56  1  0.50000000  -0.00000000  0.34214519  1
  O  O57  1  0.50000000  0.50000000  0.31578900  1
  O  O58  1  0.50000000  0.00000000  0.28943381  1
  O  O59  1  0.50000000  -0.00000000  0.39485095  1
  O  O60  1  0.50000000  0.50000000  0.36851411  1
  O  O61  1  0.50000000  -0.00000000  0.44755171  1
  O  O62  1  0.50000000  0.00000000  0.55337575  1
  O  O63  1  0.50000000  0.50000000  0.42119533  1
  O  O64  1  0.50000000  -0.00000000  0.50024928  1
  O  O65  1  0.50000000  0.50000000  0.47383576  1
  O  O66  1  0.50000000  -0.00000000  0.65835234  1
  O  O67  1  0.50000000  -0.00000000  0.60449105  1
  O  O68  1  0.50000000  0.50000000  0.52659977  1
  O  O69  1  0.50000000  -0.00000000  0.76311593  1
  O  O70  1  0.50000000  0.50000000  0.57878760  1
  O  O71  1  0.50000000  -0.00000000  0.71049503  1
  O  O72  1  0.50000000  -0.00000000  0.81578900  1
  O  O73  1  0.50000000  0.50000000  0.63079254  1
  O  O74  1  0.50000000  0.00000000  0.86846307  1
  O  O75  1  0.50000000  0.50000000  0.68458104  1
  O  O76  1  0.50000000  0.00000000  0.92108397  1
  O  O77  1  0.50000000  0.50000000  0.73596791  1
  O  O78  1  0.50000000  0.00000000  0.97322666  1
  O  O79  1  0.50000000  0.50000000  0.79012840  1
  O  O80  1  0.50000000  0.50000000  0.84145060  1
  O  O81  1  0.50000000  0.50000000  0.89561109  1
  O  O82  1  0.50000000  0.50000000  0.94699796  1
  O  O83  1  -0.00000000  0.50000000  0.44755171  1
