# generated using pymatgen
data_Li4Mn3CoO8
_symmetry_space_group_name_H-M   'P 1'
_cell_length_a   3.08299106
_cell_length_b   6.10715561
_cell_length_c   8.13941531
_cell_angle_alpha   89.65538854
_cell_angle_beta   89.16848781
_cell_angle_gamma   95.34716525
_symmetry_Int_Tables_number   1
_chemical_formula_structural   Li4Mn3CoO8
_chemical_formula_sum   'Li4 Mn3 Co1 O8'
_cell_volume   152.56425732
_cell_formula_units_Z   1
loop_
 _symmetry_equiv_pos_site_id
 _symmetry_equiv_pos_as_xyz
  1  'x, y, z'
loop_
 _atom_site_type_symbol
 _atom_site_label
 _atom_site_symmetry_multiplicity
 _atom_site_fract_x
 _atom_site_fract_y
 _atom_site_fract_z
 _atom_site_occupancy
  Li  Li0  1  -0.00000000  0.50000000  -0.00000000  1
  Li  Li1  1  0.50331989  0.24816697  0.24747187  1
  Li  Li2  1  0.49668011  0.75183303  0.75252813  1
  Li  Li3  1  -0.00000000  -0.00000000  0.50000000  1
  Mn  Mn4  1  0.48831925  0.75378184  0.24807864  1
  Mn  Mn5  1  -0.00000000  0.50000000  0.50000000  1
  Mn  Mn6  1  0.51168075  0.24621816  0.75192136  1
  Co  Co7  1  -0.00000000  -0.00000000  -0.00000000  1
  O  O8  1  0.52789038  0.23355387  0.98994729  1
  O  O9  1  0.96236010  0.99575055  0.23837442  1
  O  O10  1  0.97036473  0.49004249  0.74077834  1
  O  O11  1  0.46657845  0.74224577  0.48771937  1
  O  O12  1  0.47210962  0.76644613  0.01005271  1
  O  O13  1  0.02963527  0.50995751  0.25922166  1
  O  O14  1  0.03763990  0.00424945  0.76162558  1
  O  O15  1  0.53342155  0.25775423  0.51228063  1
