# generated using pymatgen
data_Fe2(PO3)5
_symmetry_space_group_name_H-M   'P 1'
_cell_length_a   12.99099085
_cell_length_b   8.41856025
_cell_length_c   5.27542861
_cell_angle_alpha   90.00000000
_cell_angle_beta   93.54291714
_cell_angle_gamma   90.00000000
_symmetry_Int_Tables_number   1
_chemical_formula_structural   Fe2(PO3)5
_chemical_formula_sum   'Fe4 P10 O30'
_cell_volume   575.84689511
_cell_formula_units_Z   2
loop_
 _symmetry_equiv_pos_site_id
 _symmetry_equiv_pos_as_xyz
  1  'x, y, z'
loop_
 _atom_site_type_symbol
 _atom_site_label
 _atom_site_symmetry_multiplicity
 _atom_site_fract_x
 _atom_site_fract_y
 _atom_site_fract_z
 _atom_site_occupancy
  Fe  Fe0  1  0.03925161  0.71172857  0.10993602  1
  Fe  Fe1  1  0.46021566  0.71065734  0.38974104  1
  Fe  Fe2  1  0.96021566  0.28934266  0.88974104  1
  Fe  Fe3  1  0.53925161  0.28827143  0.60993602  1
  P  P4  1  0.74645830  0.06726628  0.75104555  1
  P  P5  1  0.35879353  0.49031230  0.88069233  1
  P  P6  1  0.64681836  0.48832238  0.12338150  1
  P  P7  1  0.14681836  0.51167762  0.62338150  1
  P  P8  1  0.09943194  0.17987749  0.43465830  1
  P  P9  1  0.89759735  0.82808086  0.56699091  1
  P  P10  1  0.85879353  0.50968770  0.38069233  1
  P  P11  1  0.59943194  0.82012251  0.93465830  1
  P  P12  1  0.39759735  0.17191914  0.06699091  1
  P  P13  1  0.24645830  0.93273372  0.25104555  1
  O  O14  1  0.55442314  0.79457882  0.67094283  1
  O  O15  1  0.82366668  0.67634635  0.49435606  1
  O  O16  1  0.44766285  0.19426751  0.32900102  1
  O  O17  1  0.31050189  0.03966271  0.05646000  1
  O  O18  1  0.19615737  0.06069492  0.43271840  1
  O  O19  1  0.07647476  0.51722792  0.84237990  1
  O  O20  1  0.82033059  0.16170230  0.91633275  1
  O  O21  1  0.94766285  0.80573249  0.82900102  1
  O  O22  1  0.38754728  0.60059893  0.09119761  1
  O  O23  1  0.62309288  0.38090595  0.90134888  1
  O  O24  1  0.46652408  0.14821034  0.85044653  1
  O  O25  1  0.66178900  0.14467714  0.58111394  1
  O  O26  1  0.05442314  0.20542118  0.17094283  1
  O  O27  1  0.43436405  0.46442169  0.67599894  1
  O  O28  1  0.93436405  0.53557831  0.17599894  1
  O  O29  1  0.81050189  0.96033729  0.55646000  1
  O  O30  1  0.25850782  0.55902878  0.73542862  1
  O  O31  1  0.53303840  0.86451581  0.14349934  1
  O  O32  1  0.32366668  0.32365365  -0.00564394  1
  O  O33  1  0.57647476  0.48277208  0.34237990  1
  O  O34  1  0.12309288  0.61909405  0.40134888  1
  O  O35  1  0.69615737  0.93930508  0.93271840  1
  O  O36  1  0.32033059  0.83829770  0.41633275  1
  O  O37  1  0.88754728  0.39940107  0.59119761  1
  O  O38  1  0.66598747  0.66274685  0.02444651  1
  O  O39  1  0.03303840  0.13548419  0.64349934  1
  O  O40  1  0.16178900  0.85532286  0.08111394  1
  O  O41  1  0.16598747  0.33725315  0.52444651  1
  O  O42  1  0.75850782  0.44097122  0.23542862  1
  O  O43  1  0.96652408  0.85178966  0.35044653  1
