# generated using pymatgen
data_Li4Mn3CoO8
_symmetry_space_group_name_H-M   'P 1'
_cell_length_a   3.08778065
_cell_length_b   10.15009260
_cell_length_c   5.13613941
_cell_angle_alpha   78.84638904
_cell_angle_beta   77.24286554
_cell_angle_gamma   93.95132276
_symmetry_Int_Tables_number   1
_chemical_formula_structural   Li4Mn3CoO8
_chemical_formula_sum   'Li4 Mn3 Co1 O8'
_cell_volume   152.98241431
_cell_formula_units_Z   1
loop_
 _symmetry_equiv_pos_site_id
 _symmetry_equiv_pos_as_xyz
  1  'x, y, z'
loop_
 _atom_site_type_symbol
 _atom_site_label
 _atom_site_symmetry_multiplicity
 _atom_site_fract_x
 _atom_site_fract_y
 _atom_site_fract_z
 _atom_site_occupancy
  Li  Li0  1  0.73620297  0.12400320  0.50692599  1
  Li  Li1  1  0.25084688  0.37462565  0.49908762  1
  Li  Li2  1  0.74915312  0.62537435  0.50091238  1
  Li  Li3  1  0.26379703  0.87599680  0.49307401  1
  Mn  Mn4  1  0.51205401  0.24814445  0.99892391  1
  Mn  Mn5  1  0.00000000  0.50000000  -0.00000000  1
  Mn  Mn6  1  0.48794599  0.75185555  0.00107609  1
  Co  Co7  1  0.00000000  -0.00000000  -0.00000000  1
  O  O8  1  0.41381132  0.06591130  0.22472926  1
  O  O9  1  0.85994533  0.31773417  0.23196288  1
  O  O10  1  0.35127710  0.56913553  0.23239275  1
  O  O11  1  0.84412944  0.82114892  0.23339564  1
  O  O12  1  0.15587056  0.17885108  0.76660436  1
  O  O13  1  0.64872290  0.43086447  0.76760725  1
  O  O14  1  0.14005467  0.68226583  0.76803712  1
  O  O15  1  0.58618868  0.93408870  0.77527074  1
