# generated using pymatgen
data_Ho6Ge11
_symmetry_space_group_name_H-M   'P 1'
_cell_length_a   4.11105394
_cell_length_b   4.25525563
_cell_length_c   45.32628547
_cell_angle_alpha   108.79716047
_cell_angle_beta   90.13148121
_cell_angle_gamma   89.91568519
_symmetry_Int_Tables_number   1
_chemical_formula_structural   Ho6Ge11
_chemical_formula_sum   'Ho12 Ge22'
_cell_volume   750.62688004
_cell_formula_units_Z   2
loop_
 _symmetry_equiv_pos_site_id
 _symmetry_equiv_pos_as_xyz
  1  'x, y, z'
loop_
 _atom_site_type_symbol
 _atom_site_label
 _atom_site_symmetry_multiplicity
 _atom_site_fract_x
 _atom_site_fract_y
 _atom_site_fract_z
 _atom_site_occupancy
  Ho  Ho0  1  0.24029317  0.08672949  0.04589726  1
  Ho  Ho1  1  0.22767906  0.99787468  0.38416692  1
  Ho  Ho2  1  0.23660626  0.09015823  0.71470830  1
  Ho  Ho3  1  0.73361666  0.00908566  0.28361114  1
  Ho  Ho4  1  0.73339948  0.92242476  0.63177097  1
  Ho  Ho5  1  0.73321496  0.91706767  0.96390518  1
  Ho  Ho6  1  0.25069884  0.80298666  0.11955256  1
  Ho  Ho7  1  0.23718322  0.77313357  0.45664586  1
  Ho  Ho8  1  0.25251471  0.79907582  0.78838015  1
  Ho  Ho9  1  0.74073817  0.22809489  0.21047007  1
  Ho  Ho10  1  0.74514870  0.22336639  0.55215021  1
  Ho  Ho11  1  0.74349184  0.22671840  0.88331762  1
  Ge  Ge12  1  0.23589348  0.45363988  0.27043709  1
  Ge  Ge13  1  0.23057073  0.37918608  0.60655557  1
  Ge  Ge14  1  0.23073163  0.37418171  0.93903813  1
  Ge  Ge15  1  0.73757783  0.57222525  0.04243668  1
  Ge  Ge16  1  0.73151667  0.54536132  0.39555845  1
  Ge  Ge17  1  0.73138984  0.57487266  0.71028808  1
  Ge  Ge18  1  0.24019824  0.80361077  0.23442735  1
  Ge  Ge19  1  0.24822158  0.77737045  0.57532551  1
  Ge  Ge20  1  0.24699853  0.77503159  0.90740446  1
  Ge  Ge21  1  0.74684936  0.22755996  0.09449395  1
  Ge  Ge22  1  0.73342824  0.20054611  0.43401674  1
  Ge  Ge23  1  0.74616217  0.23188025  0.76386294  1
  Ge  Ge24  1  0.25251433  0.66829013  0.17754510  1
  Ge  Ge25  1  0.25277955  0.67642580  0.51671618  1
  Ge  Ge26  1  0.25122067  0.69151930  0.84856827  1
  Ge  Ge27  1  0.75386762  0.35210247  0.15162219  1
  Ge  Ge28  1  0.75126311  0.33493548  0.49203921  1
  Ge  Ge29  1  0.75279693  0.35682463  0.82229814  1
  Ge  Ge30  1  0.23029288  0.44820103  0.99747531  1
  Ge  Ge31  1  0.20936480  0.31002873  0.33539471  1
  Ge  Ge32  1  0.22501884  0.45461898  0.66543928  1
  Ge  Ge33  1  0.70275789  0.69387120  0.33181341  1
