# generated using pymatgen
data_Li5Mn3O8
_symmetry_space_group_name_H-M   'P 1'
_cell_length_a   5.16563602
_cell_length_b   5.75077723
_cell_length_c   5.88014983
_cell_angle_alpha   60.72517311
_cell_angle_beta   71.56786419
_cell_angle_gamma   90.00000076
_symmetry_Int_Tables_number   1
_chemical_formula_structural   Li5Mn3O8
_chemical_formula_sum   'Li5 Mn3 O8'
_cell_volume   142.00695982
_cell_formula_units_Z   1
loop_
 _symmetry_equiv_pos_site_id
 _symmetry_equiv_pos_as_xyz
  1  'x, y, z'
loop_
 _atom_site_type_symbol
 _atom_site_label
 _atom_site_symmetry_multiplicity
 _atom_site_fract_x
 _atom_site_fract_y
 _atom_site_fract_z
 _atom_site_occupancy
  Li  Li0  1  0.00000000  0.50000000  0.50000000  1
  Li  Li1  1  0.00000000  0.00000000  0.50000000  1
  Li  Li2  1  0.50740369  0.25277221  0.49445559  1
  Li  Li3  1  0.49259631  0.74722779  0.50554441  1
  Li  Li4  1  0.00000000  0.50000000  -0.00000000  1
  Mn  Mn5  1  0.00000000  0.00000000  -0.00000000  1
  Mn  Mn6  1  0.50000000  0.74705832  1.00000000  1
  Mn  Mn7  1  0.50000000  0.25294168  0.00000000  1
  O  O8  1  0.74230853  0.65259032  0.21418539  1
  O  O9  1  0.74230853  0.13322429  0.21418539  1
  O  O10  1  0.28134254  0.38456216  0.23087567  1
  O  O11  1  0.27711202  0.88085965  0.23828071  1
  O  O12  1  0.25769147  0.34740968  0.78581461  1
  O  O13  1  0.25769147  0.86677571  0.78581461  1
  O  O14  1  0.72288798  0.11914035  0.76171929  1
  O  O15  1  0.71865746  0.61543784  0.76912433  1
