# generated using pymatgen
data_Ba4In2O7
_symmetry_space_group_name_H-M   'P 1'
_cell_length_a   4.22885248
_cell_length_b   4.22885248
_cell_length_c   14.83233102
_cell_angle_alpha   81.80426495
_cell_angle_beta   81.80426495
_cell_angle_gamma   90.00000000
_symmetry_Int_Tables_number   1
_chemical_formula_structural   Ba4In2O7
_chemical_formula_sum   'Ba4 In2 O7'
_cell_volume   259.80312922
_cell_formula_units_Z   1
loop_
 _symmetry_equiv_pos_site_id
 _symmetry_equiv_pos_as_xyz
  1  'x, y, z'
loop_
 _atom_site_type_symbol
 _atom_site_label
 _atom_site_symmetry_multiplicity
 _atom_site_fract_x
 _atom_site_fract_y
 _atom_site_fract_z
 _atom_site_occupancy
  Ba  Ba0  1  0.21038793  0.21038793  0.57922415  1
  Ba  Ba1  1  0.80757273  0.80757273  0.38485454  1
  Ba  Ba2  1  0.06274944  0.06274944  0.87450111  1
  Ba  Ba3  1  0.93488924  0.93488924  0.13022153  1
  In  In4  1  0.63640554  0.63640554  0.72718891  1
  In  In5  1  0.37395914  0.37395914  0.25208172  1
  O  O6  1  0.61363568  0.11363568  0.77272864  1
  O  O7  1  0.11363568  0.61363568  0.77272864  1
  O  O8  1  0.37176730  0.87176730  0.25646540  1
  O  O9  1  0.87176730  0.37176730  0.25646540  1
  O  O10  1  0.70772733  0.70772733  0.58454533  1
  O  O11  1  0.29190367  0.29190367  0.41619266  1
  O  O12  1  0.45489902  0.45489902  0.09020196  1
