# generated using pymatgen
data_Li7Mn5O12
_symmetry_space_group_name_H-M   'P 1'
_cell_length_a   5.08328738
_cell_length_b   7.77811281
_cell_length_c   6.00609143
_cell_angle_alpha   76.36818005
_cell_angle_beta   104.66782616
_cell_angle_gamma   83.05473154
_symmetry_Int_Tables_number   1
_chemical_formula_structural   Li7Mn5O12
_chemical_formula_sum   'Li7 Mn5 O12'
_cell_volume   219.10258181
_cell_formula_units_Z   1
loop_
 _symmetry_equiv_pos_site_id
 _symmetry_equiv_pos_as_xyz
  1  'x, y, z'
loop_
 _atom_site_type_symbol
 _atom_site_label
 _atom_site_symmetry_multiplicity
 _atom_site_fract_x
 _atom_site_fract_y
 _atom_site_fract_z
 _atom_site_occupancy
  Li  Li0  1  0.49825075  0.16311713  0.08627747  1
  Li  Li1  1  0.51125452  0.15973393  0.58325353  1
  Li  Li2  1  0.50776427  0.49877143  0.25293040  1
  Li  Li3  1  0.49223573  0.50122857  0.74706960  1
  Li  Li4  1  0.48874548  0.84026607  0.41674647  1
  Li  Li5  1  0.50174925  0.83688287  0.91372253  1
  Li  Li6  1  -0.00000000  0.00000000  0.50000000  1
  Mn  Mn7  1  -0.00000000  0.00000000  -0.00000000  1
  Mn  Mn8  1  0.99861363  0.32882984  0.16860745  1
  Mn  Mn9  1  0.99480954  0.32893081  0.65956882  1
  Mn  Mn10  1  0.00519046  0.67106919  0.34043118  1
  Mn  Mn11  1  0.00138637  0.67117016  0.83139255  1
  O  O12  1  0.22455079  0.09320931  0.79706954  1
  O  O13  1  0.21732134  0.08633253  0.25825504  1
  O  O14  1  0.21926701  0.42020679  0.95315641  1
  O  O15  1  0.23311624  0.42604535  0.46559730  1
  O  O16  1  0.23694846  0.76303669  0.13529181  1
  O  O17  1  0.22970553  0.74199517  0.62774158  1
  O  O18  1  0.77029447  0.25800483  0.37225842  1
  O  O19  1  0.76305154  0.23696331  0.86470819  1
  O  O20  1  0.76688376  0.57395465  0.53440270  1
  O  O21  1  0.78073299  0.57979321  0.04684359  1
  O  O22  1  0.78267866  0.91366747  0.74174496  1
  O  O23  1  0.77544921  0.90679069  0.20293046  1
