# generated using pymatgen
data_Li5Mn3O8
_symmetry_space_group_name_H-M   'P 1'
_cell_length_a   4.99821471
_cell_length_b   5.09100089
_cell_length_c   5.92637133
_cell_angle_alpha   89.27122809
_cell_angle_beta   89.25707877
_cell_angle_gamma   108.69156155
_symmetry_Int_Tables_number   1
_chemical_formula_structural   Li5Mn3O8
_chemical_formula_sum   'Li5 Mn3 O8'
_cell_volume   142.81359347
_cell_formula_units_Z   1
loop_
 _symmetry_equiv_pos_site_id
 _symmetry_equiv_pos_as_xyz
  1  'x, y, z'
loop_
 _atom_site_type_symbol
 _atom_site_label
 _atom_site_symmetry_multiplicity
 _atom_site_fract_x
 _atom_site_fract_y
 _atom_site_fract_z
 _atom_site_occupancy
  Li  Li0  1  -0.00000000  0.50000000  0.25000000  1
  Li  Li1  1  0.50032241  0.50220513  0.48746689  1
  Li  Li2  1  -0.00000000  0.50000000  0.75000000  1
  Li  Li3  1  0.49967759  0.49779487  0.01253311  1
  Li  Li4  1  0.50000000  0.00000000  0.25000000  1
  Mn  Mn5  1  0.00003512  0.99887109  0.00738816  1
  Mn  Mn6  1  -0.00003512  0.00112891  0.49261184  1
  Mn  Mn7  1  0.50000000  0.00000000  0.75000000  1
  O  O8  1  0.74504128  0.21591535  0.98011697  1
  O  O9  1  0.22569539  0.23910525  0.25377579  1
  O  O10  1  0.75024820  0.22371707  0.51585012  1
  O  O11  1  0.25122719  0.22438716  0.75564988  1
  O  O12  1  0.25495872  0.78408465  0.51988303  1
  O  O13  1  0.74877281  0.77561284  0.74435012  1
  O  O14  1  0.24975180  0.77628293  0.98414988  1
  O  O15  1  0.77430461  0.76089475  0.24622421  1
