# generated using pymatgen
data_Li7Mn4CoO12
_symmetry_space_group_name_H-M   'P 1'
_cell_length_a   5.08313744
_cell_length_b   7.60613455
_cell_length_c   5.95407341
_cell_angle_alpha   99.69565102
_cell_angle_beta   105.46767371
_cell_angle_gamma   77.40324426
_symmetry_Int_Tables_number   1
_chemical_formula_structural   Li7Mn4CoO12
_chemical_formula_sum   'Li7 Mn4 Co1 O12'
_cell_volume   215.03169886
_cell_formula_units_Z   1
loop_
 _symmetry_equiv_pos_site_id
 _symmetry_equiv_pos_as_xyz
  1  'x, y, z'
loop_
 _atom_site_type_symbol
 _atom_site_label
 _atom_site_symmetry_multiplicity
 _atom_site_fract_x
 _atom_site_fract_y
 _atom_site_fract_z
 _atom_site_occupancy
  Li  Li0  1  0.50176405  0.17960295  0.17306836  1
  Li  Li1  1  0.48891718  0.17853889  0.67365388  1
  Li  Li2  1  0.49823595  0.48706405  0.49359864  1
  Li  Li3  1  0.51108282  0.48812811  0.99301312  1
  Li  Li4  1  0.50000000  0.83333300  0.83333300  1
  Li  Li5  1  0.50000000  0.83333300  0.33333300  1
  Li  Li6  1  0.00000000  0.33333300  0.83333300  1
  Mn  Mn7  1  0.00055233  0.00770420  0.00200607  1
  Mn  Mn8  1  -0.00055233  0.65896280  0.66466093  1
  Mn  Mn9  1  -0.00122507  0.00646883  0.50269801  1
  Mn  Mn10  1  0.00122507  0.66019817  0.16396899  1
  Co  Co11  1  0.00000000  0.33333300  0.33333300  1
  O  O12  1  0.22404515  0.06779086  0.81097482  1
  O  O13  1  0.23083092  0.09398872  0.35296013  1
  O  O14  1  0.22525586  0.42601773  0.17677545  1
  O  O15  1  0.22343780  0.42473895  0.64594675  1
  O  O16  1  0.21717437  0.75284420  0.48376363  1
  O  O17  1  0.22980723  0.75850160  0.01930565  1
  O  O18  1  0.77474414  0.24064927  0.48989155  1
  O  O19  1  0.77656220  0.24192805  0.02072025  1
  O  O20  1  0.77595485  0.59887614  0.85569218  1
  O  O21  1  0.76916908  0.57267828  0.31370687  1
  O  O22  1  0.78282563  0.91382180  0.18290237  1
  O  O23  1  0.77019277  0.90816440  0.64736035  1
