# generated using pymatgen
data_Li7Mn4CoO12
_symmetry_space_group_name_H-M   'P 1'
_cell_length_a   5.81719065
_cell_length_b   7.72878238
_cell_length_c   5.92250974
_cell_angle_alpha   76.81931884
_cell_angle_beta   119.22086906
_cell_angle_gamma   111.90745933
_symmetry_Int_Tables_number   1
_chemical_formula_structural   Li7Mn4CoO12
_chemical_formula_sum   'Li7 Mn4 Co1 O12'
_cell_volume   215.26208401
_cell_formula_units_Z   1
loop_
 _symmetry_equiv_pos_site_id
 _symmetry_equiv_pos_as_xyz
  1  'x, y, z'
loop_
 _atom_site_type_symbol
 _atom_site_label
 _atom_site_symmetry_multiplicity
 _atom_site_fract_x
 _atom_site_fract_y
 _atom_site_fract_z
 _atom_site_occupancy
  Li  Li0  1  0.00231968  0.00751238  0.50512095  1
  Li  Li1  1  0.00343386  0.33720240  0.16979038  1
  Li  Li2  1  0.99844509  0.65573136  0.82766407  1
  Li  Li3  1  0.49956798  0.99930473  0.00046593  1
  Li  Li4  1  0.49755472  0.33856030  0.66576356  1
  Li  Li5  1  0.49744311  0.66196420  0.33186744  1
  Li  Li6  1  0.00556358  0.33672545  0.66880481  1
  Mn  Mn7  1  0.99802537  0.00104041  0.99567760  1
  Mn  Mn8  1  0.49857386  0.33634068  0.16309440  1
  Mn  Mn9  1  0.00123474  0.66182727  0.33974098  1
  Mn  Mn10  1  0.50824802  0.00320108  0.50914732  1
  Co  Co11  1  0.49505004  0.66367312  0.82686084  1
  O  O12  1  0.75202302  0.81892780  0.13959951  1
  O  O13  1  0.73975138  0.14389286  0.81132748  1
  O  O14  1  0.73897233  0.49205719  0.46205930  1
  O  O15  1  0.27713892  0.83963429  0.67547970  1
  O  O16  1  0.28050003  0.17359633  0.34772722  1
  O  O17  1  0.27400721  0.50117049  0.00237249  1
  O  O18  1  0.25768036  0.17244090  0.87175314  1
  O  O19  1  0.25634304  0.52089250  0.51846528  1
  O  O20  1  0.25300599  0.84860094  0.19648759  1
  O  O21  1  0.72431517  0.16326773  0.33113885  1
  O  O22  1  0.71776474  0.49085739  0.98644052  1
  O  O23  1  0.72303776  0.83157819  0.65315063  1
