# generated using pymatgen
data_Li7Mn4CoO12
_symmetry_space_group_name_H-M   'P 1'
_cell_length_a   5.07880913
_cell_length_b   7.77047430
_cell_length_c   5.94072509
_cell_angle_alpha   77.43989496
_cell_angle_beta   106.11552342
_cell_angle_gamma   83.78258871
_symmetry_Int_Tables_number   1
_chemical_formula_structural   Li7Mn4CoO12
_chemical_formula_sum   'Li7 Mn4 Co1 O12'
_cell_volume   216.26058368
_cell_formula_units_Z   1
loop_
 _symmetry_equiv_pos_site_id
 _symmetry_equiv_pos_as_xyz
  1  'x, y, z'
loop_
 _atom_site_type_symbol
 _atom_site_label
 _atom_site_symmetry_multiplicity
 _atom_site_fract_x
 _atom_site_fract_y
 _atom_site_fract_z
 _atom_site_occupancy
  Li  Li0  1  0.49387316  0.16081589  0.08498432  1
  Li  Li1  1  0.51060710  0.15565087  0.58087651  1
  Li  Li2  1  0.50838615  0.50275702  0.25115293  1
  Li  Li3  1  0.49165657  0.50434337  0.74729206  1
  Li  Li4  1  0.49290272  0.84257156  0.42413311  1
  Li  Li5  1  0.50329631  0.83438122  0.91204932  1
  Li  Li6  1  0.00128265  0.99785799  0.50159695  1
  Mn  Mn7  1  0.99588662  0.99813365  0.99591117  1
  Mn  Mn8  1  0.00018005  0.33002793  0.16890488  1
  Mn  Mn9  1  0.99800161  0.32953623  0.66263289  1
  Mn  Mn10  1  0.00596341  0.67078568  0.34226427  1
  Co  Co11  1  0.99937429  0.67583322  0.82664109  1
  O  O12  1  0.22064252  0.09213557  0.79589061  1
  O  O13  1  0.21979965  0.09015731  0.26286880  1
  O  O14  1  0.21458456  0.40824644  0.94255829  1
  O  O15  1  0.23222583  0.42592399  0.47323397  1
  O  O16  1  0.23069964  0.76246501  0.13835925  1
  O  O17  1  0.23477901  0.74168077  0.60797480  1
  O  O18  1  0.77735021  0.26070257  0.38460181  1
  O  O19  1  0.76489209  0.23889856  0.85729755  1
  O  O20  1  0.77458334  0.57329836  0.53372326  1
  O  O21  1  0.78541759  0.57816143  0.06843984  1
  O  O22  1  0.76716026  0.92027765  0.73347754  1
  O  O23  1  0.77645464  0.90535771  0.20313478  1
