# generated using pymatgen
data_Li7Mn5O12
_symmetry_space_group_name_H-M   'P 1'
_cell_length_a   6.01663387
_cell_length_b   6.51903559
_cell_length_c   6.51199933
_cell_angle_alpha   108.03181483
_cell_angle_beta   114.01731790
_cell_angle_gamma   76.87383380
_symmetry_Int_Tables_number   1
_chemical_formula_structural   Li7Mn5O12
_chemical_formula_sum   'Li7 Mn5 O12'
_cell_volume   220.33740526
_cell_formula_units_Z   1
loop_
 _symmetry_equiv_pos_site_id
 _symmetry_equiv_pos_as_xyz
  1  'x, y, z'
loop_
 _atom_site_type_symbol
 _atom_site_label
 _atom_site_symmetry_multiplicity
 _atom_site_fract_x
 _atom_site_fract_y
 _atom_site_fract_z
 _atom_site_occupancy
  Li  Li0  1  0.42293878  0.66601382  0.16964233  1
  Li  Li1  1  0.08496240  0.33923245  0.82831806  1
  Li  Li2  1  0.75562247  0.99217260  0.49727053  1
  Li  Li3  1  0.91039522  0.66732018  0.16369167  1
  Li  Li4  1  0.57771053  0.34116040  0.83606247  1
  Li  Li5  1  0.24837060  0.99410055  0.50501494  1
  Li  Li6  1  0.16666700  0.66666700  0.66666700  1
  Mn  Mn7  1  0.99521383  0.99806515  0.99355044  1
  Mn  Mn8  1  0.66666700  0.66666700  0.66666700  1
  Mn  Mn9  1  0.33811917  0.33526785  0.33978256  1
  Mn  Mn10  1  0.48730226  0.99554166  0.99063455  1
  Mn  Mn11  1  0.84603074  0.33779134  0.34269845  1
  O  O12  1  0.00324336  0.68256303  0.89915465  1
  O  O13  1  0.72617018  0.35239926  0.58699163  1
  O  O14  1  0.38736802  0.01039979  0.24274110  1
  O  O15  1  0.54830681  0.67923407  0.90825676  1
  O  O16  1  0.20181320  0.32896023  0.55969050  1
  O  O17  1  0.86416553  0.01628505  0.23662291  1
  O  O18  1  0.78502719  0.65409993  0.42507724  1
  O  O19  1  0.46916747  0.31704795  0.09671009  1
  O  O20  1  0.13151980  0.00437277  0.77364250  1
  O  O21  1  0.33009064  0.65077097  0.43417935  1
  O  O22  1  0.94596498  0.32293321  0.09059190  1
  O  O23  1  0.60716282  0.98093374  0.74634137  1
