# generated using pymatgen
data_Li7Mn4CoO12
_symmetry_space_group_name_H-M   'P 1'
_cell_length_a   5.94448263
_cell_length_b   6.51627631
_cell_length_c   6.53160923
_cell_angle_alpha   83.55580136
_cell_angle_beta   115.64991302
_cell_angle_gamma   77.36194914
_symmetry_Int_Tables_number   1
_chemical_formula_structural   Li7Mn4CoO12
_chemical_formula_sum   'Li7 Mn4 Co1 O12'
_cell_volume   216.30261381
_cell_formula_units_Z   1
loop_
 _symmetry_equiv_pos_site_id
 _symmetry_equiv_pos_as_xyz
  1  'x, y, z'
loop_
 _atom_site_type_symbol
 _atom_site_label
 _atom_site_symmetry_multiplicity
 _atom_site_fract_x
 _atom_site_fract_y
 _atom_site_fract_z
 _atom_site_occupancy
  Li  Li0  1  0.24888162  0.99268697  0.49801123  1
  Li  Li1  1  0.74577504  0.33241809  0.17153462  1
  Li  Li2  1  0.73882526  0.68225613  0.83400894  1
  Li  Li3  1  0.25909320  0.32294163  0.16137277  1
  Li  Li4  1  0.75009475  0.00076559  0.50065692  1
  Li  Li5  1  0.25581575  0.66939877  0.83352552  1
  Li  Li6  1  0.50047929  0.99805428  0.00171392  1
  Mn  Mn7  1  0.00599346  0.99948855  0.00452393  1
  Mn  Mn8  1  0.50165455  0.33007687  0.67017463  1
  Mn  Mn9  1  0.98720858  0.66765390  0.32540616  1
  Mn  Mn10  1  0.00753919  0.33125445  0.67166836  1
  Co  Co11  1  0.49721700  0.67530709  0.32417988  1
  O  O12  1  0.89080722  0.97972455  0.24415240  1
  O  O13  1  0.35492619  0.33546527  0.88833380  1
  O  O14  1  0.35393823  0.64996705  0.56452863  1
  O  O15  1  0.90307315  0.31681772  0.91640502  1
  O  O16  1  0.34474137  0.99775539  0.23426179  1
  O  O17  1  0.89290564  0.64992724  0.57704829  1
  O  O18  1  0.64860965  0.01720222  0.76433115  1
  O  O19  1  0.10160000  0.34787469  0.42099118  1
  O  O20  1  0.09926125  0.68531734  0.08410179  1
  O  O21  1  0.64835675  0.33683581  0.44753979  1
  O  O22  1  0.11242020  0.01842469  0.75924852  1
  O  O23  1  0.65078268  0.66238573  0.10228079  1
