# generated using pymatgen
data_Li7Mn5O12
_symmetry_space_group_name_H-M   'P 1'
_cell_length_a   6.01816130
_cell_length_b   6.51896376
_cell_length_c   6.83751188
_cell_angle_alpha   108.47994712
_cell_angle_beta   119.47171032
_cell_angle_gamma   76.53404276
_symmetry_Int_Tables_number   1
_chemical_formula_structural   Li7Mn5O12
_chemical_formula_sum   'Li7 Mn5 O12'
_cell_volume   220.53286022
_cell_formula_units_Z   1
loop_
 _symmetry_equiv_pos_site_id
 _symmetry_equiv_pos_as_xyz
  1  'x, y, z'
loop_
 _atom_site_type_symbol
 _atom_site_label
 _atom_site_symmetry_multiplicity
 _atom_site_fract_x
 _atom_site_fract_y
 _atom_site_fract_z
 _atom_site_occupancy
  Li  Li0  1  0.42836581  0.65362442  0.17274282  1
  Li  Li1  1  0.23830119  0.01304258  0.49392418  1
  Li  Li2  1  0.07987362  0.33094962  0.83888852  1
  Li  Li3  1  0.91176298  0.66442108  0.16435584  1
  Li  Li4  1  0.75490402  0.00224592  0.50231116  1
  Li  Li5  1  0.58679238  0.33571638  0.82777748  1
  Li  Li6  1  0.83333300  0.33333300  0.33333300  1
  Mn  Mn7  1  0.99601367  0.00164449  0.00886946  1
  Mn  Mn8  1  0.33333300  0.33333300  0.33333300  1
  Mn  Mn9  1  0.67065333  0.66502251  0.65779754  1
  Mn  Mn10  1  0.50258882  0.00304148  0.00526206  1
  Mn  Mn11  1  0.16407818  0.66362552  0.66140494  1
  O  O12  1  0.14010032  0.98768981  0.76556149  1
  O  O13  1  0.97843873  0.31539685  0.08918193  1
  O  O14  1  0.80728221  0.66930931  0.43721907  1
  O  O15  1  0.64597486  0.98710978  0.75385205  1
  O  O16  1  0.44515716  0.31760332  0.10186224  1
  O  O17  1  0.31402189  0.64888047  0.41251149  1
  O  O18  1  0.68822827  0.35127015  0.57748507  1
  O  O19  1  0.52656568  0.67897619  0.90110451  1
  O  O20  1  0.35264511  0.01778653  0.25415551  1
  O  O21  1  0.22150984  0.34906368  0.56480476  1
  O  O22  1  0.02069114  0.67955622  0.91281395  1
  O  O23  1  0.85938479  0.99735769  0.22944793  1
