# generated using pymatgen
data_Li4Mn3O7
_symmetry_space_group_name_H-M   'P 1'
_cell_length_a   2.88494351
_cell_length_b   10.58925926
_cell_length_c   8.81041383
_cell_angle_alpha   78.70085264
_cell_angle_beta   90.00000000
_cell_angle_gamma   82.17081187
_symmetry_Int_Tables_number   1
_chemical_formula_structural   Li4Mn3O7
_chemical_formula_sum   'Li8 Mn6 O14'
_cell_volume   261.37718895
_cell_formula_units_Z   2
loop_
 _symmetry_equiv_pos_site_id
 _symmetry_equiv_pos_as_xyz
  1  'x, y, z'
loop_
 _atom_site_type_symbol
 _atom_site_label
 _atom_site_symmetry_multiplicity
 _atom_site_fract_x
 _atom_site_fract_y
 _atom_site_fract_z
 _atom_site_occupancy
  Li  Li0  1  0.42857100  0.14285700  0.21428600  1
  Li  Li1  1  0.28986761  0.42026378  0.63892899  1
  Li  Li2  1  0.14406898  0.71186204  0.06655734  1
  Li  Li3  1  0.99846984  0.00306033  0.53415913  1
  Li  Li4  1  0.85867316  0.28265367  0.89441187  1
  Li  Li5  1  0.71307402  0.57385296  0.36201466  1
  Li  Li6  1  0.56727539  0.86545022  0.78964201  1
  Li  Li7  1  0.42857100  0.14285700  0.71428600  1
  Mn  Mn8  1  0.99782933  0.00434134  0.97989418  1
  Mn  Mn9  1  0.85931367  0.28137266  0.44867682  1
  Mn  Mn10  1  0.71752778  0.56494544  0.85678396  1
  Mn  Mn11  1  0.56924893  0.86150313  0.27521301  1
  Mn  Mn12  1  0.28789407  0.42421087  0.15335799  1
  Mn  Mn13  1  0.13961522  0.72076956  0.57178804  1
  O  O14  1  0.43460394  0.13079212  0.96545043  1
  O  O15  1  0.29443467  0.41113065  0.40704940  1
  O  O16  1  0.15282851  0.69434398  0.83278032  1
  O  O17  1  0.00415124  0.99169852  0.22520880  1
  O  O18  1  0.85731560  0.28536780  0.65596146  1
  O  O19  1  0.72301232  0.55397436  0.11996540  1
  O  O20  1  0.57373654  0.85252693  0.54014499  1
  O  O21  1  0.42253906  0.15492188  0.46312057  1
  O  O22  1  0.28340646  0.43318807  0.88842701  1
  O  O23  1  0.13413068  0.73173964  0.30860560  1
  O  O24  1  0.99982640  0.00034620  0.77261054  1
  O  O25  1  0.85299176  0.29401548  0.20336220  1
  O  O26  1  0.70431449  0.59137102  0.59579168  1
  O  O27  1  0.56270833  0.87458335  0.02152160  1
