# generated using pymatgen
data_Li5V3P8O29
_symmetry_space_group_name_H-M   'P 1'
_cell_length_a   9.83541745
_cell_length_b   9.82609350
_cell_length_c   14.12145029
_cell_angle_alpha   90.25905586
_cell_angle_beta   89.95414661
_cell_angle_gamma   59.67201973
_symmetry_Int_Tables_number   1
_chemical_formula_structural   Li5V3P8O29
_chemical_formula_sum   'Li10 V6 P16 O58'
_cell_volume   1177.96282416
_cell_formula_units_Z   2
loop_
 _symmetry_equiv_pos_site_id
 _symmetry_equiv_pos_as_xyz
  1  'x, y, z'
loop_
 _atom_site_type_symbol
 _atom_site_label
 _atom_site_symmetry_multiplicity
 _atom_site_fract_x
 _atom_site_fract_y
 _atom_site_fract_z
 _atom_site_occupancy
  Li  Li0  1  0.90721729  0.77041376  0.05532343  1
  Li  Li1  1  0.76784053  0.89897599  0.56191663  1
  Li  Li2  1  0.89859521  0.33524913  0.55996785  1
  Li  Li3  1  0.77187317  0.31242863  0.06110196  1
  Li  Li4  1  0.31980990  0.90740870  0.05863280  1
  Li  Li5  1  0.33407667  0.76817635  0.55919527  1
  Li  Li6  1  0.22729732  0.67868401  0.93811022  1
  Li  Li7  1  0.33784894  0.32716424  0.60904640  1
  Li  Li8  1  0.09182288  0.22751008  0.93719634  1
  Li  Li9  1  0.00694436  0.99544722  0.50176015  1
  V  V10  1  0.56674739  0.43168460  0.25131864  1
  V  V11  1  0.43415270  0.56802153  0.74926019  1
  V  V12  1  0.56750396  0.99959696  0.75125485  1
  V  V13  1  0.43508135  0.00210785  0.25415655  1
  V  V14  1  0.00178832  0.56474279  0.25409652  1
  V  V15  1  0.99624438  0.43481400  0.74889964  1
  P  P16  1  0.91391659  0.76908138  0.84213086  1
  P  P17  1  0.77290559  0.91467517  0.34388579  1
  P  P18  1  0.91227432  0.31448096  0.34132331  1
  P  P19  1  0.66960534  0.66530249  0.13144528  1
  P  P20  1  0.66325574  0.67055810  0.62664468  1
  P  P21  1  0.76706015  0.31859525  0.84296214  1
  P  P22  1  0.69267911  0.22052810  0.65911365  1
  P  P23  1  0.32104252  0.91349059  0.84299929  1
  P  P24  1  0.68504865  0.08457985  0.16034325  1
  P  P25  1  0.31283922  0.77598548  0.34197454  1
  P  P26  1  0.22979551  0.68101962  0.16080346  1
  P  P27  1  0.33380071  0.33273882  0.36994200  1
  P  P28  1  0.32958721  0.33410600  0.86930052  1
  P  P29  1  0.08992397  0.68694409  0.65969717  1
  P  P30  1  0.22304909  0.08731439  0.65990150  1
  P  P31  1  0.09057510  0.22919623  0.15925880  1
  O  O32  1  0.99575452  0.79093149  0.57955928  1
  O  O33  1  0.91348294  0.74337075  0.33006480  1
  O  O34  1  0.77222925  0.98490992  0.07790977  1
  O  O35  1  0.75020530  0.91161225  0.83747556  1
  O  O36  1  0.90703518  0.61712170  0.81894180  1
  O  O37  1  0.82047345  0.66269136  0.17463807  1
  O  O38  1  0.91091545  0.47252324  0.32584922  1
  O  O39  1  0.00194391  0.23974365  0.07056171  1
  O  O40  1  0.91515268  0.33611302  0.83641382  1
  O  O41  1  0.66877088  0.81737025  0.67022049  1
  O  O42  1  0.61668452  0.91271010  0.32873791  1
  O  O43  1  0.80918464  0.51673475  0.66516319  1
  O  O44  1  0.67063015  0.67495870  0.02612198  1
  O  O45  1  0.66414619  0.67843475  0.52082034  1
  O  O46  1  0.67091375  0.51441695  0.16721030  1
  O  O47  1  0.48217558  0.89583472  0.82468578  1
  O  O48  1  0.52064357  0.81589382  0.17504518  1
  O  O49  1  0.74355787  0.34481645  0.33019743  1
  O  O50  1  0.78396519  0.20251166  0.75838519  1
  O  O51  1  0.79746934  0.21385191  0.57978750  1
  O  O52  1  0.75448260  0.25682189  0.93625349  1
  O  O53  1  0.61707388  0.47936826  0.81804645  1
  O  O54  1  0.50948363  0.67855598  0.66499515  1
  O  O55  1  0.66207539  0.25185586  0.15900349  1
  O  O56  1  0.46778453  0.62140000  0.33039515  1
  O  O57  1  0.34121326  0.91763150  0.32734073  1
  O  O58  1  0.78659461  0.01034743  0.25727527  1
  O  O59  1  0.78355309  0.98152819  0.43629524  1
  O  O60  1  0.20922026  0.99394084  0.58022809  1
  O  O61  1  0.66717276  0.07810265  0.65671064  1
  O  O62  1  0.52780408  0.37212388  0.66732469  1
  O  O63  1  0.33067052  0.75071960  0.83926294  1
  O  O64  1  0.47973336  0.32926906  0.32908085  1
  O  O65  1  0.38154799  0.52245916  0.17791403  1
  O  O66  1  0.23873939  0.75932069  0.07154607  1
  O  O67  1  0.22429494  0.79822223  0.43217687  1
  O  O68  1  0.20330694  0.79220779  0.25153502  1
  O  O69  1  0.26093878  0.65933350  0.65889481  1
  O  O70  1  0.47421788  0.18645239  0.81960945  1
  O  O71  1  0.52501731  0.09289403  0.17960891  1
  O  O72  1  0.32749609  0.48574648  0.83049900  1
  O  O73  1  0.33198729  0.32940153  0.97469045  1
  O  O74  1  0.32304504  0.33330901  0.47512852  1
  O  O75  1  0.18253901  0.48122784  0.32641947  1
  O  O76  1  0.37369648  0.09901141  0.66443999  1
  O  O77  1  0.33017557  0.18519306  0.32582842  1
  O  O78  1  0.08422541  0.65879566  0.16145568  1
  O  O79  1  0.01725512  0.78140800  0.75780267  1
  O  O80  1  0.00224239  0.74893631  0.93293067  1
  O  O81  1  0.10475822  0.52300069  0.66729378  1
  O  O82  1  0.18098266  0.32950394  0.83055745  1
  O  O83  1  0.09702314  0.38089566  0.17816842  1
  O  O84  1  0.25832898  0.08264727  0.15923095  1
  O  O85  1  0.24548897  0.99900787  0.93439287  1
  O  O86  1  0.20415808  0.01509533  0.75845891  1
  O  O87  1  0.07918939  0.25950332  0.65960374  1
  O  O88  1  0.98638652  0.23530066  0.43199481  1
  O  O89  1  0.00552989  0.20606023  0.25059988  1
