# generated using pymatgen
data_LiMnVP2(HO5)2
_symmetry_space_group_name_H-M   'P 1'
_cell_length_a   10.67583555
_cell_length_b   7.38800677
_cell_length_c   5.22249039
_cell_angle_alpha   110.33069972
_cell_angle_beta   99.79130948
_cell_angle_gamma   104.54024317
_symmetry_Int_Tables_number   1
_chemical_formula_structural   LiMnVP2(HO5)2
_chemical_formula_sum   'Li2 Mn2 V2 P4 H4 O20'
_cell_volume   358.54699261
_cell_formula_units_Z   2
loop_
 _symmetry_equiv_pos_site_id
 _symmetry_equiv_pos_as_xyz
  1  'x, y, z'
loop_
 _atom_site_type_symbol
 _atom_site_label
 _atom_site_symmetry_multiplicity
 _atom_site_fract_x
 _atom_site_fract_y
 _atom_site_fract_z
 _atom_site_occupancy
  Li  Li0  1  0.20499151  0.84939389  0.77375333  1
  Li  Li1  1  0.79500849  0.15060611  0.22624667  1
  Mn  Mn2  1  0.00000000  0.00000000  -0.00000000  1
  Mn  Mn3  1  0.50000000  0.00000000  -0.00000000  1
  V  V4  1  0.00000000  0.50000000  -0.00000000  1
  V  V5  1  0.50000000  0.50000000  -0.00000000  1
  P  P6  1  0.17890872  0.22518385  0.67357056  1
  P  P7  1  0.32108438  0.76683813  0.31704817  1
  P  P8  1  0.67891562  0.23316187  0.68295183  1
  P  P9  1  0.82109128  0.77481615  0.32642944  1
  H  H10  1  0.03121356  0.34834455  0.35957414  1
  H  H11  1  0.48216082  0.66532697  0.64980536  1
  H  H12  1  0.51783918  0.33467303  0.35019464  1
  H  H13  1  0.96878644  0.65165545  0.64042586  1
  O  O14  1  0.02259163  0.71517043  0.84383197  1
  O  O15  1  0.09657944  0.37758976  0.72963811  1
  O  O16  1  0.17071538  0.64886750  0.29042389  1
  O  O17  1  0.12117958  0.07042722  0.35939649  1
  O  O18  1  0.16957901  0.11016824  0.86627224  1
  O  O19  1  0.32406259  0.86356495  0.10379441  1
  O  O20  1  0.37246230  0.92812419  0.62942772  1
  O  O21  1  0.32835588  0.35056324  0.72071682  1
  O  O22  1  0.40521084  0.61939995  0.28178632  1
  O  O23  1  0.51460541  0.72238871  0.86133840  1
  O  O24  1  0.48539459  0.27761129  0.13866160  1
  O  O25  1  0.59478816  0.38060005  0.71821368  1
  O  O26  1  0.67164412  0.64943676  0.27928318  1
  O  O27  1  0.62753770  0.07187581  0.37057228  1
  O  O28  1  0.67593741  0.13643505  0.89620559  1
  O  O29  1  0.83042099  0.88983176  0.13372776  1
  O  O30  1  0.87882042  0.92957278  0.64060351  1
  O  O31  1  0.82928462  0.35113250  0.70957611  1
  O  O32  1  0.90342056  0.62241024  0.27036189  1
  O  O33  1  0.97740837  0.28482957  0.15616803  1
