# generated using pymatgen
data_LiCaFe3SnO8
_symmetry_space_group_name_H-M   'P 1'
_cell_length_a   9.34201373
_cell_length_b   10.99974263
_cell_length_c   6.09365540
_cell_angle_alpha   90.00000000
_cell_angle_beta   90.14671304
_cell_angle_gamma   90.00000000
_symmetry_Int_Tables_number   1
_chemical_formula_structural   LiCaFe3SnO8
_chemical_formula_sum   'Li4 Ca4 Fe12 Sn4 O32'
_cell_volume   626.18043294
_cell_formula_units_Z   4
loop_
 _symmetry_equiv_pos_site_id
 _symmetry_equiv_pos_as_xyz
  1  'x, y, z'
loop_
 _atom_site_type_symbol
 _atom_site_label
 _atom_site_symmetry_multiplicity
 _atom_site_fract_x
 _atom_site_fract_y
 _atom_site_fract_z
 _atom_site_occupancy
  Li  Li0  1  0.25006920  0.38383928  0.36813957  1
  Li  Li1  1  0.24993080  0.88383928  0.13186043  1
  Li  Li2  1  0.70104277  0.13542910  0.38401738  1
  Li  Li3  1  0.79895723  0.63542910  0.11598262  1
  Ca  Ca4  1  0.23968287  0.34346741  0.86667198  1
  Ca  Ca5  1  0.26031713  0.84346741  0.63332802  1
  Ca  Ca6  1  0.74420911  0.15795636  0.87609979  1
  Ca  Ca7  1  0.75579089  0.65795636  0.62390021  1
  Fe  Fe8  1  0.06207866  0.10513921  0.87362214  1
  Fe  Fe9  1  0.08078372  0.60050359  0.87390771  1
  Fe  Fe10  1  0.41921628  0.10050359  0.62609229  1
  Fe  Fe11  1  0.43792134  0.60513921  0.62637786  1
  Fe  Fe12  1  0.56593491  0.38936640  0.87415079  1
  Fe  Fe13  1  0.56446854  0.38207676  0.37699711  1
  Fe  Fe14  1  0.59096214  0.89382001  0.37910746  1
  Fe  Fe15  1  0.58834291  0.89336184  0.87416076  1
  Fe  Fe16  1  0.90903786  0.39382001  0.12089254  1
  Fe  Fe17  1  0.91165709  0.39336184  0.62583924  1
  Fe  Fe18  1  0.93553146  0.88207676  0.12300289  1
  Fe  Fe19  1  0.93406509  0.88936640  0.62584921  1
  Sn  Sn20  1  0.05771796  0.11991786  0.37590826  1
  Sn  Sn21  1  0.08201555  0.60293894  0.37159825  1
  Sn  Sn22  1  0.41798445  0.10293894  0.12840175  1
  Sn  Sn23  1  0.44228204  0.61991786  0.12409174  1
  O  O24  1  0.02913519  0.71735846  0.62808897  1
  O  O25  1  0.01819864  0.71244930  0.11704462  1
  O  O26  1  0.08421190  0.92738675  0.37368955  1
  O  O27  1  0.08439539  0.92469489  0.87689329  1
  O  O28  1  0.12065776  0.47508278  0.12184621  1
  O  O29  1  0.11856468  0.47565399  0.62278679  1
  O  O30  1  0.20381266  0.16262319  0.11906625  1
  O  O31  1  0.20400981  0.15601912  0.63158224  1
  O  O32  1  0.29618734  0.66262319  0.38093375  1
  O  O33  1  0.29599019  0.65601912  0.86841776  1
  O  O34  1  0.37934224  0.97508278  0.37815379  1
  O  O35  1  0.38143532  0.97565399  0.87721321  1
  O  O36  1  0.41578810  0.42738675  0.12631045  1
  O  O37  1  0.41560461  0.42469489  0.62310671  1
  O  O38  1  0.47086481  0.21735846  0.87191103  1
  O  O39  1  0.48180136  0.21244930  0.38295538  1
  O  O40  1  0.52585594  0.79110407  0.12688388  1
  O  O41  1  0.52728560  0.78297030  0.62619971  1
  O  O42  1  0.58152197  0.57037760  0.38111233  1
  O  O43  1  0.58555748  0.57259208  0.87136051  1
  O  O44  1  0.62332838  0.02407810  0.12943557  1
  O  O45  1  0.61876276  0.02279393  0.62715770  1
  O  O46  1  0.70063155  0.33741133  0.12036435  1
  O  O47  1  0.70203716  0.33958833  0.62949658  1
  O  O48  1  0.79936845  0.83741133  0.37963565  1
  O  O49  1  0.79796284  0.83958833  0.87050342  1
  O  O50  1  0.87667162  0.52407810  0.37056443  1
  O  O51  1  0.88123724  0.52279393  0.87284230  1
  O  O52  1  0.91444252  0.07259208  0.62863949  1
  O  O53  1  0.91847803  0.07037760  0.11888767  1
  O  O54  1  0.97414406  0.29110407  0.37311612  1
  O  O55  1  0.97271440  0.28297030  0.87380029  1
