# generated using pymatgen
data_Ba4Ce2BiO12
_symmetry_space_group_name_H-M   'P 1'
_cell_length_a   6.17409037
_cell_length_b   6.29079004
_cell_length_c   8.85477425
_cell_angle_alpha   88.28056053
_cell_angle_beta   89.56042428
_cell_angle_gamma   90.40028765
_symmetry_Int_Tables_number   1
_chemical_formula_structural   Ba4Ce2BiO12
_chemical_formula_sum   'Ba4 Ce2 Bi1 O12'
_cell_volume   343.74467103
_cell_formula_units_Z   1
loop_
 _symmetry_equiv_pos_site_id
 _symmetry_equiv_pos_as_xyz
  1  'x, y, z'
loop_
 _atom_site_type_symbol
 _atom_site_label
 _atom_site_symmetry_multiplicity
 _atom_site_fract_x
 _atom_site_fract_y
 _atom_site_fract_z
 _atom_site_occupancy
  Ba  Ba0  1  0.51202732  0.01573121  0.72642973  1
  Ba  Ba1  1  0.02407130  0.49255028  0.72114373  1
  Ba  Ba2  1  0.48797268  0.98426879  0.27357027  1
  Ba  Ba3  1  0.97592870  0.50744972  0.27885627  1
  Ce  Ce4  1  0.50000000  0.50000000  -0.00000000  1
  Ce  Ce5  1  -0.00000000  -0.00000000  -0.00000000  1
  Bi  Bi6  1  -0.00000000  -0.00000000  0.50000000  1
  O  O7  1  0.49180650  0.57973755  0.77920686  1
  O  O8  1  0.99453658  0.93206452  0.74752594  1
  O  O9  1  0.50819350  0.42026245  0.22079314  1
  O  O10  1  0.00546342  0.06793548  0.25247406  1
  O  O11  1  0.22848940  0.73640242  0.05110732  1
  O  O12  1  0.74981864  0.77740688  0.47526902  1
  O  O13  1  0.77730982  0.24734486  0.52590398  1
  O  O14  1  0.26419759  0.22885855  0.94709916  1
  O  O15  1  0.77151060  0.26359758  0.94889268  1
  O  O16  1  0.25018136  0.22259312  0.52473098  1
  O  O17  1  0.22269018  0.75265514  0.47409602  1
  O  O18  1  0.73580241  0.77114145  0.05290084  1
