# generated using pymatgen
data_Li8CoO5F
_symmetry_space_group_name_H-M   'P 1'
_cell_length_a   5.57443221
_cell_length_b   5.55934679
_cell_length_c   10.93905438
_cell_angle_alpha   90.16557993
_cell_angle_beta   89.63798213
_cell_angle_gamma   119.55400341
_symmetry_Int_Tables_number   1
_chemical_formula_structural   Li8CoO5F
_chemical_formula_sum   'Li16 Co2 O10 F2'
_cell_volume   294.89026147
_cell_formula_units_Z   2
loop_
 _symmetry_equiv_pos_site_id
 _symmetry_equiv_pos_as_xyz
  1  'x, y, z'
loop_
 _atom_site_type_symbol
 _atom_site_label
 _atom_site_symmetry_multiplicity
 _atom_site_fract_x
 _atom_site_fract_y
 _atom_site_fract_z
 _atom_site_occupancy
  Li  Li0  1  0.97554175  0.68586150  0.77225832  1
  Li  Li1  1  0.02115551  0.63787124  0.12107581  1
  Li  Li2  1  0.97802375  0.35747569  0.61918794  1
  Li  Li3  1  0.02255021  0.31154373  0.27322650  1
  Li  Li4  1  0.32849631  0.66445079  0.41309200  1
  Li  Li5  1  0.33218760  0.66954194  0.92376548  1
  Li  Li6  1  0.31008791  0.28914971  0.77248439  1
  Li  Li7  1  0.36659062  0.38596369  0.12237009  1
  Li  Li8  1  0.63476422  0.61563742  0.62209187  1
  Li  Li9  1  0.29128953  0.97951635  0.27195164  1
  Li  Li10  1  0.68889556  0.71375102  0.27259984  1
  Li  Li11  1  0.38500180  0.01958662  0.62193286  1
  Li  Li12  1  0.66533389  0.32993317  0.91308070  1
  Li  Li13  1  0.66970882  0.33675878  0.42387849  1
  Li  Li14  1  0.62002741  0.97973256  0.11947007  1
  Li  Li15  1  0.71290534  0.02260831  0.77314531  1
  Co  Co16  1  0.00658812  0.00220206  0.98781281  1
  Co  Co17  1  -0.00021193  0.99198749  0.48760839  1
  O  O18  1  0.99351916  0.67475053  0.94803083  1
  O  O19  1  0.99753832  0.32098099  0.44694702  1
  O  O20  1  0.33458343  0.66839791  0.21340855  1
  O  O21  1  0.00150802  0.99843222  0.67151115  1
  O  O22  1  0.00277267  0.00220873  0.17152606  1
  O  O23  1  0.31836699  0.32337054  0.94900643  1
  O  O24  1  0.32586717  0.00859455  0.44813042  1
  O  O25  1  0.67631889  0.68288133  0.44885081  1
  O  O26  1  0.66542798  0.33219965  0.71345942  1
  O  O27  1  0.67569279  0.99363102  0.94691336  1
  F  F28  1  0.33303468  0.66520229  0.71129226  1
  F  F29  1  0.66623548  0.33577920  0.21114816  1
