# generated using pymatgen
data_Li5V3P8O29
_symmetry_space_group_name_H-M   'P 1'
_cell_length_a   9.82719564
_cell_length_b   9.78651283
_cell_length_c   14.24734196
_cell_angle_alpha   90.34799107
_cell_angle_beta   90.00176919
_cell_angle_gamma   59.86540144
_symmetry_Int_Tables_number   1
_chemical_formula_structural   Li5V3P8O29
_chemical_formula_sum   'Li10 V6 P16 O58'
_cell_volume   1185.00657968
_cell_formula_units_Z   2
loop_
 _symmetry_equiv_pos_site_id
 _symmetry_equiv_pos_as_xyz
  1  'x, y, z'
loop_
 _atom_site_type_symbol
 _atom_site_label
 _atom_site_symmetry_multiplicity
 _atom_site_fract_x
 _atom_site_fract_y
 _atom_site_fract_z
 _atom_site_occupancy
  Li  Li0  1  0.90648893  0.76764929  0.06064982  1
  Li  Li1  1  0.76539685  0.90392693  0.55919262  1
  Li  Li2  1  0.89901747  0.33695649  0.55728343  1
  Li  Li3  1  0.76417050  0.33689103  0.05725090  1
  Li  Li4  1  0.33078734  0.90388044  0.05921062  1
  Li  Li5  1  0.32575459  0.76768733  0.56068603  1
  Li  Li6  1  0.34089985  0.32757629  0.60138925  1
  Li  Li7  1  0.33136504  0.32781438  0.10149463  1
  Li  Li8  1  0.00193488  0.00873810  0.99432319  1
  Li  Li9  1  0.98952027  0.00914095  0.49432711  1
  V  V10  1  0.56668582  0.43620334  0.25405725  1
  V  V11  1  0.43338062  0.56707592  0.74966145  1
  V  V12  1  0.56080388  0.00051110  0.75090736  1
  V  V13  1  0.43864810  0.00052746  0.25091325  1
  V  V14  1  0.99943691  0.56721989  0.24968256  1
  V  V15  1  0.99706285  0.43625172  0.75414580  1
  P  P16  1  0.91410904  0.77791274  0.84429819  1
  P  P17  1  0.77294277  0.91590504  0.34331123  1
  P  P18  1  0.91552659  0.31133625  0.34342888  1
  P  P19  1  0.66608060  0.66560049  0.13046242  1
  P  P20  1  0.66827529  0.66563602  0.63045931  1
  P  P21  1  0.77310546  0.31130889  0.84346724  1
  P  P22  1  0.69375036  0.21903201  0.66235049  1
  P  P23  1  0.31116914  0.91579875  0.84332180  1
  P  P24  1  0.69302316  0.08993892  0.16227136  1
  P  P25  1  0.30817209  0.77784774  0.34430295  1
  P  P26  1  0.22240485  0.69106956  0.16240704  1
  P  P27  1  0.33515696  0.33554229  0.36584350  1
  P  P28  1  0.32928965  0.33541773  0.86594973  1
  P  P29  1  0.08666603  0.69085330  0.66246807  1
  P  P30  1  0.21690019  0.09002005  0.66233220  1
  P  P31  1  0.08722998  0.21905939  0.16233010  1
  O  O32  1  0.98698738  0.79540486  0.58532866  1
  O  O33  1  0.91408236  0.74745577  0.32269900  1
  O  O34  1  0.80268346  0.99252583  0.08539112  1
  O  O35  1  0.74680696  0.91148816  0.82968741  1
  O  O36  1  0.91895984  0.61611339  0.82617479  1
  O  O37  1  0.81540980  0.66836120  0.16458772  1
  O  O38  1  0.91449008  0.46609260  0.32958070  1
  O  O39  1  0.98628289  0.21472800  0.08527933  1
  O  O40  1  0.91480779  0.33999882  0.82555609  1
  O  O41  1  0.66230080  0.81959121  0.66902749  1
  O  O42  1  0.62106057  0.90961211  0.33077895  1
  O  O43  1  0.81482321  0.52117651  0.67855645  1
  O  O44  1  0.66044258  0.64951186  0.02670753  1
  O  O45  1  0.69015090  0.64969836  0.52668351  1
  O  O46  1  0.66406765  0.52105416  0.17852524  1
  O  O47  1  0.46930579  0.90960801  0.83082301  1
  O  O48  1  0.51799521  0.81949269  0.16898910  1
  O  O49  1  0.74519861  0.33986145  0.32548698  1
  O  O50  1  0.78479707  0.19316098  0.76137321  1
  O  O51  1  0.79905015  0.21471110  0.58528786  1
  O  O52  1  0.79799024  0.22970834  0.93554312  1
  O  O53  1  0.61937707  0.46602190  0.82959255  1
  O  O54  1  0.51620805  0.66827427  0.66445844  1
  O  O55  1  0.65779534  0.26453405  0.15843423  1
  O  O56  1  0.46503824  0.61602602  0.32614861  1
  O  O57  1  0.34198389  0.91139344  0.32986770  1
  O  O58  1  0.77994160  0.02568676  0.26199814  1
  O  O59  1  0.79272912  0.97705000  0.43572905  1
  O  O60  1  0.20454899  0.99262875  0.58538555  1
  O  O61  1  0.65792104  0.08308218  0.65613110  1
  O  O62  1  0.53165432  0.37543260  0.67079024  1
  O  O63  1  0.33857180  0.74731999  0.82264012  1
  O  O64  1  0.48452095  0.33350555  0.32107195  1
  O  O65  1  0.37787620  0.52833221  0.17109396  1
  O  O66  1  0.21741107  0.79555484  0.08525185  1
  O  O67  1  0.23337083  0.78351255  0.43650580  1
  O  O68  1  0.19508052  0.78310344  0.26137823  1
  O  O69  1  0.25885814  0.65597664  0.65572864  1
  O  O70  1  0.47417707  0.18459702  0.82228739  1
  O  O71  1  0.53128112  0.09801025  0.16645972  1
  O  O72  1  0.32945358  0.47919445  0.82354975  1
  O  O73  1  0.32447260  0.33118233  0.97029195  1
  O  O74  1  0.34414890  0.33144679  0.47020990  1
  O  O75  1  0.19127276  0.47937237  0.32347231  1
  O  O76  1  0.37053286  0.09811828  0.66645900  1
  O  O77  1  0.34103100  0.18472315  0.32223198  1
  O  O78  1  0.08502405  0.65621671  0.15579216  1
  O  O79  1  0.02225307  0.78286308  0.76146248  1
  O  O80  1  0.98307248  0.78367954  0.93652469  1
  O  O81  1  0.09387872  0.52816091  0.67117480  1
  O  O82  1  0.18185082  0.33350511  0.82121693  1
  O  O83  1  0.09295938  0.37546806  0.17079722  1
  O  O84  1  0.25897611  0.08302574  0.15614260  1
  O  O85  1  0.23021076  0.97681621  0.93572015  1
  O  O86  1  0.19436536  0.02560787  0.76201506  1
  O  O87  1  0.07749175  0.26454240  0.65854575  1
  O  O88  1  0.97223468  0.22976835  0.43552366  1
  O  O89  1  0.02204534  0.19320492  0.26136628  1
