# generated using pymatgen
data_MnV(PO4)2
_symmetry_space_group_name_H-M   'P 1'
_cell_length_a   10.04128216
_cell_length_b   5.96285191
_cell_length_c   4.93384141
_cell_angle_alpha   90.00000000
_cell_angle_beta   90.89325673
_cell_angle_gamma   90.00000000
_symmetry_Int_Tables_number   1
_chemical_formula_structural   MnV(PO4)2
_chemical_formula_sum   'Mn2 V2 P4 O16'
_cell_volume   295.37626766
_cell_formula_units_Z   2
loop_
 _symmetry_equiv_pos_site_id
 _symmetry_equiv_pos_as_xyz
  1  'x, y, z'
loop_
 _atom_site_type_symbol
 _atom_site_label
 _atom_site_symmetry_multiplicity
 _atom_site_fract_x
 _atom_site_fract_y
 _atom_site_fract_z
 _atom_site_occupancy
  Mn  Mn0  1  0.27299384  0.25000000  0.95982307  1
  Mn  Mn1  1  0.72700616  0.75000000  0.04017693  1
  V  V2  1  0.21864907  0.75000000  0.45833905  1
  V  V3  1  0.78135093  0.25000000  0.54166095  1
  P  P4  1  0.08875822  0.25000000  0.43481004  1
  P  P5  1  0.39550062  0.75000000  0.89432649  1
  P  P6  1  0.60449938  0.25000000  0.10567351  1
  P  P7  1  0.91124178  0.75000000  0.56518996  1
  O  O8  1  0.05654892  0.75000000  0.67413809  1
  O  O9  1  0.09636744  0.25000000  0.73999419  1
  O  O10  1  0.16574197  0.04300005  0.30536107  1
  O  O11  1  0.16574197  0.45699995  0.30536107  1
  O  O12  1  0.32033486  0.94568032  0.73807948  1
  O  O13  1  0.32033486  0.55431968  0.73807948  1
  O  O14  1  0.36285886  0.75000000  0.19964419  1
  O  O15  1  0.45649484  0.25000000  0.14764590  1
  O  O16  1  0.54350516  0.75000000  0.85235410  1
  O  O17  1  0.63714114  0.25000000  0.80035581  1
  O  O18  1  0.67966514  0.05431968  0.26192052  1
  O  O19  1  0.67966514  0.44568032  0.26192052  1
  O  O20  1  0.83425803  0.54300005  0.69463893  1
  O  O21  1  0.83425803  0.95699995  0.69463893  1
  O  O22  1  0.90363256  0.75000000  0.26000581  1
  O  O23  1  0.94345108  0.25000000  0.32586191  1
