# generated using pymatgen
data_Mn3CoNi2(PO4)6
_symmetry_space_group_name_H-M   'P 1'
_cell_length_a   8.41195156
_cell_length_b   8.41195237
_cell_length_c   8.41195181
_cell_angle_alpha   61.17838083
_cell_angle_beta   61.17837954
_cell_angle_gamma   61.17838035
_symmetry_Int_Tables_number   1
_chemical_formula_structural   Mn3CoNi2(PO4)6
_chemical_formula_sum   'Mn3 Co1 Ni2 P6 O24'
_cell_volume   432.05476706
_cell_formula_units_Z   1
loop_
 _symmetry_equiv_pos_site_id
 _symmetry_equiv_pos_as_xyz
  1  'x, y, z'
loop_
 _atom_site_type_symbol
 _atom_site_label
 _atom_site_symmetry_multiplicity
 _atom_site_fract_x
 _atom_site_fract_y
 _atom_site_fract_z
 _atom_site_occupancy
  Mn  Mn0  1  0.14170336  0.14170336  0.14170336  1
  Mn  Mn1  1  0.35845552  0.35845552  0.35845552  1
  Mn  Mn2  1  0.64228274  0.64228274  0.64228274  1
  Co  Co3  1  0.85664618  0.85664618  0.85664618  1
  Ni  Ni4  1  0.99788878  0.99788878  0.99788878  1
  Ni  Ni5  1  0.50081342  0.50081342  0.50081342  1
  P  P6  1  0.04367158  0.75006165  0.45578533  1
  P  P7  1  0.45578533  0.04367158  0.75006165  1
  P  P8  1  0.75006165  0.45578533  0.04367158  1
  P  P9  1  0.24929586  0.54286190  0.95952871  1
  P  P10  1  0.54286190  0.95952871  0.24929586  1
  P  P11  1  0.95952871  0.24929586  0.54286190  1
  O  O12  1  0.12119373  0.31297680  0.50611266  1
  O  O13  1  0.31297680  0.50611266  0.12119373  1
  O  O14  1  0.06021879  0.90961227  0.25458349  1
  O  O15  1  0.50611266  0.12119373  0.31297680  1
  O  O16  1  0.01270703  0.81275191  0.61333181  1
  O  O17  1  0.24461935  0.58462606  0.44260249  1
  O  O18  1  0.25458349  0.06021879  0.90961227  1
  O  O19  1  0.44260249  0.24461935  0.58462606  1
  O  O20  1  0.18814415  0.38329143  0.99053085  1
  O  O21  1  0.58462606  0.44260249  0.24461935  1
  O  O22  1  0.09020034  0.74149469  0.94358436  1
  O  O23  1  0.38329143  0.99053085  0.18814415  1
  O  O24  1  0.61333181  0.01270703  0.81275191  1
  O  O25  1  0.90961227  0.25458349  0.06021879  1
  O  O26  1  0.41377366  0.55402881  0.76022780  1
  O  O27  1  0.81275191  0.61333181  0.01270703  1
  O  O28  1  0.55402881  0.76022780  0.41377366  1
  O  O29  1  0.74149469  0.94358436  0.09020034  1
  O  O30  1  0.76022780  0.41377366  0.55402881  1
  O  O31  1  0.99053085  0.18814415  0.38329143  1
  O  O32  1  0.48817648  0.88546317  0.68675285  1
  O  O33  1  0.94358436  0.09020034  0.74149469  1
  O  O34  1  0.68675285  0.48817648  0.88546317  1
  O  O35  1  0.88546317  0.68675285  0.48817648  1
