# generated using pymatgen
data_ZnSnAs2O7
_symmetry_space_group_name_H-M   'P 1'
_cell_length_a   7.52950803
_cell_length_b   9.46821832
_cell_length_c   10.12187978
_cell_angle_alpha   90.00000000
_cell_angle_beta   120.38399431
_cell_angle_gamma   90.00000000
_symmetry_Int_Tables_number   1
_chemical_formula_structural   ZnSnAs2O7
_chemical_formula_sum   'Zn4 Sn4 As8 O28'
_cell_volume   622.49114993
_cell_formula_units_Z   4
loop_
 _symmetry_equiv_pos_site_id
 _symmetry_equiv_pos_as_xyz
  1  'x, y, z'
loop_
 _atom_site_type_symbol
 _atom_site_label
 _atom_site_symmetry_multiplicity
 _atom_site_fract_x
 _atom_site_fract_y
 _atom_site_fract_z
 _atom_site_occupancy
  Zn  Zn0  1  0.26221101  0.94589740  0.90868783  1
  Zn  Zn1  1  0.73778899  0.44589740  0.59131217  1
  Zn  Zn2  1  0.73778899  0.05410260  0.09131217  1
  Zn  Zn3  1  0.26221101  0.55410260  0.40868783  1
  Sn  Sn4  1  0.76383599  0.03697439  0.62519029  1
  Sn  Sn5  1  0.23616401  0.53697439  0.87480971  1
  Sn  Sn6  1  0.23616401  0.96302561  0.37480971  1
  Sn  Sn7  1  0.76383599  0.46302561  0.12519029  1
  As  As8  1  0.42890788  0.21569306  0.75451088  1
  As  As9  1  0.57109212  0.71569306  0.74548912  1
  As  As10  1  0.57109212  0.78430694  0.24548912  1
  As  As11  1  0.42890788  0.28430694  0.25450988  1
  As  As12  1  0.97595292  0.25475423  0.93154515  1
  As  As13  1  0.02404708  0.75475423  0.56845485  1
  As  As14  1  0.02404708  0.74524577  0.06845485  1
  As  As15  1  0.97595292  0.24524577  0.43154515  1
  O  O16  1  0.86954239  0.22850871  0.04392994  1
  O  O17  1  0.13045761  0.72850871  0.45607006  1
  O  O18  1  0.13045761  0.77149129  0.95607006  1
  O  O19  1  0.86954239  0.27149129  0.54392994  1
  O  O20  1  0.37445786  0.38062387  0.78644854  1
  O  O21  1  0.62554214  0.88062387  0.71355146  1
  O  O22  1  0.62554214  0.61937613  0.21355146  1
  O  O23  1  0.37445786  0.11937613  0.28644854  1
  O  O24  1  0.45708732  0.09160067  0.89056399  1
  O  O25  1  0.54291268  0.59160067  0.60943601  1
  O  O26  1  0.54291268  0.90839933  0.10943601  1
  O  O27  1  0.45708732  0.40839933  0.39056399  1
  O  O28  1  0.22515880  0.16499577  0.57082568  1
  O  O29  1  0.77484120  0.66499577  0.92917432  1
  O  O30  1  0.77484120  0.83500423  0.42917432  1
  O  O31  1  0.22515880  0.33500423  0.07082568  1
  O  O32  1  0.93075159  0.09706533  0.31812981  1
  O  O33  1  0.06924841  0.59706533  0.18187019  1
  O  O34  1  0.06924841  0.90293467  0.68187019  1
  O  O35  1  0.93075159  0.40293467  0.81812981  1
  O  O36  1  0.63618525  0.29130179  0.22689809  1
  O  O37  1  0.36381575  0.79130179  0.27310191  1
  O  O38  1  0.36381575  0.70869821  0.77310191  1
  O  O39  1  0.63618525  0.20869821  0.72689809  1
  O  O40  1  0.03112255  0.39750884  0.36330460  1
  O  O41  1  0.96887745  0.89750884  0.13669540  1
  O  O42  1  0.96887745  0.60249116  0.63669540  1
  O  O43  1  0.03112255  0.10249116  0.86330460  1
