# generated using pymatgen
data_Li4V3(FeO6)2
_symmetry_space_group_name_H-M   'P 1'
_cell_length_a   8.93075907
_cell_length_b   9.23100962
_cell_length_c   12.64705612
_cell_angle_alpha   90.01180500
_cell_angle_beta   88.62509536
_cell_angle_gamma   90.00905162
_symmetry_Int_Tables_number   1
_chemical_formula_structural   Li4V3(FeO6)2
_chemical_formula_sum   'Li16 V12 Fe8 O48'
_cell_volume   1042.32212103
_cell_formula_units_Z   4
loop_
 _symmetry_equiv_pos_site_id
 _symmetry_equiv_pos_as_xyz
  1  'x, y, z'
loop_
 _atom_site_type_symbol
 _atom_site_label
 _atom_site_symmetry_multiplicity
 _atom_site_fract_x
 _atom_site_fract_y
 _atom_site_fract_z
 _atom_site_occupancy
  Li  Li0  1  0.93345047  0.08350949  0.69735483  1
  Li  Li1  1  0.93055635  0.51235071  0.34738261  1
  Li  Li2  1  0.90093362  0.65960235  0.98133619  1
  Li  Li3  1  0.80805237  0.77104648  0.19278131  1
  Li  Li4  1  0.69173255  0.27135546  0.30724833  1
  Li  Li5  1  0.59897523  0.15968352  0.51852890  1
  Li  Li6  1  0.56947463  0.01234239  0.15271862  1
  Li  Li7  1  0.56659363  0.58354226  0.80263002  1
  Li  Li8  1  0.43336615  0.41644430  0.19737235  1
  Li  Li9  1  0.43055537  0.98765057  0.84732426  1
  Li  Li10  1  0.40097919  0.84040768  0.48129562  1
  Li  Li11  1  0.30816342  0.72891148  0.69269845  1
  Li  Li12  1  0.19186806  0.22888633  0.80729934  1
  Li  Li13  1  0.09905919  0.34041000  0.01861059  1
  Li  Li14  1  0.06949435  0.48763022  0.65263452  1
  Li  Li15  1  0.06656073  0.91645248  0.30265923  1
  V  V16  1  0.95807299  0.25003176  0.48909988  1
  V  V17  1  0.88341145  0.37631830  0.84334265  1
  V  V18  1  0.89196621  0.11228520  0.13870008  1
  V  V19  1  0.61664407  0.87629060  0.65652214  1
  V  V20  1  0.60804051  0.61211087  0.36146662  1
  V  V21  1  0.54185662  0.75005336  0.01081794  1
  V  V22  1  0.45813970  0.24999654  0.98917835  1
  V  V23  1  0.39194913  0.38780346  0.63863196  1
  V  V24  1  0.38333999  0.12376388  0.34337366  1
  V  V25  1  0.10803961  0.88778596  0.86138533  1
  V  V26  1  0.11653750  0.62366030  0.15661082  1
  V  V27  1  0.04198822  0.74981631  0.51089057  1
  Fe  Fe28  1  0.75148758  0.46408486  0.11783983  1
  Fe  Fe29  1  0.74853672  0.96414453  0.38218124  1
  Fe  Fe30  1  0.25149588  0.03593412  0.61783120  1
  Fe  Fe31  1  0.24852689  0.53593424  0.88212697  1
  Fe  Fe32  1  0.75124919  0.52161932  0.60819948  1
  Fe  Fe33  1  0.74883607  0.02163436  0.89188188  1
  Fe  Fe34  1  0.25116394  0.97835325  0.10818516  1
  Fe  Fe35  1  0.24883591  0.47837602  0.39187291  1
  O  O36  1  0.94510503  0.87960648  0.44398916  1
  O  O37  1  0.94025225  0.65708617  0.60963050  1
  O  O38  1  0.92511591  0.87183749  0.91314263  1
  O  O39  1  0.93239077  0.58473141  0.20007605  1
  O  O40  1  0.90510404  0.36909329  0.59185850  1
  O  O41  1  0.87280884  0.18655451  0.83817285  1
  O  O42  1  0.87517648  0.42964222  0.97433988  1
  O  O43  1  0.88003349  0.98184190  0.23833967  1
  O  O44  1  0.83400053  0.27890803  0.18814549  1
  O  O45  1  0.79217251  0.17984429  0.43461894  1
  O  O46  1  0.75162542  0.47208444  0.77049844  1
  O  O47  1  0.75671593  0.05730903  0.04790894  1
  O  O48  1  0.74841062  0.97205209  0.72942890  1
  O  O49  1  0.74330349  0.55722573  0.45223519  1
  O  O50  1  0.70787145  0.67992075  0.06520683  1
  O  O51  1  0.66616528  0.77871852  0.31204561  1
  O  O52  1  0.62486434  0.92942973  0.52548544  1
  O  O53  1  0.61992684  0.48154086  0.26189643  1
  O  O54  1  0.62716613  0.68654632  0.66178375  1
  O  O55  1  0.59482990  0.86921640  0.90810758  1
  O  O56  1  0.57481035  0.37177734  0.58682592  1
  O  O57  1  0.55984754  0.15714659  0.89040340  1
  O  O58  1  0.56746178  0.08503584  0.29985317  1
  O  O59  1  0.55490881  0.37980029  0.05599373  1
  O  O60  1  0.44513575  0.62025535  0.94401780  1
  O  O61  1  0.43252461  0.91523393  0.70002075  1
  O  O62  1  0.44017744  0.84286745  0.10964993  1
  O  O63  1  0.42513512  0.62816203  0.41320209  1
  O  O64  1  0.40515498  0.13081840  0.09187655  1
  O  O65  1  0.37272943  0.31350647  0.33821078  1
  O  O66  1  0.38005938  0.51841057  0.73815724  1
  O  O67  1  0.37525601  0.07042660  0.47437911  1
  O  O68  1  0.33389454  0.22119210  0.68813789  1
  O  O69  1  0.29217453  0.32015780  0.93477298  1
  O  O70  1  0.25666318  0.44262751  0.54785093  1
  O  O71  1  0.25157395  0.02794303  0.27050249  1
  O  O72  1  0.24329596  0.94263809  0.95220450  1
  O  O73  1  0.24836177  0.52796144  0.22944226  1
  O  O74  1  0.20789700  0.82014185  0.56523417  1
  O  O75  1  0.16606323  0.72121983  0.81187415  1
  O  O76  1  0.11998808  0.01838675  0.76185417  1
  O  O77  1  0.12480631  0.57039805  0.02558963  1
  O  O78  1  0.12701035  0.81344927  0.16180293  1
  O  O79  1  0.09492074  0.63074077  0.40812059  1
  O  O80  1  0.06757725  0.41516049  0.79988716  1
  O  O81  1  0.07485807  0.12817836  0.08688041  1
  O  O82  1  0.05981197  0.34281077  0.39039427  1
  O  O83  1  0.05491812  0.12014139  0.55593737  1
