# generated using pymatgen
data_Li4Mn3Sn3(SbO8)2
_symmetry_space_group_name_H-M   'P 1'
_cell_length_a   6.29159934
_cell_length_b   6.25049764
_cell_length_c   9.95406449
_cell_angle_alpha   90.00043996
_cell_angle_beta   91.01296677
_cell_angle_gamma   119.78425916
_symmetry_Int_Tables_number   1
_chemical_formula_structural   Li4Mn3Sn3(SbO8)2
_chemical_formula_sum   'Li4 Mn3 Sn3 Sb2 O16'
_cell_volume   339.66954904
_cell_formula_units_Z   1
loop_
 _symmetry_equiv_pos_site_id
 _symmetry_equiv_pos_as_xyz
  1  'x, y, z'
loop_
 _atom_site_type_symbol
 _atom_site_label
 _atom_site_symmetry_multiplicity
 _atom_site_fract_x
 _atom_site_fract_y
 _atom_site_fract_z
 _atom_site_occupancy
  Li  Li0  1  0.32397926  0.66200971  0.89834400  1
  Li  Li1  1  0.98544350  0.99272733  0.98020138  1
  Li  Li2  1  0.98794920  0.99398277  0.49458295  1
  Li  Li3  1  0.65311238  0.32657341  0.40868269  1
  Mn  Mn4  1  0.66124414  0.83063498  0.21231275  1
  Mn  Mn5  1  0.83565148  0.66181956  0.70958800  1
  Mn  Mn6  1  0.83564057  0.17386080  0.70957911  1
  Sn  Sn7  1  0.17159206  0.83183981  0.21304031  1
  Sn  Sn8  1  0.17160428  0.33976943  0.21302978  1
  Sn  Sn9  1  0.34668219  0.17335651  0.71379373  1
  Sb  Sb10  1  0.34522652  0.67262071  0.49091541  1
  Sb  Sb11  1  0.68589107  0.34295529  0.98061532  1
  O  O12  1  0.17967480  0.83365255  0.58944121  1
  O  O13  1  0.03801258  0.51901287  0.34626389  1
  O  O14  1  0.31773053  0.65887477  0.10212318  1
  O  O15  1  0.01112713  0.00557600  0.30825073  1
  O  O16  1  0.01777397  0.00890105  0.79862195  1
  O  O17  1  0.17966877  0.34603520  0.58943906  1
  O  O18  1  0.46757881  0.95606741  0.34920406  1
  O  O19  1  0.46757500  0.51152472  0.34920270  1
  O  O20  1  0.33465184  0.16732927  0.09877487  1
  O  O21  1  0.66356238  0.83178633  0.58585227  1
  O  O22  1  0.51346839  0.47426023  0.85855086  1
  O  O23  1  0.51346914  0.03923835  0.85854505  1
  O  O24  1  0.65136436  0.32569138  0.60347755  1
  O  O25  1  0.83920783  0.66443222  0.09485822  1
  O  O26  1  0.96190649  0.48097072  0.85569710  1
  O  O27  1  0.83921133  0.17479661  0.09485286  1
