# generated using pymatgen
data_Li5V3P8O29
_symmetry_space_group_name_H-M   'P 1'
_cell_length_a   9.73866032
_cell_length_b   9.79924002
_cell_length_c   14.11498101
_cell_angle_alpha   91.03182030
_cell_angle_beta   90.81889790
_cell_angle_gamma   60.24028524
_symmetry_Int_Tables_number   1
_chemical_formula_structural   Li5V3P8O29
_chemical_formula_sum   'Li10 V6 P16 O58'
_cell_volume   1169.15022130
_cell_formula_units_Z   2
loop_
 _symmetry_equiv_pos_site_id
 _symmetry_equiv_pos_as_xyz
  1  'x, y, z'
loop_
 _atom_site_type_symbol
 _atom_site_label
 _atom_site_symmetry_multiplicity
 _atom_site_fract_x
 _atom_site_fract_y
 _atom_site_fract_z
 _atom_site_occupancy
  Li  Li0  1  0.76246042  0.90167033  0.55726368  1
  Li  Li1  1  0.90292239  0.33479721  0.56576454  1
  Li  Li2  1  0.76319624  0.34203254  0.06088969  1
  Li  Li3  1  0.32982155  0.90053082  0.06287514  1
  Li  Li4  1  0.33313705  0.76528655  0.55774963  1
  Li  Li5  1  0.23061222  0.68470521  0.93759805  1
  Li  Li6  1  0.33532670  0.32022037  0.10538828  1
  Li  Li7  1  0.09688277  0.66697345  0.43563390  1
  Li  Li8  1  0.93558496  0.01517611  0.99046612  1
  Li  Li9  1  0.97492357  0.04648580  0.49862734  1
  V  V10  1  0.56988399  0.42843997  0.25492902  1
  V  V11  1  0.43734867  0.56361245  0.74866483  1
  V  V12  1  0.56508856  0.00003588  0.75305044  1
  V  V13  1  0.43684112  0.99891060  0.25396297  1
  V  V14  1  0.99601807  0.56520844  0.24372311  1
  V  V15  1  0.00048196  0.43455309  0.75184008  1
  P  P16  1  0.91670104  0.78265600  0.83747160  1
  P  P17  1  0.77897697  0.91645932  0.34394595  1
  P  P18  1  0.91827913  0.31414389  0.34692083  1
  P  P19  1  0.66121310  0.66128443  0.12966429  1
  P  P20  1  0.66431704  0.67095786  0.62987521  1
  P  P21  1  0.77240945  0.31608996  0.84496587  1
  P  P22  1  0.69413443  0.21760891  0.66249376  1
  P  P23  1  0.31433727  0.91385133  0.84616740  1
  P  P24  1  0.69225487  0.08703017  0.15989823  1
  P  P25  1  0.31411264  0.77379217  0.33886606  1
  P  P26  1  0.22758374  0.67833561  0.15616214  1
  P  P27  1  0.32839055  0.33978855  0.36686412  1
  P  P28  1  0.33368719  0.33449772  0.86729581  1
  P  P29  1  0.08757265  0.68083031  0.65460954  1
  P  P30  1  0.21908758  0.08216365  0.66308392  1
  P  P31  1  0.08848883  0.21633375  0.16375895  1
  O  O32  1  0.00491128  0.75925885  0.56362161  1
  O  O33  1  0.92076138  0.74909263  0.33456141  1
  O  O34  1  0.79332794  -0.00052110  0.07848914  1
  O  O35  1  0.74297160  0.92133878  0.83287931  1
  O  O36  1  0.92236371  0.62451749  0.83259442  1
  O  O37  1  0.81149733  0.65984305  0.17492328  1
  O  O38  1  0.91675715  0.46909449  0.33376698  1
  O  O39  1  0.98782664  0.20988328  0.08546209  1
  O  O40  1  0.90992355  0.34889888  0.82986429  1
  O  O41  1  0.67512405  0.81362295  0.67791150  1
  O  O42  1  0.62130697  0.91426118  0.32609409  1
  O  O43  1  0.81146167  0.51613967  0.66464405  1
  O  O44  1  0.66647504  0.64111578  0.02479292  1
  O  O45  1  0.65841633  0.68970170  0.52459409  1
  O  O46  1  0.66479092  0.51302276  0.17536244  1
  O  O47  1  0.47371545  0.91029387  0.82666561  1
  O  O48  1  0.51324665  0.81153721  0.16701321  1
  O  O49  1  0.74734391  0.33946155  0.33040012  1
  O  O50  1  0.78654084  0.19552026  0.76265772  1
  O  O51  1  0.80563267  0.20049624  0.58504087  1
  O  O52  1  0.78168243  0.24102256  0.93774441  1
  O  O53  1  0.61598428  0.47241901  0.82770748  1
  O  O54  1  0.51085909  0.67777821  0.66846851  1
  O  O55  1  0.65899198  0.26156656  0.16136083  1
  O  O56  1  0.47205273  0.61705574  0.32435979  1
  O  O57  1  0.33994885  0.91529795  0.33695737  1
  O  O58  1  0.78780451  0.01733553  0.25844141  1
  O  O59  1  0.78512974  0.99000450  0.43683500  1
  O  O60  1  0.20457652  0.98821175  0.58250409  1
  O  O61  1  0.66054885  0.07745093  0.66005124  1
  O  O62  1  0.54015293  0.37484416  0.66871183  1
  O  O63  1  0.33716472  0.74592097  0.83594499  1
  O  O64  1  0.48156545  0.33485269  0.32210171  1
  O  O65  1  0.37978964  0.51684233  0.17174223  1
  O  O66  1  0.23766419  0.76033497  0.06929728  1
  O  O67  1  0.23080366  0.77031731  0.42750477  1
  O  O68  1  0.20682226  0.78902575  0.24770348  1
  O  O69  1  0.25824990  0.65538519  0.65861340  1
  O  O70  1  0.48257953  0.18704651  0.82038303  1
  O  O71  1  0.52840927  0.09797685  0.16877704  1
  O  O72  1  0.32851420  0.48736601  0.83082980  1
  O  O73  1  0.34496354  0.32923555  0.97324078  1
  O  O74  1  0.32784935  0.35611574  0.47163983  1
  O  O75  1  0.18481941  0.49010561  0.32197658  1
  O  O76  1  0.38188890  0.07475786  0.67278351  1
  O  O77  1  0.32701914  0.19275296  0.32546137  1
  O  O78  1  0.08544115  0.65287982  0.15486969  1
  O  O79  1  0.99425664  0.79985040  0.73997100  1
  O  O80  1  0.00372984  0.80944028  0.91757135  1
  O  O81  1  0.09083772  0.52517687  0.67275906  1
  O  O82  1  0.19139582  0.32620301  0.82533677  1
  O  O83  1  0.10367188  0.36715410  0.16894426  1
  O  O84  1  0.26087996  0.07502107  0.16092978  1
  O  O85  1  0.24454379  0.98459892  0.93991747  1
  O  O86  1  0.19691164  0.01337219  0.76203082  1
  O  O87  1  0.08262700  0.25403962  0.66070198  1
  O  O88  1  0.97806537  0.23510322  0.44028538  1
  O  O89  1  0.02137334  0.19545539  0.26357598  1
