# generated using pymatgen
data_Li5V3P8O29
_symmetry_space_group_name_H-M   'P 1'
_cell_length_a   9.78292041
_cell_length_b   9.78961433
_cell_length_c   14.16653878
_cell_angle_alpha   89.41664849
_cell_angle_beta   89.52222620
_cell_angle_gamma   60.23143965
_symmetry_Int_Tables_number   1
_chemical_formula_structural   Li5V3P8O29
_chemical_formula_sum   'Li10 V6 P16 O58'
_cell_volume   1177.63577299
_cell_formula_units_Z   2
loop_
 _symmetry_equiv_pos_site_id
 _symmetry_equiv_pos_as_xyz
  1  'x, y, z'
loop_
 _atom_site_type_symbol
 _atom_site_label
 _atom_site_symmetry_multiplicity
 _atom_site_fract_x
 _atom_site_fract_y
 _atom_site_fract_z
 _atom_site_occupancy
  Li  Li0  1  0.77839700  0.92249637  0.55586693  1
  Li  Li1  1  0.91287548  0.31153354  0.55508251  1
  Li  Li2  1  0.76422102  0.33072607  0.06240194  1
  Li  Li3  1  0.33051114  0.90370175  0.05964973  1
  Li  Li4  1  0.32185496  0.77039038  0.56178416  1
  Li  Li5  1  0.67344417  0.09428245  0.94521797  1
  Li  Li6  1  0.09071286  0.67953245  0.43865846  1
  Li  Li7  1  0.22798678  0.09305025  0.43899891  1
  Li  Li8  1  0.09582413  0.23127874  0.94009756  1
  Li  Li9  1  0.00157918  0.91788970  0.01944947  1
  V  V10  1  0.56250716  0.43613403  0.25330947  1
  V  V11  1  0.43340764  0.56145700  0.75369733  1
  V  V12  1  0.56601555  0.00047386  0.75009803  1
  V  V13  1  0.43597748  0.00016179  0.24968807  1
  V  V14  1  0.99375729  0.57083735  0.24250969  1
  V  V15  1  0.99911476  0.43623625  0.75105709  1
  P  P16  1  0.91336299  0.77726843  0.83938237  1
  P  P17  1  0.77119900  0.90973682  0.33877384  1
  P  P18  1  0.91098821  0.31719525  0.33978706  1
  P  P19  1  0.66416427  0.66512570  0.12888173  1
  P  P20  1  0.66366134  0.66912670  0.63304028  1
  P  P21  1  0.76971330  0.31592651  0.84304650  1
  P  P22  1  0.68734830  0.22815217  0.66103295  1
  P  P23  1  0.31257762  0.91205803  0.84088194  1
  P  P24  1  0.68904403  0.08877864  0.15722789  1
  P  P25  1  0.31967574  0.76910563  0.34543374  1
  P  P26  1  0.22454569  0.69414177  0.16370573  1
  P  P27  1  0.32340662  0.33854883  0.36583008  1
  P  P28  1  0.33795698  0.32629957  0.86974321  1
  P  P29  1  0.08643034  0.68295110  0.65675080  1
  P  P30  1  0.22884295  0.09100329  0.65924952  1
  P  P31  1  0.08876367  0.22829848  0.15851131  1
  O  O32  1  0.99965730  0.75102971  0.56598475  1
  O  O33  1  0.91861759  0.74103161  0.33421143  1
  O  O34  1  0.78033263  0.00865952  0.06934527  1
  O  O35  1  0.73916293  0.91978283  0.83629020  1
  O  O36  1  0.91416099  0.62097624  0.83118621  1
  O  O37  1  0.81190949  0.67067571  0.17396165  1
  O  O38  1  0.90669487  0.47567927  0.31821056  1
  O  O39  1  0.00127892  0.23281120  0.07034807  1
  O  O40  1  0.91939024  0.33408762  0.83758662  1
  O  O41  1  0.66584429  0.81808600  0.67742530  1
  O  O42  1  0.62079197  0.89786319  0.31948113  1
  O  O43  1  0.81223543  0.51816886  0.67201356  1
  O  O44  1  0.67518685  0.65721781  0.02416638  1
  O  O45  1  0.66263254  0.68224755  0.52828224  1
  O  O46  1  0.67457327  0.51164662  0.17198530  1
  O  O47  1  0.46984758  0.91431412  0.82448133  1
  O  O48  1  0.51170146  0.81161745  0.16640988  1
  O  O49  1  0.74687536  0.33868072  0.33818181  1
  O  O50  1  0.78757051  0.20162821  0.75788525  1
  O  O51  1  0.78443780  0.22274053  0.57876301  1
  O  O52  1  0.76756587  0.23632299  0.93426066  1
  O  O53  1  0.62203464  0.47659411  0.82755590  1
  O  O54  1  0.51214183  0.67124203  0.67234643  1
  O  O55  1  0.66367436  0.25665329  0.16138380  1
  O  O56  1  0.48105459  0.62432042  0.32673040  1
  O  O57  1  0.33258143  0.92074256  0.34099865  1
  O  O58  1  0.79387720  0.99923273  0.24956973  1
  O  O59  1  0.76533533  0.98691760  0.42902226  1
  O  O60  1  0.24358641  0.00149595  0.57061865  1
  O  O61  1  0.66367117  0.08048208  0.66172319  1
  O  O62  1  0.52796827  0.37907763  0.67256856  1
  O  O63  1  0.33967387  0.74630294  0.83798283  1
  O  O64  1  0.47139713  0.33968416  0.32153119  1
  O  O65  1  0.38151232  0.54096572  0.16701415  1
  O  O66  1  0.20408376  0.80465619  0.08374816  1
  O  O67  1  0.24411576  0.75785101  0.43604572  1
  O  O68  1  0.20148793  0.78809655  0.26119165  1
  O  O69  1  0.25011051  0.66690368  0.65908825  1
  O  O70  1  0.49138522  0.18301150  0.82240555  1
  O  O71  1  0.53377847  0.08650600  0.16858919  1
  O  O72  1  0.33240309  0.47743699  0.82549978  1
  O  O73  1  0.36208461  0.30720910  0.97365674  1
  O  O74  1  0.31348255  0.34638271  0.47051867  1
  O  O75  1  0.17716346  0.48840247  0.32173649  1
  O  O76  1  0.38061751  0.09957420  0.67781370  1
  O  O77  1  0.32508994  0.18692395  0.32754133  1
  O  O78  1  0.08325477  0.66210274  0.16475404  1
  O  O79  1  0.98703013  0.79914150  0.74091282  1
  O  O80  1  0.99618516  0.79793658  0.92006958  1
  O  O81  1  0.09877816  0.52096099  0.68000196  1
  O  O82  1  0.19028420  0.32047085  0.83514657  1
  O  O83  1  0.09200155  0.38397104  0.17141617  1
  O  O84  1  0.25700078  0.08526352  0.15856078  1
  O  O85  1  0.23295522  0.00014037  0.92976061  1
  O  O86  1  0.20532828  0.00387833  0.74991603  1
  O  O87  1  0.08208957  0.25641154  0.65848508  1
  O  O88  1  0.00285418  0.24247230  0.42819827  1
  O  O89  1  0.00564608  0.20522898  0.25049123  1
