# generated using pymatgen
data_Li5V3P8O29
_symmetry_space_group_name_H-M   'P 1'
_cell_length_a   9.80302793
_cell_length_b   9.79367548
_cell_length_c   14.11127261
_cell_angle_alpha   89.53695765
_cell_angle_beta   89.50935884
_cell_angle_gamma   59.73086766
_symmetry_Int_Tables_number   1
_chemical_formula_structural   Li5V3P8O29
_chemical_formula_sum   'Li10 V6 P16 O58'
_cell_volume   1170.03411445
_cell_formula_units_Z   2
loop_
 _symmetry_equiv_pos_site_id
 _symmetry_equiv_pos_as_xyz
  1  'x, y, z'
loop_
 _atom_site_type_symbol
 _atom_site_label
 _atom_site_symmetry_multiplicity
 _atom_site_fract_x
 _atom_site_fract_y
 _atom_site_fract_z
 _atom_site_occupancy
  Li  Li0  1  0.90497597  0.76271030  0.05903859  1
  Li  Li1  1  0.76907864  0.91053201  0.56463162  1
  Li  Li2  1  0.90479821  0.32369331  0.55790852  1
  Li  Li3  1  0.76546005  0.33351014  0.05822475  1
  Li  Li4  1  0.33271807  0.90194161  0.05630720  1
  Li  Li5  1  0.33136895  0.76584673  0.56350456  1
  Li  Li6  1  0.09014860  0.68149434  0.44203972  1
  Li  Li7  1  0.22439225  0.09085416  0.43908230  1
  Li  Li8  1  0.09899352  0.23411946  0.93763307  1
  Li  Li9  1  0.96376130  0.99041853  0.99024951  1
  V  V10  1  0.56730189  0.43279908  0.24951522  1
  V  V11  1  0.43357184  0.56432635  0.75404794  1
  V  V12  1  0.56547071  0.00641050  0.75300324  1
  V  V13  1  0.43714449  0.99739031  0.24837182  1
  V  V14  1  0.99722272  0.57092760  0.24764458  1
  V  V15  1  0.99870547  0.43309701  0.74843185  1
  P  P16  1  0.91138196  0.77299873  0.84209865  1
  P  P17  1  0.76578092  0.91310628  0.34649302  1
  P  P18  1  0.90916745  0.32094906  0.33868357  1
  P  P19  1  0.66633029  0.66432919  0.12692885  1
  P  P20  1  0.66386618  0.67233402  0.63043124  1
  P  P21  1  0.77506601  0.30897326  0.84647688  1
  P  P22  1  0.68974911  0.22763043  0.66284921  1
  P  P23  1  0.31378583  0.91309585  0.83868952  1
  P  P24  1  0.69527640  0.08382945  0.16262086  1
  P  P25  1  0.31749523  0.76810862  0.34379878  1
  P  P26  1  0.22402586  0.69514549  0.15969961  1
  P  P27  1  0.33012587  0.33635543  0.36707722  1
  P  P28  1  0.32821517  0.33269287  0.87106779  1
  P  P29  1  0.09014547  0.68105789  0.66058399  1
  P  P30  1  0.23131492  0.08849646  0.65624775  1
  P  P31  1  0.08980074  0.23012961  0.15778737  1
  O  O32  1  0.99940904  0.75809417  0.57160215  1
  O  O33  1  0.91643712  0.74701342  0.33757795  1
  O  O34  1  0.80734804  0.99041767  0.08438000  1
  O  O35  1  0.74047119  0.91674522  0.83104499  1
  O  O36  1  0.91265301  0.61753511  0.83221311  1
  O  O37  1  0.80959776  0.67824447  0.16446365  1
  O  O38  1  0.89741839  0.48189666  0.32087038  1
  O  O39  1  0.00438523  0.22990480  0.06943075  1
  O  O40  1  0.91964009  0.33456100  0.83438564  1
  O  O41  1  0.66806766  0.81961939  0.67321347  1
  O  O42  1  0.61841123  0.89925029  0.32044698  1
  O  O43  1  0.81296107  0.51715610  0.66878676  1
  O  O44  1  0.66867147  0.65070627  0.02147962  1
  O  O45  1  0.66595585  0.67842671  0.52450105  1
  O  O46  1  0.67788865  0.50894100  0.17245837  1
  O  O47  1  0.47126828  0.91169643  0.82550793  1
  O  O48  1  0.51019097  0.80842670  0.16546147  1
  O  O49  1  0.74283619  0.33950118  0.33318201  1
  O  O50  1  0.78995679  0.19676509  0.75960968  1
  O  O51  1  0.78213148  0.22857935  0.57949092  1
  O  O52  1  0.79630366  0.22018104  0.93779394  1
  O  O53  1  0.62067670  0.46524309  0.83487543  1
  O  O54  1  0.51216302  0.67562399  0.66974135  1
  O  O55  1  0.66399497  0.25738831  0.16040961  1
  O  O56  1  0.47894518  0.61840737  0.32150256  1
  O  O57  1  0.33294812  0.91731006  0.34002482  1
  O  O58  1  0.78346254  0.01599979  0.26306141  1
  O  O59  1  0.75255535  0.98702726  0.43969871  1
  O  O60  1  0.24414323  0.99816579  0.56760119  1
  O  O61  1  0.66171003  0.08406919  0.66160371  1
  O  O62  1  0.52964137  0.38150213  0.67816215  1
  O  O63  1  0.34169368  0.74439726  0.83542183  1
  O  O64  1  0.47659358  0.33828415  0.31664902  1
  O  O65  1  0.38472703  0.53948933  0.16944674  1
  O  O66  1  0.21048169  0.80134057  0.07938882  1
  O  O67  1  0.24825760  0.75263393  0.43589459  1
  O  O68  1  0.20019739  0.78693626  0.25951478  1
  O  O69  1  0.25536163  0.66343917  0.65973503  1
  O  O70  1  0.48168663  0.18476145  0.82221719  1
  O  O71  1  0.53996696  0.08280955  0.16762502  1
  O  O72  1  0.32356297  0.48028653  0.82759720  1
  O  O73  1  0.33758945  0.31360898  0.97583875  1
  O  O74  1  0.33647968  0.33966800  0.47212566  1
  O  O75  1  0.18297394  0.49036507  0.32805157  1
  O  O76  1  0.38159327  0.09630903  0.67542726  1
  O  O77  1  0.32900643  0.18662898  0.32895058  1
  O  O78  1  0.08522980  0.66154315  0.15857670  1
  O  O79  1  0.00260440  0.79170160  0.75120179  1
  O  O80  1  0.97938659  0.79284199  0.93226890  1
  O  O81  1  0.10062849  0.52003969  0.67898622  1
  O  O82  1  0.18699278  0.31840951  0.83104493  1
  O  O83  1  0.09515191  0.38204720  0.17149880  1
  O  O84  1  0.25863805  0.08282737  0.16026177  1
  O  O85  1  0.22731404  0.99872534  0.92768941  1
  O  O86  1  0.20617728  0.00155782  0.74740101  1
  O  O87  1  0.08305016  0.25497226  0.65482263  1
  O  O88  1  0.99533245  0.24311755  0.42843802  1
  O  O89  1  0.00316437  0.20756913  0.24986522  1
