# generated using pymatgen
data_Li5V3P8O29
_symmetry_space_group_name_H-M   'P 1'
_cell_length_a   9.79716852
_cell_length_b   9.78460681
_cell_length_c   14.14806720
_cell_angle_alpha   90.60659958
_cell_angle_beta   90.82349812
_cell_angle_gamma   60.16558793
_symmetry_Int_Tables_number   1
_chemical_formula_structural   Li5V3P8O29
_chemical_formula_sum   'Li10 V6 P16 O58'
_cell_volume   1176.37468642
_cell_formula_units_Z   2
loop_
 _symmetry_equiv_pos_site_id
 _symmetry_equiv_pos_as_xyz
  1  'x, y, z'
loop_
 _atom_site_type_symbol
 _atom_site_label
 _atom_site_symmetry_multiplicity
 _atom_site_fract_x
 _atom_site_fract_y
 _atom_site_fract_z
 _atom_site_occupancy
  Li  Li0  1  0.92390683  0.77933317  0.05310232  1
  Li  Li1  1  0.77064879  0.32012302  0.05866465  1
  Li  Li2  1  0.31487200  0.90694374  0.06292972  1
  Li  Li3  1  0.67947771  0.23717367  0.43863783  1
  Li  Li4  1  0.34536910  0.76746084  0.55671020  1
  Li  Li5  1  0.67674745  0.08819882  0.93435952  1
  Li  Li6  1  0.32703556  0.32243954  0.60935834  1
  Li  Li7  1  0.08784442  0.69355695  0.44298955  1
  Li  Li8  1  0.09469847  0.22645901  0.93766677  1
  Li  Li9  1  0.99038054  0.06033954  0.51337740  1
  V  V10  1  0.56465552  0.43185575  0.24705938  1
  V  V11  1  0.42861112  0.57182636  0.75564875  1
  V  V12  1  0.56826494  0.99265285  0.74268183  1
  V  V13  1  0.43106899  0.00318628  0.25595014  1
  V  V14  1  0.99996488  0.56347995  0.25686825  1
  V  V15  1  0.99565376  0.43323912  0.74793232  1
  P  P16  1  0.91611796  0.77065337  0.83911063  1
  P  P17  1  0.77920523  0.91956558  0.33865194  1
  P  P18  1  0.91777435  0.30272872  0.34006353  1
  P  P19  1  0.66871733  0.66495843  0.13353535  1
  P  P20  1  0.65753902  0.66331243  0.63030565  1
  P  P21  1  0.77016373  0.31464226  0.83911493  1
  P  P22  1  0.68101581  0.22847971  0.65494355  1
  P  P23  1  0.32159522  0.91284671  0.84552886  1
  P  P24  1  0.67804699  0.08362749  0.15413068  1
  P  P25  1  0.32101991  0.76774017  0.34373883  1
  P  P26  1  0.22394594  0.68378527  0.16333928  1
  P  P27  1  0.33386619  0.33556833  0.37230953  1
  P  P28  1  0.33842364  0.32693273  0.86855183  1
  P  P29  1  0.09168968  0.68182646  0.65722288  1
  P  P30  1  0.21681059  0.08638969  0.66296567  1
  P  P31  1  0.08757516  0.23093490  0.15745129  1
  O  O32  1  0.01268564  0.76736681  0.56855007  1
  O  O33  1  0.92089885  0.74476974  0.34035535  1
  O  O34  1  0.74741229  0.99938821  0.06257458  1
  O  O35  1  0.75102919  0.91729705  0.83401316  1
  O  O36  1  0.90716662  0.61844968  0.81674920  1
  O  O37  1  0.81563256  0.66238820  0.18799065  1
  O  O38  1  0.92420027  0.45902075  0.33165213  1
  O  O39  1  0.00110071  0.24802989  0.06566690  1
  O  O40  1  0.91708796  0.33405945  0.84017415  1
  O  O41  1  0.66242126  0.81294510  0.67095939  1
  O  O42  1  0.62281787  0.92060628  0.33407783  1
  O  O43  1  0.80533253  0.51765228  0.66805735  1
  O  O44  1  0.69458505  0.66336618  0.02980022  1
  O  O45  1  0.62208571  0.67529765  0.52692157  1
  O  O46  1  0.67167736  0.50950469  0.16525317  1
  O  O47  1  0.48051912  0.90020403  0.82752271  1
  O  O48  1  0.51758677  0.81208690  0.17000006  1
  O  O49  1  0.74353096  0.34141477  0.33398846  1
  O  O50  1  0.78859032  0.20808403  0.74832399  1
  O  O51  1  0.76921062  0.22350415  0.56795987  1
  O  O52  1  0.75830505  0.23847954  0.92817729  1
  O  O53  1  0.61922271  0.47589921  0.82228265  1
  O  O54  1  0.50754886  0.67368396  0.68092441  1
  O  O55  1  0.66356392  0.24874425  0.15732648  1
  O  O56  1  0.47735653  0.61777601  0.32642209  1
  O  O57  1  0.34291461  0.91317705  0.33312220  1
  O  O58  1  0.80031164  0.98354520  0.23723217  1
  O  O59  1  0.80239714  0.01169474  0.41576173  1
  O  O60  1  0.20132247  0.99219870  0.58372644  1
  O  O61  1  0.64675365  0.09230483  0.65760191  1
  O  O62  1  0.52278892  0.38514255  0.66869332  1
  O  O63  1  0.33682050  0.74600428  0.83744180  1
  O  O64  1  0.48790605  0.32659057  0.33588574  1
  O  O65  1  0.37677184  0.52153350  0.17768631  1
  O  O66  1  0.22653159  0.77377635  0.08049608  1
  O  O67  1  0.24155199  0.77061374  0.43466343  1
  O  O68  1  0.20165083  0.78344743  0.25945651  1
  O  O69  1  0.26166140  0.66026110  0.66286731  1
  O  O70  1  0.48473052  0.17961628  0.82390254  1
  O  O71  1  0.51932353  0.09595135  0.17812870  1
  O  O72  1  0.33937228  0.47455341  0.82037909  1
  O  O73  1  0.35306262  0.32863014  0.97325474  1
  O  O74  1  0.32614553  0.34805777  0.47832700  1
  O  O75  1  0.18610336  0.49356306  0.33155707  1
  O  O76  1  0.36934111  0.09734597  0.66528700  1
  O  O77  1  0.32019499  0.19715780  0.32924910  1
  O  O78  1  0.07803519  0.65984562  0.16354334  1
  O  O79  1  0.00709299  0.78669435  0.74892454  1
  O  O80  1  0.00018443  0.75948098  0.92929161  1
  O  O81  1  0.10892431  0.51672922  0.66936199  1
  O  O82  1  0.18559649  0.32826395  0.83319021  1
  O  O83  1  0.09705064  0.38164583  0.18161981  1
  O  O84  1  0.25171596  0.08350345  0.15994028  1
  O  O85  1  0.24569624  0.99480860  0.93636409  1
  O  O86  1  0.20214200  0.01223636  0.76117508  1
  O  O87  1  0.07777512  0.25771805  0.66511353  1
  O  O88  1  0.00075015  0.20405647  0.42273012  1
  O  O89  1  0.99073634  0.21088358  0.24156007  1
