# generated using pymatgen
data_Li3MnV(PO4)3
_symmetry_space_group_name_H-M   'P 1'
_cell_length_a   8.52106974
_cell_length_b   12.23578892
_cell_length_c   8.72504833
_cell_angle_alpha   89.68326710
_cell_angle_beta   90.15514217
_cell_angle_gamma   91.71989932
_symmetry_Int_Tables_number   1
_chemical_formula_structural   Li3MnV(PO4)3
_chemical_formula_sum   'Li12 Mn4 V4 P12 O48'
_cell_volume   909.26442895
_cell_formula_units_Z   4
loop_
 _symmetry_equiv_pos_site_id
 _symmetry_equiv_pos_as_xyz
  1  'x, y, z'
loop_
 _atom_site_type_symbol
 _atom_site_label
 _atom_site_symmetry_multiplicity
 _atom_site_fract_x
 _atom_site_fract_y
 _atom_site_fract_z
 _atom_site_occupancy
  Li  Li0  1  0.06395119  0.34384166  0.51497166  1
  Li  Li1  1  0.08058215  0.69073365  0.08473665  1
  Li  Li2  1  0.17844559  0.17664095  0.78346785  1
  Li  Li3  1  0.31841074  0.32253870  0.28067768  1
  Li  Li4  1  0.41920330  0.80913050  0.58602530  1
  Li  Li5  1  0.43634800  0.15613458  0.01602087  1
  Li  Li6  1  0.56338509  0.84426142  0.98591531  1
  Li  Li7  1  0.58013897  0.19189144  0.41566051  1
  Li  Li8  1  0.68108941  0.67700372  0.71772667  1
  Li  Li9  1  0.81991815  0.82421318  0.21716507  1
  Li  Li10  1  0.91827815  0.30843597  0.91517693  1
  Li  Li11  1  0.93771916  0.65432307  0.48289440  1
  Mn  Mn12  1  0.24591047  0.89621542  0.03030675  1
  Mn  Mn13  1  0.74543244  0.39664009  0.46931118  1
  Mn  Mn14  1  0.75436447  0.89044842  0.53749547  1
  Mn  Mn15  1  0.75447828  0.10327898  0.97053799  1
  V  V16  1  0.24374906  0.10779436  0.46487866  1
  V  V17  1  0.25768890  0.60390397  0.52658818  1
  V  V18  1  0.25448910  0.39112063  0.96426962  1
  V  V19  1  0.74468138  0.61005576  0.03445306  1
  P  P20  1  0.04025517  0.49113688  0.24773480  1
  P  P21  1  0.11730299  0.84720401  0.37944600  1
  P  P22  1  0.11432802  0.14864553  0.10948776  1
  P  P23  1  0.38615344  0.64994756  0.88287874  1
  P  P24  1  0.38608310  0.35253719  0.60898763  1
  P  P25  1  0.45339802  0.00971111  0.75129486  1
  P  P26  1  0.54508164  0.99152565  0.25258137  1
  P  P27  1  0.61818560  0.65220637  0.39021167  1
  P  P28  1  0.61427549  0.35185405  0.11934155  1
  P  P29  1  0.88562391  0.85204514  0.88850357  1
  P  P30  1  0.88376246  0.14522581  0.61946007  1
  P  P31  1  0.95639475  0.50911082  0.74881211  1
  O  O32  1  0.05388600  0.89854521  0.88746199  1
  O  O33  1  0.04861820  0.44336695  0.86775145  1
  O  O34  1  0.05429711  0.59753723  0.66234317  1
  O  O35  1  0.05686097  0.18484321  0.58104277  1
  O  O36  1  0.10107754  0.58164585  0.35843312  1
  O  O37  1  0.12537590  0.83403932  0.19953109  1
  O  O38  1  0.14330791  0.96804083  0.41882906  1
  O  O39  1  0.12386327  0.24913794  0.99482936  1
  O  O40  1  0.17073562  0.18784457  0.27048415  1
  O  O41  1  0.18429436  0.43446893  0.17704762  1
  O  O42  1  0.23300507  0.77526825  0.46704119  1
  O  O43  1  0.23651668  0.06885334  0.04703905  1
  O  O44  1  0.26667970  0.43682865  0.54714917  1
  O  O45  1  0.27185143  0.71880059  0.97316537  1
  O  O46  1  0.30975731  0.06688188  0.67950989  1
  O  O47  1  0.32737414  0.31298372  0.76906125  1
  O  O48  1  0.36308094  0.52782256  0.91824174  1
  O  O49  1  0.37098573  0.25385294  0.49410068  1
  O  O50  1  0.37534246  0.66900388  0.70513383  1
  O  O51  1  0.39279663  0.91818413  0.86476163  1
  O  O52  1  0.44847718  0.90128613  0.16782396  1
  O  O53  1  0.44054480  0.31259214  0.08202482  1
  O  O54  1  0.44983938  0.60647521  0.39228732  1
  O  O55  1  0.45248743  0.05713425  0.36945730  1
  O  O56  1  0.54186139  0.94473130  0.63266913  1
  O  O57  1  0.55599529  0.39680892  0.61014648  1
  O  O58  1  0.56026481  0.68799243  0.91977882  1
  O  O59  1  0.55243104  0.09932897  0.83608676  1
  O  O60  1  0.60612253  0.08289453  0.13869802  1
  O  O61  1  0.62122222  0.33449677  0.29909871  1
  O  O62  1  0.62637510  0.75243482  0.50556990  1
  O  O63  1  0.63638197  0.47333646  0.08332077  1
  O  O64  1  0.67260788  0.69119332  0.22884724  1
  O  O65  1  0.69024675  0.93745040  0.32633427  1
  O  O66  1  0.72918602  0.28221043  0.03131028  1
  O  O67  1  0.73840210  0.57126356  0.45477742  1
  O  O68  1  0.76243917  0.93073466  0.95227357  1
  O  O69  1  0.76802539  0.21529821  0.53143629  1
  O  O70  1  0.81334763  0.56447020  0.82149419  1
  O  O71  1  0.82787661  0.81190925  0.72729477  1
  O  O72  1  0.87654804  0.75081994  0.00190102  1
  O  O73  1  0.86516959  0.02288937  0.58703530  1
  O  O74  1  0.87734738  0.16366947  0.79896832  1
  O  O75  1  0.89533837  0.41654676  0.63736492  1
  O  O76  1  0.94511796  0.80780633  0.41338181  1
  O  O77  1  0.94279138  0.40038331  0.33402881  1
  O  O78  1  0.94931598  0.55386904  0.12580898  1
  O  O79  1  0.94541906  0.10226725  0.11080730  1
