# generated using pymatgen
data_Li2CrNiO4
_symmetry_space_group_name_H-M   'P 1'
_cell_length_a   5.09343650
_cell_length_b   10.19694481
_cell_length_c   9.76410545
_cell_angle_alpha   16.75383420
_cell_angle_beta   29.52278047
_cell_angle_gamma   33.56871063
_symmetry_Int_Tables_number   1
_chemical_formula_structural   Li2CrNiO4
_chemical_formula_sum   'Li2 Cr1 Ni1 O4'
_cell_volume   72.03477640
_cell_formula_units_Z   1
loop_
 _symmetry_equiv_pos_site_id
 _symmetry_equiv_pos_as_xyz
  1  'x, y, z'
loop_
 _atom_site_type_symbol
 _atom_site_label
 _atom_site_symmetry_multiplicity
 _atom_site_fract_x
 _atom_site_fract_y
 _atom_site_fract_z
 _atom_site_occupancy
  Li  Li0  1  -0.00000000  0.00000000  -0.00000000  1
  Li  Li1  1  -0.00000000  0.50000000  -0.00000000  1
  Cr  Cr2  1  0.50000000  0.00000000  0.50000000  1
  Ni  Ni3  1  0.50000000  0.50000000  0.50000000  1
  O  O4  1  0.22348547  1.00000000  0.24818869  1
  O  O5  1  0.27122057  0.50000000  0.23069847  1
  O  O6  1  0.77651453  0.00000000  0.75181131  1
  O  O7  1  0.72877943  0.50000000  0.76930153  1
