# generated using pymatgen
data_Li3MnV(PO4)3
_symmetry_space_group_name_H-M   'P 1'
_cell_length_a   8.70793518
_cell_length_b   8.80660779
_cell_length_c   12.20026119
_cell_angle_alpha   89.80306142
_cell_angle_beta   91.07106219
_cell_angle_gamma   90.19902982
_symmetry_Int_Tables_number   1
_chemical_formula_structural   Li3MnV(PO4)3
_chemical_formula_sum   'Li12 Mn4 V4 P12 O48'
_cell_volume   935.43150764
_cell_formula_units_Z   4
loop_
 _symmetry_equiv_pos_site_id
 _symmetry_equiv_pos_as_xyz
  1  'x, y, z'
loop_
 _atom_site_type_symbol
 _atom_site_label
 _atom_site_symmetry_multiplicity
 _atom_site_fract_x
 _atom_site_fract_y
 _atom_site_fract_z
 _atom_site_occupancy
  Li  Li0  1  0.07631910  0.09570849  0.69761848  1
  Li  Li1  1  0.07846281  0.70427050  0.75863454  1
  Li  Li2  1  0.21095506  0.77189848  0.17867118  1
  Li  Li3  1  0.29071157  0.27302757  0.32271539  1
  Li  Li4  1  0.42043766  0.20393349  0.74207893  1
  Li  Li5  1  0.42320938  0.59432305  0.80247306  1
  Li  Li6  1  0.57973648  0.40569525  0.19725913  1
  Li  Li7  1  0.58126419  0.79514610  0.25959879  1
  Li  Li8  1  0.70999153  0.72575260  0.67701330  1
  Li  Li9  1  0.78863490  0.22731589  0.82300958  1
  Li  Li10  1  0.91566240  0.29761271  0.24006903  1
  Li  Li11  1  0.92172661  0.90286333  0.30178063  1
  Mn  Mn12  1  0.25288583  0.95707113  0.38980091  1
  Mn  Mn13  1  0.74655850  0.04225165  0.61057575  1
  Mn  Mn14  1  0.75285487  0.54249366  0.88964728  1
  Mn  Mn15  1  0.75408365  0.46608010  0.39439637  1
  V  V16  1  0.24590372  0.53148781  0.61043714  1
  V  V17  1  0.24713224  0.45822551  0.11147091  1
  V  V18  1  0.25404927  0.03088461  0.89028487  1
  V  V19  1  0.74623560  0.96839541  0.10917950  1
  P  P20  1  0.03662298  0.25104405  0.49395428  1
  P  P21  1  0.10412040  0.38760059  0.85247390  1
  P  P22  1  0.10745265  0.09840974  0.15083273  1
  P  P23  1  0.39419484  0.88875342  0.64552266  1
  P  P24  1  0.39833839  0.59578721  0.35094644  1
  P  P25  1  0.46092353  0.74704464  0.00671111  1
  P  P26  1  0.53863045  0.24992552  0.99492823  1
  P  P27  1  0.60449860  0.40300780  0.65488431  1
  P  P28  1  0.60643559  0.11240805  0.35508186  1
  P  P29  1  0.89307006  0.90318696  0.84799347  1
  P  P30  1  0.89388656  0.61191475  0.14238657  1
  P  P31  1  0.96012208  0.74838210  0.50509579  1
  O  O32  1  0.04952913  0.86385505  0.43269037  1
  O  O33  1  0.06585204  0.67222211  0.59278551  1
  O  O34  1  0.06881533  0.59400836  0.16508353  1
  O  O35  1  0.07233665  0.89965643  0.84613618  1
  O  O36  1  0.11204612  0.36030273  0.57712701  1
  O  O37  1  0.14691171  0.41358797  0.97299614  1
  O  O38  1  0.14859066  0.22235120  0.81868319  1
  O  O39  1  0.15440017  0.97479226  0.23973366  1
  O  O40  1  0.15783130  0.25986780  0.18792508  1
  O  O41  1  0.16204978  0.17197716  0.42868561  1
  O  O42  1  0.17182077  0.05019974  0.04252254  1
  O  O43  1  0.19207381  0.50855090  0.78271362  1
  O  O44  1  0.30635979  0.00846519  0.71478157  1
  O  O45  1  0.33142791  0.55052890  0.45965105  1
  O  O46  1  0.33310346  0.66457488  0.07044609  1
  O  O47  1  0.34985394  0.75548973  0.30971958  1
  O  O48  1  0.35125513  0.72349803  0.68055385  1
  O  O49  1  0.35228362  0.47230806  0.26348132  1
  O  O50  1  0.35675142  0.91144181  0.52309841  1
  O  O51  1  0.38369909  0.85796778  0.92476756  1
  O  O52  1  0.42513815  0.39861610  0.65652914  1
  O  O53  1  0.43068170  0.09488200  0.33404737  1
  O  O54  1  0.43362459  0.17197289  0.90728512  1
  O  O55  1  0.44937126  0.36276891  0.06652642  1
  O  O56  1  0.54946679  0.63470199  0.93443751  1
  O  O57  1  0.56442628  0.82555571  0.09428692  1
  O  O58  1  0.56996616  0.90694888  0.66641577  1
  O  O59  1  0.57882294  0.60158663  0.34901874  1
  O  O60  1  0.61313730  0.13843558  0.07817252  1
  O  O61  1  0.64297261  0.08996412  0.47754481  1
  O  O62  1  0.64920565  0.52752746  0.74350506  1
  O  O63  1  0.65060528  0.27814103  0.32030477  1
  O  O64  1  0.65257834  0.24269961  0.69368196  1
  O  O65  1  0.66718598  0.32915560  0.93193204  1
  O  O66  1  0.67129207  0.45305764  0.54800138  1
  O  O67  1  0.69414967  0.99260686  0.28562694  1
  O  O68  1  0.80376549  0.48993606  0.20678037  1
  O  O69  1  0.82716292  0.95064189  0.95625216  1
  O  O70  1  0.83248287  0.82747953  0.56804993  1
  O  O71  1  0.84438628  0.74386738  0.80780502  1
  O  O72  1  0.84810596  0.02801145  0.75939407  1
  O  O73  1  0.85083397  0.77719163  0.17841692  1
  O  O74  1  0.86194819  0.59551669  0.01831659  1
  O  O75  1  0.88982346  0.63794749  0.41932917  1
  O  O76  1  0.92845229  0.10236554  0.15404305  1
  O  O77  1  0.92916219  0.40462362  0.83160317  1
  O  O78  1  0.93187696  0.33001813  0.40563408  1
  O  O79  1  0.94727229  0.13622730  0.56594902  1
