# generated using pymatgen
data_Li4Fe7(OF7)2
_symmetry_space_group_name_H-M   'P 1'
_cell_length_a   10.69874114
_cell_length_b   6.12352076
_cell_length_c   5.17677550
_cell_angle_alpha   88.88410751
_cell_angle_beta   89.28300693
_cell_angle_gamma   92.16350936
_symmetry_Int_Tables_number   1
_chemical_formula_structural   Li4Fe7(OF7)2
_chemical_formula_sum   'Li4 Fe7 O2 F14'
_cell_volume   338.81525268
_cell_formula_units_Z   1
loop_
 _symmetry_equiv_pos_site_id
 _symmetry_equiv_pos_as_xyz
  1  'x, y, z'
loop_
 _atom_site_type_symbol
 _atom_site_label
 _atom_site_symmetry_multiplicity
 _atom_site_fract_x
 _atom_site_fract_y
 _atom_site_fract_z
 _atom_site_occupancy
  Li  Li0  1  0.08378035  0.23136629  0.44667722  1
  Li  Li1  1  0.40356409  0.74748886  0.97317786  1
  Li  Li2  1  0.59643591  0.25251114  0.02682214  1
  Li  Li3  1  0.91621965  0.76863371  0.55332278  1
  Fe  Fe4  1  0.00000000  0.50000000  0.00000000  1
  Fe  Fe5  1  0.23826710  0.74746482  0.49376634  1
  Fe  Fe6  1  0.26218490  0.23841981  0.00417120  1
  Fe  Fe7  1  0.50000000  -0.00000000  0.50000000  1
  Fe  Fe8  1  0.50000000  0.50000000  0.50000000  1
  Fe  Fe9  1  0.73781510  0.76158019  0.99582880  1
  Fe  Fe10  1  0.76173290  0.25253518  0.50623366  1
  O  O11  1  0.41134824  0.74701667  0.33729521  1
  O  O12  1  0.58865176  0.25298333  0.66270479  1
  F  F13  1  0.07504411  0.72658960  0.69942692  1
  F  F14  1  0.08985924  0.26713068  0.80197413  1
  F  F15  1  0.17968505  0.02626889  0.27235166  1
  F  F16  1  0.16354990  0.48276582  0.24837949  1
  F  F17  1  0.33005572  0.50169492  0.78095469  1
  F  F18  1  0.32961359  0.98214148  0.77533657  1
  F  F19  1  0.43591567  0.25133154  0.20743354  1
  F  F20  1  0.56408433  0.74866846  0.79256646  1
  F  F21  1  0.67038641  0.01785852  0.22466343  1
  F  F22  1  0.66994428  0.49830508  0.21904531  1
  F  F23  1  0.83645010  0.51723418  0.75162051  1
  F  F24  1  0.82031495  0.97373111  0.72764834  1
  F  F25  1  0.91014076  0.73286932  0.19802587  1
  F  F26  1  0.92495589  0.27341040  0.30057308  1
