# generated using pymatgen
data_Li3MgTi8O16
_symmetry_space_group_name_H-M   'P 1'
_cell_length_a   5.98784794
_cell_length_b   5.98784794
_cell_length_c   12.05560523
_cell_angle_alpha   60.21902021
_cell_angle_beta   60.21902021
_cell_angle_gamma   60.00000000
_symmetry_Int_Tables_number   1
_chemical_formula_structural   Li3MgTi8O16
_chemical_formula_sum   'Li3 Mg1 Ti8 O16'
_cell_volume   306.65169414
_cell_formula_units_Z   1
loop_
 _symmetry_equiv_pos_site_id
 _symmetry_equiv_pos_as_xyz
  1  'x, y, z'
loop_
 _atom_site_type_symbol
 _atom_site_label
 _atom_site_symmetry_multiplicity
 _atom_site_fract_x
 _atom_site_fract_y
 _atom_site_fract_z
 _atom_site_occupancy
  Li  Li0  1  0.12361309  0.12361309  0.06458036  1
  Li  Li1  1  0.87920579  0.87920579  0.43119182  1
  Li  Li2  1  0.87308351  0.87308351  0.94037474  1
  Mg  Mg3  1  0.50271941  0.50271941  0.49592038  1
  Ti  Ti4  1  0.50469524  0.99270954  0.24894999  1
  Ti  Ti5  1  0.49797867  0.49797867  0.00303200  1
  Ti  Ti6  1  0.99270954  0.50469524  0.24894999  1
  Ti  Ti7  1  0.50469524  0.50469524  0.24894999  1
  Ti  Ti8  1  0.12388327  0.12388327  0.56417459  1
  Ti  Ti9  1  0.49960094  0.98838035  0.75620788  1
  Ti  Ti10  1  0.49960094  0.49960094  0.75620788  1
  Ti  Ti11  1  0.98838035  0.49960094  0.75620788  1
  O  O12  1  0.26351920  0.26351920  0.13164740  1
  O  O13  1  0.70966680  0.26351920  0.13164740  1
  O  O14  1  0.26351920  0.70966680  0.13164740  1
  O  O15  1  0.25424000  0.25424000  0.36864051  1
  O  O16  1  0.73985837  0.73985837  0.14021294  1
  O  O17  1  0.74458275  0.28738315  0.36172518  1
  O  O18  1  0.74458275  0.74458275  0.36172518  1
  O  O19  1  0.28738315  0.74458275  0.36172518  1
  O  O20  1  0.25268668  0.25268668  0.62950743  1
  O  O21  1  0.73561178  0.25268668  0.62950743  1
  O  O22  1  0.25268668  0.73561178  0.62950743  1
  O  O23  1  0.26462672  0.26462672  0.85306092  1
  O  O24  1  0.73719304  0.73719304  0.64420994  1
  O  O25  1  0.73825504  0.28316481  0.87016205  1
  O  O26  1  0.28316481  0.73825504  0.87016205  1
  O  O27  1  0.73825504  0.73825504  0.87016205  1
