# generated using pymatgen
data_Li2Cu4S3
_symmetry_space_group_name_H-M   'P 1'
_cell_length_a   3.79753890
_cell_length_b   7.65914753
_cell_length_c   10.03134058
_cell_angle_alpha   71.98068884
_cell_angle_beta   90.00000000
_cell_angle_gamma   75.64620463
_symmetry_Int_Tables_number   1
_chemical_formula_structural   Li2Cu4S3
_chemical_formula_sum   'Li4 Cu8 S6'
_cell_volume   267.86575171
_cell_formula_units_Z   2
loop_
 _symmetry_equiv_pos_site_id
 _symmetry_equiv_pos_as_xyz
  1  'x, y, z'
loop_
 _atom_site_type_symbol
 _atom_site_label
 _atom_site_symmetry_multiplicity
 _atom_site_fract_x
 _atom_site_fract_y
 _atom_site_fract_z
 _atom_site_occupancy
  Li  Li0  1  0.16451801  0.67096298  0.84921968  1
  Li  Li1  1  0.69158729  0.61682641  0.35224819  1
  Li  Li2  1  0.30841271  0.38317359  0.64775181  1
  Li  Li3  1  0.83548199  0.32903702  0.15078032  1
  Cu  Cu4  1  0.51518660  0.96962680  0.88193276  1
  Cu  Cu5  1  0.53052305  0.93895389  0.63545446  1
  Cu  Cu6  1  0.10108247  0.79783506  0.51358201  1
  Cu  Cu7  1  0.10132687  0.79734626  0.09945758  1
  Cu  Cu8  1  0.89867313  0.20265374  0.90054242  1
  Cu  Cu9  1  0.89891753  0.20216494  0.48641799  1
  Cu  Cu10  1  0.46947695  0.06104611  0.36454554  1
  Cu  Cu11  1  0.48481340  0.03037320  0.11806724  1
  S  S12  1  0.02991463  0.94017075  0.27460232  1
  S  S13  1  0.68199545  0.63600910  0.62217669  1
  S  S14  1  0.66151724  0.67696552  0.04331142  1
  S  S15  1  0.33848276  0.32303448  0.95668858  1
  S  S16  1  0.31800455  0.36399090  0.37782331  1
  S  S17  1  0.97008537  0.05982925  0.72539768  1
