# generated using pymatgen
data_Li3V24O58
_symmetry_space_group_name_H-M   'P 1'
_cell_length_a   14.48693781
_cell_length_b   7.35105868
_cell_length_c   10.33080600
_cell_angle_alpha   90.02251178
_cell_angle_beta   102.68294866
_cell_angle_gamma   82.75586256
_symmetry_Int_Tables_number   1
_chemical_formula_structural   Li3V24O58
_chemical_formula_sum   'Li3 V24 O58'
_cell_volume   1064.33706148
_cell_formula_units_Z   1
loop_
 _symmetry_equiv_pos_site_id
 _symmetry_equiv_pos_as_xyz
  1  'x, y, z'
loop_
 _atom_site_type_symbol
 _atom_site_label
 _atom_site_symmetry_multiplicity
 _atom_site_fract_x
 _atom_site_fract_y
 _atom_site_fract_z
 _atom_site_occupancy
  Li  Li0  1  0.01576954  0.98897756  0.34334268  1
  Li  Li1  1  0.47709149  0.13158010  0.47779129  1
  Li  Li2  1  0.98182356  0.51390183  0.65367226  1
  V  V3  1  0.17194481  0.20995042  0.85836019  1
  V  V4  1  0.16819703  0.70571662  0.85622658  1
  V  V5  1  0.12550234  0.46960250  0.08365985  1
  V  V6  1  0.12912933  0.96749030  0.08816604  1
  V  V7  1  0.21773191  0.19400513  0.53631263  1
  V  V8  1  0.21818738  0.69716365  0.53347884  1
  V  V9  1  0.29513587  0.92824668  0.33991194  1
  V  V10  1  0.29447264  0.42442301  0.34125167  1
  V  V11  1  0.39510152  0.15114897  0.78752433  1
  V  V12  1  0.38945691  0.65273492  0.78735026  1
  V  V13  1  0.35410889  0.41285805  0.02320166  1
  V  V14  1  0.35737046  0.91038493  0.02339098  1
  V  V15  1  0.64386203  0.08843459  0.97596790  1
  V  V16  1  0.64462215  0.59012799  0.97284019  1
  V  V17  1  0.60726079  0.34808945  0.21168477  1
  V  V18  1  0.60852524  0.84787619  0.21067172  1
  V  V19  1  0.70811374  0.07311917  0.66219343  1
  V  V20  1  0.70273927  0.57384105  0.65733381  1
  V  V21  1  0.78188120  0.30551402  0.46535222  1
  V  V22  1  0.78245665  0.80278022  0.46612381  1
  V  V23  1  0.87896300  0.02939002  0.91549019  1
  V  V24  1  0.87654814  0.53108997  0.92108121  1
  V  V25  1  0.82742267  0.28984237  0.14174584  1
  V  V26  1  0.83043431  0.79548795  0.14337501  1
  O  O27  1  0.06685636  0.25490483  0.76120808  1
  O  O28  1  0.06405140  0.70121458  0.75502732  1
  O  O29  1  0.99858893  0.00040685  0.99588766  1
  O  O30  1  0.99814869  0.49929568  0.00081405  1
  O  O31  1  0.10266092  0.21232510  0.49595845  1
  O  O32  1  0.10326488  0.73652132  0.49411706  1
  O  O33  1  0.20418182  0.44198609  0.90375760  1
  O  O34  1  0.19760741  0.95804897  0.90566418  1
  O  O35  1  0.12178881  0.47044653  0.24009544  1
  O  O36  1  0.12051573  0.97055174  0.24683974  1
  O  O37  1  0.13967852  0.22253612  0.03569441  1
  O  O38  1  0.13924863  0.70769558  0.03684268  1
  O  O39  1  0.24580407  0.18745924  0.71921720  1
  O  O40  1  0.24901768  0.68933475  0.71634498  1
  O  O41  1  0.24582373  0.43853571  0.51072008  1
  O  O42  1  0.25032564  0.93772327  0.51239685  1
  O  O43  1  0.32855029  0.66138277  0.98206626  1
  O  O44  1  0.33710740  0.17227256  0.97555635  1
  O  O45  1  0.26059262  0.18633289  0.36394622  1
  O  O46  1  0.26841046  0.68164011  0.36678031  1
  O  O47  1  0.27993385  0.42711985  0.15854178  1
  O  O48  1  0.27832376  0.93183753  0.16166524  1
  O  O49  1  0.38833871  0.41226515  0.84333127  1
  O  O50  1  0.38697137  0.89420669  0.84308699  1
  O  O51  1  0.40237063  0.15051935  0.62988862  1
  O  O52  1  0.40709805  0.64774129  0.63864424  1
  O  O53  1  0.40922946  0.37878459  0.39033487  1
  O  O54  1  0.40994693  0.91903042  0.38992864  1
  O  O55  1  0.53097025  0.11593057  0.87934867  1
  O  O56  1  0.53287533  0.61956186  0.88071894  1
  O  O57  1  0.46504897  0.38607668  0.11822927  1
  O  O58  1  0.46943965  0.88159031  0.11965669  1
  O  O59  1  0.58906139  0.60285707  0.61056226  1
  O  O60  1  0.59300606  0.10109429  0.60942016  1
  O  O61  1  0.59732966  0.34054133  0.36630633  1
  O  O62  1  0.59273617  0.85866539  0.36096153  1
  O  O63  1  0.61298529  0.08790582  0.15513268  1
  O  O64  1  0.61265779  0.60538744  0.15712526  1
  O  O65  1  0.72176384  0.07072432  0.83813713  1
  O  O66  1  0.71877155  0.56758150  0.84244102  1
  O  O67  1  0.73692553  0.31700829  0.63529741  1
  O  O68  1  0.73678566  0.81416151  0.63532145  1
  O  O69  1  0.66329501  0.34409880  0.02371954  1
  O  O70  1  0.67113956  0.82300755  0.01912446  1
  O  O71  1  0.75666972  0.06083871  0.48964270  1
  O  O72  1  0.74766327  0.56258155  0.48621973  1
  O  O73  1  0.75100577  0.81132864  0.28350077  1
  O  O74  1  0.75492375  0.31187773  0.28094791  1
  O  O75  1  0.85759244  0.78382911  0.96024247  1
  O  O76  1  0.85719759  0.28606201  0.96133546  1
  O  O77  1  0.88006091  0.03033559  0.75754163  1
  O  O78  1  0.88049792  0.52895683  0.76172523  1
  O  O79  1  0.80776786  0.54081639  0.09920557  1
  O  O80  1  0.79329067  0.05916337  0.09081555  1
  O  O81  1  0.89699184  0.29161053  0.50617807  1
  O  O82  1  0.89750924  0.75880441  0.50577839  1
  O  O83  1  0.93517024  0.80142124  0.24294153  1
  O  O84  1  0.93296047  0.23968393  0.23726632  1
