# generated using pymatgen
data_Li2VFeO4
_symmetry_space_group_name_H-M   'P 1'
_cell_length_a   5.21152818
_cell_length_b   10.34410621
_cell_length_c   9.90957385
_cell_angle_alpha   16.66611003
_cell_angle_beta   29.74837808
_cell_angle_gamma   33.72197860
_symmetry_Int_Tables_number   1
_chemical_formula_structural   Li2VFeO4
_chemical_formula_sum   'Li2 V1 Fe1 O4'
_cell_volume   76.02084328
_cell_formula_units_Z   1
loop_
 _symmetry_equiv_pos_site_id
 _symmetry_equiv_pos_as_xyz
  1  'x, y, z'
loop_
 _atom_site_type_symbol
 _atom_site_label
 _atom_site_symmetry_multiplicity
 _atom_site_fract_x
 _atom_site_fract_y
 _atom_site_fract_z
 _atom_site_occupancy
  Li  Li0  1  0.00000000  -0.00000000  0.00000000  1
  Li  Li1  1  0.00000000  0.50000000  0.00000000  1
  V  V2  1  0.50000000  0.50000000  0.50000000  1
  Fe  Fe3  1  0.50000000  -0.00000000  0.50000000  1
  O  O4  1  0.24333209  0.00000000  0.24115546  1
  O  O5  1  0.25297099  0.50000000  0.23913730  1
  O  O6  1  0.75666791  1.00000000  0.75884454  1
  O  O7  1  0.74702901  0.50000000  0.76086270  1
