# generated using pymatgen
data_VHO3
_symmetry_space_group_name_H-M   'P 1'
_cell_length_a   5.04567107
_cell_length_b   8.77232234
_cell_length_c   7.99829465
_cell_angle_alpha   90.00000000
_cell_angle_beta   105.06245544
_cell_angle_gamma   90.00000000
_symmetry_Int_Tables_number   1
_chemical_formula_structural   VHO3
_chemical_formula_sum   'V6 H6 O18'
_cell_volume   341.85943413
_cell_formula_units_Z   6
loop_
 _symmetry_equiv_pos_site_id
 _symmetry_equiv_pos_as_xyz
  1  'x, y, z'
loop_
 _atom_site_type_symbol
 _atom_site_label
 _atom_site_symmetry_multiplicity
 _atom_site_fract_x
 _atom_site_fract_y
 _atom_site_fract_z
 _atom_site_occupancy
  V  V0  1  0.47558180  0.44134179  0.18282251  1
  V  V1  1  0.52441820  0.94134179  0.81717749  1
  V  V2  1  0.52712360  0.55277068  0.81830956  1
  V  V3  1  0.47287640  0.05277068  0.18169044  1
  V  V4  1  0.94309962  0.24666201  0.07532646  1
  V  V5  1  0.05690038  0.74666201  0.92467354  1
  H  H6  1  0.09581816  0.15738417  0.59203141  1
  H  H7  1  0.83677556  0.24321945  0.43476760  1
  H  H8  1  0.08805576  0.33983518  0.58267239  1
  H  H9  1  0.90418184  0.65738417  0.40796859  1
  H  H10  1  0.16322444  0.74321945  0.56523240  1
  H  H11  1  0.91194424  0.83983518  0.41732761  1
  O  O12  1  0.67759315  0.40632884  0.00275207  1
  O  O13  1  0.32240685  0.90632884  0.99724793  1
  O  O14  1  0.32577431  0.58884898  0.00001772  1
  O  O15  1  0.67422569  0.08884898  -0.00001772  1
  O  O16  1  0.16170174  0.39421857  0.22999328  1
  O  O17  1  0.83829826  0.89421857  0.77000672  1
  O  O18  1  0.84152235  0.59957306  0.77033203  1
  O  O19  1  0.15847765  0.09957306  0.22966797  1
  O  O20  1  0.64260431  0.24595616  0.25793841  1
  O  O21  1  0.35739569  0.74595616  0.74206159  1
  O  O22  1  0.11867928  0.24646583  0.93057490  1
  O  O23  1  0.88132072  0.74646583  0.06942510  1
  O  O24  1  0.64913010  0.54933449  0.34110508  1
  O  O25  1  0.35086990  0.04933449  0.65889492  1
  O  O26  1  0.35604184  0.44397392  0.66069096  1
  O  O27  1  0.64395816  0.94397392  0.33930904  1
  O  O28  1  0.96311290  0.24727586  0.56114049  1
  O  O29  1  0.03688710  0.74727586  0.43885951  1
