# generated using pymatgen
data_FeF3
_symmetry_space_group_name_H-M   'P 1'
_cell_length_a   5.23321605
_cell_length_b   5.23321623
_cell_length_c   6.98452373
_cell_angle_alpha   90.00000000
_cell_angle_beta   90.00000000
_cell_angle_gamma   119.99999891
_symmetry_Int_Tables_number   1
_chemical_formula_structural   FeF3
_chemical_formula_sum   'Fe3 F9'
_cell_volume   165.65508747
_cell_formula_units_Z   3
loop_
 _symmetry_equiv_pos_site_id
 _symmetry_equiv_pos_as_xyz
  1  'x, y, z'
loop_
 _atom_site_type_symbol
 _atom_site_label
 _atom_site_symmetry_multiplicity
 _atom_site_fract_x
 _atom_site_fract_y
 _atom_site_fract_z
 _atom_site_occupancy
  Fe  Fe0  1  0.66666700  0.33333300  0.33985763  1
  Fe  Fe1  1  -0.00000000  -0.00000000  -0.00000000  1
  Fe  Fe2  1  0.33333300  0.66666700  0.66014237  1
  F  F3  1  0.91430172  0.66962145  0.17394731  1
  F  F4  1  0.24468027  0.33037855  0.82605269  1
  F  F5  1  0.33037855  0.24468027  0.17394731  1
  F  F6  1  0.60958501  0.60958501  0.50000000  1
  F  F7  1  0.08569828  0.75531973  0.82605269  1
  F  F8  1  0.39041499  -0.00000000  0.50000000  1
  F  F9  1  0.75531973  0.08569828  0.17394731  1
  F  F10  1  0.00000000  0.39041499  0.50000000  1
  F  F11  1  0.66962145  0.91430172  0.82605269  1
