# generated using pymatgen
data_Li11Fe5(OF11)2
_symmetry_space_group_name_H-M   'P 1'
_cell_length_a   8.76569798
_cell_length_b   9.56349984
_cell_length_c   5.16196132
_cell_angle_alpha   90.59588162
_cell_angle_beta   89.57103508
_cell_angle_gamma   89.59906577
_symmetry_Int_Tables_number   1
_chemical_formula_structural   Li11Fe5(OF11)2
_chemical_formula_sum   'Li11 Fe5 O2 F22'
_cell_volume   432.68473321
_cell_formula_units_Z   1
loop_
 _symmetry_equiv_pos_site_id
 _symmetry_equiv_pos_as_xyz
  1  'x, y, z'
loop_
 _atom_site_type_symbol
 _atom_site_label
 _atom_site_symmetry_multiplicity
 _atom_site_fract_x
 _atom_site_fract_y
 _atom_site_fract_z
 _atom_site_occupancy
  Li  Li0  1  0.14219536  0.55845706  0.20688927  1
  Li  Li1  1  0.15516483  0.86299820  0.81200281  1
  Li  Li2  1  0.35887854  0.13831528  0.68713734  1
  Li  Li3  1  0.33541180  0.85582158  0.31503220  1
  Li  Li4  1  0.34809928  0.56454743  0.71330958  1
  Li  Li5  1  0.65368514  0.06040637  0.30762756  1
  Li  Li6  1  0.66599692  0.36728195  0.68850437  1
  Li  Li7  1  0.65692462  0.63980377  0.31209782  1
  Li  Li8  1  0.85136322  0.64532721  0.79863220  1
  Li  Li9  1  0.84049052  0.36534297  0.18319180  1
  Li  Li10  1  0.85220867  0.06154699  0.80523600  1
  Fe  Fe11  1  0.01495058  0.36703160  0.66632977  1
  Fe  Fe12  1  0.13651954  0.13649814  0.18452030  1
  Fe  Fe13  1  0.48457468  0.36631520  0.18559670  1
  Fe  Fe14  1  0.52013004  0.86448883  0.81984694  1
  Fe  Fe15  1  0.97330287  0.86319656  0.29271917  1
  O  O16  1  0.01059660  0.26196286  0.35781032  1
  O  O17  1  0.01669910  0.99490437  0.02584776  1
  F  F18  1  0.17267461  0.23978231  0.84802434  1
  F  F19  1  0.16931369  0.49925028  0.55294892  1
  F  F20  1  0.16947291  0.98939405  0.46638075  1
  F  F21  1  0.15613171  0.75393682  0.15632581  1
  F  F22  1  0.34527624  0.76213682  0.66362174  1
  F  F23  1  0.34338881  0.98678491  0.97780811  1
  F  F24  1  0.32978083  0.48840093  0.05280672  1
  F  F25  1  0.33656879  0.22941266  0.33275901  1
  F  F26  1  0.49136464  0.98720118  0.51802660  1
  F  F27  1  0.50008447  0.26161366  0.86624843  1
  F  F28  1  0.50054805  0.75747322  0.13143848  1
  F  F29  1  0.50747721  0.48628252  0.49463146  1
  F  F30  1  0.66141467  0.73869820  0.65282881  1
  F  F31  1  0.66529641  0.99336992  0.96248022  1
  F  F32  1  0.65374268  0.47992039  0.03824334  1
  F  F33  1  0.65250536  0.25806600  0.34495424  1
  F  F34  1  0.84501153  0.26136281  0.84045065  1
  F  F35  1  0.83794785  0.48626857  0.52984710  1
  F  F36  1  0.82936224  0.98809752  0.46867766  1
  F  F37  1  0.82999604  0.73603096  0.14213771  1
  F  F38  1  0.98675425  0.49071657  0.97943402  1
  F  F39  1  0.99868969  0.76355336  0.61759496  1
