# generated using pymatgen
data_BaYF5
_symmetry_space_group_name_H-M   'P 1'
_cell_length_a   11.28106737
_cell_length_b   7.69686300
_cell_length_c   11.04588935
_cell_angle_alpha   90.00000000
_cell_angle_beta   87.22889745
_cell_angle_gamma   90.00000000
_symmetry_Int_Tables_number   1
_chemical_formula_structural   BaYF5
_chemical_formula_sum   'Ba8 Y8 F40'
_cell_volume   957.98012158
_cell_formula_units_Z   8
loop_
 _symmetry_equiv_pos_site_id
 _symmetry_equiv_pos_as_xyz
  1  'x, y, z'
loop_
 _atom_site_type_symbol
 _atom_site_label
 _atom_site_symmetry_multiplicity
 _atom_site_fract_x
 _atom_site_fract_y
 _atom_site_fract_z
 _atom_site_occupancy
  Ba  Ba0  1  0.19660088  0.75090645  0.83832342  1
  Ba  Ba1  1  0.29724328  0.74936466  0.46730798  1
  Ba  Ba2  1  0.30339912  0.25090645  0.66167658  1
  Ba  Ba3  1  0.20275672  0.24936466  0.03269202  1
  Ba  Ba4  1  0.79724328  0.75063534  0.96730798  1
  Ba  Ba5  1  0.69660088  0.74909355  0.33832342  1
  Ba  Ba6  1  0.70275672  0.25063534  0.53269202  1
  Ba  Ba7  1  0.80339912  0.24909355  0.16167658  1
  Y  Y8  1  0.97511062  0.25486280  0.78370434  1
  Y  Y9  1  0.10016714  0.24665163  0.38130218  1
  Y  Y10  1  0.39983286  0.74665163  0.11869782  1
  Y  Y11  1  0.52488938  0.75486280  0.71629566  1
  Y  Y12  1  0.47511062  0.24513720  0.28370434  1
  Y  Y13  1  0.60016714  0.25334837  0.88130218  1
  Y  Y14  1  0.89983286  0.75334837  0.61869782  1
  Y  Y15  1  0.02488938  0.74513720  0.21629566  1
  F  F16  1  0.03562166  0.25519531  0.59102380  1
  F  F17  1  0.03122386  0.74957870  0.01730485  1
  F  F18  1  0.09554151  0.75136696  0.62074488  1
  F  F19  1  0.14110415  0.41698061  0.81713425  1
  F  F20  1  0.07411551  0.44549280  0.23062281  1
  F  F21  1  0.07651248  0.03648440  0.23904735  1
  F  F22  1  0.13915733  0.08542936  0.81824757  1
  F  F23  1  0.21143787  0.43842548  0.46901430  1
  F  F24  1  0.21107701  0.06029394  0.47502637  1
  F  F25  1  0.22004403  0.74041991  0.24193909  1
  F  F26  1  0.36084267  0.58542936  0.68175243  1
  F  F27  1  0.27995597  0.24041991  0.25806091  1
  F  F28  1  0.28892299  0.56029394  0.02497363  1
  F  F29  1  0.28856213  0.93842548  0.03098570  1
  F  F30  1  0.35889585  0.91698061  0.68286575  1
  F  F31  1  0.40445849  0.25136696  0.87925512  1
  F  F32  1  0.42348752  0.53648440  0.26095265  1
  F  F33  1  0.42588449  0.94549280  0.26937719  1
  F  F34  1  0.46437834  0.75519531  0.90897620  1
  F  F35  1  0.46877614  0.24957870  0.48269515  1
  F  F36  1  0.53122386  0.75042130  0.51730485  1
  F  F37  1  0.53562166  0.24480469  0.09102380  1
  F  F38  1  0.57411551  0.05450720  0.73062281  1
  F  F39  1  0.57651248  0.46351560  0.73904735  1
  F  F40  1  0.59554151  0.74863304  0.12074488  1
  F  F41  1  0.64110415  0.08301939  0.31713425  1
  F  F42  1  0.71143787  0.06157452  0.96901430  1
  F  F43  1  0.71107701  0.43970606  0.97502637  1
  F  F44  1  0.72004403  0.75958009  0.74193909  1
  F  F45  1  0.63915733  0.41457064  0.31824757  1
  F  F46  1  0.77995597  0.25958009  0.75806091  1
  F  F47  1  0.78892299  0.93970606  0.52497363  1
  F  F48  1  0.78856213  0.56157452  0.53098570  1
  F  F49  1  0.86084267  0.91457064  0.18175243  1
  F  F50  1  0.92348752  0.96351560  0.76095265  1
  F  F51  1  0.92588449  0.55450720  0.76937719  1
  F  F52  1  0.85889585  0.58301939  0.18286575  1
  F  F53  1  0.90445849  0.24863304  0.37925512  1
  F  F54  1  0.96877614  0.25042130  0.98269515  1
  F  F55  1  0.96437834  0.74480469  0.40897620  1
