# generated using pymatgen
data_Cu3O4
_symmetry_space_group_name_H-M   'P 1'
_cell_length_a   5.95500723
_cell_length_b   6.09872292
_cell_length_c   5.95500709
_cell_angle_alpha   59.12063158
_cell_angle_beta   103.09626160
_cell_angle_gamma   120.87936849
_symmetry_Int_Tables_number   1
_chemical_formula_structural   Cu3O4
_chemical_formula_sum   'Cu6 O8'
_cell_volume   159.10638923
_cell_formula_units_Z   2
loop_
 _symmetry_equiv_pos_site_id
 _symmetry_equiv_pos_as_xyz
  1  'x, y, z'
loop_
 _atom_site_type_symbol
 _atom_site_label
 _atom_site_symmetry_multiplicity
 _atom_site_fract_x
 _atom_site_fract_y
 _atom_site_fract_z
 _atom_site_occupancy
  Cu  Cu0  1  -0.00000000  -0.00000000  0.00000000  1
  Cu  Cu1  1  0.50000000  -0.00000000  0.00000000  1
  Cu  Cu2  1  -0.00000000  0.50000000  0.00000000  1
  Cu  Cu3  1  0.50000000  -0.00000000  0.50000000  1
  Cu  Cu4  1  0.50000000  0.50000000  0.00000000  1
  Cu  Cu5  1  0.50000000  0.50000000  0.50000000  1
  O  O6  1  0.31280983  0.06410535  0.18703410  1
  O  O7  1  0.66446140  0.90839029  0.34652467  1
  O  O8  1  0.31296590  0.56410535  0.18719017  1
  O  O9  1  0.84652467  0.59160971  0.16446140  1
  O  O10  1  0.15347533  0.40839029  0.83553860  1
  O  O11  1  0.68703410  0.43589465  0.81280983  1
  O  O12  1  0.33553860  0.09160971  0.65347533  1
  O  O13  1  0.68719017  0.93589465  0.81296590  1
