# generated using pymatgen
data_Mn9(Si2O9)2
_symmetry_space_group_name_H-M   'P 1'
_cell_length_a   4.91547893
_cell_length_b   10.61223580
_cell_length_c   28.42706212
_cell_angle_alpha   90.00000000
_cell_angle_beta   90.00000000
_cell_angle_gamma   90.00000000
_symmetry_Int_Tables_number   1
_chemical_formula_structural   Mn9(Si2O9)2
_chemical_formula_sum   'Mn36 Si16 O72'
_cell_volume   1482.87556431
_cell_formula_units_Z   4
loop_
 _symmetry_equiv_pos_site_id
 _symmetry_equiv_pos_as_xyz
  1  'x, y, z'
loop_
 _atom_site_type_symbol
 _atom_site_label
 _atom_site_symmetry_multiplicity
 _atom_site_fract_x
 _atom_site_fract_y
 _atom_site_fract_z
 _atom_site_occupancy
  Mn  Mn0  1  0.50081473  0.87500040  0.24947662  1
  Mn  Mn1  1  0.49918527  0.12499960  0.74947662  1
  Mn  Mn2  1  0.00081473  0.62499960  0.74947662  1
  Mn  Mn3  1  0.99918527  0.37500040  0.24947662  1
  Mn  Mn4  1  0.49302512  0.87869500  0.13600323  1
  Mn  Mn5  1  0.50697488  0.12130500  0.63600323  1
  Mn  Mn6  1  0.99302512  0.62130500  0.63600323  1
  Mn  Mn7  1  0.00697488  0.37869500  0.13600323  1
  Mn  Mn8  1  0.52044681  0.87217469  0.36419603  1
  Mn  Mn9  1  0.47955319  0.12782531  0.86419603  1
  Mn  Mn10  1  0.02044681  0.62782531  0.86419603  1
  Mn  Mn11  1  0.97955319  0.37217469  0.36419603  1
  Mn  Mn12  1  0.46779157  0.59190969  0.07861843  1
  Mn  Mn13  1  0.53220843  0.40809031  0.57861843  1
  Mn  Mn14  1  0.96779157  0.90809031  0.57861843  1
  Mn  Mn15  1  0.03220843  0.09190969  0.07861843  1
  Mn  Mn16  1  0.53442435  0.15326531  0.41582477  1
  Mn  Mn17  1  0.46557565  0.84673469  0.91582477  1
  Mn  Mn18  1  0.03442435  0.34673469  0.91582477  1
  Mn  Mn19  1  0.96557565  0.65326531  0.41582477  1
  Mn  Mn20  1  0.51537534  0.15660601  0.19248642  1
  Mn  Mn21  1  0.48462466  0.84339399  0.69248642  1
  Mn  Mn22  1  0.01537534  0.34339399  0.69248642  1
  Mn  Mn23  1  0.98462466  0.65660601  0.19248642  1
  Mn  Mn24  1  0.47759958  0.59279524  0.30695849  1
  Mn  Mn25  1  0.52240042  0.40720476  0.80695849  1
  Mn  Mn26  1  0.97759958  0.90720476  0.80695849  1
  Mn  Mn27  1  0.02240042  0.09279524  0.30695849  1
  Mn  Mn28  1  0.48699013  0.86826119  0.02289243  1
  Mn  Mn29  1  0.51300987  0.13173881  0.52289243  1
  Mn  Mn30  1  0.98699013  0.63173881  0.52289243  1
  Mn  Mn31  1  0.01300987  0.36826119  0.02289243  1
  Mn  Mn32  1  0.52577970  0.86696805  0.47938537  1
  Mn  Mn33  1  0.47422030  0.13303195  0.97938537  1
  Mn  Mn34  1  0.02577970  0.63303195  0.97938537  1
  Mn  Mn35  1  0.97422030  0.36696805  0.47938537  1
  Si  Si36  1  0.42793053  0.47261456  0.19332289  1
  Si  Si37  1  0.57206947  0.52738544  0.69332289  1
  Si  Si38  1  0.92793053  0.02738544  0.69332289  1
  Si  Si39  1  0.07206947  0.97261456  0.19332289  1
  Si  Si40  1  0.56955957  0.27721946  0.30458527  1
  Si  Si41  1  0.43044043  0.72278054  0.80458527  1
  Si  Si42  1  0.06955957  0.22278054  0.80458527  1
  Si  Si43  1  0.93044043  0.77721946  0.30458527  1
  Si  Si44  1  0.39413857  0.46404652  0.42137210  1
  Si  Si45  1  0.60586143  0.53595348  0.92137210  1
  Si  Si46  1  0.89413857  0.03595348  0.92137210  1
  Si  Si47  1  0.10586143  0.96404652  0.42137210  1
  Si  Si48  1  0.58635645  0.28121172  0.08060258  1
  Si  Si49  1  0.41364355  0.71878828  0.58060258  1
  Si  Si50  1  0.08635645  0.21878828  0.58060258  1
  Si  Si51  1  0.91364355  0.78121172  0.08060258  1
  O  O52  1  0.76047412  0.46985119  0.19277468  1
  O  O53  1  0.23952588  0.53014881  0.69277468  1
  O  O54  1  0.26047412  0.03014881  0.69277468  1
  O  O55  1  0.73952588  0.96985119  0.19277468  1
  O  O56  1  0.23731595  0.27928787  0.30634035  1
  O  O57  1  0.76268405  0.72071213  0.80634035  1
  O  O58  1  0.73731595  0.22071213  0.80634035  1
  O  O59  1  0.26268405  0.77928787  0.30634035  1
  O  O60  1  0.28780102  0.32884750  0.19317676  1
  O  O61  1  0.71219898  0.67115250  0.69317676  1
  O  O62  1  0.78780102  0.17115250  0.69317676  1
  O  O63  1  0.21219898  0.82884750  0.19317676  1
  O  O64  1  0.70620571  0.42160747  0.30578317  1
  O  O65  1  0.29379429  0.57839253  0.80578317  1
  O  O66  1  0.20620571  0.07839253  0.80578317  1
  O  O67  1  0.79379429  0.92160747  0.30578317  1
  O  O68  1  0.29019617  0.54015186  0.14640649  1
  O  O69  1  0.70980383  0.45984814  0.64640649  1
  O  O70  1  0.79019617  0.95984814  0.64640649  1
  O  O71  1  0.20980383  0.04015186  0.14640649  1
  O  O72  1  0.71272295  0.20741233  0.35070492  1
  O  O73  1  0.28727705  0.79258767  0.85070492  1
  O  O74  1  0.21272295  0.29258767  0.85070492  1
  O  O75  1  0.78727705  0.70741233  0.35070492  1
  O  O76  1  0.28696681  0.54003219  0.23984222  1
  O  O77  1  0.71303319  0.45996781  0.73984222  1
  O  O78  1  0.78696681  0.95996781  0.73984222  1
  O  O79  1  0.21303319  0.04003219  0.23984222  1
  O  O80  1  0.71131257  0.21131903  0.25810040  1
  O  O81  1  0.28868743  0.78868097  0.75810040  1
  O  O82  1  0.21131257  0.28868097  0.75810040  1
  O  O83  1  0.78868743  0.71131903  0.25810040  1
  O  O84  1  0.25581575  0.28092921  0.08114057  1
  O  O85  1  0.74418425  0.71907079  0.58114057  1
  O  O86  1  0.75581575  0.21907079  0.58114057  1
  O  O87  1  0.24418425  0.78092921  0.08114057  1
  O  O88  1  0.72468331  0.46405517  0.41944094  1
  O  O89  1  0.27531669  0.53594483  0.91944094  1
  O  O90  1  0.22468331  0.03594483  0.91944094  1
  O  O91  1  0.77531669  0.96405517  0.41944094  1
  O  O92  1  0.72769449  0.42535416  0.07696957  1
  O  O93  1  0.27230551  0.57464584  0.57696957  1
  O  O94  1  0.22769449  0.07464484  0.57696957  1
  O  O95  1  0.77230551  0.92535416  0.07696957  1
  O  O96  1  0.25207594  0.31896015  0.42252112  1
  O  O97  1  0.74792406  0.68103985  0.92252112  1
  O  O98  1  0.75207594  0.18103985  0.92252112  1
  O  O99  1  0.24792406  0.81896015  0.42252112  1
  O  O100  1  0.72315829  0.21687259  0.12783821  1
  O  O101  1  0.27684171  0.78312741  0.62783821  1
  O  O102  1  0.22315829  0.28312741  0.62783821  1
  O  O103  1  0.77684171  0.71687259  0.12783821  1
  O  O104  1  0.26449538  0.53214524  0.37341635  1
  O  O105  1  0.73550462  0.46785476  0.87341635  1
  O  O106  1  0.76449538  0.96785476  0.87341635  1
  O  O107  1  0.23550462  0.03214524  0.37341635  1
  O  O108  1  0.74610678  0.21617936  0.03462205  1
  O  O109  1  0.25389322  0.78382064  0.53462205  1
  O  O110  1  0.24610678  0.28382064  0.53462205  1
  O  O111  1  0.75389322  0.71617936  0.03462205  1
  O  O112  1  0.22109592  0.52589295  0.46610874  1
  O  O113  1  0.77890408  0.47410705  0.96610874  1
  O  O114  1  0.72109592  0.97410705  0.96610874  1
  O  O115  1  0.27890408  0.02589295  0.46610874  1
  O  O116  1  0.79916386  0.46973900  0.52682200  1
  O  O117  1  0.20083614  0.53026100  0.02682200  1
  O  O118  1  0.29916386  0.03026100  0.02682200  1
  O  O119  1  0.70083614  0.96973900  0.52682200  1
  O  O120  1  0.76583897  0.71887878  0.47556784  1
  O  O121  1  0.23416103  0.28112122  0.97556784  1
  O  O122  1  0.26583897  0.78112122  0.97556784  1
  O  O123  1  0.73416103  0.21887878  0.47556784  1
