# generated using pymatgen
data_Ba2(CuO2)3
_symmetry_space_group_name_H-M   'P 1'
_cell_length_a   4.49436634
_cell_length_b   5.40133112
_cell_length_c   11.63852484
_cell_angle_alpha   84.58795692
_cell_angle_beta   93.24900408
_cell_angle_gamma   126.93438709
_symmetry_Int_Tables_number   1
_chemical_formula_structural   Ba2(CuO2)3
_chemical_formula_sum   'Ba2 Cu3 O6'
_cell_volume   224.82769449
_cell_formula_units_Z   1
loop_
 _symmetry_equiv_pos_site_id
 _symmetry_equiv_pos_as_xyz
  1  'x, y, z'
loop_
 _atom_site_type_symbol
 _atom_site_label
 _atom_site_symmetry_multiplicity
 _atom_site_fract_x
 _atom_site_fract_y
 _atom_site_fract_z
 _atom_site_occupancy
  Ba  Ba0  1  0.98670742  0.04755710  0.25073591  1
  Ba  Ba1  1  0.98670742  0.93915033  0.74926409  1
  Cu  Cu2  1  0.46812059  0.73406030  0.50000000  1
  Cu  Cu3  1  0.44501579  0.72250790  1.00000000  1
  Cu  Cu4  1  0.51524562  0.25762281  0.50000000  1
  O  O5  1  0.49060207  0.01796485  0.39050383  1
  O  O6  1  0.49060207  0.47263722  0.60949617  1
  O  O7  1  0.48314550  0.92105409  0.86905863  1
  O  O8  1  0.48314550  0.56209142  0.13094137  1
  O  O9  1  0.49205400  0.97306873  0.60625921  1
  O  O10  1  0.49205400  0.51898528  0.39374079  1
