# generated using pymatgen
data_EuH2
_symmetry_space_group_name_H-M   'P 1'
_cell_length_a   5.47575760
_cell_length_b   3.95895128
_cell_length_c   6.93341510
_cell_angle_alpha   90.00000000
_cell_angle_beta   90.00000000
_cell_angle_gamma   90.00000000
_symmetry_Int_Tables_number   1
_chemical_formula_structural   EuH2
_chemical_formula_sum   'Eu4 H8'
_cell_volume   150.30435830
_cell_formula_units_Z   4
loop_
 _symmetry_equiv_pos_site_id
 _symmetry_equiv_pos_as_xyz
  1  'x, y, z'
loop_
 _atom_site_type_symbol
 _atom_site_label
 _atom_site_symmetry_multiplicity
 _atom_site_fract_x
 _atom_site_fract_y
 _atom_site_fract_z
 _atom_site_occupancy
  Eu  Eu0  1  0.75079856  0.25000000  0.41465621  1
  Eu  Eu1  1  0.25079856  0.25000000  0.08534379  1
  Eu  Eu2  1  0.24920144  0.75000000  0.58534379  1
  Eu  Eu3  1  0.74920144  0.75000000  0.91465621  1
  H  H4  1  0.74377404  0.25000000  0.08137732  1
  H  H5  1  0.24377404  0.25000000  0.41862268  1
  H  H6  1  0.25622596  0.75000000  0.91862268  1
  H  H7  1  0.75622596  0.75000000  0.58137732  1
  H  H8  1  0.50140587  0.25000000  0.74752512  1
  H  H9  1  0.00140587  0.25000000  0.75247488  1
  H  H10  1  0.49859413  0.75000000  0.25247488  1
  H  H11  1  0.99859413  0.75000000  0.24752512  1
