# generated using pymatgen
data_Li2Cu3F11
_symmetry_space_group_name_H-M   'P 1'
_cell_length_a   18.25960399
_cell_length_b   7.33644442
_cell_length_c   6.25774837
_cell_angle_alpha   90.00000000
_cell_angle_beta   93.55051970
_cell_angle_gamma   90.00000000
_symmetry_Int_Tables_number   1
_chemical_formula_structural   Li2Cu3F11
_chemical_formula_sum   'Li8 Cu12 F44'
_cell_volume   836.68250585
_cell_formula_units_Z   4
loop_
 _symmetry_equiv_pos_site_id
 _symmetry_equiv_pos_as_xyz
  1  'x, y, z'
loop_
 _atom_site_type_symbol
 _atom_site_label
 _atom_site_symmetry_multiplicity
 _atom_site_fract_x
 _atom_site_fract_y
 _atom_site_fract_z
 _atom_site_occupancy
  Li  Li0  1  0.07244561  0.75000000  0.14372226  1
  Li  Li1  1  0.12572630  0.25000000  0.24152489  1
  Li  Li2  1  0.37322419  0.75000000  0.75916713  1
  Li  Li3  1  0.42691647  0.25000000  0.86102209  1
  Li  Li4  1  0.57308353  0.75000000  0.13897791  1
  Li  Li5  1  0.62677581  0.25000000  0.24083287  1
  Li  Li6  1  0.87427370  0.75000000  0.75847511  1
  Li  Li7  1  0.92755439  0.25000000  0.85627774  1
  Cu  Cu8  1  0.06104112  0.50106304  0.67862162  1
  Cu  Cu9  1  0.06104112  0.99893696  0.67862162  1
  Cu  Cu10  1  0.24923769  0.50025834  0.51300772  1
  Cu  Cu11  1  0.24923769  0.99974166  0.51300772  1
  Cu  Cu12  1  0.43653212  0.49777721  0.33353389  1
  Cu  Cu13  1  0.43653212  0.00222279  0.33353389  1
  Cu  Cu14  1  0.56346788  0.99777721  0.66646611  1
  Cu  Cu15  1  0.56346788  0.50222279  0.66646611  1
  Cu  Cu16  1  0.75076231  0.00025834  0.48699228  1
  Cu  Cu17  1  0.75076231  0.49974166  0.48699228  1
  Cu  Cu18  1  0.93895888  0.00106304  0.32137838  1
  Cu  Cu19  1  0.93895888  0.49893696  0.32137838  1
  F  F20  1  0.03219551  0.25000000  0.74720021  1
  F  F21  1  0.07450343  0.95824647  0.97126715  1
  F  F22  1  0.07450343  0.54175353  0.97126715  1
  F  F23  1  0.07821674  0.75000000  0.59916794  1
  F  F24  1  0.04723571  0.05056935  0.36784634  1
  F  F25  1  0.04723571  0.44943065  0.36784634  1
  F  F26  1  0.16230946  0.05092794  0.66267146  1
  F  F27  1  0.16230946  0.44907206  0.66267146  1
  F  F28  1  0.22085568  0.75000000  0.46917782  1
  F  F29  1  0.19853903  0.05610631  0.26340404  1
  F  F30  1  0.19853903  0.44389369  0.26340404  1
  F  F31  1  0.27679579  0.25000000  0.55783602  1
  F  F32  1  0.30042611  0.55684408  0.76117095  1
  F  F33  1  0.30042611  0.94315592  0.76117095  1
  F  F34  1  0.33666850  0.55620568  0.36580930  1
  F  F35  1  0.33666850  0.94379432  0.36580930  1
  F  F36  1  0.45595760  0.55616451  0.64072319  1
  F  F37  1  0.45595760  0.94383549  0.64072319  1
  F  F38  1  0.41695763  0.25000000  0.42597285  1
  F  F39  1  0.42126172  0.04705476  0.04333934  1
  F  F40  1  0.42126172  0.45294524  0.04333934  1
  F  F41  1  0.46602301  0.75000000  0.25600054  1
  F  F42  1  0.53397699  0.25000000  0.74399946  1
  F  F43  1  0.57873828  0.54705476  0.95666066  1
  F  F44  1  0.57873828  0.95294524  0.95666066  1
  F  F45  1  0.58304237  0.75000000  0.57402715  1
  F  F46  1  0.54404240  0.05616451  0.35927681  1
  F  F47  1  0.54404240  0.44383549  0.35927681  1
  F  F48  1  0.66333150  0.05620568  0.63419070  1
  F  F49  1  0.66333150  0.44379432  0.63419070  1
  F  F50  1  0.69957389  0.05684408  0.23882905  1
  F  F51  1  0.69957389  0.44315592  0.23882905  1
  F  F52  1  0.72320421  0.75000000  0.44216398  1
  F  F53  1  0.80146097  0.55610631  0.73659596  1
  F  F54  1  0.80146097  0.94389369  0.73659596  1
  F  F55  1  0.77914432  0.25000000  0.53082218  1
  F  F56  1  0.83769054  0.55092794  0.33732854  1
  F  F57  1  0.83769054  0.94907206  0.33732854  1
  F  F58  1  0.95276429  0.55056935  0.63215366  1
  F  F59  1  0.95276429  0.94943065  0.63215366  1
  F  F60  1  0.92178326  0.25000000  0.40083206  1
  F  F61  1  0.92549657  0.04175353  0.02873285  1
  F  F62  1  0.92549657  0.45824647  0.02873285  1
  F  F63  1  0.96780449  0.75000000  0.25279979  1
