# generated using pymatgen
data_EuY2O4
_symmetry_space_group_name_H-M   'P 1'
_cell_length_a   10.13962688
_cell_length_b   12.00462898
_cell_length_c   3.42186491
_cell_angle_alpha   89.97924737
_cell_angle_beta   90.02842016
_cell_angle_gamma   90.05306563
_symmetry_Int_Tables_number   1
_chemical_formula_structural   EuY2O4
_chemical_formula_sum   'Eu4 Y8 O16'
_cell_volume   416.51755260
_cell_formula_units_Z   4
loop_
 _symmetry_equiv_pos_site_id
 _symmetry_equiv_pos_as_xyz
  1  'x, y, z'
loop_
 _atom_site_type_symbol
 _atom_site_label
 _atom_site_symmetry_multiplicity
 _atom_site_fract_x
 _atom_site_fract_y
 _atom_site_fract_z
 _atom_site_occupancy
  Eu  Eu0  1  0.24445844  0.35157632  0.75509290  1
  Eu  Eu1  1  0.25327935  0.84912849  0.24860970  1
  Eu  Eu2  1  0.74588891  0.14904262  0.75557690  1
  Eu  Eu3  1  0.75437670  0.64931788  0.25612085  1
  Y  Y4  1  0.07437908  0.11320003  0.74945782  1
  Y  Y5  1  0.07863857  0.60939562  0.75447923  1
  Y  Y6  1  0.42062417  0.10920350  0.25145564  1
  Y  Y7  1  0.42662971  0.61257488  0.24973772  1
  Y  Y8  1  0.57346505  0.38631578  0.75121332  1
  Y  Y9  1  0.57941190  0.88998006  0.75454842  1
  Y  Y10  1  0.91923356  0.38971144  0.25276490  1
  Y  Y11  1  0.92602241  0.88701117  0.25163171  1
  O  O12  1  0.02033873  0.71707039  0.25334179  1
  O  O13  1  0.07928960  0.92306107  0.74998028  1
  O  O14  1  0.12372297  0.47645247  0.25432309  1
  O  O15  1  0.20952012  0.17706762  0.25045355  1
  O  O16  1  0.29098361  0.67356613  0.75005266  1
  O  O17  1  0.37409984  0.97664065  0.75254234  1
  O  O18  1  0.42011114  0.42243988  0.25230213  1
  O  O19  1  0.48376775  0.21478673  0.75137424  1
  O  O20  1  0.51810075  0.78339335  0.25454217  1
  O  O21  1  0.57968471  0.57681145  0.75196873  1
  O  O22  1  0.62635147  0.02208274  0.25453874  1
  O  O23  1  0.70799700  0.32424629  0.25187102  1
  O  O24  1  0.79113909  0.82355836  0.75228677  1
  O  O25  1  0.87376120  0.52290476  0.75258354  1
  O  O26  1  0.92179567  0.07670985  0.24926022  1
  O  O27  1  0.97901847  0.28260450  0.75339963  1
