# generated using pymatgen
data_Fe3O4
_symmetry_space_group_name_H-M   'P 1'
_cell_length_a   6.08817228
_cell_length_b   6.08913822
_cell_length_c   17.29273312
_cell_angle_alpha   90.00000000
_cell_angle_beta   90.00000000
_cell_angle_gamma   90.00000000
_symmetry_Int_Tables_number   1
_chemical_formula_structural   Fe3O4
_chemical_formula_sum   'Fe24 O32'
_cell_volume   641.07140384
_cell_formula_units_Z   8
loop_
 _symmetry_equiv_pos_site_id
 _symmetry_equiv_pos_as_xyz
  1  'x, y, z'
loop_
 _atom_site_type_symbol
 _atom_site_label
 _atom_site_symmetry_multiplicity
 _atom_site_fract_x
 _atom_site_fract_y
 _atom_site_fract_z
 _atom_site_occupancy
  Fe  Fe0  1  0.50650386  0.00000000  0.19004093  1
  Fe  Fe1  1  0.24563246  0.50000000  0.62377097  1
  Fe  Fe2  1  0.75445905  0.00000000  0.37536469  1
  Fe  Fe3  1  0.49349614  0.00000000  0.69004093  1
  Fe  Fe4  1  0.99801517  0.50000000  0.93680415  1
  Fe  Fe5  1  0.50731064  0.50000000  0.31486299  1
  Fe  Fe6  1  0.00198483  0.50000000  0.43680415  1
  Fe  Fe7  1  0.50024959  0.25105422  0.50129668  1
  Fe  Fe8  1  0.49268936  0.50000000  0.81486299  1
  Fe  Fe9  1  0.99910871  0.00000000  0.56170558  1
  Fe  Fe10  1  0.00839164  0.74656106  0.24943741  1
  Fe  Fe11  1  0.50024959  0.74894578  0.50129668  1
  Fe  Fe12  1  0.74180414  0.50000000  0.62196034  1
  Fe  Fe13  1  0.74150422  0.00000000  0.87736324  1
  Fe  Fe14  1  0.25819586  0.50000000  0.12196034  1
  Fe  Fe15  1  0.25849578  0.00000000  0.37736324  1
  Fe  Fe16  1  0.75436754  0.50000000  0.12377097  1
  Fe  Fe17  1  0.00089129  0.00000000  0.06170558  1
  Fe  Fe18  1  0.49975041  0.25105422  0.00129668  1
  Fe  Fe19  1  0.49975041  0.74894578  0.00129668  1
  Fe  Fe20  1  0.99160836  0.25343894  0.74943741  1
  Fe  Fe21  1  0.99160836  0.74656106  0.74943741  1
  Fe  Fe22  1  0.24554095  0.00000000  0.87536469  1
  Fe  Fe23  1  0.00839164  0.25343894  0.24943741  1
  O  O24  1  0.99585853  0.26299206  0.62857927  1
  O  O25  1  0.00577878  0.77427279  0.36551593  1
  O  O26  1  0.49454156  0.73423936  0.62910630  1
  O  O27  1  0.99422122  0.77427279  0.86551593  1
  O  O28  1  0.76149638  0.00000000  0.75161856  1
  O  O29  1  0.77132345  0.50000000  0.74218279  1
  O  O30  1  0.50633947  0.78023324  0.37508138  1
  O  O31  1  0.22867655  0.50000000  0.24218279  1
  O  O32  1  0.49366053  0.21976676  0.87508138  1
  O  O33  1  0.75230639  0.00000000  0.99497146  1
  O  O34  1  0.50633947  0.21976676  0.37508138  1
  O  O35  1  0.25188207  0.00000000  0.99526149  1
  O  O36  1  0.21511487  0.50000000  0.74215114  1
  O  O37  1  0.99585853  0.73700794  0.62857927  1
  O  O38  1  0.24769361  0.00000000  0.49497146  1
  O  O39  1  0.78488513  0.50000000  0.24215114  1
  O  O40  1  0.77488836  0.00000000  0.25166737  1
  O  O41  1  0.22511164  0.00000000  0.75166737  1
  O  O42  1  0.25458056  0.50000000  0.00995921  1
  O  O43  1  0.49454156  0.26576064  0.62910630  1
  O  O44  1  0.74811793  0.00000000  0.49526149  1
  O  O45  1  0.00414147  0.26299206  0.12857927  1
  O  O46  1  0.74541944  0.50000000  0.50995921  1
  O  O47  1  0.49366053  0.78023324  0.87508138  1
  O  O48  1  0.26341995  0.50000000  0.51048114  1
  O  O49  1  0.99422122  0.22572721  0.86551593  1
  O  O50  1  0.00577878  0.22572721  0.36551593  1
  O  O51  1  0.50545844  0.26576064  0.12910630  1
  O  O52  1  0.50545844  0.73423936  0.12910630  1
  O  O53  1  0.73658005  0.50000000  0.01048114  1
  O  O54  1  0.00414147  0.73700794  0.12857927  1
  O  O55  1  0.23850362  0.00000000  0.25161856  1
