# generated using pymatgen
data_Ca(H8O5)2
_symmetry_space_group_name_H-M   'P 1'
_cell_length_a   6.15433011
_cell_length_b   6.23708191
_cell_length_c   12.04696710
_cell_angle_alpha   99.01743007
_cell_angle_beta   91.99328124
_cell_angle_gamma   88.96083971
_symmetry_Int_Tables_number   1
_chemical_formula_structural   Ca(H8O5)2
_chemical_formula_sum   'Ca2 H32 O20'
_cell_volume   456.39429996
_cell_formula_units_Z   2
loop_
 _symmetry_equiv_pos_site_id
 _symmetry_equiv_pos_as_xyz
  1  'x, y, z'
loop_
 _atom_site_type_symbol
 _atom_site_label
 _atom_site_symmetry_multiplicity
 _atom_site_fract_x
 _atom_site_fract_y
 _atom_site_fract_z
 _atom_site_occupancy
  Ca  Ca0  1  0.98800104  0.97603145  0.54401851  1
  Ca  Ca1  1  0.01578021  0.97769558  0.00565895  1
  H  H2  1  0.29843089  0.36082036  0.36936772  1
  H  H3  1  0.05714773  0.25212913  0.35267414  1
  H  H4  1  0.91995748  0.65692252  0.34697263  1
  H  H5  1  0.69288703  0.63359634  0.41022158  1
  H  H6  1  0.74490615  0.05202876  0.35003328  1
  H  H7  1  0.68155724  0.29607260  0.40996817  1
  H  H8  1  0.27348792  0.89844976  0.33601476  1
  H  H9  1  0.35875491  0.72607666  0.41359084  1
  H  H10  1  0.95520685  0.27783532  0.85360124  1
  H  H11  1  0.70369381  0.33847129  0.89221426  1
  H  H12  1  0.29663556  0.58886369  0.90631004  1
  H  H13  1  0.12382220  0.62938937  0.80884804  1
  H  H14  1  0.27755714  0.04688775  0.79499971  1
  H  H15  1  0.35206620  0.25372562  0.88756265  1
  H  H16  1  0.62232851  0.91002867  0.85573351  1
  H  H17  1  0.63987046  0.67457992  0.89261207  1
  H  H18  1  0.81585529  0.72373207  0.72466115  1
  H  H19  1  0.71683611  0.61209832  0.60734851  1
  H  H20  1  0.27310706  0.38603021  0.58505788  1
  H  H21  1  0.02899936  0.45219511  0.61807540  1
  H  H22  1  0.37837382  0.73739778  0.62359373  1
  H  H23  1  0.44130057  0.98398669  0.64012755  1
  H  H24  1  0.71264602  0.18943952  0.71776056  1
  H  H25  1  0.60779909  0.28015466  0.60648573  1
  H  H26  1  0.29754292  0.65797575  0.10948482  1
  H  H27  1  0.05733073  0.60943006  0.13073226  1
  H  H28  1  0.90875405  0.32829428  0.18829779  1
  H  H29  1  0.74188681  0.40630279  0.09382240  1
  H  H30  1  0.64514641  0.75198505  0.09718343  1
  H  H31  1  0.57450023  0.99823233  0.11329271  1
  H  H32  1  0.28818313  0.19459312  0.18792376  1
  H  H33  1  0.39967737  0.29085818  0.08851716  1
  O  O34  1  0.50726104  0.49050595  0.43843444  1
  O  O35  1  0.51472139  0.48084233  0.93607164  1
  O  O36  1  0.49955144  0.50146732  0.56328071  1
  O  O37  1  0.52158764  0.50771816  0.06163844  1
  O  O38  1  0.18721835  0.28796345  0.31299714  1
  O  O39  1  0.81158328  0.73834451  0.39404494  1
  O  O40  1  0.80454744  0.18220081  0.39639623  1
  O  O41  1  0.27040446  0.86225029  0.41185858  1
  O  O42  1  0.80740480  0.22161133  0.85156811  1
  O  O43  1  0.14953021  0.65863278  0.89002265  1
  O  O44  1  0.24616255  0.13151248  0.86898631  1
  O  O45  1  0.72332032  0.78951693  0.85979468  1
  O  O46  1  0.85751967  0.68440268  0.64420995  1
  O  O47  1  0.12979760  0.32517116  0.60431151  1
  O  O48  1  0.31928401  0.88750098  0.65338380  1
  O  O49  1  0.66607159  0.14606396  0.63632322  1
  O  O50  1  0.15750907  0.73298971  0.13490680  1
  O  O51  1  0.89702587  0.34732954  0.10926858  1
  O  O52  1  0.70683021  0.90255883  0.11253665  1
  O  O53  1  0.34007472  0.15191915  0.10954067  1
