# generated using pymatgen
data_AlNi2As
_symmetry_space_group_name_H-M   'P 1'
_cell_length_a   3.64002528
_cell_length_b   3.64017189
_cell_length_c   4.89685924
_cell_angle_alpha   90.00000000
_cell_angle_beta   90.00000000
_cell_angle_gamma   59.99866771
_symmetry_Int_Tables_number   1
_chemical_formula_structural   AlNi2As
_chemical_formula_sum   'Al1 Ni2 As1'
_cell_volume   56.19125253
_cell_formula_units_Z   1
loop_
 _symmetry_equiv_pos_site_id
 _symmetry_equiv_pos_as_xyz
  1  'x, y, z'
loop_
 _atom_site_type_symbol
 _atom_site_label
 _atom_site_symmetry_multiplicity
 _atom_site_fract_x
 _atom_site_fract_y
 _atom_site_fract_z
 _atom_site_occupancy
  Al  Al0  1  0.33332784  0.33333608  0.75000000  1
  Ni  Ni1  1  0.00000086  0.99999957  0.49640317  1
  Ni  Ni2  1  0.00000086  0.99999957  0.00359683  1
  As  As3  1  0.66667044  0.66666478  0.25000000  1
