# generated using pymatgen
data_Mg16Al12Cd
_symmetry_space_group_name_H-M   'P 1'
_cell_length_a   9.21802874
_cell_length_b   9.10686252
_cell_length_c   9.10686267
_cell_angle_alpha   109.22262518
_cell_angle_beta   109.71868442
_cell_angle_gamma   109.71867862
_symmetry_Int_Tables_number   1
_chemical_formula_structural   Mg16Al12Cd
_chemical_formula_sum   'Mg16 Al12 Cd1'
_cell_volume   586.70299235
_cell_formula_units_Z   1
loop_
 _symmetry_equiv_pos_site_id
 _symmetry_equiv_pos_as_xyz
  1  'x, y, z'
loop_
 _atom_site_type_symbol
 _atom_site_label
 _atom_site_symmetry_multiplicity
 _atom_site_fract_x
 _atom_site_fract_y
 _atom_site_fract_z
 _atom_site_occupancy
  Mg  Mg0  1  0.31499216  0.60293505  0.99999900  1
  Mg  Mg1  1  0.00145116  0.00000000  1.00000000  1
  Mg  Mg2  1  0.00143072  0.34644533  0.00000000  1
  Mg  Mg3  1  0.59892902  0.30711632  0.00000100  1
  Mg  Mg4  1  0.68164453  0.68204252  0.28045626  1
  Mg  Mg5  1  0.59892902  0.00000100  0.30711632  1
  Mg  Mg6  1  0.99960201  0.59841474  0.31795848  1
  Mg  Mg7  1  0.00143072  0.99999900  0.34644433  1
  Mg  Mg8  1  0.71205712  0.39706395  0.39706495  1
  Mg  Mg9  1  0.40118826  0.71954474  0.40158726  1
  Mg  Mg10  1  0.99960201  0.31795848  0.59841474  1
  Mg  Mg11  1  0.31499116  0.99999900  0.60293505  1
  Mg  Mg12  1  0.65498539  0.65355367  0.65355267  1
  Mg  Mg13  1  0.68164453  0.28045726  0.68204252  1
  Mg  Mg14  1  0.29181371  0.69288468  0.69288368  1
  Mg  Mg15  1  0.40118826  0.40158726  0.71954474  1
  Al  Al16  1  0.81533081  0.62926692  0.99999900  1
  Al  Al17  1  0.63926919  0.81314041  -0.00000000  1
  Al  Al18  1  0.36628001  0.37115723  0.18399579  1
  Al  Al19  1  0.18228321  0.81600321  0.18715943  1
  Al  Al20  1  0.82612778  0.18685959  0.18685959  1
  Al  Al21  1  0.18606189  0.37073308  0.37073308  1
  Al  Al22  1  0.36628001  0.18399579  0.37115723  1
  Al  Al23  1  0.99512378  0.81283957  0.62884477  1
  Al  Al24  1  0.81533081  0.99999900  0.62926692  1
  Al  Al25  1  0.63926919  -0.00000000  0.81314041  1
  Al  Al26  1  0.99512378  0.62884377  0.81283957  1
  Al  Al27  1  0.18228321  0.18715943  0.81600321  1
  Cd  Cd28  1  0.33535555  0.00000000  0.00000000  1
