# generated using pymatgen
data_AlPH8(CCl)3
_symmetry_space_group_name_H-M   'P 1'
_cell_length_a   6.84508397
_cell_length_b   7.99351442
_cell_length_c   10.83302365
_cell_angle_alpha   90.00000000
_cell_angle_beta   90.00000000
_cell_angle_gamma   113.27565341
_symmetry_Int_Tables_number   1
_chemical_formula_structural   AlPH8(CCl)3
_chemical_formula_sum   'Al2 P2 H16 C6 Cl6'
_cell_volume   544.50199090
_cell_formula_units_Z   2
loop_
 _symmetry_equiv_pos_site_id
 _symmetry_equiv_pos_as_xyz
  1  'x, y, z'
loop_
 _atom_site_type_symbol
 _atom_site_label
 _atom_site_symmetry_multiplicity
 _atom_site_fract_x
 _atom_site_fract_y
 _atom_site_fract_z
 _atom_site_occupancy
  Al  Al0  1  0.40324249  0.92310604  0.74978068  1
  Al  Al1  1  0.59675751  0.07689396  0.24978068  1
  P  P2  1  0.42479099  0.23479307  0.74862279  1
  P  P3  1  0.57520901  0.76520693  0.24862279  1
  H  H4  1  0.36719362  0.25634450  0.53124947  1
  H  H5  1  0.63280638  0.74365550  0.03124947  1
  H  H6  1  0.62883805  0.74154638  0.46816963  1
  H  H7  1  0.37116195  0.25845362  0.96816963  1
  H  H8  1  0.12185581  0.19339856  0.61465619  1
  H  H9  1  0.87814419  0.80660144  0.11465619  1
  H  H10  1  0.87028015  0.80295636  0.38336415  1
  H  H11  1  0.12971985  0.19704364  0.88336415  1
  H  H12  1  0.31534810  0.42533844  0.61842804  1
  H  H13  1  0.68465190  0.57466156  0.11842804  1
  H  H14  1  0.68158825  0.57174662  0.38154767  1
  H  H15  1  0.31841175  0.42825338  0.88154767  1
  H  H16  1  0.72148239  0.54262256  0.76601406  1
  H  H17  1  0.27851761  0.45737744  0.26601406  1
  H  H18  1  0.80235585  0.37910361  0.67709566  1
  H  H19  1  0.19764415  0.62089639  0.17709566  1
  C  C20  1  0.29264926  0.28147881  0.61464425  1
  C  C21  1  0.70735074  0.71852119  0.11464425  1
  C  C22  1  0.69962223  0.71450770  0.38378791  1
  C  C23  1  0.30037777  0.28549230  0.88378791  1
  C  C24  1  0.68640079  0.40354964  0.73505374  1
  C  C25  1  0.31359921  0.59645036  0.23505374  1
  Cl  Cl26  1  0.71856135  0.92640342  0.74999047  1
  Cl  Cl27  1  0.28143865  0.07359658  0.24999047  1
  Cl  Cl28  1  0.23084329  0.79328930  0.58709752  1
  Cl  Cl29  1  0.76915671  0.20671070  0.08709752  1
  Cl  Cl30  1  0.76938112  0.20617877  0.41279777  1
  Cl  Cl31  1  0.23061888  0.79382123  0.91279777  1
