# generated using pymatgen
data_Mg5In
_symmetry_space_group_name_H-M   'P 1'
_cell_length_a   3.22698112
_cell_length_b   6.13750822
_cell_length_c   7.52103080
_cell_angle_alpha   75.38504339
_cell_angle_beta   89.99999998
_cell_angle_gamma   105.24163533
_symmetry_Int_Tables_number   1
_chemical_formula_structural   Mg5In
_chemical_formula_sum   'Mg5 In1'
_cell_volume   138.71744890
_cell_formula_units_Z   1
loop_
 _symmetry_equiv_pos_site_id
 _symmetry_equiv_pos_as_xyz
  1  'x, y, z'
loop_
 _atom_site_type_symbol
 _atom_site_label
 _atom_site_symmetry_multiplicity
 _atom_site_fract_x
 _atom_site_fract_y
 _atom_site_fract_z
 _atom_site_occupancy
  Mg  Mg0  1  0.00065778  0.00131457  0.00190925  1
  Mg  Mg1  1  0.72125277  0.44250454  0.05682279  1
  Mg  Mg2  1  0.33228266  0.66456532  0.33174303  1
  Mg  Mg3  1  0.05597965  0.11195830  0.38848675  1
  Mg  Mg4  1  0.66709228  0.33418356  0.66628784  1
  In  In5  1  0.38940385  0.77880670  0.72141734  1
