# generated using pymatgen
data_Mg16Al12Zn
_symmetry_space_group_name_H-M   'P 1'
_cell_length_a   9.19233064
_cell_length_b   9.06426946
_cell_length_c   9.06427042
_cell_angle_alpha   109.18326049
_cell_angle_beta   109.75767186
_cell_angle_gamma   109.75766373
_symmetry_Int_Tables_number   1
_chemical_formula_structural   Mg16Al12Zn
_chemical_formula_sum   'Mg16 Al12 Zn1'
_cell_volume   579.32449310
_cell_formula_units_Z   1
loop_
 _symmetry_equiv_pos_site_id
 _symmetry_equiv_pos_as_xyz
  1  'x, y, z'
loop_
 _atom_site_type_symbol
 _atom_site_label
 _atom_site_symmetry_multiplicity
 _atom_site_fract_x
 _atom_site_fract_y
 _atom_site_fract_z
 _atom_site_occupancy
  Mg  Mg0  1  0.59005174  0.29602824  0.99999900  1
  Mg  Mg1  1  0.00276044  -0.00000000  0.00000000  1
  Mg  Mg2  1  0.31532989  0.60103400  0.99999900  1
  Mg  Mg3  1  0.00230786  0.34653714  0.00000100  1
  Mg  Mg4  1  0.68216089  0.68097080  0.27947959  1
  Mg  Mg5  1  0.59005174  0.99999900  0.29602824  1
  Mg  Mg6  1  0.00119109  0.59850880  0.31903020  1
  Mg  Mg7  1  0.00230786  0.00000000  0.34653714  1
  Mg  Mg8  1  0.71429689  0.39896600  0.39896600  1
  Mg  Mg9  1  0.40268230  0.72052141  0.40149220  1
  Mg  Mg10  1  0.00119109  0.31902920  0.59850980  1
  Mg  Mg11  1  0.31532989  0.99999900  0.60103400  1
  Mg  Mg12  1  0.65576872  0.65346086  0.65346186  1
  Mg  Mg13  1  0.68216189  0.27947959  0.68097080  1
  Mg  Mg14  1  0.29402351  0.70397076  0.70397176  1
  Mg  Mg15  1  0.40268230  0.40149220  0.72052141  1
  Al  Al16  1  0.64160816  0.81241151  0.99999900  1
  Al  Al17  1  0.81449283  0.62486545  0.00000000  1
  Al  Al18  1  0.36676843  0.36813811  0.18309908  1
  Al  Al19  1  0.18366734  0.81689992  0.18503703  1
  Al  Al20  1  0.82919465  0.18758749  0.18758749  1
  Al  Al21  1  0.36676843  0.18309908  0.36813911  1
  Al  Al22  1  0.18962639  0.37513455  0.37513555  1
  Al  Al23  1  0.81449183  0.99999900  0.62486545  1
  Al  Al24  1  0.99863131  0.81496197  0.63186289  1
  Al  Al25  1  0.64160816  0.99999900  0.81241151  1
  Al  Al26  1  0.99863031  0.63186289  0.81496297  1
  Al  Al27  1  0.18366734  0.18503803  0.81689992  1
  Zn  Zn28  1  0.31654670  0.00000000  -0.00000000  1
