# generated using pymatgen
data_PmNd3
_symmetry_space_group_name_H-M   'P 1'
_cell_length_a   7.35893493
_cell_length_b   7.35893570
_cell_length_c   6.05863968
_cell_angle_alpha   90.00000000
_cell_angle_beta   90.00000000
_cell_angle_gamma   119.99999648
_symmetry_Int_Tables_number   1
_chemical_formula_structural   PmNd3
_chemical_formula_sum   'Pm2 Nd6'
_cell_volume   284.14220291
_cell_formula_units_Z   2
loop_
 _symmetry_equiv_pos_site_id
 _symmetry_equiv_pos_as_xyz
  1  'x, y, z'
loop_
 _atom_site_type_symbol
 _atom_site_label
 _atom_site_symmetry_multiplicity
 _atom_site_fract_x
 _atom_site_fract_y
 _atom_site_fract_z
 _atom_site_occupancy
  Pm  Pm0  1  0.66666700  0.33333300  0.25000100  1
  Pm  Pm1  1  0.33333300  0.66666600  0.75000100  1
  Nd  Nd2  1  0.83326603  0.16673297  0.75000100  1
  Nd  Nd3  1  0.33346694  0.16673297  0.75000100  1
  Nd  Nd4  1  0.83326603  0.66653206  0.75000100  1
  Nd  Nd5  1  0.16673497  0.83326703  0.25000100  1
  Nd  Nd6  1  0.66653406  0.83326703  0.25000100  1
  Nd  Nd7  1  0.16673397  0.33346694  0.25000100  1
