# generated using pymatgen
data_Pm3Pr
_symmetry_space_group_name_H-M   'P 1'
_cell_length_a   7.34975806
_cell_length_b   7.34975808
_cell_length_c   6.03531991
_cell_angle_alpha   90.00000000
_cell_angle_beta   90.00000000
_cell_angle_gamma   119.99999993
_symmetry_Int_Tables_number   1
_chemical_formula_structural   Pm3Pr
_chemical_formula_sum   'Pm6 Pr2'
_cell_volume   282.34299333
_cell_formula_units_Z   2
loop_
 _symmetry_equiv_pos_site_id
 _symmetry_equiv_pos_as_xyz
  1  'x, y, z'
loop_
 _atom_site_type_symbol
 _atom_site_label
 _atom_site_symmetry_multiplicity
 _atom_site_fract_x
 _atom_site_fract_y
 _atom_site_fract_z
 _atom_site_occupancy
  Pm  Pm0  1  0.16631628  0.33263255  0.25000100  1
  Pm  Pm1  1  0.66736945  0.83368472  0.25000100  1
  Pm  Pm2  1  0.16631528  0.83368472  0.25000100  1
  Pm  Pm3  1  0.83368572  0.66736945  0.74999900  1
  Pm  Pm4  1  0.33263055  0.16631628  0.74999900  1
  Pm  Pm5  1  0.83368472  0.16631628  0.74999900  1
  Pr  Pr6  1  0.33333400  0.66666900  0.74999900  1
  Pr  Pr7  1  0.66666600  0.33333300  0.25000100  1
