# generated using pymatgen
data_Pr(Mg4Al3)4
_symmetry_space_group_name_H-M   'P 1'
_cell_length_a   9.17454812
_cell_length_b   9.17454744
_cell_length_c   9.17454812
_cell_angle_alpha   109.47121524
_cell_angle_beta   109.47122292
_cell_angle_gamma   109.47121524
_symmetry_Int_Tables_number   1
_chemical_formula_structural   Pr(Mg4Al3)4
_chemical_formula_sum   'Pr1 Mg16 Al12'
_cell_volume   594.47305065
_cell_formula_units_Z   1
loop_
 _symmetry_equiv_pos_site_id
 _symmetry_equiv_pos_as_xyz
  1  'x, y, z'
loop_
 _atom_site_type_symbol
 _atom_site_label
 _atom_site_symmetry_multiplicity
 _atom_site_fract_x
 _atom_site_fract_y
 _atom_site_fract_z
 _atom_site_occupancy
  Pr  Pr0  1  -0.00000000  -0.00000000  -0.00000000  1
  Mg  Mg1  1  0.00000000  0.36245642  0.00000000  1
  Mg  Mg2  1  0.36245542  0.00000000  0.00000000  1
  Mg  Mg3  1  0.31929436  0.60232045  0.00000000  1
  Mg  Mg4  1  0.60232045  0.31929436  0.00000100  1
  Mg  Mg5  1  0.68070564  0.68070564  0.28302709  1
  Mg  Mg6  1  0.60232145  1.00000000  0.31929436  1
  Mg  Mg7  1  0.00000000  0.60232045  0.31929436  1
  Mg  Mg8  1  0.00000000  0.00000000  0.36245542  1
  Mg  Mg9  1  0.71697391  0.39768055  0.39767955  1
  Mg  Mg10  1  0.39767955  0.71697391  0.39767955  1
  Mg  Mg11  1  0.00000100  0.31929436  0.60232045  1
  Mg  Mg12  1  0.31929436  1.00000000  0.60232145  1
  Mg  Mg13  1  0.63754358  0.63754358  0.63754358  1
  Mg  Mg14  1  0.28302709  0.68070564  0.68070564  1
  Mg  Mg15  1  0.68070564  0.28302609  0.68070564  1
  Mg  Mg16  1  0.39767955  0.39768055  0.71697391  1
  Al  Al17  1  0.62848695  0.81287160  0.00000000  1
  Al  Al18  1  0.81287160  0.62848695  0.00000100  1
  Al  Al19  1  0.37151405  0.37151505  0.18438465  1
  Al  Al20  1  0.81561435  0.18712940  0.18712840  1
  Al  Al21  1  0.18712940  0.81561435  0.18712940  1
  Al  Al22  1  0.18438465  0.37151505  0.37151405  1
  Al  Al23  1  0.37151505  0.18438465  0.37151505  1
  Al  Al24  1  0.81287160  0.00000100  0.62848695  1
  Al  Al25  1  0.00000000  0.81287160  0.62848695  1
  Al  Al26  1  0.00000100  0.62848695  0.81287160  1
  Al  Al27  1  0.62848695  0.00000100  0.81287160  1
  Al  Al28  1  0.18712840  0.18712940  0.81561435  1
