# generated using pymatgen
data_MgIn2
_symmetry_space_group_name_H-M   'P 1'
_cell_length_a   3.48030757
_cell_length_b   6.02453491
_cell_length_c   7.93524951
_cell_angle_alpha   74.09968669
_cell_angle_beta   89.99999993
_cell_angle_gamma   106.78878527
_symmetry_Int_Tables_number   1
_chemical_formula_structural   MgIn2
_chemical_formula_sum   'Mg2 In4'
_cell_volume   152.62721881
_cell_formula_units_Z   2
loop_
 _symmetry_equiv_pos_site_id
 _symmetry_equiv_pos_as_xyz
  1  'x, y, z'
loop_
 _atom_site_type_symbol
 _atom_site_label
 _atom_site_symmetry_multiplicity
 _atom_site_fract_x
 _atom_site_fract_y
 _atom_site_fract_z
 _atom_site_occupancy
  Mg  Mg0  1  0.06015105  0.12030209  0.38574717  1
  Mg  Mg1  1  0.38394891  0.76789782  0.72542658  1
  In  In2  1  0.99822493  0.99645186  0.99507340  1
  In  In3  1  0.71911058  0.43822216  0.05996463  1
  In  In4  1  0.34201399  0.68402799  0.34007831  1
  In  In5  1  0.66321554  0.32643208  0.66037592  1
