# generated using pymatgen
data_Er5Ir3
_symmetry_space_group_name_H-M   'P 1'
_cell_length_a   6.15535764
_cell_length_b   8.27468926
_cell_length_c   8.27356294
_cell_angle_alpha   120.00450176
_cell_angle_beta   90.00000000
_cell_angle_gamma   90.00000000
_symmetry_Int_Tables_number   1
_chemical_formula_structural   Er5Ir3
_chemical_formula_sum   'Er10 Ir6'
_cell_volume   364.92909435
_cell_formula_units_Z   2
loop_
 _symmetry_equiv_pos_site_id
 _symmetry_equiv_pos_as_xyz
  1  'x, y, z'
loop_
 _atom_site_type_symbol
 _atom_site_label
 _atom_site_symmetry_multiplicity
 _atom_site_fract_x
 _atom_site_fract_y
 _atom_site_fract_z
 _atom_site_occupancy
  Er  Er0  1  0.49999717  0.33339770  0.66681692  1
  Er  Er1  1  0.49999717  0.66658078  0.33318308  1
  Er  Er2  1  -0.00000283  0.66660230  0.33318308  1
  Er  Er3  1  -0.00000283  0.33341922  0.66681692  1
  Er  Er4  1  0.75003066  0.26182272  1.00000000  1
  Er  Er5  1  0.74998594  0.73817198  0.73812725  1
  Er  Er6  1  0.74998594  0.00004472  0.26187275  1
  Er  Er7  1  0.25003066  0.73817728  0.00000000  1
  Er  Er8  1  0.24998594  0.26182802  0.26187275  1
  Er  Er9  1  0.24998594  0.99995528  0.73812725  1
  Ir  Ir10  1  0.75000488  0.61116547  0.00000000  1
  Ir  Ir11  1  0.74999912  0.38893345  0.38894252  1
  Ir  Ir12  1  0.74999912  -0.00000907  0.61105748  1
  Ir  Ir13  1  0.25000488  0.38883453  1.00000000  1
  Ir  Ir14  1  0.24999912  0.61106655  0.61105748  1
  Ir  Ir15  1  0.24999912  0.00000907  0.38894252  1
