# generated using pymatgen
data_Dy2Al3Ge4
_symmetry_space_group_name_H-M   'P 1'
_cell_length_a   5.82420591
_cell_length_b   8.14698824
_cell_length_c   7.97884746
_cell_angle_alpha   90.00000000
_cell_angle_beta   111.40622233
_cell_angle_gamma   90.00000000
_symmetry_Int_Tables_number   1
_chemical_formula_structural   Dy2Al3Ge4
_chemical_formula_sum   'Dy4 Al6 Ge8'
_cell_volume   352.47734063
_cell_formula_units_Z   2
loop_
 _symmetry_equiv_pos_site_id
 _symmetry_equiv_pos_as_xyz
  1  'x, y, z'
loop_
 _atom_site_type_symbol
 _atom_site_label
 _atom_site_symmetry_multiplicity
 _atom_site_fract_x
 _atom_site_fract_y
 _atom_site_fract_z
 _atom_site_occupancy
  Dy  Dy0  1  0.61507028  0.07971251  0.23014055  1
  Dy  Dy1  1  0.38492972  0.92028749  0.76985945  1
  Dy  Dy2  1  0.88492972  0.57971251  0.76985945  1
  Dy  Dy3  1  0.11507028  0.42028749  0.23014055  1
  Al  Al4  1  0.50000000  0.50000000  -0.00000000  1
  Al  Al5  1  -0.00000000  -0.00000000  -0.00000000  1
  Al  Al6  1  0.03171031  0.25000000  0.56342061  1
  Al  Al7  1  0.46828969  0.75000000  0.43657939  1
  Al  Al8  1  0.96828969  0.75000000  0.43657939  1
  Al  Al9  1  0.53171031  0.25000000  0.56342061  1
  Ge  Ge10  1  0.20342294  0.25000000  0.90684589  1
  Ge  Ge11  1  0.29657706  0.75000000  0.09315411  1
  Ge  Ge12  1  0.79657706  0.75000000  0.09315411  1
  Ge  Ge13  1  0.70342294  0.25000000  0.90684589  1
  Ge  Ge14  1  0.68408706  0.44751877  0.36817412  1
  Ge  Ge15  1  0.31591294  0.55248123  0.63182588  1
  Ge  Ge16  1  0.81591294  0.94751877  0.63182588  1
  Ge  Ge17  1  0.18408706  0.05248123  0.36817412  1
