# generated using pymatgen
data_Er5Si3C
_symmetry_space_group_name_H-M   'P 1'
_cell_length_a   6.28473413
_cell_length_b   8.39359331
_cell_length_c   8.39291947
_cell_angle_alpha   120.00264913
_cell_angle_beta   90.00000000
_cell_angle_gamma   90.00000000
_symmetry_Int_Tables_number   1
_chemical_formula_structural   Er5Si3C
_chemical_formula_sum   'Er10 Si6 C2'
_cell_volume   383.41308189
_cell_formula_units_Z   2
loop_
 _symmetry_equiv_pos_site_id
 _symmetry_equiv_pos_as_xyz
  1  'x, y, z'
loop_
 _atom_site_type_symbol
 _atom_site_label
 _atom_site_symmetry_multiplicity
 _atom_site_fract_x
 _atom_site_fract_y
 _atom_site_fract_z
 _atom_site_occupancy
  Er  Er0  1  0.50000034  0.33331682  0.66664123  1
  Er  Er1  1  0.50000034  0.66667559  0.33335877  1
  Er  Er2  1  0.00000034  0.66668318  0.33335877  1
  Er  Er3  1  0.00000034  0.33332441  0.66664123  1
  Er  Er4  1  0.75000097  0.22415864  1.00000000  1
  Er  Er5  1  0.74999729  0.77585321  0.77587562  1
  Er  Er6  1  0.74999729  -0.00002241  0.22412438  1
  Er  Er7  1  0.25000097  0.77584136  0.00000000  1
  Er  Er8  1  0.24999729  0.22414679  0.22412438  1
  Er  Er9  1  0.24999729  0.00002241  0.77587562  1
  Si  Si10  1  0.75000426  0.59373483  1.00000000  1
  Si  Si11  1  0.74999856  0.40630369  0.40630900  1
  Si  Si12  1  0.74999856  0.99999469  0.59369100  1
  Si  Si13  1  0.25000426  0.40626517  0.00000000  1
  Si  Si14  1  0.24999856  0.59369631  0.59369100  1
  Si  Si15  1  0.24999856  0.00000531  0.40630900  1
  C  C16  1  0.50000238  0.99999510  0.00000000  1
  C  C17  1  0.00000238  0.00000490  1.00000000  1
