# generated using pymatgen
data_Zn3Co
_symmetry_space_group_name_H-M   'P 1'
_cell_length_a   5.32197371
_cell_length_b   5.32187215
_cell_length_c   4.27672295
_cell_angle_alpha   90.00407869
_cell_angle_beta   89.99576450
_cell_angle_gamma   120.00636436
_symmetry_Int_Tables_number   1
_chemical_formula_structural   Zn3Co
_chemical_formula_sum   'Zn6 Co2'
_cell_volume   104.89409830
_cell_formula_units_Z   2
loop_
 _symmetry_equiv_pos_site_id
 _symmetry_equiv_pos_as_xyz
  1  'x, y, z'
loop_
 _atom_site_type_symbol
 _atom_site_label
 _atom_site_symmetry_multiplicity
 _atom_site_fract_x
 _atom_site_fract_y
 _atom_site_fract_z
 _atom_site_occupancy
  Zn  Zn0  1  0.17107259  0.34214641  0.24999685  1
  Zn  Zn1  1  0.65784979  0.82892109  0.24999800  1
  Zn  Zn2  1  0.17106774  0.82891962  0.25000744  1
  Zn  Zn3  1  0.82892482  0.65784983  0.75000286  1
  Zn  Zn4  1  0.34213556  0.17106405  0.75000206  1
  Zn  Zn5  1  0.82892559  0.17106320  0.74999288  1
  Co  Co6  1  0.33333703  0.66669872  0.75000410  1
  Co  Co7  1  0.66668387  0.33333508  0.24999580  1
