# generated using pymatgen
data_Lu2S3
_symmetry_space_group_name_H-M   'P 1'
_cell_length_a   3.78657231
_cell_length_b   10.37873234
_cell_length_c   10.44839387
_cell_angle_alpha   90.00000000
_cell_angle_beta   90.00000000
_cell_angle_gamma   90.00000000
_symmetry_Int_Tables_number   1
_chemical_formula_structural   Lu2S3
_chemical_formula_sum   'Lu8 S12'
_cell_volume   410.62000352
_cell_formula_units_Z   4
loop_
 _symmetry_equiv_pos_site_id
 _symmetry_equiv_pos_as_xyz
  1  'x, y, z'
loop_
 _atom_site_type_symbol
 _atom_site_label
 _atom_site_symmetry_multiplicity
 _atom_site_fract_x
 _atom_site_fract_y
 _atom_site_fract_z
 _atom_site_occupancy
  Lu  Lu0  1  0.25000000  0.18800524  0.49387053  1
  Lu  Lu1  1  0.25000000  0.31199476  0.99387053  1
  Lu  Lu2  1  0.75000000  0.81199476  0.50612947  1
  Lu  Lu3  1  0.75000000  0.68800524  0.00612947  1
  Lu  Lu4  1  0.75000000  0.49477856  0.69128156  1
  Lu  Lu5  1  0.75000000  0.00522144  0.19128156  1
  Lu  Lu6  1  0.25000000  0.50522144  0.30871844  1
  Lu  Lu7  1  0.25000000  0.99477856  0.80871844  1
  S  S8  1  0.25000000  0.62679191  0.54522262  1
  S  S9  1  0.25000000  0.87320809  0.04522262  1
  S  S10  1  0.75000000  0.37320809  0.45477738  1
  S  S11  1  0.75000000  0.12679191  0.95477738  1
  S  S12  1  0.75000000  0.05334529  0.61924612  1
  S  S13  1  0.75000000  0.44665471  0.11924612  1
  S  S14  1  0.25000000  0.94665471  0.38075388  1
  S  S15  1  0.25000000  0.55334529  0.88075388  1
  S  S16  1  0.25000000  0.30512929  0.72932078  1
  S  S17  1  0.25000000  0.19487071  0.22932078  1
  S  S18  1  0.75000000  0.69487071  0.27067922  1
  S  S19  1  0.75000000  0.80512929  0.77067922  1
