# generated using pymatgen
data_Ba2NaCu3S5
_symmetry_space_group_name_H-M   'P 1'
_cell_length_a   5.56014787
_cell_length_b   8.79624352
_cell_length_c   10.46906175
_cell_angle_alpha   98.08621285
_cell_angle_beta   90.00000000
_cell_angle_gamma   108.42435836
_symmetry_Int_Tables_number   1
_chemical_formula_structural   Ba2NaCu3S5
_chemical_formula_sum   'Ba4 Na2 Cu6 S10'
_cell_volume   480.41085815
_cell_formula_units_Z   2
loop_
 _symmetry_equiv_pos_site_id
 _symmetry_equiv_pos_as_xyz
  1  'x, y, z'
loop_
 _atom_site_type_symbol
 _atom_site_label
 _atom_site_symmetry_multiplicity
 _atom_site_fract_x
 _atom_site_fract_y
 _atom_site_fract_z
 _atom_site_occupancy
  Ba  Ba0  1  0.76364332  0.52728665  0.30184729  1
  Ba  Ba1  1  0.23635668  0.47271335  0.69815271  1
  Ba  Ba2  1  0.45770673  0.91541346  0.29036121  1
  Ba  Ba3  1  0.54229327  0.08458654  0.70963879  1
  Na  Na4  1  0.10578226  0.21156452  0.23604954  1
  Na  Na5  1  0.89421774  0.78843548  0.76395046  1
  Cu  Cu6  1  0.76258488  0.00000000  0.00000000  1
  Cu  Cu7  1  0.23741512  0.00000000  0.00000000  1
  Cu  Cu8  1  0.92523809  0.33792274  0.99037299  1
  Cu  Cu9  1  0.41268465  0.33792274  0.99037299  1
  Cu  Cu10  1  0.07476191  0.66207726  0.00962701  1
  Cu  Cu11  1  0.58731535  0.66207726  0.00962701  1
  S  S12  1  0.43317388  0.24808095  0.46958385  1
  S  S13  1  0.81490707  0.24808095  0.46958385  1
  S  S14  1  0.56682612  0.75191905  0.53041615  1
  S  S15  1  0.18509293  0.75191905  0.53041615  1
  S  S16  1  0.59752783  0.19505566  0.12031501  1
  S  S17  1  0.40247217  0.80494434  0.87968499  1
  S  S18  1  0.07010675  0.14021349  0.85246916  1
  S  S19  1  0.92989325  0.85978651  0.14753084  1
  S  S20  1  0.26117262  0.52234525  0.14617660  1
  S  S21  1  0.73882738  0.47765475  0.85382340  1
