# generated using pymatgen
data_Pr3BeCrS7
_symmetry_space_group_name_H-M   'P 1'
_cell_length_a   6.02878739
_cell_length_b   10.03046671
_cell_length_c   10.03085894
_cell_angle_alpha   120.00354731
_cell_angle_beta   90.00000000
_cell_angle_gamma   90.00000000
_symmetry_Int_Tables_number   1
_chemical_formula_structural   Pr3BeCrS7
_chemical_formula_sum   'Pr6 Be2 Cr2 S14'
_cell_volume   525.29629642
_cell_formula_units_Z   2
loop_
 _symmetry_equiv_pos_site_id
 _symmetry_equiv_pos_as_xyz
  1  'x, y, z'
loop_
 _atom_site_type_symbol
 _atom_site_label
 _atom_site_symmetry_multiplicity
 _atom_site_fract_x
 _atom_site_fract_y
 _atom_site_fract_z
 _atom_site_occupancy
  Pr  Pr0  1  0.25711562  0.24863249  0.39014377  1
  Pr  Pr1  1  0.25713300  0.60984635  0.85847851  1
  Pr  Pr2  1  0.25713889  0.14150918  0.75136828  1
  Pr  Pr3  1  0.75711562  0.75136751  0.60985623  1
  Pr  Pr4  1  0.75713300  0.39015365  0.14152149  1
  Pr  Pr5  1  0.75713889  0.85849082  0.24863172  1
  Be  Be6  1  0.84147356  0.33333484  0.66667003  1
  Be  Be7  1  0.34147356  0.66666516  0.33332997  1
  Cr  Cr8  1  0.47741974  0.99997881  0.00000052  1
  Cr  Cr9  1  0.97741974  0.00002119  -0.00000052  1
  S  S10  1  0.72402034  0.13993881  0.21880046  1
  S  S11  1  0.72407021  0.78119286  0.92114715  1
  S  S12  1  0.72401580  0.07886221  0.86005059  1
  S  S13  1  0.22402034  0.86006119  0.78119954  1
  S  S14  1  0.22407021  0.21880714  0.07885285  1
  S  S15  1  0.22401580  0.92113779  0.13994941  1
  S  S16  1  0.97104429  0.11016856  0.52039390  1
  S  S17  1  0.97105764  0.47961121  0.58977269  1
  S  S18  1  0.97105793  0.41021503  0.88983884  1
  S  S19  1  0.47104429  0.88983144  0.47960610  1
  S  S20  1  0.47105764  0.52038879  0.41022731  1
  S  S21  1  0.47105793  0.58978497  0.11016116  1
  S  S22  1  0.49245298  0.33333364  0.66665610  1
  S  S23  1  0.99245298  0.66666636  0.33334390  1
