# generated using pymatgen
data_ErMn2O4
_symmetry_space_group_name_H-M   'P 1'
_cell_length_a   6.24460547
_cell_length_b   6.48335142
_cell_length_c   6.48281786
_cell_angle_alpha   57.03761717
_cell_angle_beta   60.81118512
_cell_angle_gamma   60.81574182
_symmetry_Int_Tables_number   1
_chemical_formula_structural   ErMn2O4
_chemical_formula_sum   'Er2 Mn4 O8'
_cell_volume   183.18538559
_cell_formula_units_Z   2
loop_
 _symmetry_equiv_pos_site_id
 _symmetry_equiv_pos_as_xyz
  1  'x, y, z'
loop_
 _atom_site_type_symbol
 _atom_site_label
 _atom_site_symmetry_multiplicity
 _atom_site_fract_x
 _atom_site_fract_y
 _atom_site_fract_z
 _atom_site_occupancy
  Er  Er0  1  0.86239695  0.87471612  0.87465993  1
  Er  Er1  1  0.13750505  0.12522613  0.12528324  1
  Mn  Mn2  1  0.50018402  0.50001549  0.50001694  1
  Mn  Mn3  1  0.99997016  0.50023725  0.50023881  1
  Mn  Mn4  1  0.49983569  0.00007340  0.49993206  1
  Mn  Mn5  1  0.49983416  0.49993361  0.00007464  1
  O  O6  1  0.26130164  0.26630491  0.26665857  1
  O  O7  1  0.72472009  0.24804615  0.24841276  1
  O  O8  1  0.28216124  0.71459079  0.26927745  1
  O  O9  1  0.28218701  0.26924273  0.71457320  1
  O  O10  1  0.73824866  0.73378581  0.73343065  1
  O  O11  1  0.27525881  0.75172477  0.75135479  1
  O  O12  1  0.71821361  0.28534627  0.73072323  1
  O  O13  1  0.71818392  0.73075958  0.28536572  1
