# generated using pymatgen
data_Sr4BiO7
_symmetry_space_group_name_H-M   'P 1'
_cell_length_a   6.18823011
_cell_length_b   7.04865498
_cell_length_c   9.42220264
_cell_angle_alpha   101.26021790
_cell_angle_beta   90.00000000
_cell_angle_gamma   90.00000000
_symmetry_Int_Tables_number   1
_chemical_formula_structural   Sr4BiO7
_chemical_formula_sum   'Sr8 Bi2 O14'
_cell_volume   403.07296889
_cell_formula_units_Z   2
loop_
 _symmetry_equiv_pos_site_id
 _symmetry_equiv_pos_as_xyz
  1  'x, y, z'
loop_
 _atom_site_type_symbol
 _atom_site_label
 _atom_site_symmetry_multiplicity
 _atom_site_fract_x
 _atom_site_fract_y
 _atom_site_fract_z
 _atom_site_occupancy
  Sr  Sr0  1  0.16771733  0.61134708  0.07477203  1
  Sr  Sr1  1  0.66771733  0.38865292  0.92522797  1
  Sr  Sr2  1  0.63969960  0.01068086  0.12590380  1
  Sr  Sr3  1  0.13969960  0.98931914  0.87409620  1
  Sr  Sr4  1  0.16669384  0.90912056  0.44072369  1
  Sr  Sr5  1  0.66669384  0.09087944  0.55927631  1
  Sr  Sr6  1  0.17368249  0.49166429  0.61128124  1
  Sr  Sr7  1  0.67368249  0.50833571  0.38871876  1
  Bi  Bi8  1  0.15839277  0.25556859  0.24566027  1
  Bi  Bi9  1  0.65839277  0.74443141  0.75433973  1
  O  O10  1  0.41369128  0.31609987  0.10538016  1
  O  O11  1  0.91369128  0.68390013  0.89461984  1
  O  O12  1  0.93723496  0.28741394  0.07897422  1
  O  O13  1  0.43723496  0.71258606  0.92102578  1
  O  O14  1  0.89215635  0.18699412  0.37301327  1
  O  O15  1  0.39215635  0.81300588  0.62698673  1
  O  O16  1  0.37864155  0.23794712  0.41658295  1
  O  O17  1  0.87864155  0.76205288  0.58341705  1
  O  O18  1  0.12063656  0.55770519  0.33778421  1
  O  O19  1  0.62063656  0.44229481  0.66221579  1
  O  O20  1  0.19811797  0.95555088  0.16199296  1
  O  O21  1  0.69811797  0.04444912  0.83800704  1
  O  O22  1  0.10760529  0.18316278  0.68744699  1
  O  O23  1  0.60760529  0.81683722  0.31255301  1
