# generated using pymatgen
data_Er3AlNi8
_symmetry_space_group_name_H-M   'P 1'
_cell_length_a   5.04156631
_cell_length_b   5.04156631
_cell_length_c   15.93534423
_cell_angle_alpha   90.00000000
_cell_angle_beta   90.00000000
_cell_angle_gamma   119.99937781
_symmetry_Int_Tables_number   1
_chemical_formula_structural   Er3AlNi8
_chemical_formula_sum   'Er6 Al2 Ni16'
_cell_volume   350.77268801
_cell_formula_units_Z   2
loop_
 _symmetry_equiv_pos_site_id
 _symmetry_equiv_pos_as_xyz
  1  'x, y, z'
loop_
 _atom_site_type_symbol
 _atom_site_label
 _atom_site_symmetry_multiplicity
 _atom_site_fract_x
 _atom_site_fract_y
 _atom_site_fract_z
 _atom_site_occupancy
  Er  Er0  1  0.66665819  0.33334181  0.04413296  1
  Er  Er1  1  0.33334181  0.66665819  0.95586704  1
  Er  Er2  1  0.33334181  0.66665819  0.54413296  1
  Er  Er3  1  0.66665819  0.33334181  0.45586704  1
  Er  Er4  1  0.66665374  0.33334626  0.25000000  1
  Er  Er5  1  0.33334626  0.66665374  0.75000000  1
  Al  Al6  1  0.00000000  0.00000000  0.50000000  1
  Al  Al7  1  0.00000000  0.00000000  0.00000000  1
  Ni  Ni8  1  0.83118131  0.66235765  0.62547910  1
  Ni  Ni9  1  0.83119542  0.16880458  0.62552741  1
  Ni  Ni10  1  0.33764235  0.16881869  0.62547910  1
  Ni  Ni11  1  0.16881869  0.33764235  0.37452090  1
  Ni  Ni12  1  0.16880458  0.83119542  0.37447259  1
  Ni  Ni13  1  0.66235765  0.83118131  0.37452090  1
  Ni  Ni14  1  0.16881869  0.33764235  0.12547910  1
  Ni  Ni15  1  0.16880458  0.83119542  0.12552741  1
  Ni  Ni16  1  0.66235765  0.83118131  0.12547910  1
  Ni  Ni17  1  0.83118131  0.66235765  0.87452090  1
  Ni  Ni18  1  0.83119542  0.16880458  0.87447259  1
  Ni  Ni19  1  0.33764235  0.16881869  0.87452090  1
  Ni  Ni20  1  0.66667390  0.33332610  0.75000000  1
  Ni  Ni21  1  0.33332610  0.66667390  0.25000000  1
  Ni  Ni22  1  0.00002249  0.99997751  0.75000000  1
  Ni  Ni23  1  0.99997751  0.00002249  0.25000000  1
