# generated using pymatgen
data_La3GaFeS7
_symmetry_space_group_name_H-M   'P 1'
_cell_length_a   5.98504369
_cell_length_b   10.26761028
_cell_length_c   10.30155015
_cell_angle_alpha   120.53549651
_cell_angle_beta   90.00000000
_cell_angle_gamma   90.00000000
_symmetry_Int_Tables_number   1
_chemical_formula_structural   La3GaFeS7
_chemical_formula_sum   'La6 Ga2 Fe2 S14'
_cell_volume   545.25677530
_cell_formula_units_Z   2
loop_
 _symmetry_equiv_pos_site_id
 _symmetry_equiv_pos_as_xyz
  1  'x, y, z'
loop_
 _atom_site_type_symbol
 _atom_site_label
 _atom_site_symmetry_multiplicity
 _atom_site_fract_x
 _atom_site_fract_y
 _atom_site_fract_z
 _atom_site_occupancy
  La  La0  1  0.21931337  0.85845841  0.23387336  1
  La  La1  1  0.21971386  0.76878895  0.62782372  1
  La  La2  1  0.22018024  0.37134465  0.13893634  1
  La  La3  1  0.71931337  0.14154159  0.76612664  1
  La  La4  1  0.71971386  0.23121105  0.37217628  1
  La  La5  1  0.72018024  0.62865535  0.86106366  1
  Ga  Ga6  1  0.13772318  0.33393160  0.66701298  1
  Ga  Ga7  1  0.63772318  0.66606840  0.33298702  1
  Fe  Fe8  1  0.49943869  0.00010567  0.00001903  1
  Fe  Fe9  1  0.99943869  0.99989433  0.99998097  1
  S  S10  1  0.25772057  0.14087153  0.22957910  1
  S  S11  1  0.25717114  0.77124192  0.91368379  1
  S  S12  1  0.25766254  0.08866937  0.85599306  1
  S  S13  1  0.75772057  0.85912847  0.77042090  1
  S  S14  1  0.75717114  0.22875808  0.08631621  1
  S  S15  1  0.75766254  0.91133063  0.14400694  1
  S  S16  1  0.49006712  0.57897432  0.09684637  1
  S  S17  1  0.48999882  0.90312492  0.48353957  1
  S  S18  1  0.49079560  0.51708727  0.41924744  1
  S  S19  1  0.99006712  0.42102568  0.90315363  1
  S  S20  1  0.98999882  0.09687508  0.51646043  1
  S  S21  1  0.99079560  0.48291273  0.58075256  1
  S  S22  1  0.51284487  0.33339922  0.66632233  1
  S  S23  1  0.01284487  0.66660078  0.33367767  1
