# generated using pymatgen
data_CsEr2Ag3Te5
_symmetry_space_group_name_H-M   'P 1'
_cell_length_a   4.67793925
_cell_length_b   8.52418355
_cell_length_c   18.60026908
_cell_angle_alpha   90.00000000
_cell_angle_beta   90.00000000
_cell_angle_gamma   105.92579936
_symmetry_Int_Tables_number   1
_chemical_formula_structural   CsEr2Ag3Te5
_chemical_formula_sum   'Cs2 Er4 Ag6 Te10'
_cell_volume   713.22919976
_cell_formula_units_Z   2
loop_
 _symmetry_equiv_pos_site_id
 _symmetry_equiv_pos_as_xyz
  1  'x, y, z'
loop_
 _atom_site_type_symbol
 _atom_site_label
 _atom_site_symmetry_multiplicity
 _atom_site_fract_x
 _atom_site_fract_y
 _atom_site_fract_z
 _atom_site_occupancy
  Cs  Cs0  1  0.44252147  0.88504295  0.25000000  1
  Cs  Cs1  1  0.55747853  0.11495705  0.75000000  1
  Er  Er2  1  0.30639171  0.61278342  0.90526567  1
  Er  Er3  1  0.69360829  0.38721658  0.09473433  1
  Er  Er4  1  0.30639171  0.61278342  0.59473433  1
  Er  Er5  1  0.69360829  0.38721658  0.40526567  1
  Ag  Ag6  1  0.15841001  0.31682102  0.25000000  1
  Ag  Ag7  1  0.84158999  0.68317898  0.75000000  1
  Ag  Ag8  1  0.91896087  0.83792174  0.46211154  1
  Ag  Ag9  1  0.08103913  0.16207826  0.53788846  1
  Ag  Ag10  1  0.91896087  0.83792174  0.03788846  1
  Ag  Ag11  1  0.08103913  0.16207826  0.96211154  1
  Te  Te12  1  0.93069827  0.86139755  0.88320504  1
  Te  Te13  1  0.06930173  0.13860245  0.11679496  1
  Te  Te14  1  0.93069827  0.86139755  0.61679496  1
  Te  Te15  1  0.06930173  0.13860245  0.38320504  1
  Te  Te16  1  0.31846906  0.63693813  0.43122928  1
  Te  Te17  1  0.68153094  0.36306187  0.56877072  1
  Te  Te18  1  0.31846906  0.63693813  0.06877072  1
  Te  Te19  1  0.68153094  0.36306187  0.93122928  1
  Te  Te20  1  0.75491198  0.50982296  0.25000000  1
  Te  Te21  1  0.24508802  0.49017704  0.75000000  1
