# generated using pymatgen
data_EuCo9Si2
_symmetry_space_group_name_H-M   'P 1'
_cell_length_a   6.31893076
_cell_length_b   7.57907586
_cell_length_c   7.57907586
_cell_angle_alpha   79.99244925
_cell_angle_beta   65.36306479
_cell_angle_gamma   65.36306479
_symmetry_Int_Tables_number   1
_chemical_formula_structural   EuCo9Si2
_chemical_formula_sum   'Eu2 Co18 Si4'
_cell_volume   299.89752464
_cell_formula_units_Z   2
loop_
 _symmetry_equiv_pos_site_id
 _symmetry_equiv_pos_as_xyz
  1  'x, y, z'
loop_
 _atom_site_type_symbol
 _atom_site_label
 _atom_site_symmetry_multiplicity
 _atom_site_fract_x
 _atom_site_fract_y
 _atom_site_fract_z
 _atom_site_occupancy
  Eu  Eu0  1  0.37500000  0.25000000  0.75000000  1
  Eu  Eu1  1  0.62500000  0.75000000  0.25000000  1
  Co  Co2  1  0.12500000  0.75000000  0.25000000  1
  Co  Co3  1  0.87500000  0.25000000  0.75000000  1
  Co  Co4  1  0.56124894  0.57975031  0.66884142  1
  Co  Co5  1  0.56124894  0.16884142  0.07975031  1
  Co  Co6  1  0.14099925  0.42024969  0.16884142  1
  Co  Co7  1  0.14099925  0.66884142  0.92024969  1
  Co  Co8  1  0.80984067  0.33115858  0.42024969  1
  Co  Co9  1  0.80984067  0.92024969  0.83115858  1
  Co  Co10  1  0.73009037  0.83115858  0.57975031  1
  Co  Co11  1  0.73009037  0.07975031  0.33115858  1
  Co  Co12  1  0.43875106  0.42024969  0.33115858  1
  Co  Co13  1  0.43875106  0.83115858  0.92024969  1
  Co  Co14  1  0.85900075  0.57975031  0.83115858  1
  Co  Co15  1  0.85900075  0.33115858  0.07975031  1
  Co  Co16  1  0.19015933  0.66884142  0.57975031  1
  Co  Co17  1  0.19015933  0.07975031  0.16884142  1
  Co  Co18  1  0.26990963  0.16884142  0.42024969  1
  Co  Co19  1  0.26990963  0.92024969  0.66884142  1
  Si  Si20  1  0.50000000  0.50000000  0.00000000  1
  Si  Si21  1  -0.00000000  0.50000000  0.50000000  1
  Si  Si22  1  -0.00000000  0.00000000  0.00000000  1
  Si  Si23  1  -0.00000000  0.00000000  0.50000000  1
