# generated using pymatgen
data_Zr4Fe2N
_symmetry_space_group_name_H-M   'P 1'
_cell_length_a   8.63122188
_cell_length_b   8.63122188
_cell_length_c   8.63122188
_cell_angle_alpha   60.00000000
_cell_angle_beta   60.00000000
_cell_angle_gamma   60.00000000
_symmetry_Int_Tables_number   1
_chemical_formula_structural   Zr4Fe2N
_chemical_formula_sum   'Zr16 Fe8 N4'
_cell_volume   454.67580560
_cell_formula_units_Z   4
loop_
 _symmetry_equiv_pos_site_id
 _symmetry_equiv_pos_as_xyz
  1  'x, y, z'
loop_
 _atom_site_type_symbol
 _atom_site_label
 _atom_site_symmetry_multiplicity
 _atom_site_fract_x
 _atom_site_fract_y
 _atom_site_fract_z
 _atom_site_occupancy
  Zr  Zr0  1  0.00000000  0.00000000  0.50000000  1
  Zr  Zr1  1  0.00000000  0.50000000  -0.00000000  1
  Zr  Zr2  1  0.50000000  0.00000000  -0.00000000  1
  Zr  Zr3  1  0.00000000  0.00000000  -0.00000000  1
  Zr  Zr4  1  0.43969478  0.81030522  0.81030522  1
  Zr  Zr5  1  0.81030522  0.43969478  0.43969478  1
  Zr  Zr6  1  0.81030522  0.43969478  0.81030522  1
  Zr  Zr7  1  0.43969478  0.81030522  0.43969478  1
  Zr  Zr8  1  0.81030522  0.81030522  0.43969478  1
  Zr  Zr9  1  0.43969478  0.43969478  0.81030522  1
  Zr  Zr10  1  0.56030522  0.18969478  0.18969478  1
  Zr  Zr11  1  0.18969478  0.56030522  0.56030522  1
  Zr  Zr12  1  0.18969478  0.56030522  0.18969478  1
  Zr  Zr13  1  0.56030522  0.18969478  0.56030522  1
  Zr  Zr14  1  0.18969478  0.18969478  0.56030522  1
  Zr  Zr15  1  0.56030522  0.56030522  0.18969478  1
  Fe  Fe16  1  0.20915418  0.20915418  0.87253747  1
  Fe  Fe17  1  0.20915418  0.87253747  0.20915418  1
  Fe  Fe18  1  0.87253747  0.20915418  0.20915418  1
  Fe  Fe19  1  0.20915418  0.20915418  0.20915418  1
  Fe  Fe20  1  0.79084582  0.79084582  0.12746253  1
  Fe  Fe21  1  0.79084582  0.12746253  0.79084582  1
  Fe  Fe22  1  0.12746253  0.79084582  0.79084582  1
  Fe  Fe23  1  0.79084582  0.79084582  0.79084582  1
  N  N24  1  0.50000000  0.50000000  -0.00000000  1
  N  N25  1  0.50000000  0.00000000  0.50000000  1
  N  N26  1  0.00000000  0.50000000  0.50000000  1
  N  N27  1  0.50000000  0.50000000  0.50000000  1
