# generated using pymatgen
data_Nd3GaFeSe7
_symmetry_space_group_name_H-M   'P 1'
_cell_length_a   6.51444390
_cell_length_b   10.40865280
_cell_length_c   10.36433269
_cell_angle_alpha   120.19954079
_cell_angle_beta   90.00000000
_cell_angle_gamma   90.00000000
_symmetry_Int_Tables_number   1
_chemical_formula_structural   Nd3GaFeSe7
_chemical_formula_sum   'Nd6 Ga2 Fe2 Se14'
_cell_volume   607.38923812
_cell_formula_units_Z   2
loop_
 _symmetry_equiv_pos_site_id
 _symmetry_equiv_pos_as_xyz
  1  'x, y, z'
loop_
 _atom_site_type_symbol
 _atom_site_label
 _atom_site_symmetry_multiplicity
 _atom_site_fract_x
 _atom_site_fract_y
 _atom_site_fract_z
 _atom_site_occupancy
  Nd  Nd0  1  0.82105160  0.15870745  0.78220907  1
  Nd  Nd1  1  0.81925630  0.21747482  0.37368210  1
  Nd  Nd2  1  0.82115750  0.62454480  0.84424426  1
  Nd  Nd3  1  0.32105160  0.84129255  0.21779093  1
  Nd  Nd4  1  0.31925630  0.78252518  0.62631790  1
  Nd  Nd5  1  0.32115750  0.37545520  0.15575574  1
  Ga  Ga6  1  0.90034754  0.66674041  0.33377229  1
  Ga  Ga7  1  0.40034754  0.33325959  0.66622771  1
  Fe  Fe8  1  0.50922363  0.99759760  0.99524633  1
  Fe  Fe9  1  0.00922363  0.00240240  0.00475367  1
  Se  Se10  1  0.54956594  0.43470936  0.91408312  1
  Se  Se11  1  0.54913889  0.08693802  0.52090696  1
  Se  Se12  1  0.54987034  0.47904848  0.56580846  1
  Se  Se13  1  0.04956594  0.56529064  0.08591688  1
  Se  Se14  1  0.04913889  0.91306198  0.47909304  1
  Se  Se15  1  0.04987034  0.52095152  0.43419154  1
  Se  Se16  1  0.53086232  0.66647943  0.33369220  1
  Se  Se17  1  0.03086232  0.33352057  0.66630780  1
  Se  Se18  1  0.74327010  0.86547817  0.76421077  1
  Se  Se19  1  0.74444058  0.23603200  0.10113737  1
  Se  Se20  1  0.74261527  0.89966192  0.13505125  1
  Se  Se21  1  0.24327010  0.13452183  0.23578923  1
  Se  Se22  1  0.24444058  0.76396800  0.89886263  1
  Se  Se23  1  0.24261527  0.10033808  0.86494875  1
