# generated using pymatgen
data_Al8Fe5
_symmetry_space_group_name_H-M   'P 1'
_cell_length_a   7.63394760
_cell_length_b   7.63394760
_cell_length_c   7.63394760
_cell_angle_alpha   109.47122063
_cell_angle_beta   109.47122063
_cell_angle_gamma   109.47122063
_symmetry_Int_Tables_number   1
_chemical_formula_structural   Al8Fe5
_chemical_formula_sum   'Al16 Fe10'
_cell_volume   342.47244355
_cell_formula_units_Z   2
loop_
 _symmetry_equiv_pos_site_id
 _symmetry_equiv_pos_as_xyz
  1  'x, y, z'
loop_
 _atom_site_type_symbol
 _atom_site_label
 _atom_site_symmetry_multiplicity
 _atom_site_fract_x
 _atom_site_fract_y
 _atom_site_fract_z
 _atom_site_occupancy
  Al  Al0  1  0.21154130  0.00000000  -0.00000000  1
  Al  Al1  1  -0.00000000  0.21154130  -0.00000000  1
  Al  Al2  1  0.00000000  -0.00000000  0.21154130  1
  Al  Al3  1  0.78845870  0.78845870  0.78845870  1
  Al  Al4  1  0.34931523  0.72745228  -0.00000000  1
  Al  Al5  1  0.62186295  0.27254772  0.27254772  1
  Al  Al6  1  0.34931523  0.00000000  0.72745228  1
  Al  Al7  1  0.72745228  0.34931523  -0.00000000  1
  Al  Al8  1  0.00000000  0.34931523  0.72745228  1
  Al  Al9  1  0.27254772  0.62186295  0.27254772  1
  Al  Al10  1  0.27254772  0.27254772  0.62186295  1
  Al  Al11  1  0.00000000  0.72745228  0.34931523  1
  Al  Al12  1  0.72745228  -0.00000000  0.34931523  1
  Al  Al13  1  0.65068477  0.65068477  0.37813705  1
  Al  Al14  1  0.37813705  0.65068477  0.65068477  1
  Al  Al15  1  0.65068477  0.37813705  0.65068477  1
  Fe  Fe16  1  0.66248114  -0.00000000  0.00000000  1
  Fe  Fe17  1  0.00000000  0.66248114  -0.00000000  1
  Fe  Fe18  1  0.00000000  -0.00000000  0.66248114  1
  Fe  Fe19  1  0.33751886  0.33751886  0.33751886  1
  Fe  Fe20  1  -0.00000000  0.64016878  0.64016878  1
  Fe  Fe21  1  0.35983122  0.00000000  0.35983122  1
  Fe  Fe22  1  0.35983122  0.35983122  0.00000000  1
  Fe  Fe23  1  0.00000000  0.35983122  0.35983122  1
  Fe  Fe24  1  0.64016878  -0.00000000  0.64016878  1
  Fe  Fe25  1  0.64016878  0.64016878  -0.00000000  1
