# generated using pymatgen
data_Sr2Ti(SiO4)2
_symmetry_space_group_name_H-M   'P 1'
_cell_length_a   5.10869912
_cell_length_b   8.48821785
_cell_length_c   8.48821785
_cell_angle_alpha   90.00000000
_cell_angle_beta   90.00000000
_cell_angle_gamma   90.00000000
_symmetry_Int_Tables_number   1
_chemical_formula_structural   Sr2Ti(SiO4)2
_chemical_formula_sum   'Sr4 Ti2 Si4 O16'
_cell_volume   368.08096580
_cell_formula_units_Z   2
loop_
 _symmetry_equiv_pos_site_id
 _symmetry_equiv_pos_as_xyz
  1  'x, y, z'
loop_
 _atom_site_type_symbol
 _atom_site_label
 _atom_site_symmetry_multiplicity
 _atom_site_fract_x
 _atom_site_fract_y
 _atom_site_fract_z
 _atom_site_occupancy
  Sr  Sr0  1  0.99788253  0.67335441  0.17335441  1
  Sr  Sr1  1  0.99788253  0.32664559  0.82664559  1
  Sr  Sr2  1  0.99788253  0.82664559  0.67335441  1
  Sr  Sr3  1  0.99788253  0.17335441  0.32664559  1
  Ti  Ti4  1  0.55436793  0.50000000  0.50000000  1
  Ti  Ti5  1  0.55436793  -0.00000000  -0.00000000  1
  Si  Si6  1  0.53062902  0.87055021  0.37055021  1
  Si  Si7  1  0.53062902  0.12944979  0.62944979  1
  Si  Si8  1  0.53062902  0.62944979  0.87055021  1
  Si  Si9  1  0.53062902  0.37055021  0.12944979  1
  O  O10  1  0.65651599  -0.00000000  0.50000000  1
  O  O11  1  0.65651599  0.50000000  -0.00000000  1
  O  O12  1  0.21650921  0.87183423  0.37183423  1
  O  O13  1  0.21650921  0.12816577  0.62816577  1
  O  O14  1  0.21650921  0.62816577  0.87183423  1
  O  O15  1  0.21650921  0.37183423  0.12816577  1
  O  O16  1  0.67372172  0.91943776  0.20526392  1
  O  O17  1  0.67372172  0.08056224  0.79473608  1
  O  O18  1  0.67372172  0.58056224  0.70526392  1
  O  O19  1  0.67372172  0.41943776  0.29473608  1
  O  O20  1  0.67372172  0.20526392  0.08056224  1
  O  O21  1  0.67372172  0.79473608  0.91943776  1
  O  O22  1  0.67372172  0.70526392  0.41943776  1
  O  O23  1  0.67372172  0.29473608  0.58056224  1
  O  O24  1  0.22018766  0.50000000  0.50000000  1
  O  O25  1  0.22018766  -0.00000000  -0.00000000  1
