# generated using pymatgen
data_MnRe(PbO3)2
_symmetry_space_group_name_H-M   'P 1'
_cell_length_a   5.72350709
_cell_length_b   8.27874801
_cell_length_c   9.95981067
_cell_angle_alpha   114.55758792
_cell_angle_beta   106.81306299
_cell_angle_gamma   90.00000000
_symmetry_Int_Tables_number   1
_chemical_formula_structural   MnRe(PbO3)2
_chemical_formula_sum   'Mn3 Re3 Pb6 O18'
_cell_volume   406.95747994
_cell_formula_units_Z   3
loop_
 _symmetry_equiv_pos_site_id
 _symmetry_equiv_pos_as_xyz
  1  'x, y, z'
loop_
 _atom_site_type_symbol
 _atom_site_label
 _atom_site_symmetry_multiplicity
 _atom_site_fract_x
 _atom_site_fract_y
 _atom_site_fract_z
 _atom_site_occupancy
  Mn  Mn0  1  0.00000000  0.00000000  -0.00000000  1
  Mn  Mn1  1  0.34480464  0.33281707  0.66563413  1
  Mn  Mn2  1  0.65519536  0.66718293  0.33436587  1
  Re  Re3  1  0.00000000  0.50000000  -0.00000000  1
  Re  Re4  1  0.33091484  0.83335831  0.66671662  1
  Re  Re5  1  0.66908516  0.16664169  0.33328338  1
  Pb  Pb6  1  0.50000000  0.74486046  0.00000000  1
  Pb  Pb7  1  0.50000000  0.25513954  1.00000000  1
  Pb  Pb8  1  0.85973841  0.08249357  0.66608303  1
  Pb  Pb9  1  0.85973841  0.58358946  0.66608303  1
  Pb  Pb10  1  0.14026159  0.91750643  0.33391697  1
  Pb  Pb11  1  0.14026159  0.41641054  0.33391697  1
  O  O12  1  0.00000000  0.73367036  0.00000000  1
  O  O13  1  1.00000000  0.26632964  1.00000000  1
  O  O14  1  0.42342781  0.74066837  0.48133675  1
  O  O15  1  0.57657219  0.25933163  0.51866325  1
  O  O16  1  0.01696889  0.23249442  0.46498884  1
  O  O17  1  0.98303111  0.76750558  0.53501116  1
  O  O18  1  0.31161301  0.06915739  0.66569785  1
  O  O19  1  0.31161301  0.59654046  0.66569785  1
  O  O20  1  0.68838699  0.93084261  0.33430215  1
  O  O21  1  0.68838699  0.40345954  0.33430215  1
  O  O22  1  0.78895141  0.07799225  0.15598451  1
  O  O23  1  0.21104859  0.92200775  0.84401549  1
  O  O24  1  0.91298397  0.59573932  0.19147864  1
  O  O25  1  0.08701603  0.40426068  0.80852136  1
  O  O26  1  0.35170837  0.55966398  0.11932797  1
  O  O27  1  0.64829163  0.44033602  0.88067203  1
  O  O28  1  0.33939842  0.10075508  0.20151017  1
  O  O29  1  0.66060158  0.89924492  0.79848983  1
