# generated using pymatgen
data_Er3(SbPd2)4
_symmetry_space_group_name_H-M   'P 1'
_cell_length_a   9.35990735
_cell_length_b   9.35990735
_cell_length_c   9.35990735
_cell_angle_alpha   60.00000000
_cell_angle_beta   60.00000000
_cell_angle_gamma   60.00000000
_symmetry_Int_Tables_number   1
_chemical_formula_structural   Er3(SbPd2)4
_chemical_formula_sum   'Er6 Sb8 Pd16'
_cell_volume   579.82862528
_cell_formula_units_Z   2
loop_
 _symmetry_equiv_pos_site_id
 _symmetry_equiv_pos_as_xyz
  1  'x, y, z'
loop_
 _atom_site_type_symbol
 _atom_site_label
 _atom_site_symmetry_multiplicity
 _atom_site_fract_x
 _atom_site_fract_y
 _atom_site_fract_z
 _atom_site_occupancy
  Er  Er0  1  0.72452111  0.27547889  0.27547889  1
  Er  Er1  1  0.72452111  0.27547889  0.72452111  1
  Er  Er2  1  0.72452111  0.72452111  0.27547889  1
  Er  Er3  1  0.27547889  0.72452111  0.72452111  1
  Er  Er4  1  0.27547889  0.72452111  0.27547889  1
  Er  Er5  1  0.27547889  0.27547889  0.72452111  1
  Sb  Sb6  1  0.50000000  -0.00000000  -0.00000000  1
  Sb  Sb7  1  0.50000000  -0.00000000  0.50000000  1
  Sb  Sb8  1  0.50000000  0.50000000  -0.00000000  1
  Sb  Sb9  1  0.00000000  0.50000000  0.50000000  1
  Sb  Sb10  1  0.00000000  0.50000000  -0.00000000  1
  Sb  Sb11  1  0.00000000  -0.00000000  0.50000000  1
  Sb  Sb12  1  0.50000000  0.50000000  0.50000000  1
  Sb  Sb13  1  0.00000000  -0.00000000  -0.00000000  1
  Pd  Pd14  1  0.64401084  0.11866305  0.11866305  1
  Pd  Pd15  1  0.11866305  0.64401084  0.11866305  1
  Pd  Pd16  1  0.11866305  0.11866305  0.64401084  1
  Pd  Pd17  1  0.11866305  0.11866305  0.11866305  1
  Pd  Pd18  1  0.35598916  0.88133695  0.88133695  1
  Pd  Pd19  1  0.88133695  0.35598916  0.88133695  1
  Pd  Pd20  1  0.88133695  0.88133695  0.35598916  1
  Pd  Pd21  1  0.88133695  0.88133695  0.88133695  1
  Pd  Pd22  1  0.99915026  0.33361658  0.33361658  1
  Pd  Pd23  1  0.33361658  0.99915026  0.33361658  1
  Pd  Pd24  1  0.33361658  0.33361658  0.99915026  1
  Pd  Pd25  1  0.33361658  0.33361658  0.33361658  1
  Pd  Pd26  1  0.00084974  0.66638342  0.66638342  1
  Pd  Pd27  1  0.66638342  0.00084974  0.66638342  1
  Pd  Pd28  1  0.66638342  0.66638342  0.00084974  1
  Pd  Pd29  1  0.66638342  0.66638342  0.66638342  1
