# generated using pymatgen
data_CuAgPO4
_symmetry_space_group_name_H-M   'P 1'
_cell_length_a   5.62020312
_cell_length_b   7.73975083
_cell_length_c   7.91812506
_cell_angle_alpha   98.21283768
_cell_angle_beta   90.00000000
_cell_angle_gamma   90.00000000
_symmetry_Int_Tables_number   1
_chemical_formula_structural   CuAgPO4
_chemical_formula_sum   'Cu4 Ag4 P4 O16'
_cell_volume   340.89790685
_cell_formula_units_Z   4
loop_
 _symmetry_equiv_pos_site_id
 _symmetry_equiv_pos_as_xyz
  1  'x, y, z'
loop_
 _atom_site_type_symbol
 _atom_site_label
 _atom_site_symmetry_multiplicity
 _atom_site_fract_x
 _atom_site_fract_y
 _atom_site_fract_z
 _atom_site_occupancy
  Cu  Cu0  1  0.37847173  0.35324046  0.59028497  1
  Cu  Cu1  1  0.87847173  0.14675954  0.40971503  1
  Cu  Cu2  1  0.62152827  0.64675954  0.40971503  1
  Cu  Cu3  1  0.12152827  0.85324046  0.59028497  1
  Ag  Ag4  1  0.38609742  0.69308572  0.93037236  1
  Ag  Ag5  1  0.88609742  0.80691428  0.06962764  1
  Ag  Ag6  1  0.61390258  0.30691428  0.06962764  1
  Ag  Ag7  1  0.11390258  0.19308572  0.93037236  1
  P  P8  1  0.38034820  0.99174752  0.27329862  1
  P  P9  1  0.88034820  0.50825248  0.72670138  1
  P  P10  1  0.61965180  0.00825248  0.72670138  1
  P  P11  1  0.11965180  0.49174752  0.27329862  1
  O  O12  1  0.55311149  0.15223186  0.30676052  1
  O  O13  1  0.05311149  0.34776814  0.69323948  1
  O  O14  1  0.44688851  0.84776814  0.69323948  1
  O  O15  1  0.94688851  0.65223186  0.30676052  1
  O  O16  1  0.51649703  0.81687976  0.26718239  1
  O  O17  1  0.01649703  0.68312024  0.73281761  1
  O  O18  1  0.48350297  0.18312024  0.73281761  1
  O  O19  1  0.98350297  0.31687976  0.26718239  1
  O  O20  1  0.24865494  0.99035982  0.10231275  1
  O  O21  1  0.74865494  0.50964018  0.89768725  1
  O  O22  1  0.75134506  0.00964018  0.89768725  1
  O  O23  1  0.25134506  0.49035982  0.10231275  1
  O  O24  1  0.19248491  0.01365009  0.42554131  1
  O  O25  1  0.69248491  0.48634991  0.57445869  1
  O  O26  1  0.80751509  0.98634991  0.57445869  1
  O  O27  1  0.30751509  0.51365009  0.42554131  1
