# generated using pymatgen
data_NaAgS2O3
_symmetry_space_group_name_H-M   'P 1'
_cell_length_a   6.24131433
_cell_length_b   8.57266142
_cell_length_c   9.42077079
_cell_angle_alpha   105.97515455
_cell_angle_beta   90.00000000
_cell_angle_gamma   90.00000000
_symmetry_Int_Tables_number   1
_chemical_formula_structural   NaAgS2O3
_chemical_formula_sum   'Na4 Ag4 S8 O12'
_cell_volume   484.58923096
_cell_formula_units_Z   4
loop_
 _symmetry_equiv_pos_site_id
 _symmetry_equiv_pos_as_xyz
  1  'x, y, z'
loop_
 _atom_site_type_symbol
 _atom_site_label
 _atom_site_symmetry_multiplicity
 _atom_site_fract_x
 _atom_site_fract_y
 _atom_site_fract_z
 _atom_site_occupancy
  Na  Na0  1  0.13725240  0.17042516  0.93987587  1
  Na  Na1  1  0.63725240  0.32957484  0.06012413  1
  Na  Na2  1  0.86274760  0.82957484  0.06012413  1
  Na  Na3  1  0.36274760  0.67042516  0.93987587  1
  Ag  Ag4  1  0.51087695  0.78064959  0.44438003  1
  Ag  Ag5  1  0.01087695  0.71935041  0.55561997  1
  Ag  Ag6  1  0.48912305  0.21935041  0.55561997  1
  Ag  Ag7  1  0.98912305  0.28064959  0.44438003  1
  S  S8  1  0.28139244  0.54054376  0.39950279  1
  S  S9  1  0.78139244  0.95945624  0.60049721  1
  S  S10  1  0.71860756  0.45945624  0.60049721  1
  S  S11  1  0.21860756  0.04054376  0.39950279  1
  S  S12  1  0.12922898  0.50954001  0.19388968  1
  S  S13  1  0.62922898  0.99045999  0.80611032  1
  S  S14  1  0.87077102  0.49045999  0.80611032  1
  S  S15  1  0.37077102  0.00954001  0.19388968  1
  O  O16  1  0.30079060  0.46606036  0.08022642  1
  O  O17  1  0.80079060  0.03393964  0.91977358  1
  O  O18  1  0.69920940  0.53393964  0.91977358  1
  O  O19  1  0.19920940  0.96606036  0.08022642  1
  O  O20  1  0.98113647  0.36988569  0.17915202  1
  O  O21  1  0.48113647  0.13011431  0.82084798  1
  O  O22  1  0.01886353  0.63011431  0.82084798  1
  O  O23  1  0.51886353  0.86988569  0.17915202  1
  O  O24  1  0.01978371  0.66000909  0.19386301  1
  O  O25  1  0.51978371  0.83999091  0.80613699  1
  O  O26  1  0.98021629  0.33999091  0.80613699  1
  O  O27  1  0.48021629  0.16000909  0.19386301  1
