# generated using pymatgen
data_V2CuH3O7
_symmetry_space_group_name_H-M   'P 1'
_cell_length_a   5.23358300
_cell_length_b   5.38373266
_cell_length_c   10.45799078
_cell_angle_alpha   99.45212261
_cell_angle_beta   100.65304707
_cell_angle_gamma   102.16231146
_symmetry_Int_Tables_number   1
_chemical_formula_structural   V2CuH3O7
_chemical_formula_sum   'V4 Cu2 H6 O14'
_cell_volume   276.68517917
_cell_formula_units_Z   2
loop_
 _symmetry_equiv_pos_site_id
 _symmetry_equiv_pos_as_xyz
  1  'x, y, z'
loop_
 _atom_site_type_symbol
 _atom_site_label
 _atom_site_symmetry_multiplicity
 _atom_site_fract_x
 _atom_site_fract_y
 _atom_site_fract_z
 _atom_site_occupancy
  V  V0  1  0.18224732  0.07471356  0.66968023  1
  V  V1  1  0.81775268  0.92528644  0.33031977  1
  V  V2  1  0.63928207  0.66630352  0.71772367  1
  V  V3  1  0.36071793  0.33369648  0.28227633  1
  Cu  Cu4  1  0.50000000  0.50000000  0.00000000  1
  Cu  Cu5  1  -0.00000000  0.50000000  0.50000000  1
  H  H6  1  0.71388067  0.15497477  0.58696408  1
  H  H7  1  0.28611933  0.84502523  0.41303592  1
  H  H8  1  0.90149088  0.28273874  0.05708883  1
  H  H9  1  0.09850912  0.71726126  0.94291117  1
  H  H10  1  0.68275729  0.10403224  0.93292723  1
  H  H11  1  0.31724271  0.89596776  0.06707277  1
  O  O12  1  0.72239750  0.64861694  0.88269848  1
  O  O13  1  0.27760250  0.35138306  0.11730152  1
  O  O14  1  0.49844657  0.92947741  0.70454519  1
  O  O15  1  0.50155343  0.07052259  0.29545481  1
  O  O16  1  0.42048728  0.37745075  0.62473657  1
  O  O17  1  0.57951272  0.62254925  0.37526343  1
  O  O18  1  0.93922890  0.71492743  0.65543107  1
  O  O19  1  0.06077110  0.28507257  0.34456893  1
  O  O20  1  0.15860431  0.21537273  0.81791225  1
  O  O21  1  0.84139569  0.78462727  0.18208775  1
  O  O22  1  0.87057731  0.16140981  0.54707576  1
  O  O23  1  0.12942269  0.83859019  0.45292424  1
  O  O24  1  0.70575203  0.22609098  0.01734550  1
  O  O25  1  0.29424797  0.77390902  0.98265450  1
