# generated using pymatgen
data_Mn5Al31Cu3
_symmetry_space_group_name_H-M   'P 1'
_cell_length_a   7.59645463
_cell_length_b   12.76125234
_cell_length_c   12.61225824
_cell_angle_alpha   90.00000000
_cell_angle_beta   107.52690579
_cell_angle_gamma   90.00000000
_symmetry_Int_Tables_number   1
_chemical_formula_structural   Mn5Al31Cu3
_chemical_formula_sum   'Mn10 Al62 Cu6'
_cell_volume   1165.87568637
_cell_formula_units_Z   2
loop_
 _symmetry_equiv_pos_site_id
 _symmetry_equiv_pos_as_xyz
  1  'x, y, z'
loop_
 _atom_site_type_symbol
 _atom_site_label
 _atom_site_symmetry_multiplicity
 _atom_site_fract_x
 _atom_site_fract_y
 _atom_site_fract_z
 _atom_site_occupancy
  Mn  Mn0  1  0.35745155  0.94671044  0.71490311  1
  Mn  Mn1  1  0.64254845  0.05328956  0.28509689  1
  Mn  Mn2  1  0.35745155  0.55328956  0.71490311  1
  Mn  Mn3  1  0.64254845  0.44671044  0.28509689  1
  Mn  Mn4  1  0.52353438  0.75000000  0.42386355  1
  Mn  Mn5  1  0.09967083  0.25000000  0.57613645  1
  Mn  Mn6  1  0.47646562  0.25000000  0.57613645  1
  Mn  Mn7  1  0.90032917  0.75000000  0.42386355  1
  Mn  Mn8  1  0.53932379  0.75000000  0.07864759  1
  Mn  Mn9  1  0.46067621  0.25000000  0.92135241  1
  Al  Al10  1  0.36300937  0.15047202  0.72601873  1
  Al  Al11  1  0.63699063  0.84952798  0.27398127  1
  Al  Al12  1  0.36300937  0.34952798  0.72601873  1
  Al  Al13  1  0.63699063  0.65047202  0.27398127  1
  Al  Al14  1  0.26114446  0.06369941  0.52228891  1
  Al  Al15  1  0.73885554  0.93630059  0.47771109  1
  Al  Al16  1  0.26114446  0.43630059  0.52228891  1
  Al  Al17  1  0.73885554  0.56369941  0.47771109  1
  Al  Al18  1  0.45869734  0.88445212  0.91739469  1
  Al  Al19  1  0.54130266  0.11554788  0.08260531  1
  Al  Al20  1  0.45869734  0.61554788  0.91739469  1
  Al  Al21  1  0.54130266  0.38445212  0.08260531  1
  Al  Al22  1  0.01707481  0.09509970  0.03414963  1
  Al  Al23  1  0.98292519  0.90490030  0.96585037  1
  Al  Al24  1  0.01707481  0.40490030  0.03414963  1
  Al  Al25  1  0.98292519  0.59509970  0.96585037  1
  Al  Al26  1  0.75311258  0.75000000  0.96455634  1
  Al  Al27  1  0.78855624  0.25000000  0.03544366  1
  Al  Al28  1  0.24688742  0.25000000  0.03544366  1
  Al  Al29  1  0.21144376  0.75000000  0.96455634  1
  Al  Al30  1  0.91255899  0.75000000  0.20653578  1
  Al  Al31  1  0.70602321  0.25000000  0.79346422  1
  Al  Al32  1  0.08744101  0.25000000  0.79346422  1
  Al  Al33  1  0.29397679  0.75000000  0.20653578  1
  Al  Al34  1  0.80237519  0.75000000  0.60475039  1
  Al  Al35  1  0.19762481  0.25000000  0.39524961  1
  Al  Al36  1  0.20448659  0.75000000  0.40897319  1
  Al  Al37  1  0.79551341  0.25000000  0.59102681  1
  Al  Al38  1  0.36629631  0.75000000  0.73259262  1
  Al  Al39  1  0.63370369  0.25000000  0.26740738  1
  Al  Al40  1  0.26060922  0.07064961  0.89989033  1
  Al  Al41  1  0.36071889  0.92935039  0.10010967  1
  Al  Al42  1  0.26060922  0.42935039  0.89989033  1
  Al  Al43  1  0.36071889  0.57064961  0.10010967  1
  Al  Al44  1  0.73939078  0.92935039  0.10010967  1
  Al  Al45  1  0.63928111  0.07064961  0.89989033  1
  Al  Al46  1  0.73939078  0.57064961  0.10010967  1
  Al  Al47  1  0.63928111  0.42935039  0.89989033  1
  Al  Al48  1  0.97714301  0.93417003  0.34611595  1
  Al  Al49  1  0.63102705  0.06582997  0.65388405  1
  Al  Al50  1  0.97714301  0.56582997  0.34611595  1
  Al  Al51  1  0.63102705  0.43417003  0.65388405  1
  Al  Al52  1  0.02285699  0.06582997  0.65388405  1
  Al  Al53  1  0.36897295  0.93417003  0.34611595  1
  Al  Al54  1  0.02285699  0.43417003  0.65388405  1
  Al  Al55  1  0.36897295  0.56582997  0.34611595  1
  Al  Al56  1  0.09372056  0.87174061  0.56578995  1
  Al  Al57  1  0.52793061  0.12825939  0.43421005  1
  Al  Al58  1  0.09372056  0.62825939  0.56578995  1
  Al  Al59  1  0.52793061  0.37174061  0.43421005  1
  Al  Al60  1  0.90627944  0.12825939  0.43421005  1
  Al  Al61  1  0.47206939  0.87174061  0.56578995  1
  Al  Al62  1  0.90627944  0.37174061  0.43421005  1
  Al  Al63  1  0.47206939  0.62825939  0.56578995  1
  Al  Al64  1  0.90657294  0.10712834  0.21809725  1
  Al  Al65  1  0.68847569  0.89287166  0.78190275  1
  Al  Al66  1  0.90657294  0.39287166  0.21809725  1
  Al  Al67  1  0.68847569  0.60712834  0.78190275  1
  Al  Al68  1  0.09342706  0.89287166  0.78190275  1
  Al  Al69  1  0.31152431  0.10712834  0.21809725  1
  Al  Al70  1  0.09342706  0.60712834  0.78190275  1
  Al  Al71  1  0.31152431  0.39287166  0.21809725  1
  Cu  Cu72  1  0.08655873  0.93604194  0.17311745  1
  Cu  Cu73  1  0.91344127  0.06395806  0.82688255  1
  Cu  Cu74  1  0.08655873  0.56395806  0.17311745  1
  Cu  Cu75  1  0.91344127  0.43604194  0.82688255  1
  Cu  Cu76  1  0.90594099  0.75000000  0.81188197  1
  Cu  Cu77  1  0.09405901  0.25000000  0.18811803  1
