# generated using pymatgen
data_U3Al19Ni5
_symmetry_space_group_name_H-M   'P 1'
_cell_length_a   4.06920718
_cell_length_b   8.18645195
_cell_length_c   26.86198904
_cell_angle_alpha   90.00000000
_cell_angle_beta   90.00000000
_cell_angle_gamma   104.39072383
_symmetry_Int_Tables_number   1
_chemical_formula_structural   U3Al19Ni5
_chemical_formula_sum   'U6 Al38 Ni10'
_cell_volume   866.75957592
_cell_formula_units_Z   2
loop_
 _symmetry_equiv_pos_site_id
 _symmetry_equiv_pos_as_xyz
  1  'x, y, z'
loop_
 _atom_site_type_symbol
 _atom_site_label
 _atom_site_symmetry_multiplicity
 _atom_site_fract_x
 _atom_site_fract_y
 _atom_site_fract_z
 _atom_site_occupancy
  U  U0  1  0.11606808  0.23213617  0.25000000  1
  U  U1  1  0.88393192  0.76786383  0.75000000  1
  U  U2  1  0.33224639  0.66449277  0.13596284  1
  U  U3  1  0.66775361  0.33550723  0.86403716  1
  U  U4  1  0.33224639  0.66449277  0.36403716  1
  U  U5  1  0.66775361  0.33550723  0.63596284  1
  Al  Al6  1  0.09332148  0.18664296  0.46293900  1
  Al  Al7  1  0.90667852  0.81335704  0.53706100  1
  Al  Al8  1  0.09332148  0.18664296  0.03706100  1
  Al  Al9  1  0.90667852  0.81335704  0.96293900  1
  Al  Al10  1  0.72414825  0.44829649  0.19407331  1
  Al  Al11  1  0.27585175  0.55170351  0.80592669  1
  Al  Al12  1  0.72414825  0.44829649  0.30592669  1
  Al  Al13  1  0.27585175  0.55170351  0.69407331  1
  Al  Al14  1  0.07829229  0.15658457  0.79913414  1
  Al  Al15  1  0.92170771  0.84341543  0.20086586  1
  Al  Al16  1  0.07829229  0.15658457  0.70086586  1
  Al  Al17  1  0.92170771  0.84341543  0.29913414  1
  Al  Al18  1  0.29172143  0.58344286  0.91083227  1
  Al  Al19  1  0.70827857  0.41655714  0.08916773  1
  Al  Al20  1  0.29172143  0.58344286  0.58916773  1
  Al  Al21  1  0.70827857  0.41655714  0.41083227  1
  Al  Al22  1  0.26434114  0.52868227  0.02935209  1
  Al  Al23  1  0.73565886  0.47131773  0.97064791  1
  Al  Al24  1  0.26434114  0.52868227  0.47064791  1
  Al  Al25  1  0.73565886  0.47131773  0.52935209  1
  Al  Al26  1  0.03667900  0.07335801  0.89838102  1
  Al  Al27  1  0.96332100  0.92664199  0.10161898  1
  Al  Al28  1  0.03667900  0.07335801  0.60161898  1
  Al  Al29  1  0.96332100  0.92664199  0.39838102  1
  Al  Al30  1  0.13162391  0.26324782  0.36352228  1
  Al  Al31  1  0.86837609  0.73675218  0.63647772  1
  Al  Al32  1  0.13162391  0.26324782  0.13647772  1
  Al  Al33  1  0.86837609  0.73675218  0.86352228  1
  Al  Al34  1  0.56786687  0.13573374  0.96923531  1
  Al  Al35  1  0.43213313  0.86426626  0.03076469  1
  Al  Al36  1  0.56786687  0.13573374  0.53076469  1
  Al  Al37  1  0.43213313  0.86426626  0.46923531  1
  Al  Al38  1  0.53681054  0.07362107  0.17400664  1
  Al  Al39  1  0.46318946  0.92637893  0.82599336  1
  Al  Al40  1  0.53681054  0.07362107  0.32599336  1
  Al  Al41  1  0.46318946  0.92637893  0.67400664  1
  Al  Al42  1  0.30535363  0.61070725  0.25000000  1
  Al  Al43  1  0.69464637  0.38929275  0.75000000  1
  Ni  Ni44  1  0.45584047  0.91168095  0.25000000  1
  Ni  Ni45  1  0.54415953  0.08831905  0.75000000  1
  Ni  Ni46  1  0.15950147  0.31900295  0.95711126  1
  Ni  Ni47  1  0.84049853  0.68099705  0.04288874  1
  Ni  Ni48  1  0.15950147  0.31900295  0.54288874  1
  Ni  Ni49  1  0.84049853  0.68099705  0.45711126  1
  Ni  Ni50  1  0.44689976  0.89379952  0.91601780  1
  Ni  Ni51  1  0.55310024  0.10620048  0.08398220  1
  Ni  Ni52  1  0.44689976  0.89379952  0.58398220  1
  Ni  Ni53  1  0.55310024  0.10620048  0.41601780  1
