# generated using pymatgen
data_CuH8C2S2N4Cl
_symmetry_space_group_name_H-M   'P 1'
_cell_length_a   6.10466409
_cell_length_b   8.45911395
_cell_length_c   36.74011689
_cell_angle_alpha   90.00000000
_cell_angle_beta   93.34600015
_cell_angle_gamma   90.00000000
_symmetry_Int_Tables_number   1
_chemical_formula_structural   CuH8C2S2N4Cl
_chemical_formula_sum   'Cu8 H64 C16 S16 N32 Cl8'
_cell_volume   1894.02714220
_cell_formula_units_Z   8
loop_
 _symmetry_equiv_pos_site_id
 _symmetry_equiv_pos_as_xyz
  1  'x, y, z'
loop_
 _atom_site_type_symbol
 _atom_site_label
 _atom_site_symmetry_multiplicity
 _atom_site_fract_x
 _atom_site_fract_y
 _atom_site_fract_z
 _atom_site_occupancy
  Cu  Cu0  1  0.20880912  0.16969260  0.60139893  1
  Cu  Cu1  1  0.79119088  0.66969260  0.89860107  1
  Cu  Cu2  1  0.79119088  0.83030740  0.39860107  1
  Cu  Cu3  1  0.20880912  0.33030740  0.10139893  1
  Cu  Cu4  1  0.85392626  0.23762385  0.65615466  1
  Cu  Cu5  1  0.14607374  0.73762385  0.84384534  1
  Cu  Cu6  1  0.14607374  0.76237615  0.34384534  1
  Cu  Cu7  1  0.85392626  0.26237615  0.15615466  1
  H  H8  1  0.04481720  0.43974005  0.54328156  1
  H  H9  1  0.95518280  0.93974005  0.95671844  1
  H  H10  1  0.95518280  0.56025995  0.45671844  1
  H  H11  1  0.04481720  0.06025995  0.04328156  1
  H  H12  1  0.52095714  0.51374387  0.57555414  1
  H  H13  1  0.47904286  0.01374387  0.92444586  1
  H  H14  1  0.47904286  0.48625613  0.42444586  1
  H  H15  1  0.52095714  0.98625613  0.07555414  1
  H  H16  1  0.58751976  0.20294196  0.71293252  1
  H  H17  1  0.41248024  0.70294196  0.78706748  1
  H  H18  1  0.41248024  0.79705804  0.28706748  1
  H  H19  1  0.58751976  0.29705804  0.21293252  1
  H  H20  1  0.83730223  0.02254769  0.79032631  1
  H  H21  1  0.16269777  0.52254769  0.70967369  1
  H  H22  1  0.16269777  0.97745231  0.20967369  1
  H  H23  1  0.83730223  0.47745231  0.29032631  1
  H  H24  1  0.50766491  0.97304143  0.56917434  1
  H  H25  1  0.49233509  0.47304143  0.93082566  1
  H  H26  1  0.49233509  0.02695857  0.43082566  1
  H  H27  1  0.50766491  0.52695857  0.06917434  1
  H  H28  1  0.26707676  0.76378290  0.49571919  1
  H  H29  1  0.73292324  0.26378290  0.00428081  1
  H  H30  1  0.73292324  0.23621710  0.50428081  1
  H  H31  1  0.26707676  0.73621710  0.99571919  1
  H  H32  1  0.78674665  0.52722250  0.53198235  1
  H  H33  1  0.21325335  0.02722250  0.96801765  1
  H  H34  1  0.21325335  0.47277750  0.46801765  1
  H  H35  1  0.78674665  0.97277750  0.03198235  1
  H  H36  1  0.60449913  0.48511808  0.62187392  1
  H  H37  1  0.39550087  0.98511808  0.87812608  1
  H  H38  1  0.39550087  0.51488192  0.37812608  1
  H  H39  1  0.60449913  0.01488192  0.12187392  1
  H  H40  1  0.55102419  0.11234200  0.75539148  1
  H  H41  1  0.44897581  0.61234200  0.74460852  1
  H  H42  1  0.44897581  0.88765800  0.24460852  1
  H  H43  1  0.55102419  0.38765800  0.25539148  1
  H  H44  1  0.10359367  0.02300390  0.77533825  1
  H  H45  1  0.89640633  0.52300390  0.72466175  1
  H  H46  1  0.89640633  0.97699610  0.22466175  1
  H  H47  1  0.10359367  0.47699610  0.27533825  1
  H  H48  1  0.36830055  0.71802792  0.65017895  1
  H  H49  1  0.63169945  0.21802792  0.84982105  1
  H  H50  1  0.63169945  0.28197208  0.34982105  1
  H  H51  1  0.36830055  0.78197208  0.15017895  1
  H  H52  1  0.83621205  0.93773458  0.67531759  1
  H  H53  1  0.16378795  0.43773458  0.82468241  1
  H  H54  1  0.16378795  0.06226542  0.32468241  1
  H  H55  1  0.83621205  0.56226542  0.17531759  1
  H  H56  1  0.99336918  0.80588176  0.50448291  1
  H  H57  1  0.00663082  0.30588176  0.99551709  1
  H  H58  1  0.00663082  0.19411824  0.49551709  1
  H  H59  1  0.99336918  0.69411824  0.00448291  1
  H  H60  1  0.54702116  0.85607041  0.53049256  1
  H  H61  1  0.45297884  0.35607041  0.96950744  1
  H  H62  1  0.45297884  0.14392959  0.46950744  1
  H  H63  1  0.54702116  0.64392959  0.03049256  1
  H  H64  1  0.23721150  0.86928233  0.62315597  1
  H  H65  1  0.76278850  0.36928233  0.87684403  1
  H  H66  1  0.76278850  0.13071767  0.37684403  1
  H  H67  1  0.23721150  0.63071767  0.12315597  1
  H  H68  1  0.70146924  0.75059486  0.67599887  1
  H  H69  1  0.29853076  0.25059486  0.82400113  1
  H  H70  1  0.29853076  0.24940514  0.32400113  1
  H  H71  1  0.70146924  0.74940514  0.17599887  1
  C  C72  1  0.86563766  0.11505570  0.73936673  1
  C  C73  1  0.13436234  0.61505570  0.76063327  1
  C  C74  1  0.13436234  0.88494430  0.26063327  1
  C  C75  1  0.86563766  0.38494430  0.23936673  1
  C  C76  1  0.84230994  0.45654467  0.58543666  1
  C  C77  1  0.15769006  0.95654467  0.91456334  1
  C  C78  1  0.15769006  0.54345533  0.41456334  1
  C  C79  1  0.84230994  0.04345533  0.08543666  1
  C  C80  1  0.53726354  0.92459231  0.64763545  1
  C  C81  1  0.46273646  0.42459231  0.85236455  1
  C  C82  1  0.46273646  0.07540769  0.35236455  1
  C  C83  1  0.53726354  0.57540769  0.14763545  1
  C  C84  1  0.22782469  0.89410206  0.54168224  1
  C  C85  1  0.77217531  0.39410206  0.95831776  1
  C  C86  1  0.77217531  0.10589794  0.45831776  1
  C  C87  1  0.22782469  0.60589794  0.04168224  1
  S  S88  1  0.03941502  0.39157212  0.61874605  1
  S  S89  1  0.96058498  0.89157212  0.88125395  1
  S  S90  1  0.96058498  0.60842788  0.38125395  1
  S  S91  1  0.03941502  0.10842788  0.11874605  1
  S  S92  1  0.04387276  0.15289236  0.70573925  1
  S  S93  1  0.95612724  0.65289236  0.79426075  1
  S  S94  1  0.95612724  0.84710764  0.29426075  1
  S  S95  1  0.04387276  0.34710764  0.20573925  1
  S  S96  1  0.03893935  0.97850889  0.56896992  1
  S  S97  1  0.96106065  0.47850889  0.93103008  1
  S  S98  1  0.96106065  0.02149111  0.43103008  1
  S  S99  1  0.03893935  0.52149111  0.06896992  1
  S  S100  1  0.53950837  0.11858661  0.63206460  1
  S  S101  1  0.46049163  0.61858661  0.86793540  1
  S  S102  1  0.46049163  0.88141339  0.36793540  1
  S  S103  1  0.53950837  0.38141339  0.13206460  1
  N  N104  1  0.44450628  0.90266810  0.54876083  1
  N  N105  1  0.55549372  0.40266810  0.95123917  1
  N  N106  1  0.55549372  0.09733190  0.45123917  1
  N  N107  1  0.44450628  0.59733190  0.04876083  1
  N  N108  1  0.70973261  0.86489967  0.66669799  1
  N  N109  1  0.29026739  0.36489967  0.83330201  1
  N  N110  1  0.29026739  0.13510033  0.33330201  1
  N  N111  1  0.70973261  0.63510033  0.16669799  1
  N  N112  1  0.65025577  0.14265906  0.73504386  1
  N  N113  1  0.34974423  0.64265906  0.76495614  1
  N  N114  1  0.34974423  0.85734094  0.26495614  1
  N  N115  1  0.65025577  0.35734094  0.23504386  1
  N  N116  1  0.36354432  0.83161007  0.64058304  1
  N  N117  1  0.63645568  0.33161007  0.85941696  1
  N  N118  1  0.63645568  0.16838993  0.35941696  1
  N  N119  1  0.36354432  0.66838993  0.14058304  1
  N  N120  1  0.15601979  0.81322870  0.51210282  1
  N  N121  1  0.84398021  0.31322870  0.98789718  1
  N  N122  1  0.84398021  0.18677130  0.48789718  1
  N  N123  1  0.15601979  0.68677130  0.01210282  1
  N  N124  1  0.64322723  0.49598996  0.59524152  1
  N  N125  1  0.35677277  0.99598996  0.90475848  1
  N  N126  1  0.35677277  0.50401004  0.40475848  1
  N  N127  1  0.64322723  0.00401004  0.09524152  1
  N  N128  1  0.89355459  0.47496374  0.55110399  1
  N  N129  1  0.10644541  0.97496374  0.94889601  1
  N  N130  1  0.10644541  0.52503626  0.44889601  1
  N  N131  1  0.89355459  0.02503626  0.05110399  1
  N  N132  1  0.94333800  0.05522348  0.77119245  1
  N  N133  1  0.05666200  0.55522348  0.72880755  1
  N  N134  1  0.05666200  0.94477652  0.22880755  1
  N  N135  1  0.94333800  0.44477652  0.27119245  1
  Cl  Cl136  1  0.55511890  0.50249583  0.68539424  1
  Cl  Cl137  1  0.44488110  0.00249583  0.81460576  1
  Cl  Cl138  1  0.44488110  0.49750417  0.31460576  1
  Cl  Cl139  1  0.55511890  0.99750417  0.18539424  1
  Cl  Cl140  1  0.34390688  0.32353945  0.52071286  1
  Cl  Cl141  1  0.65609312  0.82353945  0.97928714  1
  Cl  Cl142  1  0.65609312  0.67646055  0.47928714  1
  Cl  Cl143  1  0.34390688  0.17646055  0.02071286  1
