# generated using pymatgen
data_MnPH4N(OF)3
_symmetry_space_group_name_H-M   'P 1'
_cell_length_a   5.48460694
_cell_length_b   7.58080524
_cell_length_c   13.81838422
_cell_angle_alpha   90.00000000
_cell_angle_beta   90.00000000
_cell_angle_gamma   108.09625057
_symmetry_Int_Tables_number   1
_chemical_formula_structural   MnPH4N(OF)3
_chemical_formula_sum   'Mn4 P4 H16 N4 O12 F12'
_cell_volume   546.11827419
_cell_formula_units_Z   4
loop_
 _symmetry_equiv_pos_site_id
 _symmetry_equiv_pos_as_xyz
  1  'x, y, z'
loop_
 _atom_site_type_symbol
 _atom_site_label
 _atom_site_symmetry_multiplicity
 _atom_site_fract_x
 _atom_site_fract_y
 _atom_site_fract_z
 _atom_site_occupancy
  Mn  Mn0  1  0.50000000  -0.00000000  0.00000000  1
  Mn  Mn1  1  -0.00000000  0.50000000  0.50000000  1
  Mn  Mn2  1  0.50000000  0.50000000  0.00000000  1
  Mn  Mn3  1  -0.00000000  -0.00000000  0.50000000  1
  P  P4  1  0.05653902  0.18401438  0.89822954  1
  P  P5  1  0.55653902  0.68401438  0.60177046  1
  P  P6  1  0.94346098  0.81598562  0.10177046  1
  P  P7  1  0.44346098  0.31598562  0.39822954  1
  H  H8  1  0.93756250  0.32661834  0.27214841  1
  H  H9  1  0.43756250  0.82661834  0.22785159  1
  H  H10  1  0.06243750  0.67338166  0.72785159  1
  H  H11  1  0.56243750  0.17338166  0.77214841  1
  H  H12  1  0.12533171  0.39483329  0.17138320  1
  H  H13  1  0.62533171  0.89483329  0.32861680  1
  H  H14  1  0.87466829  0.60516671  0.82861680  1
  H  H15  1  0.37466829  0.10516671  0.67138320  1
  H  H16  1  0.93451331  0.17103852  0.18291910  1
  H  H17  1  0.43451331  0.67103852  0.31708090  1
  H  H18  1  0.06548669  0.82896148  0.81708090  1
  H  H19  1  0.56548669  0.32896148  0.68291910  1
  H  H20  1  0.80132933  0.33396931  0.16272403  1
  H  H21  1  0.30132933  0.83396931  0.33727597  1
  H  H22  1  0.19867067  0.66603069  0.83727597  1
  H  H23  1  0.69867067  0.16603069  0.66272403  1
  N  N24  1  0.95091121  0.30797484  0.19877325  1
  N  N25  1  0.45091121  0.80797484  0.30122675  1
  N  N26  1  0.04908879  0.69202516  0.80122675  1
  N  N27  1  0.54908879  0.19202516  0.69877325  1
  O  O28  1  0.78849198  0.95062489  0.10461491  1
  O  O29  1  0.28849198  0.45062489  0.39538509  1
  O  O30  1  0.21150802  0.04937511  0.89538509  1
  O  O31  1  0.71150802  0.54937511  0.60461491  1
  O  O32  1  0.14914096  0.34569772  0.96952753  1
  O  O33  1  0.64914096  0.84569772  0.53047247  1
  O  O34  1  0.85085904  0.65430228  0.03047247  1
  O  O35  1  0.35085904  0.15430228  0.46952753  1
  O  O36  1  0.76501130  0.09142850  0.90194289  1
  O  O37  1  0.26501130  0.59142850  0.59805711  1
  O  O38  1  0.23498870  0.90857150  0.09805711  1
  O  O39  1  0.73498870  0.40857150  0.40194289  1
  F  F40  1  0.60628299  0.46847363  0.87385227  1
  F  F41  1  0.10628299  0.96847363  0.62614773  1
  F  F42  1  0.39371701  0.53152637  0.12614773  1
  F  F43  1  0.89371701  0.03152637  0.37385227  1
  F  F44  1  0.08718848  0.27714414  0.79311900  1
  F  F45  1  0.58718848  0.77714414  0.70688100  1
  F  F46  1  0.91281152  0.72285586  0.20688100  1
  F  F47  1  0.41281152  0.22285586  0.29311900  1
  F  F48  1  0.57132023  0.24451046  0.05164110  1
  F  F49  1  0.07132023  0.74451046  0.44835890  1
  F  F50  1  0.42867977  0.75548954  0.94835890  1
  F  F51  1  0.92867977  0.25548954  0.55164110  1
