# generated using pymatgen
data_MnB2H17N3
_symmetry_space_group_name_H-M   'P 1'
_cell_length_a   8.46228256
_cell_length_b   9.70614602
_cell_length_c   12.03806161
_cell_angle_alpha   90.00000000
_cell_angle_beta   90.00000000
_cell_angle_gamma   90.00000000
_symmetry_Int_Tables_number   1
_chemical_formula_structural   MnB2H17N3
_chemical_formula_sum   'Mn4 B8 H68 N12'
_cell_volume   988.76003639
_cell_formula_units_Z   4
loop_
 _symmetry_equiv_pos_site_id
 _symmetry_equiv_pos_as_xyz
  1  'x, y, z'
loop_
 _atom_site_type_symbol
 _atom_site_label
 _atom_site_symmetry_multiplicity
 _atom_site_fract_x
 _atom_site_fract_y
 _atom_site_fract_z
 _atom_site_occupancy
  Mn  Mn0  1  0.25000000  0.96602555  0.30842329  1
  Mn  Mn1  1  0.25000000  0.53397445  0.80842329  1
  Mn  Mn2  1  0.75000000  0.03397445  0.69157671  1
  Mn  Mn3  1  0.75000000  0.46602555  0.19157671  1
  B  B4  1  0.25000000  0.31145597  0.90998352  1
  B  B5  1  0.25000000  0.18854403  0.40998352  1
  B  B6  1  0.75000000  0.68854403  0.09001648  1
  B  B7  1  0.75000000  0.81145597  0.59001648  1
  B  B8  1  0.75000000  0.20547966  0.13984972  1
  B  B9  1  0.75000000  0.29452034  0.63984972  1
  B  B10  1  0.25000000  0.79452034  0.86015028  1
  B  B11  1  0.25000000  0.70547966  0.36015028  1
  H  H12  1  0.25000000  0.59988148  0.58084926  1
  H  H13  1  0.25000000  0.90011852  0.08084926  1
  H  H14  1  0.75000000  0.40011852  0.41915074  1
  H  H15  1  0.75000000  0.09988148  0.91915074  1
  H  H16  1  0.15477668  0.45541301  0.59083243  1
  H  H17  1  0.34522332  0.04458699  0.09083243  1
  H  H18  1  0.65477668  0.54458699  0.40916757  1
  H  H19  1  0.84522332  0.95541301  0.90916757  1
  H  H20  1  0.84522332  0.54458699  0.40916757  1
  H  H21  1  0.65477668  0.95541301  0.90916757  1
  H  H22  1  0.34522332  0.45541301  0.59083243  1
  H  H23  1  0.15477668  0.04458699  0.09083243  1
  H  H24  1  0.06253603  0.97828560  0.63638670  1
  H  H25  1  0.43746397  0.52171440  0.13638670  1
  H  H26  1  0.56253603  0.02171440  0.36361330  1
  H  H27  1  0.93746397  0.47828560  0.86361330  1
  H  H28  1  0.93746397  0.02171440  0.36361330  1
  H  H29  1  0.56253603  0.47828560  0.86361330  1
  H  H30  1  0.43746397  0.97828560  0.63638670  1
  H  H31  1  0.06253603  0.52171440  0.13638670  1
  H  H32  1  0.05141274  0.14348607  0.66736653  1
  H  H33  1  0.44858726  0.35651393  0.16736653  1
  H  H34  1  0.55141274  0.85651393  0.33263347  1
  H  H35  1  0.94858726  0.64348607  0.83263347  1
  H  H36  1  0.94858726  0.85651393  0.33263347  1
  H  H37  1  0.55141274  0.64348607  0.83263347  1
  H  H38  1  0.44858726  0.14348607  0.66736653  1
  H  H39  1  0.05141274  0.35651393  0.16736653  1
  H  H40  1  0.06629383  0.02686607  0.76628059  1
  H  H41  1  0.43370617  0.47313393  0.26628059  1
  H  H42  1  0.56629383  0.97313393  0.23371941  1
  H  H43  1  0.93370617  0.52686607  0.73371941  1
  H  H44  1  0.93370617  0.97313393  0.23371941  1
  H  H45  1  0.56629383  0.52686607  0.73371941  1
  H  H46  1  0.43370617  0.02686607  0.76628059  1
  H  H47  1  0.06629383  0.47313393  0.26628059  1
  H  H48  1  0.25000000  0.42712556  0.95621935  1
  H  H49  1  0.25000000  0.07287444  0.45621935  1
  H  H50  1  0.75000000  0.57287444  0.04378065  1
  H  H51  1  0.75000000  0.92712556  0.54378065  1
  H  H52  1  0.25000000  0.32558838  0.80674662  1
  H  H53  1  0.25000000  0.17441162  0.30674662  1
  H  H54  1  0.75000000  0.67441162  0.19325338  1
  H  H55  1  0.75000000  0.82558838  0.69325338  1
  H  H56  1  0.12890360  0.25106536  0.93602819  1
  H  H57  1  0.37109640  0.24893464  0.43602819  1
  H  H58  1  0.62890360  0.74893464  0.06397181  1
  H  H59  1  0.87109640  0.75106536  0.56397181  1
  H  H60  1  0.87109640  0.74893464  0.06397181  1
  H  H61  1  0.62890360  0.75106536  0.56397181  1
  H  H62  1  0.37109640  0.25106536  0.93602819  1
  H  H63  1  0.12890360  0.24893464  0.43602819  1
  H  H64  1  0.63037376  0.19695584  0.19653963  1
  H  H65  1  0.86962624  0.30304416  0.69653963  1
  H  H66  1  0.13037376  0.80304416  0.80346037  1
  H  H67  1  0.36962624  0.69695584  0.30346037  1
  H  H68  1  0.36962624  0.80304416  0.80346037  1
  H  H69  1  0.13037376  0.69695584  0.30346037  1
  H  H70  1  0.86962624  0.19695584  0.19653963  1
  H  H71  1  0.63037376  0.30304416  0.69653963  1
  H  H72  1  0.75000000  0.31490144  0.08405105  1
  H  H73  1  0.75000000  0.18509856  0.58405105  1
  H  H74  1  0.25000000  0.68509856  0.91594895  1
  H  H75  1  0.25000000  0.81490144  0.41594895  1
  H  H76  1  0.75000000  0.11560575  0.06964651  1
  H  H77  1  0.75000000  0.38439425  0.56964651  1
  H  H78  1  0.25000000  0.88439425  0.93035349  1
  H  H79  1  0.25000000  0.61560575  0.43035349  1
  N  N80  1  0.25000000  0.50715272  0.62269110  1
  N  N81  1  0.25000000  0.99284728  0.12269110  1
  N  N82  1  0.75000000  0.49284728  0.37730890  1
  N  N83  1  0.75000000  0.00715272  0.87730890  1
  N  N84  1  0.01540764  0.04756557  0.69099143  1
  N  N85  1  0.48459236  0.45243443  0.19099143  1
  N  N86  1  0.51540764  0.95243443  0.30900857  1
  N  N87  1  0.98459236  0.54756557  0.80900857  1
  N  N88  1  0.98459236  0.95243443  0.30900857  1
  N  N89  1  0.51540764  0.54756557  0.80900857  1
  N  N90  1  0.48459236  0.04756557  0.69099143  1
  N  N91  1  0.01540764  0.45243443  0.19099143  1
