# generated using pymatgen
data_La2MoO5
_symmetry_space_group_name_H-M   'P 1'
_cell_length_a   6.26206164
_cell_length_b   12.67028580
_cell_length_c   12.67028580
_cell_angle_alpha   90.00000000
_cell_angle_beta   90.00000000
_cell_angle_gamma   90.00000000
_symmetry_Int_Tables_number   1
_chemical_formula_structural   La2MoO5
_chemical_formula_sum   'La16 Mo8 O40'
_cell_volume   1005.28721824
_cell_formula_units_Z   8
loop_
 _symmetry_equiv_pos_site_id
 _symmetry_equiv_pos_as_xyz
  1  'x, y, z'
loop_
 _atom_site_type_symbol
 _atom_site_label
 _atom_site_symmetry_multiplicity
 _atom_site_fract_x
 _atom_site_fract_y
 _atom_site_fract_z
 _atom_site_occupancy
  La  La0  1  0.00000000  0.89097688  0.20559489  1
  La  La1  1  0.00000000  0.10902312  0.79440511  1
  La  La2  1  0.00000000  0.20559489  0.10902312  1
  La  La3  1  0.00000000  0.79440511  0.89097688  1
  La  La4  1  0.00000000  0.61010543  0.30008626  1
  La  La5  1  0.00000000  0.38989457  0.69991374  1
  La  La6  1  0.00000000  0.30008626  0.38989457  1
  La  La7  1  0.00000000  0.69991374  0.61010543  1
  La  La8  1  0.50000000  0.09360057  0.26703878  1
  La  La9  1  0.50000000  0.90639943  0.73296122  1
  La  La10  1  0.50000000  0.26703878  0.90639943  1
  La  La11  1  0.50000000  0.73296122  0.09360057  1
  La  La12  1  0.50000000  0.77398931  0.38339480  1
  La  La13  1  0.50000000  0.22601069  0.61660520  1
  La  La14  1  0.50000000  0.38339480  0.22601069  1
  La  La15  1  0.50000000  0.61660520  0.77398931  1
  Mo  Mo16  1  0.68483168  0.00000000  -0.00000000  1
  Mo  Mo17  1  0.31516832  0.00000000  -0.00000000  1
  Mo  Mo18  1  0.68162505  0.50000000  0.50000000  1
  Mo  Mo19  1  0.31837495  0.50000000  0.50000000  1
  Mo  Mo20  1  0.75821159  0.50000000  -0.00000000  1
  Mo  Mo21  1  0.75821159  0.00000000  0.50000000  1
  Mo  Mo22  1  0.24178841  0.50000000  -0.00000000  1
  Mo  Mo23  1  0.24178841  0.00000000  0.50000000  1
  O  O24  1  0.23636505  0.45776786  0.34979077  1
  O  O25  1  0.23636505  0.54223214  0.65020923  1
  O  O26  1  0.23636505  0.34979077  0.54223214  1
  O  O27  1  0.23636505  0.65020923  0.45776786  1
  O  O28  1  0.76363495  0.54223214  0.65020923  1
  O  O29  1  0.76363495  0.45776786  0.34979077  1
  O  O30  1  0.76363495  0.65020923  0.45776786  1
  O  O31  1  0.76363495  0.34979077  0.54223214  1
  O  O32  1  0.22709630  0.14638574  0.95584195  1
  O  O33  1  0.22709630  0.85361426  0.04415805  1
  O  O34  1  0.22709630  0.95584195  0.85361426  1
  O  O35  1  0.22709630  0.04415805  0.14638574  1
  O  O36  1  0.77290370  0.85361426  0.04415805  1
  O  O37  1  0.77290370  0.14638574  0.95584195  1
  O  O38  1  0.77290370  0.04415805  0.14638574  1
  O  O39  1  0.77290370  0.95584195  0.85361426  1
  O  O40  1  0.74805054  0.24430644  0.25703672  1
  O  O41  1  0.74805054  0.75569356  0.74296328  1
  O  O42  1  0.74805054  0.25703672  0.75569356  1
  O  O43  1  0.74805054  0.74296328  0.24430644  1
  O  O44  1  0.25194946  0.75569356  0.74296328  1
  O  O45  1  0.25194946  0.24430644  0.25703672  1
  O  O46  1  0.25194946  0.74296328  0.24430644  1
  O  O47  1  0.25194946  0.25703672  0.75569356  1
  O  O48  1  0.73594466  0.35862274  0.05165880  1
  O  O49  1  0.73594466  0.64137726  0.94834120  1
  O  O50  1  0.73594466  0.05165880  0.64137726  1
  O  O51  1  0.73594466  0.94834120  0.35862274  1
  O  O52  1  0.26405534  0.64137726  0.94834120  1
  O  O53  1  0.26405534  0.35862274  0.05165880  1
  O  O54  1  0.26405534  0.94834120  0.35862274  1
  O  O55  1  0.26405534  0.05165880  0.64137726  1
  O  O56  1  0.00000000  0.10152685  0.46453228  1
  O  O57  1  0.00000000  0.89847315  0.53546772  1
  O  O58  1  0.00000000  0.46453228  0.89847315  1
  O  O59  1  0.00000000  0.53546772  0.10152685  1
  O  O60  1  0.50000000  0.10332088  0.46263888  1
  O  O61  1  0.50000000  0.89667912  0.53736112  1
  O  O62  1  0.50000000  0.46263888  0.89667912  1
  O  O63  1  0.50000000  0.53736112  0.10332088  1
