# generated using pymatgen
data_ZnH6Cl2O3
_symmetry_space_group_name_H-M   'P 1'
_cell_length_a   6.71839969
_cell_length_b   6.74843504
_cell_length_c   14.42353138
_cell_angle_alpha   90.44547334
_cell_angle_beta   100.96910301
_cell_angle_gamma   96.98690051
_symmetry_Int_Tables_number   1
_chemical_formula_structural   ZnH6Cl2O3
_chemical_formula_sum   'Zn4 H24 Cl8 O12'
_cell_volume   636.90795823
_cell_formula_units_Z   4
loop_
 _symmetry_equiv_pos_site_id
 _symmetry_equiv_pos_as_xyz
  1  'x, y, z'
loop_
 _atom_site_type_symbol
 _atom_site_label
 _atom_site_symmetry_multiplicity
 _atom_site_fract_x
 _atom_site_fract_y
 _atom_site_fract_z
 _atom_site_occupancy
  Zn  Zn0  1  0.88608603  0.10098764  0.75920563  1
  Zn  Zn1  1  0.11391397  0.89901236  0.24079437  1
  Zn  Zn2  1  0.50000000  0.50000000  0.00000000  1
  Zn  Zn3  1  0.50000000  0.50000000  0.50000000  1
  H  H4  1  0.84590875  0.75737888  0.00468957  1
  H  H5  1  0.15409125  0.24262112  0.99531043  1
  H  H6  1  0.83803340  0.59068642  0.92435434  1
  H  H7  1  0.16196660  0.40931358  0.07564566  1
  H  H8  1  0.76427300  0.44558718  0.16137532  1
  H  H9  1  0.23572700  0.55441282  0.83862468  1
  H  H10  1  0.55248989  0.32222136  0.16905623  1
  H  H11  1  0.44751011  0.67777864  0.83094377  1
  H  H12  1  0.53455911  0.15002078  0.89718310  1
  H  H13  1  0.46544089  0.84997922  0.10281690  1
  H  H14  1  0.66978779  0.14597757  0.00036737  1
  H  H15  1  0.33021221  0.85402243  0.99963263  1
  H  H16  1  0.46637436  0.60975688  0.31623111  1
  H  H17  1  0.53362564  0.39024312  0.68376889  1
  H  H18  1  0.68202565  0.71240295  0.36913295  1
  H  H19  1  0.31797435  0.28759705  0.63086705  1
  H  H20  1  0.84439768  0.54856469  0.63008653  1
  H  H21  1  0.15560232  0.45143531  0.36991347  1
  H  H22  1  0.83982661  0.74658388  0.57366422  1
  H  H23  1  0.16017339  0.25341612  0.42633578  1
  H  H24  1  0.70462520  0.16460956  0.50860771  1
  H  H25  1  0.29537480  0.83539044  0.49139229  1
  H  H26  1  0.56213642  0.16229380  0.40728293  1
  H  H27  1  0.43786358  0.83770620  0.59271707  1
  Cl  Cl28  1  0.08810403  0.98314955  0.88566169  1
  Cl  Cl29  1  0.91189597  0.01685045  0.11433831  1
  Cl  Cl30  1  0.88220216  0.44471956  0.77664369  1
  Cl  Cl31  1  0.11779784  0.55528044  0.22335631  1
  Cl  Cl32  1  0.55341175  0.95889208  0.75186412  1
  Cl  Cl33  1  0.44658825  0.04110792  0.24813588  1
  Cl  Cl34  1  0.98166214  0.06121386  0.61721591  1
  Cl  Cl35  1  0.01833786  0.93878614  0.38278409  1
  O  O36  1  0.79248487  0.61907986  0.98318917  1
  O  O37  1  0.20751513  0.38092014  0.01681083  1
  O  O38  1  0.61551399  0.44178492  0.14185960  1
  O  O39  1  0.38448601  0.55821508  0.85814040  1
  O  O40  1  0.56877060  0.21670686  0.95984379  1
  O  O41  1  0.43122940  0.78329314  0.04015621  1
  O  O42  1  0.57801274  0.59751837  0.36969928  1
  O  O43  1  0.42198726  0.40248163  0.63030072  1
  O  O44  1  0.79866900  0.60091243  0.56690847  1
  O  O45  1  0.20133100  0.39908757  0.43309153  1
  O  O46  1  0.58026569  0.21183691  0.47299521  1
  O  O47  1  0.41973431  0.78816309  0.52700479  1
