# generated using pymatgen
data_KVH2SeO7
_symmetry_space_group_name_H-M   'P 1'
_cell_length_a   7.51399379
_cell_length_b   7.89399816
_cell_length_c   10.72345188
_cell_angle_alpha   90.00000000
_cell_angle_beta   90.00000000
_cell_angle_gamma   94.03075335
_symmetry_Int_Tables_number   1
_chemical_formula_structural   KVH2SeO7
_chemical_formula_sum   'K4 V4 H8 Se4 O28'
_cell_volume   634.49307514
_cell_formula_units_Z   4
loop_
 _symmetry_equiv_pos_site_id
 _symmetry_equiv_pos_as_xyz
  1  'x, y, z'
loop_
 _atom_site_type_symbol
 _atom_site_label
 _atom_site_symmetry_multiplicity
 _atom_site_fract_x
 _atom_site_fract_y
 _atom_site_fract_z
 _atom_site_occupancy
  K  K0  1  0.57984680  0.24495739  0.43080149  1
  K  K1  1  0.92015320  0.25504261  0.93080149  1
  K  K2  1  0.42015320  0.75504261  0.56919851  1
  K  K3  1  0.07984680  0.74495739  0.06919851  1
  V  V4  1  0.83043912  0.75335077  0.40937827  1
  V  V5  1  0.66956088  0.74664923  0.90937827  1
  V  V6  1  0.16956088  0.24664923  0.59062173  1
  V  V7  1  0.33043912  0.25335077  0.09062173  1
  H  H8  1  0.02260580  0.47585396  0.36237354  1
  H  H9  1  0.47739420  0.02414604  0.86237354  1
  H  H10  1  0.97739420  0.52414604  0.63762646  1
  H  H11  1  0.52260580  0.97585396  0.13762646  1
  H  H12  1  0.17298567  0.62280050  0.33419234  1
  H  H13  1  0.32701433  0.87719950  0.83419234  1
  H  H14  1  0.82701433  0.37719950  0.66580766  1
  H  H15  1  0.67298567  0.12280050  0.16580766  1
  Se  Se16  1  0.03755086  0.13522921  0.30374832  1
  Se  Se17  1  0.46244914  0.36477079  0.80374832  1
  Se  Se18  1  0.96244914  0.86477079  0.69625168  1
  Se  Se19  1  0.53755086  0.63522921  0.19625168  1
  O  O20  1  0.04031671  0.92432702  0.30952791  1
  O  O21  1  0.45968329  0.57567298  0.80952791  1
  O  O22  1  0.95968329  0.07567298  0.69047209  1
  O  O23  1  0.54031671  0.42432702  0.19047209  1
  O  O24  1  0.00701843  0.77557488  0.55519405  1
  O  O25  1  0.49298157  0.72442512  0.05519405  1
  O  O26  1  0.99298157  0.22442512  0.44480595  1
  O  O27  1  0.50701843  0.27557488  0.94480595  1
  O  O28  1  0.71213788  0.91552434  0.44650015  1
  O  O29  1  0.78786212  0.58447566  0.94650015  1
  O  O30  1  0.28786212  0.08447566  0.55349985  1
  O  O31  1  0.21213788  0.41552434  0.05349985  1
  O  O32  1  0.04211363  0.59480065  0.33812361  1
  O  O33  1  0.45788637  0.90519935  0.83812361  1
  O  O34  1  0.95788637  0.40519935  0.66187639  1
  O  O35  1  0.54211363  0.09480065  0.16187639  1
  O  O36  1  0.88689093  0.20381463  0.20781287  1
  O  O37  1  0.61310907  0.29618537  0.70781287  1
  O  O38  1  0.11310907  0.79618537  0.79218713  1
  O  O39  1  0.38689093  0.70381463  0.29218713  1
  O  O40  1  0.71273207  0.58268574  0.46233513  1
  O  O41  1  0.78726793  0.91731426  0.96233513  1
  O  O42  1  0.28726793  0.41731426  0.53766487  1
  O  O43  1  0.21273207  0.08268574  0.03766487  1
  O  O44  1  0.24592918  0.22113836  0.27004648  1
  O  O45  1  0.25407082  0.27886164  0.77004648  1
  O  O46  1  0.75407082  0.77886164  0.72995352  1
  O  O47  1  0.74592918  0.72113836  0.22995352  1
