# generated using pymatgen
data_CaCu3(SbO3)4
_symmetry_space_group_name_H-M   'P 1'
_cell_length_a   6.77929082
_cell_length_b   6.77931030
_cell_length_c   6.77927176
_cell_angle_alpha   109.43960870
_cell_angle_beta   109.50165223
_cell_angle_gamma   109.47545101
_symmetry_Int_Tables_number   1
_chemical_formula_structural   CaCu3(SbO3)4
_chemical_formula_sum   'Ca1 Cu3 Sb4 O12'
_cell_volume   239.83606256
_cell_formula_units_Z   1
loop_
 _symmetry_equiv_pos_site_id
 _symmetry_equiv_pos_as_xyz
  1  'x, y, z'
loop_
 _atom_site_type_symbol
 _atom_site_label
 _atom_site_symmetry_multiplicity
 _atom_site_fract_x
 _atom_site_fract_y
 _atom_site_fract_z
 _atom_site_occupancy
  Ca  Ca0  1  -0.00000003  0.00000002  -0.00000002  1
  Cu  Cu1  1  0.50000106  0.50000022  0.00000091  1
  Cu  Cu2  1  0.99999943  0.49999884  0.49999931  1
  Cu  Cu3  1  0.50000007  0.00000037  0.50000006  1
  Sb  Sb4  1  0.00000009  -0.00000011  0.49999997  1
  Sb  Sb5  1  -0.00000033  0.49999933  0.99999858  1
  Sb  Sb6  1  0.50000007  0.50000030  0.50000026  1
  Sb  Sb7  1  0.50000004  0.00000005  0.99999978  1
  O  O8  1  0.82517052  0.30080861  0.12599959  1
  O  O9  1  0.17482974  0.69919207  0.87400013  1
  O  O10  1  0.82513001  0.69913862  0.52437471  1
  O  O11  1  0.30092765  0.47563145  0.17481412  1
  O  O12  1  0.47553961  0.17493930  0.30070166  1
  O  O13  1  0.12576097  0.82511143  0.30065453  1
  O  O14  1  0.69912818  0.87388296  0.17476122  1
  O  O15  1  0.52446078  0.82506137  0.69929825  1
  O  O16  1  0.17486946  0.30086128  0.47562609  1
  O  O17  1  0.69907310  0.52436915  0.82518538  1
  O  O18  1  0.87423919  0.17488799  0.69934451  1
  O  O19  1  0.30087338  0.12611773  0.82523898  1
