# generated using pymatgen
data_Tl2Mo9Se11
_symmetry_space_group_name_H-M   'P 1'
_cell_length_a   9.81630933
_cell_length_b   9.81630933
_cell_length_c   13.51908305
_cell_angle_alpha   68.71214213
_cell_angle_beta   68.71214215
_cell_angle_gamma   60.00000380
_symmetry_Int_Tables_number   1
_chemical_formula_structural   Tl2Mo9Se11
_chemical_formula_sum   'Tl4 Mo18 Se22'
_cell_volume   1024.24863906
_cell_formula_units_Z   2
loop_
 _symmetry_equiv_pos_site_id
 _symmetry_equiv_pos_as_xyz
  1  'x, y, z'
loop_
 _atom_site_type_symbol
 _atom_site_label
 _atom_site_symmetry_multiplicity
 _atom_site_fract_x
 _atom_site_fract_y
 _atom_site_fract_z
 _atom_site_occupancy
  Tl  Tl0  1  0.82970788  0.82970688  0.51087836  1
  Tl  Tl1  1  0.17029212  0.17029312  0.48912164  1
  Tl  Tl2  1  0.26802358  0.26802358  0.19592926  1
  Tl  Tl3  1  0.73197642  0.73197642  0.80407074  1
  Mo  Mo4  1  0.86481726  0.04617451  0.90731264  1
  Mo  Mo5  1  0.04617451  0.18169559  0.90731264  1
  Mo  Mo6  1  0.18169559  0.86481726  0.90731264  1
  Mo  Mo7  1  0.13518274  0.95382549  0.09268736  1
  Mo  Mo8  1  0.95382549  0.81830441  0.09268736  1
  Mo  Mo9  1  0.81830441  0.13518274  0.09268736  1
  Mo  Mo10  1  0.39160787  0.25991507  0.77884278  1
  Mo  Mo11  1  0.25991507  0.56963429  0.77884278  1
  Mo  Mo12  1  0.56963429  0.39160787  0.77884278  1
  Mo  Mo13  1  0.60839213  0.74008493  0.22115722  1
  Mo  Mo14  1  0.74008493  0.43036571  0.22115722  1
  Mo  Mo15  1  0.43036571  0.60839213  0.22115722  1
  Mo  Mo16  1  0.30719550  0.47882934  0.59038410  1
  Mo  Mo17  1  0.47882934  0.62359107  0.59038410  1
  Mo  Mo18  1  0.62359107  0.30719550  0.59038410  1
  Mo  Mo19  1  0.69280450  0.52117066  0.40961590  1
  Mo  Mo20  1  0.52117066  0.37640893  0.40961590  1
  Mo  Mo21  1  0.37640893  0.69280450  0.40961590  1
  Se  Se22  1  0.65099656  0.00463764  0.08013193  1
  Se  Se23  1  0.00463764  0.26423387  0.08013193  1
  Se  Se24  1  0.26423387  0.65099656  0.08013193  1
  Se  Se25  1  0.34900344  0.99536236  0.91986807  1
  Se  Se26  1  0.99536236  0.73576613  0.91986807  1
  Se  Se27  1  0.73576613  0.34900344  0.91986807  1
  Se  Se28  1  0.70636453  0.08886084  0.76376251  1
  Se  Se29  1  0.08886084  0.44101212  0.76376251  1
  Se  Se30  1  0.44101212  0.70636453  0.76376251  1
  Se  Se31  1  0.29363547  0.91113916  0.23623749  1
  Se  Se32  1  0.91113916  0.55898788  0.23623749  1
  Se  Se33  1  0.55898788  0.29363547  0.23623749  1
  Se  Se34  1  0.44990030  0.16802072  0.59682343  1
  Se  Se35  1  0.16802072  0.78525555  0.59682343  1
  Se  Se36  1  0.78525555  0.44990030  0.59682343  1
  Se  Se37  1  0.55009970  0.83197928  0.40317657  1
  Se  Se38  1  0.83197928  0.21474445  0.40317657  1
  Se  Se39  1  0.21474445  0.55009970  0.40317657  1
  Se  Se40  1  0.08560331  0.08560431  0.74318806  1
  Se  Se41  1  0.91439669  0.91439569  0.25681194  1
  Se  Se42  1  0.35208440  0.35208440  0.94374679  1
  Se  Se43  1  0.64791560  0.64791560  0.05625321  1
