# generated using pymatgen
data_CsNa3P4(H2O5)3
_symmetry_space_group_name_H-M   'P 1'
_cell_length_a   11.04967692
_cell_length_b   11.78745995
_cell_length_c   11.91414182
_cell_angle_alpha   95.58280216
_cell_angle_beta   90.00000000
_cell_angle_gamma   90.00000000
_symmetry_Int_Tables_number   1
_chemical_formula_structural   CsNa3P4(H2O5)3
_chemical_formula_sum   'Cs4 Na12 P16 H24 O60'
_cell_volume   1544.42798113
_cell_formula_units_Z   4
loop_
 _symmetry_equiv_pos_site_id
 _symmetry_equiv_pos_as_xyz
  1  'x, y, z'
loop_
 _atom_site_type_symbol
 _atom_site_label
 _atom_site_symmetry_multiplicity
 _atom_site_fract_x
 _atom_site_fract_y
 _atom_site_fract_z
 _atom_site_occupancy
  Cs  Cs0  1  0.72588429  0.75055594  0.72705954  1
  Cs  Cs1  1  0.22588429  0.24944406  0.77294046  1
  Cs  Cs2  1  0.27411571  0.24944406  0.27294046  1
  Cs  Cs3  1  0.77411571  0.75055594  0.22705954  1
  Na  Na4  1  0.50000000  0.50000000  0.50000000  1
  Na  Na5  1  -0.00000000  0.50000000  -0.00000000  1
  Na  Na6  1  -0.00000000  -0.00000000  0.50000000  1
  Na  Na7  1  0.50000000  -0.00000000  -0.00000000  1
  Na  Na8  1  0.87594682  0.11552782  0.28778719  1
  Na  Na9  1  0.37594682  0.88447218  0.21221281  1
  Na  Na10  1  0.12405318  0.88447218  0.71221281  1
  Na  Na11  1  0.62405318  0.11552782  0.78778719  1
  Na  Na12  1  0.15744038  0.60928166  0.78714067  1
  Na  Na13  1  0.65744038  0.39071834  0.71285933  1
  Na  Na14  1  0.84255962  0.39071834  0.21285933  1
  Na  Na15  1  0.34255962  0.60928166  0.28714067  1
  P  P16  1  0.48773073  0.81256640  0.46833881  1
  P  P17  1  0.98773073  0.18743360  0.03166119  1
  P  P18  1  0.51226927  0.18743360  0.53166119  1
  P  P19  1  0.01226927  0.81256640  0.96833881  1
  P  P20  1  0.68726105  0.98829215  0.50234999  1
  P  P21  1  0.18726105  0.01170785  0.99765001  1
  P  P22  1  0.31273895  0.01170785  0.49765001  1
  P  P23  1  0.81273895  0.98829215  0.00234999  1
  P  P24  1  0.00894363  0.67601981  0.49689044  1
  P  P25  1  0.50894363  0.32398019  0.00310956  1
  P  P26  1  0.99105637  0.32398019  0.50310956  1
  P  P27  1  0.49105637  0.67601981  0.99689044  1
  P  P28  1  0.69739369  0.50584315  0.96913182  1
  P  P29  1  0.19739369  0.49415685  0.53086818  1
  P  P30  1  0.30260631  0.49415685  0.03086818  1
  P  P31  1  0.80260631  0.50584315  0.46913182  1
  H  H32  1  0.88816754  0.52507583  0.81472370  1
  H  H33  1  0.38816754  0.47492417  0.68527630  1
  H  H34  1  0.11183246  0.47492417  0.18527630  1
  H  H35  1  0.61183246  0.52507583  0.31472370  1
  H  H36  1  0.02505883  0.55150632  0.26434196  1
  H  H37  1  0.52505883  0.44849368  0.23565804  1
  H  H38  1  0.97494117  0.44849368  0.73565804  1
  H  H39  1  0.47494117  0.55150632  0.76434196  1
  H  H40  1  0.05676386  0.93113598  0.23548712  1
  H  H41  1  0.55676386  0.06886402  0.26451288  1
  H  H42  1  0.94323614  0.06886402  0.76451288  1
  H  H43  1  0.44323614  0.93113598  0.73548712  1
  H  H44  1  0.14181867  0.99483994  0.32326922  1
  H  H45  1  0.64181867  0.00516006  0.17673078  1
  H  H46  1  0.85818133  0.00516006  0.67673078  1
  H  H47  1  0.35818133  0.99483994  0.82326922  1
  H  H48  1  0.13814936  0.74233063  0.28338236  1
  H  H49  1  0.63814936  0.25766937  0.21661764  1
  H  H50  1  0.86185064  0.25766937  0.71661764  1
  H  H51  1  0.36185064  0.74233063  0.78338236  1
  H  H52  1  0.14450791  0.73524605  0.15374812  1
  H  H53  1  0.64450791  0.26475395  0.34625188  1
  H  H54  1  0.85549209  0.26475395  0.84625188  1
  H  H55  1  0.35549209  0.73524605  0.65374812  1
  O  O56  1  0.50022911  0.72594130  0.55203707  1
  O  O57  1  0.00022911  0.27405870  0.94796293  1
  O  O58  1  0.49977089  0.27405870  0.44796293  1
  O  O59  1  0.99977089  0.72594130  0.05203707  1
  O  O60  1  0.05994396  0.77790920  0.85296865  1
  O  O61  1  0.55994396  0.22209080  0.64703135  1
  O  O62  1  0.94005604  0.22209080  0.14703135  1
  O  O63  1  0.44005604  0.77790920  0.35296865  1
  O  O64  1  0.20154999  0.00215256  0.56812402  1
  O  O65  1  0.70154999  0.99784744  0.93187598  1
  O  O66  1  0.79845001  0.99784744  0.43187598  1
  O  O67  1  0.29845001  0.00215256  0.06812402  1
  O  O68  1  0.69967255  0.98981716  0.62828350  1
  O  O69  1  0.19967255  0.01018284  0.87171650  1
  O  O70  1  0.30032745  0.01018284  0.37171650  1
  O  O71  1  0.80032745  0.98981716  0.12828350  1
  O  O72  1  0.09108490  0.91649209  0.03246883  1
  O  O73  1  0.59108490  0.08350791  0.46753117  1
  O  O74  1  0.90891510  0.08350791  0.96753117  1
  O  O75  1  0.40891510  0.91649209  0.53246883  1
  O  O76  1  0.11933948  0.12771716  0.04895448  1
  O  O77  1  0.61933948  0.87228284  0.45104552  1
  O  O78  1  0.88066052  0.87228284  0.95104552  1
  O  O79  1  0.38066052  0.12771716  0.54895448  1
  O  O80  1  0.49876398  0.79022914  0.06228080  1
  O  O81  1  0.99876398  0.20977086  0.43771920  1
  O  O82  1  0.50123602  0.20977086  0.93771920  1
  O  O83  1  0.00123602  0.79022914  0.56228080  1
  O  O84  1  0.97206590  0.33412119  0.62864320  1
  O  O85  1  0.47206590  0.66587881  0.87135680  1
  O  O86  1  0.02793410  0.66587881  0.37135680  1
  O  O87  1  0.52793410  0.33412119  0.12864320  1
  O  O88  1  0.23621598  0.46403049  0.64554201  1
  O  O89  1  0.73621598  0.53596951  0.85445799  1
  O  O90  1  0.76378402  0.53596951  0.35445799  1
  O  O91  1  0.26378402  0.46403049  0.14554201  1
  O  O92  1  0.79078852  0.48409208  0.05506164  1
  O  O93  1  0.29078852  0.51590792  0.44493836  1
  O  O94  1  0.20921148  0.51590792  0.94493836  1
  O  O95  1  0.70921148  0.48409208  0.55506164  1
  O  O96  1  0.88927554  0.39571702  0.44105003  1
  O  O97  1  0.38927554  0.60428298  0.05894997  1
  O  O98  1  0.11072446  0.60428298  0.55894997  1
  O  O99  1  0.61072446  0.39571702  0.94105003  1
  O  O100  1  0.88851533  0.60539354  0.52940821  1
  O  O101  1  0.38851533  0.39460646  0.97059179  1
  O  O102  1  0.11148467  0.39460646  0.47059179  1
  O  O103  1  0.61148467  0.60539354  0.02940821  1
  O  O104  1  0.52506350  0.50914321  0.29931867  1
  O  O105  1  0.02506350  0.49085679  0.20068133  1
  O  O106  1  0.47493650  0.49085679  0.70068133  1
  O  O107  1  0.97493650  0.50914321  0.79931867  1
  O  O108  1  0.55509648  0.01560456  0.19678086  1
  O  O109  1  0.05509648  0.98439544  0.30321914  1
  O  O110  1  0.44490352  0.98439544  0.80321914  1
  O  O111  1  0.94490352  0.01560456  0.69678086  1
  O  O112  1  0.19534128  0.75189377  0.22127593  1
  O  O113  1  0.69534128  0.24810623  0.27872407  1
  O  O114  1  0.80465872  0.24810623  0.77872407  1
  O  O115  1  0.30465872  0.75189377  0.72127593  1
