# generated using pymatgen
data_Mn5(SiO5)2
_symmetry_space_group_name_H-M   'P 1'
_cell_length_a   4.87439694
_cell_length_b   8.02823308
_cell_length_c   10.68994953
_cell_angle_alpha   107.37124395
_cell_angle_beta   90.00000000
_cell_angle_gamma   90.00000000
_symmetry_Int_Tables_number   1
_chemical_formula_structural   Mn5(SiO5)2
_chemical_formula_sum   'Mn10 Si4 O20'
_cell_volume   399.24780162
_cell_formula_units_Z   2
loop_
 _symmetry_equiv_pos_site_id
 _symmetry_equiv_pos_as_xyz
  1  'x, y, z'
loop_
 _atom_site_type_symbol
 _atom_site_label
 _atom_site_symmetry_multiplicity
 _atom_site_fract_x
 _atom_site_fract_y
 _atom_site_fract_z
 _atom_site_occupancy
  Mn  Mn0  1  0.52591334  0.71384295  0.33571561  1
  Mn  Mn1  1  0.02591334  0.28615705  0.16428439  1
  Mn  Mn2  1  0.47408666  0.28615705  0.66428439  1
  Mn  Mn3  1  0.97408666  0.71384295  0.83571561  1
  Mn  Mn4  1  0.51179467  0.92244193  0.10513972  1
  Mn  Mn5  1  0.01179467  0.07755807  0.39486028  1
  Mn  Mn6  1  0.48820533  0.07755807  0.89486028  1
  Mn  Mn7  1  0.98820533  0.92244193  0.60513972  1
  Mn  Mn8  1  0.50000000  0.50000000  0.00000000  1
  Mn  Mn9  1  -0.00000000  0.50000000  0.50000000  1
  Si  Si10  1  0.07688544  0.70728134  0.14343864  1
  Si  Si11  1  0.57688544  0.29271866  0.35656136  1
  Si  Si12  1  0.92311456  0.29271866  0.85656136  1
  Si  Si13  1  0.42311456  0.70728134  0.64343864  1
  O  O14  1  0.20670162  0.69875776  0.99870218  1
  O  O15  1  0.70670162  0.30124224  0.50129782  1
  O  O16  1  0.79329838  0.30124224  0.00129782  1
  O  O17  1  0.29329838  0.69875776  0.49870218  1
  O  O18  1  0.23682724  0.87958580  0.24443044  1
  O  O19  1  0.73682724  0.12041420  0.25556956  1
  O  O20  1  0.76317276  0.12041420  0.75556956  1
  O  O21  1  0.26317276  0.87958580  0.74443044  1
  O  O22  1  0.21073386  0.53667975  0.17573501  1
  O  O23  1  0.71073386  0.46332025  0.32426499  1
  O  O24  1  0.78926614  0.46332025  0.82426499  1
  O  O25  1  0.28926614  0.53667975  0.67573501  1
  O  O26  1  0.73812351  0.72152997  0.14541018  1
  O  O27  1  0.23812351  0.27847003  0.35458982  1
  O  O28  1  0.26187649  0.27847003  0.85458982  1
  O  O29  1  0.76187649  0.72152997  0.64541018  1
  O  O30  1  0.79778119  0.90382247  0.44383028  1
  O  O31  1  0.29778119  0.09617753  0.05616972  1
  O  O32  1  0.20221881  0.09617753  0.55616972  1
  O  O33  1  0.70221881  0.90382247  0.94383028  1
