# generated using pymatgen
data_Er2Al3Fe14
_symmetry_space_group_name_H-M   'P 1'
_cell_length_a   8.17494372
_cell_length_b   8.51796127
_cell_length_c   8.51796127
_cell_angle_alpha   120.05986170
_cell_angle_beta   90.00000000
_cell_angle_gamma   90.00000000
_symmetry_Int_Tables_number   1
_chemical_formula_structural   Er2Al3Fe14
_chemical_formula_sum   'Er4 Al6 Fe28'
_cell_volume   513.36285340
_cell_formula_units_Z   2
loop_
 _symmetry_equiv_pos_site_id
 _symmetry_equiv_pos_as_xyz
  1  'x, y, z'
loop_
 _atom_site_type_symbol
 _atom_site_label
 _atom_site_symmetry_multiplicity
 _atom_site_fract_x
 _atom_site_fract_y
 _atom_site_fract_z
 _atom_site_occupancy
  Er  Er0  1  0.75000000  0.99991347  0.00008653  1
  Er  Er1  1  0.25000000  0.00008653  0.99991347  1
  Er  Er2  1  0.25000000  0.66671879  0.33328121  1
  Er  Er3  1  0.75000000  0.33328121  0.66671879  1
  Al  Al4  1  0.50000000  0.50000000  -0.00000000  1
  Al  Al5  1  0.50000000  0.50000000  0.50000000  1
  Al  Al6  1  0.50000000  0.00000000  0.50000000  1
  Al  Al7  1  0.00000000  0.50000000  -0.00000000  1
  Al  Al8  1  0.00000000  0.50000000  0.50000000  1
  Al  Al9  1  0.00000000  0.00000000  0.50000000  1
  Fe  Fe10  1  0.61086774  0.66666162  0.33333838  1
  Fe  Fe11  1  0.38913226  0.33333838  0.66666162  1
  Fe  Fe12  1  0.11086774  0.33333838  0.66666162  1
  Fe  Fe13  1  0.88913226  0.66666162  0.33333838  1
  Fe  Fe14  1  0.75000000  0.67930200  0.02785768  1
  Fe  Fe15  1  0.75000000  0.34852510  0.32050097  1
  Fe  Fe16  1  0.75000000  0.97242379  0.65169876  1
  Fe  Fe17  1  0.75000000  0.34830124  0.02757621  1
  Fe  Fe18  1  0.75000000  0.97214232  0.32069800  1
  Fe  Fe19  1  0.75000000  0.67949903  0.65147490  1
  Fe  Fe20  1  0.25000000  0.32069800  0.97214232  1
  Fe  Fe21  1  0.25000000  0.65147490  0.67949903  1
  Fe  Fe22  1  0.25000000  0.02757621  0.34830124  1
  Fe  Fe23  1  0.25000000  0.65169876  0.97242379  1
  Fe  Fe24  1  0.25000000  0.02785768  0.67930200  1
  Fe  Fe25  1  0.25000000  0.32050097  0.34852510  1
  Fe  Fe26  1  0.48602984  0.83455572  0.66879588  1
  Fe  Fe27  1  0.48593347  0.83442666  0.16557334  1
  Fe  Fe28  1  0.48602984  0.33120412  0.16544428  1
  Fe  Fe29  1  0.51397016  0.16544428  0.33120412  1
  Fe  Fe30  1  0.51406653  0.16557334  0.83442666  1
  Fe  Fe31  1  0.51397016  0.66879588  0.83455572  1
  Fe  Fe32  1  0.98602984  0.16544428  0.33120412  1
  Fe  Fe33  1  0.98593347  0.16557334  0.83442666  1
  Fe  Fe34  1  0.98602984  0.66879588  0.83455572  1
  Fe  Fe35  1  0.01397016  0.83455572  0.66879588  1
  Fe  Fe36  1  0.01406653  0.83442666  0.16557334  1
  Fe  Fe37  1  0.01397016  0.33120412  0.16544428  1
