# generated using pymatgen
data_CsP2H5O8
_symmetry_space_group_name_H-M   'P 1'
_cell_length_a   6.99163923
_cell_length_b   8.00792238
_cell_length_c   8.18432551
_cell_angle_alpha   76.16669357
_cell_angle_beta   69.48748474
_cell_angle_gamma   86.99434117
_symmetry_Int_Tables_number   1
_chemical_formula_structural   CsP2H5O8
_chemical_formula_sum   'Cs2 P4 H10 O16'
_cell_volume   416.47883473
_cell_formula_units_Z   2
loop_
 _symmetry_equiv_pos_site_id
 _symmetry_equiv_pos_as_xyz
  1  'x, y, z'
loop_
 _atom_site_type_symbol
 _atom_site_label
 _atom_site_symmetry_multiplicity
 _atom_site_fract_x
 _atom_site_fract_y
 _atom_site_fract_z
 _atom_site_occupancy
  Cs  Cs0  1  0.10418356  0.29553059  0.66583452  1
  Cs  Cs1  1  0.89581644  0.70446941  0.33416548  1
  P  P2  1  0.38424315  0.82625053  0.79577978  1
  P  P3  1  0.61575685  0.17374947  0.20422022  1
  P  P4  1  0.79463271  0.75671703  0.83155717  1
  P  P5  1  0.20536729  0.24328297  0.16844283  1
  H  H6  1  0.27955829  0.54925302  0.96679332  1
  H  H7  1  0.72044171  0.45074698  0.03320668  1
  H  H8  1  0.18525395  0.77129147  0.65425534  1
  H  H9  1  0.81474605  0.22870853  0.34574466  1
  H  H10  1  0.75544306  0.96330358  0.98171410  1
  H  H11  1  0.24455694  0.03669642  0.01828590  1
  H  H12  1  0.41659058  0.62771828  0.20707297  1
  H  H13  1  0.58340942  0.37228172  0.79292703  1
  H  H14  1  0.41060006  0.68127055  0.37700890  1
  H  H15  1  0.58939994  0.31872945  0.62299110  1
  O  O16  1  0.26374035  0.68395175  0.96318848  1
  O  O17  1  0.73625965  0.31604825  0.03681152  1
  O  O18  1  0.34759650  0.00026084  0.83752776  1
  O  O19  1  0.65240350  0.99973916  0.16247224  1
  O  O20  1  0.33792766  0.80920595  0.62652700  1
  O  O21  1  0.66207234  0.19079405  0.37347300  1
  O  O22  1  0.62303654  0.78549685  0.73372283  1
  O  O23  1  0.37696346  0.21450315  0.26627717  1
  O  O24  1  0.70455067  0.62988843  0.01233491  1
  O  O25  1  0.29544933  0.37011157  0.98766509  1
  O  O26  1  0.97979242  0.70482339  0.69207443  1
  O  O27  1  0.02020758  0.29517661  0.30792557  1
  O  O28  1  0.83669118  0.93758840  0.85736721  1
  O  O29  1  0.16330882  0.06241160  0.14263279  1
  O  O30  1  0.34043011  0.60671320  0.33599908  1
  O  O31  1  0.65956989  0.39328680  0.66400092  1
