# generated using pymatgen
data_CaVSi4H8O15
_symmetry_space_group_name_H-M   'P 1'
_cell_length_a   9.76892987
_cell_length_b   9.84425041
_cell_length_c   14.00559490
_cell_angle_alpha   90.00000000
_cell_angle_beta   90.00000000
_cell_angle_gamma   90.00000000
_symmetry_Int_Tables_number   1
_chemical_formula_structural   CaVSi4H8O15
_chemical_formula_sum   'Ca4 V4 Si16 H32 O60'
_cell_volume   1346.88713547
_cell_formula_units_Z   4
loop_
 _symmetry_equiv_pos_site_id
 _symmetry_equiv_pos_as_xyz
  1  'x, y, z'
loop_
 _atom_site_type_symbol
 _atom_site_label
 _atom_site_symmetry_multiplicity
 _atom_site_fract_x
 _atom_site_fract_y
 _atom_site_fract_z
 _atom_site_occupancy
  Ca  Ca0  1  0.88203091  0.41632567  0.25000000  1
  Ca  Ca1  1  0.38203091  0.08367433  0.25000000  1
  Ca  Ca2  1  0.11796909  0.58367433  0.75000000  1
  Ca  Ca3  1  0.61796909  0.91632567  0.75000000  1
  V  V4  1  0.02523583  0.09507392  0.25000000  1
  V  V5  1  0.52523583  0.40492608  0.25000000  1
  V  V6  1  0.97476417  0.90492608  0.75000000  1
  V  V7  1  0.47476417  0.59507392  0.75000000  1
  Si  Si8  1  0.68313045  0.40427225  0.03603572  1
  Si  Si9  1  0.18313045  0.09572775  0.46396428  1
  Si  Si10  1  0.31686955  0.59572775  0.53603572  1
  Si  Si11  1  0.81686955  0.90427225  0.96396428  1
  Si  Si12  1  0.31686955  0.59572775  0.96396428  1
  Si  Si13  1  0.81686955  0.90427225  0.53603572  1
  Si  Si14  1  0.68313045  0.40427225  0.46396428  1
  Si  Si15  1  0.18313045  0.09572775  0.03603572  1
  Si  Si16  1  0.89378553  0.18384733  0.04447679  1
  Si  Si17  1  0.39378553  0.31615267  0.45552321  1
  Si  Si18  1  0.10621447  0.81615267  0.54447679  1
  Si  Si19  1  0.60621447  0.68384733  0.95552321  1
  Si  Si20  1  0.10621447  0.81615267  0.95552321  1
  Si  Si21  1  0.60621447  0.68384733  0.54447679  1
  Si  Si22  1  0.89378553  0.18384733  0.45552321  1
  Si  Si23  1  0.39378553  0.31615267  0.04447679  1
  H  H24  1  0.91492287  0.63078117  0.11281662  1
  H  H25  1  0.41492287  0.86921883  0.38718338  1
  H  H26  1  0.08507713  0.36921883  0.61281662  1
  H  H27  1  0.58507713  0.13078117  0.88718338  1
  H  H28  1  0.08507713  0.36921883  0.88718338  1
  H  H29  1  0.58507713  0.13078117  0.61281662  1
  H  H30  1  0.91492287  0.63078117  0.38718338  1
  H  H31  1  0.41492287  0.86921883  0.11281662  1
  H  H32  1  0.05557326  0.56943469  0.08547083  1
  H  H33  1  0.55557326  0.93056531  0.41452917  1
  H  H34  1  0.94442674  0.43056531  0.58547083  1
  H  H35  1  0.44442674  0.06943469  0.91452917  1
  H  H36  1  0.94442674  0.43056531  0.91452917  1
  H  H37  1  0.44442674  0.06943469  0.58547083  1
  H  H38  1  0.05557326  0.56943469  0.41452917  1
  H  H39  1  0.55557326  0.93056531  0.08547083  1
  H  H40  1  0.19662860  0.36924340  0.30413616  1
  H  H41  1  0.69662860  0.13075660  0.19586384  1
  H  H42  1  0.80337140  0.63075660  0.80413616  1
  H  H43  1  0.30337140  0.86924340  0.69586384  1
  H  H44  1  0.80337140  0.63075660  0.69586384  1
  H  H45  1  0.30337140  0.86924340  0.80413616  1
  H  H46  1  0.19662860  0.36924340  0.19586384  1
  H  H47  1  0.69662860  0.13075660  0.30413616  1
  H  H48  1  0.82791853  0.77905921  0.25000000  1
  H  H49  1  0.32791853  0.72094079  0.25000000  1
  H  H50  1  0.17208147  0.22094079  0.75000000  1
  H  H51  1  0.67208147  0.27905921  0.75000000  1
  H  H52  1  0.68935630  0.69651109  0.25000000  1
  H  H53  1  0.18935630  0.80348891  0.25000000  1
  H  H54  1  0.31064370  0.30348891  0.75000000  1
  H  H55  1  0.81064370  0.19651109  0.75000000  1
  O  O56  1  0.67823940  0.41311855  0.15146554  1
  O  O57  1  0.17823940  0.08688145  0.34853446  1
  O  O58  1  0.32176060  0.58688145  0.65146554  1
  O  O59  1  0.82176060  0.91311855  0.84853446  1
  O  O60  1  0.32176060  0.58688145  0.84853446  1
  O  O61  1  0.82176060  0.91311855  0.65146554  1
  O  O62  1  0.67823940  0.41311855  0.34853446  1
  O  O63  1  0.17823940  0.08688145  0.15146554  1
  O  O64  1  0.90912004  0.20290056  0.15844014  1
  O  O65  1  0.40912004  0.29709944  0.34155986  1
  O  O66  1  0.09087996  0.79709944  0.65844014  1
  O  O67  1  0.59087996  0.70290056  0.84155986  1
  O  O68  1  0.09087996  0.79709944  0.84155986  1
  O  O69  1  0.59087996  0.70290056  0.65844014  1
  O  O70  1  0.90912004  0.20290056  0.34155986  1
  O  O71  1  0.40912004  0.29709944  0.15844014  1
  O  O72  1  0.79921516  0.05102059  0.01820156  1
  O  O73  1  0.29921516  0.44897941  0.48179844  1
  O  O74  1  0.20078484  0.94897941  0.51820156  1
  O  O75  1  0.70078484  0.55102059  0.98179844  1
  O  O76  1  0.20078484  0.94897941  0.98179844  1
  O  O77  1  0.70078484  0.55102059  0.51820156  1
  O  O78  1  0.79921516  0.05102059  0.48179844  1
  O  O79  1  0.29921516  0.44897941  0.01820156  1
  O  O80  1  0.54453795  0.32910434  0.99344032  1
  O  O81  1  0.04453795  0.17089566  0.50655968  1
  O  O82  1  0.45546205  0.67089566  0.49344032  1
  O  O83  1  0.95546205  0.82910434  0.00655968  1
  O  O84  1  0.45546205  0.67089566  0.00655968  1
  O  O85  1  0.95546205  0.82910434  0.49344032  1
  O  O86  1  0.54453795  0.32910434  0.50655968  1
  O  O87  1  0.04453795  0.17089566  0.99344032  1
  O  O88  1  0.81643475  0.31679951  0.99784615  1
  O  O89  1  0.31643475  0.18320049  0.50215385  1
  O  O90  1  0.18356525  0.68320049  0.49784615  1
  O  O91  1  0.68356525  0.81679951  0.00215385  1
  O  O92  1  0.18356525  0.68320049  0.00215385  1
  O  O93  1  0.68356525  0.81679951  0.49784615  1
  O  O94  1  0.81643475  0.31679951  0.50215385  1
  O  O95  1  0.31643475  0.18320049  0.99784615  1
  O  O96  1  0.95790177  0.94163829  0.25000000  1
  O  O97  1  0.45790177  0.55836171  0.25000000  1
  O  O98  1  0.04209823  0.05836171  0.75000000  1
  O  O99  1  0.54209823  0.44163829  0.75000000  1
  O  O100  1  0.97190935  0.55033884  0.12121858  1
  O  O101  1  0.47190935  0.94966116  0.37878142  1
  O  O102  1  0.02809065  0.44966116  0.62121858  1
  O  O103  1  0.52809065  0.05033884  0.87878142  1
  O  O104  1  0.02809065  0.44966116  0.87878142  1
  O  O105  1  0.52809065  0.05033884  0.62121858  1
  O  O106  1  0.97190935  0.55033884  0.37878142  1
  O  O107  1  0.47190935  0.94966116  0.12121858  1
  O  O108  1  0.13385031  0.36456355  0.25000000  1
  O  O109  1  0.63385031  0.13543645  0.25000000  1
  O  O110  1  0.86614969  0.63543645  0.75000000  1
  O  O111  1  0.36614969  0.86456355  0.75000000  1
  O  O112  1  0.78845914  0.68701876  0.25000000  1
  O  O113  1  0.28845914  0.81298124  0.25000000  1
  O  O114  1  0.21154086  0.31298124  0.75000000  1
  O  O115  1  0.71154086  0.18701876  0.75000000  1
