# generated using pymatgen
data_Nb3Ge
_symmetry_space_group_name_H-M   'P 1'
_cell_length_a   5.30627797
_cell_length_b   10.35914910
_cell_length_c   10.35914910
_cell_angle_alpha   90.00000000
_cell_angle_beta   90.00000000
_cell_angle_gamma   90.00000000
_symmetry_Int_Tables_number   1
_chemical_formula_structural   Nb3Ge
_chemical_formula_sum   'Nb24 Ge8'
_cell_volume   569.42714273
_cell_formula_units_Z   8
loop_
 _symmetry_equiv_pos_site_id
 _symmetry_equiv_pos_as_xyz
  1  'x, y, z'
loop_
 _atom_site_type_symbol
 _atom_site_label
 _atom_site_symmetry_multiplicity
 _atom_site_fract_x
 _atom_site_fract_y
 _atom_site_fract_z
 _atom_site_occupancy
  Nb  Nb0  1  0.78585879  0.84727933  0.16671966  1
  Nb  Nb1  1  0.78585879  0.65272067  0.33328034  1
  Nb  Nb2  1  0.28585879  0.66671966  0.15272067  1
  Nb  Nb3  1  0.28585879  0.83328034  0.34727933  1
  Nb  Nb4  1  0.21414121  0.15272067  0.83328034  1
  Nb  Nb5  1  0.21414121  0.34727933  0.66671966  1
  Nb  Nb6  1  0.71414121  0.33328034  0.84727933  1
  Nb  Nb7  1  0.71414121  0.16671966  0.65272067  1
  Nb  Nb8  1  0.97078148  0.22837843  0.10118029  1
  Nb  Nb9  1  0.97078148  0.27162157  0.39881971  1
  Nb  Nb10  1  0.47078148  0.60118029  0.77162157  1
  Nb  Nb11  1  0.47078148  0.89881971  0.72837843  1
  Nb  Nb12  1  0.02921852  0.77162157  0.89881971  1
  Nb  Nb13  1  0.02921852  0.72837843  0.60118029  1
  Nb  Nb14  1  0.52921852  0.39881971  0.22837843  1
  Nb  Nb15  1  0.52921852  0.10118029  0.27162157  1
  Nb  Nb16  1  0.26420834  0.96411266  0.06390917  1
  Nb  Nb17  1  0.26420834  0.53588734  0.43609083  1
  Nb  Nb18  1  0.76420834  0.56390917  0.03588734  1
  Nb  Nb19  1  0.76420834  0.93609083  0.46411266  1
  Nb  Nb20  1  0.73579166  0.03588734  0.93609083  1
  Nb  Nb21  1  0.73579166  0.46411266  0.56390917  1
  Nb  Nb22  1  0.23579166  0.43609083  0.96411266  1
  Nb  Nb23  1  0.23579166  0.06390917  0.53588734  1
  Ge  Ge24  1  0.46724842  0.21735838  0.04633849  1
  Ge  Ge25  1  0.46724842  0.28264162  0.45366151  1
  Ge  Ge26  1  0.96724842  0.54633849  0.78264162  1
  Ge  Ge27  1  0.96724842  0.95366151  0.71735838  1
  Ge  Ge28  1  0.53275158  0.78264162  0.95366151  1
  Ge  Ge29  1  0.53275158  0.71735838  0.54633849  1
  Ge  Ge30  1  0.03275158  0.45366151  0.21735838  1
  Ge  Ge31  1  0.03275158  0.04633849  0.28264162  1
