# generated using pymatgen
data_Ba6Li2Si4ClO15
_symmetry_space_group_name_H-M   'P 1'
_cell_length_a   5.77583639
_cell_length_b   5.77536627
_cell_length_c   29.75666637
_cell_angle_alpha   90.00000000
_cell_angle_beta   90.00000000
_cell_angle_gamma   120.00269614
_symmetry_Int_Tables_number   1
_chemical_formula_structural   Ba6Li2Si4ClO15
_chemical_formula_sum   'Ba12 Li4 Si8 Cl2 O30'
_cell_volume   859.60220897
_cell_formula_units_Z   2
loop_
 _symmetry_equiv_pos_site_id
 _symmetry_equiv_pos_as_xyz
  1  'x, y, z'
loop_
 _atom_site_type_symbol
 _atom_site_label
 _atom_site_symmetry_multiplicity
 _atom_site_fract_x
 _atom_site_fract_y
 _atom_site_fract_z
 _atom_site_occupancy
  Ba  Ba0  1  0.99995099  1.00000000  -0.00000000  1
  Ba  Ba1  1  0.99995099  1.00000000  0.50000000  1
  Ba  Ba2  1  0.00000414  -0.00000277  0.14734524  1
  Ba  Ba3  1  0.00000414  -0.00000277  0.35265476  1
  Ba  Ba4  1  0.00000692  0.00000277  0.64734524  1
  Ba  Ba5  1  0.00000692  0.00000277  0.85265476  1
  Ba  Ba6  1  0.33333607  0.66664506  0.08450842  1
  Ba  Ba7  1  0.33333607  0.66664506  0.41549158  1
  Ba  Ba8  1  0.66669101  0.33335494  0.58450842  1
  Ba  Ba9  1  0.66669101  0.33335494  0.91549158  1
  Ba  Ba10  1  0.66666711  0.33334096  0.25000000  1
  Ba  Ba11  1  0.33332615  0.66665904  0.75000000  1
  Li  Li12  1  0.66666036  0.33330556  0.14586846  1
  Li  Li13  1  0.66666036  0.33330556  0.35413154  1
  Li  Li14  1  0.33335480  0.66669444  0.64586846  1
  Li  Li15  1  0.33335480  0.66669444  0.85413154  1
  Si  Si16  1  0.66666922  0.33330549  0.05603182  1
  Si  Si17  1  0.66666922  0.33330549  0.44396818  1
  Si  Si18  1  0.33336372  0.66669451  0.55603182  1
  Si  Si19  1  0.33336372  0.66669451  0.94396818  1
  Si  Si20  1  0.33333018  0.66667230  0.19363783  1
  Si  Si21  1  0.33333018  0.66667230  0.30636217  1
  Si  Si22  1  0.66665788  0.33332770  0.69363783  1
  Si  Si23  1  0.66665788  0.33332770  0.80636217  1
  Cl  Cl24  1  0.99998990  0.00001452  0.25000000  1
  Cl  Cl25  1  0.99997538  0.99998548  0.75000000  1
  O  O26  1  0.49526529  0.52044833  0.17418498  1
  O  O27  1  0.02519413  0.50473864  0.17418301  1
  O  O28  1  0.47954359  0.97480767  0.17418342  1
  O  O29  1  0.49526529  0.52044833  0.32581502  1
  O  O30  1  0.02519413  0.50473864  0.32581699  1
  O  O31  1  0.47954359  0.97480767  0.32581658  1
  O  O32  1  0.97481696  0.47955167  0.67418498  1
  O  O33  1  0.52045549  0.49526136  0.67418301  1
  O  O34  1  0.50473592  0.02519233  0.67418342  1
  O  O35  1  0.97481696  0.47955167  0.82581502  1
  O  O36  1  0.52045549  0.49526136  0.82581699  1
  O  O37  1  0.50473592  0.02519233  0.82581658  1
  O  O38  1  0.35820503  0.18015205  0.07609687  1
  O  O39  1  0.82194423  0.64181628  0.07608681  1
  O  O40  1  0.81986208  0.17807094  0.07610622  1
  O  O41  1  0.35820503  0.18015205  0.42390313  1
  O  O42  1  0.82194423  0.64181628  0.42391319  1
  O  O43  1  0.81986208  0.17807094  0.42389378  1
  O  O44  1  0.17805298  0.81984795  0.57609687  1
  O  O45  1  0.18012795  0.35818372  0.57608681  1
  O  O46  1  0.64179114  0.82192906  0.57610622  1
  O  O47  1  0.17805298  0.81984795  0.92390313  1
  O  O48  1  0.18012795  0.35818372  0.92391319  1
  O  O49  1  0.64179114  0.82192906  0.92389378  1
  O  O50  1  0.33332733  0.66667778  0.25000000  1
  O  O51  1  0.66664954  0.33332222  0.75000000  1
  O  O52  1  0.66667372  0.33323522  0.00109423  1
  O  O53  1  0.66667372  0.33323522  0.49890577  1
  O  O54  1  0.33343850  0.66676478  0.50109423  1
  O  O55  1  0.33343850  0.66676478  0.99890577  1
