# generated using pymatgen
data_CuH36S8I2(N3O4)3
_symmetry_space_group_name_H-M   'P 1'
_cell_length_a   12.58985972
_cell_length_b   12.58985972
_cell_length_c   12.58985972
_cell_angle_alpha   96.47934652
_cell_angle_beta   116.33236182
_cell_angle_gamma   116.33236182
_symmetry_Int_Tables_number   1
_chemical_formula_structural   CuH36S8I2(N3O4)3
_chemical_formula_sum   'Cu2 H72 S16 I4 N18 O24'
_cell_volume   1479.04747544
_cell_formula_units_Z   2
loop_
 _symmetry_equiv_pos_site_id
 _symmetry_equiv_pos_as_xyz
  1  'x, y, z'
loop_
 _atom_site_type_symbol
 _atom_site_label
 _atom_site_symmetry_multiplicity
 _atom_site_fract_x
 _atom_site_fract_y
 _atom_site_fract_z
 _atom_site_occupancy
  Cu  Cu0  1  0.50000000  0.75000000  0.25000000  1
  Cu  Cu1  1  -0.00000000  -0.00000000  0.00000000  1
  H  H2  1  0.43103158  0.22171823  0.78053014  1
  H  H3  1  0.05881191  0.52828177  0.45931336  1
  H  H4  1  0.56896842  0.34949855  0.79068664  1
  H  H5  1  0.94118809  0.40050145  0.46946986  1
  H  H6  1  0.44118809  0.21946986  0.65050145  1
  H  H7  1  0.93103158  0.53053014  0.47171823  1
  H  H8  1  0.55881191  0.20931336  0.77828177  1
  H  H9  1  0.06896842  0.54068664  0.59949855  1
  H  H10  1  0.50476474  0.48645915  0.07619539  1
  H  H11  1  0.08973624  0.26354085  0.26830559  1
  H  H12  1  0.49523526  0.57143065  0.98169441  1
  H  H13  1  0.91026376  0.17856935  0.17380461  1
  H  H14  1  0.41026376  0.92380461  0.42856935  1
  H  H15  1  0.00476474  0.82619539  0.73645915  1
  H  H16  1  0.58973624  0.01830559  0.51354085  1
  H  H17  1  0.99523526  0.73169441  0.82143065  1
  H  H18  1  0.58912204  0.50431937  0.99918696  1
  H  H19  1  0.99486759  0.24568063  0.33480267  1
  H  H20  1  0.41087796  0.41006492  0.91519733  1
  H  H21  1  0.00513241  0.33993508  0.25081304  1
  H  H22  1  0.50513241  0.00081304  0.58993508  1
  H  H23  1  0.08912204  0.74918696  0.75431937  1
  H  H24  1  0.49486759  0.08480267  0.49568063  1
  H  H25  1  0.91087796  0.66519733  0.66006492  1
  H  H26  1  0.24362943  0.42136823  0.17577784  1
  H  H27  1  0.25440961  0.32863177  0.07226119  1
  H  H28  1  0.75637057  0.93214842  0.17773881  1
  H  H29  1  0.74559039  0.81785158  0.07422216  1
  H  H30  1  0.24559039  0.82422216  0.06785158  1
  H  H31  1  0.74362943  0.92577784  0.67136823  1
  H  H32  1  0.75440961  0.82226119  0.57863177  1
  H  H33  1  0.25637057  0.92773881  0.18214842  1
  H  H34  1  0.09607074  0.30958680  0.03073498  1
  H  H35  1  0.22114818  0.44041320  0.03648393  1
  H  H36  1  0.90392926  0.93466425  0.21351607  1
  H  H37  1  0.77885182  0.81533575  0.21926502  1
  H  H38  1  0.27885182  0.96926502  0.06533575  1
  H  H39  1  0.59607074  0.78073498  0.55958680  1
  H  H40  1  0.72114818  0.78648393  0.69041320  1
  H  H41  1  0.40392926  0.96351607  0.18466425  1
  H  H42  1  0.51275695  0.94717167  0.99078208  1
  H  H43  1  0.54361041  0.80282833  0.81558528  1
  H  H44  1  0.48724305  0.47802513  0.43441472  1
  H  H45  1  0.45638959  0.27197487  0.25921792  1
  H  H46  1  0.95638959  0.00921792  0.52197487  1
  H  H47  1  0.01275695  0.74078208  0.19717167  1
  H  H48  1  0.04361041  0.56558528  0.05282833  1
  H  H49  1  0.98724305  0.18441472  0.72802513  1
  H  H50  1  0.61307187  0.10852220  0.04371623  1
  H  H51  1  0.43519403  0.64147780  0.75454967  1
  H  H52  1  0.38692813  0.43064436  0.49545033  1
  H  H53  1  0.56480597  0.31935564  0.20628377  1
  H  H54  1  0.06480597  0.95628377  0.56935564  1
  H  H55  1  0.11307187  0.79371623  0.35852220  1
  H  H56  1  0.93519403  0.50454967  0.89147780  1
  H  H57  1  0.88692813  0.24545033  0.68064436  1
  H  H58  1  0.51713453  0.02204508  0.88614655  1
  H  H59  1  0.36410147  0.72795492  0.74508945  1
  H  H60  1  0.48286547  0.36901202  0.50491055  1
  H  H61  1  0.63589853  0.38098798  0.36385345  1
  H  H62  1  0.13589853  0.11385345  0.63098798  1
  H  H63  1  0.01713453  0.63614655  0.27204508  1
  H  H64  1  0.86410147  0.49508945  0.97795492  1
  H  H65  1  0.98286547  0.25491055  0.61901202  1
  H  H66  1  0.43501675  0.03203718  0.96036272  1
  H  H67  1  0.42832555  0.71796282  0.65297957  1
  H  H68  1  0.56498325  0.52534598  0.59702043  1
  H  H69  1  0.57167445  0.22465402  0.28963728  1
  H  H70  1  0.07167445  0.03963728  0.47465402  1
  H  H71  1  0.93501675  0.71036272  0.28203718  1
  H  H72  1  0.92832555  0.40297957  0.96796282  1
  H  H73  1  0.06498325  0.34702043  0.77534598  1
  S  S74  1  0.44814383  0.74712627  0.04643743  1
  S  S75  1  0.79931116  0.00287373  0.95101755  1
  S  S76  1  0.55185617  0.59829361  0.29898245  1
  S  S77  1  0.20068884  0.15170639  0.20356257  1
  S  S78  1  0.70068884  0.95356257  0.40170639  1
  S  S79  1  0.94814383  0.79643743  0.99712627  1
  S  S80  1  0.29931116  0.70101755  0.25287373  1
  S  S81  1  0.05185617  0.04898245  0.84829361  1
  S  S82  1  0.23359209  0.62963884  0.90955570  1
  S  S83  1  0.77991686  0.12036116  0.85395325  1
  S  S84  1  0.76640791  0.67596361  0.39604675  1
  S  S85  1  0.22008314  0.07403639  0.34044430  1
  S  S86  1  0.72008314  0.09044430  0.32403639  1
  S  S87  1  0.73359209  0.65955570  0.87963884  1
  S  S88  1  0.27991686  0.60395325  0.37036116  1
  S  S89  1  0.26640791  0.14604675  0.92596361  1
  I  I90  1  0.24690205  0.87500000  0.62190205  1
  I  I91  1  0.75309795  0.37500000  0.62809795  1
  I  I92  1  0.25309795  0.37809795  0.62500000  1
  I  I93  1  0.74690205  0.37190205  0.12500000  1
  N  N94  1  0.50000000  0.25000000  0.75000000  1
  N  N95  1  -0.00000000  0.50000000  0.50000000  1
  N  N96  1  0.50000000  0.49306669  0.99306669  1
  N  N97  1  -0.00000000  0.25693331  0.25693331  1
  N  N98  1  0.50000000  0.00693331  0.50693331  1
  N  N99  1  -0.00000000  0.74306669  0.74306669  1
  N  N100  1  0.20582239  0.37500000  0.08082239  1
  N  N101  1  0.79417761  0.87500000  0.16917761  1
  N  N102  1  0.29417761  0.91917761  0.12500000  1
  N  N103  1  0.70582239  0.83082239  0.62500000  1
  N  N104  1  0.51864240  0.02564313  0.96921774  1
  N  N105  1  0.44357461  0.72435687  0.74299927  1
  N  N106  1  0.48135760  0.45057534  0.50700073  1
  N  N107  1  0.55642539  0.29942466  0.28078226  1
  N  N108  1  0.05642539  0.03078226  0.54942466  1
  N  N109  1  0.01864240  0.71921774  0.27564313  1
  N  N110  1  0.94357461  0.49299927  0.97435687  1
  N  N111  1  0.98135760  0.25700073  0.70057534  1
  O  O112  1  0.18339250  0.49649125  0.90612158  1
  O  O113  1  0.90963032  0.25350875  0.93690124  1
  O  O114  1  0.81660750  0.72272908  0.31309876  1
  O  O115  1  0.09036968  0.02727092  0.34387842  1
  O  O116  1  0.59036968  0.09387842  0.27727092  1
  O  O117  1  0.68339250  0.65612158  0.74649125  1
  O  O118  1  0.40963032  0.68690124  0.50350875  1
  O  O119  1  0.31660750  0.06309876  0.97272908  1
  O  O120  1  0.21184404  0.63603157  0.78488033  1
  O  O121  1  0.64884877  0.11396843  0.82581248  1
  O  O122  1  0.78815596  0.57303629  0.42418752  1
  O  O123  1  0.35115123  0.17696371  0.46511967  1
  O  O124  1  0.85115123  0.21511967  0.42696371  1
  O  O125  1  0.71184404  0.53488033  0.88603157  1
  O  O126  1  0.14884877  0.57581248  0.36396843  1
  O  O127  1  0.28815596  0.17418752  0.82303629  1
  O  O128  1  0.15847077  0.67614472  0.94332051  1
  O  O129  1  0.76717579  0.07385528  0.73232606  1
  O  O130  1  0.84152923  0.78484974  0.51767394  1
  O  O131  1  0.23282421  0.96515026  0.30667949  1
  O  O132  1  0.73282421  0.05667949  0.21515026  1
  O  O133  1  0.65847077  0.69332051  0.92614472  1
  O  O134  1  0.26717579  0.48232606  0.32385528  1
  O  O135  1  0.34152923  0.26767394  0.03484974  1
