# generated using pymatgen
data_H24C47N72
_symmetry_space_group_name_H-M   'P 1'
_cell_length_a   8.26411813
_cell_length_b   12.77604462
_cell_length_c   16.89858648
_cell_angle_alpha   89.74031746
_cell_angle_beta   90.80254492
_cell_angle_gamma   89.58682022
_symmetry_Int_Tables_number   1
_chemical_formula_structural   H24C47N72
_chemical_formula_sum   'H24 C47 N72'
_cell_volume   1783.95852817
_cell_formula_units_Z   1
loop_
 _symmetry_equiv_pos_site_id
 _symmetry_equiv_pos_as_xyz
  1  'x, y, z'
loop_
 _atom_site_type_symbol
 _atom_site_label
 _atom_site_symmetry_multiplicity
 _atom_site_fract_x
 _atom_site_fract_y
 _atom_site_fract_z
 _atom_site_occupancy
  H  H0  1  0.03130008  0.05056747  0.58115391  1
  H  H1  1  0.03084281  0.17621906  0.62622150  1
  H  H2  1  0.96784686  0.94201386  0.41956114  1
  H  H3  1  0.97079590  0.81615354  0.37449190  1
  H  H4  1  0.99514017  0.38985194  0.61665583  1
  H  H5  1  0.01011710  0.60156182  0.38310182  1
  H  H6  1  0.95911604  0.55294760  0.92145727  1
  H  H7  1  0.95020884  0.67970667  0.87648720  1
  H  H8  1  0.03944828  0.44183813  0.07666878  1
  H  H9  1  0.05071802  0.31631911  0.12363026  1
  H  H10  1  0.97286144  0.88806253  0.88395085  1
  H  H11  1  0.02789585  0.10337999  0.11698788  1
  H  H12  1  0.52643923  0.54893429  0.07969536  1
  H  H13  1  0.52769841  0.67467269  0.12596312  1
  H  H14  1  0.47450549  0.44161886  0.92112305  1
  H  H15  1  0.47067305  0.31594642  0.87468463  1
  H  H16  1  0.54787685  0.88314958  0.11419835  1
  H  H17  1  0.45054181  0.10175024  0.88391525  1
  H  H18  1  0.50032919  0.05471182  0.42098076  1
  H  H19  1  0.49582020  0.18129097  0.37503824  1
  H  H20  1  0.49836425  0.94219814  0.58063212  1
  H  H21  1  0.50438450  0.81448035  0.62504288  1
  H  H22  1  0.50759318  0.40356343  0.37826052  1
  H  H23  1  0.49161553  0.60230301  0.61703023  1
  C  C24  1  0.98940224  0.03559152  0.83858881  1
  C  C25  1  0.99412993  0.17067156  0.92675200  1
  C  C26  1  0.00169071  0.19737259  0.78372357  1
  C  C27  1  0.97713532  0.34673830  0.87055790  1
  C  C28  1  0.98293911  0.36593356  0.73678161  1
  C  C29  1  0.96836598  0.53633159  0.66220041  1
  C  C30  1  0.96481033  0.67235199  0.57399280  1
  C  C31  1  0.95953216  0.86691933  0.76348805  1
  C  C32  1  0.95395308  0.84874533  0.62938544  1
  C  C33  1  0.95968125  0.81979305  0.49569724  1
  C  C34  1  0.04228175  0.17254561  0.50494045  1
  C  C35  1  0.04692868  0.14331369  0.37129069  1
  C  C36  1  0.04025768  0.12497318  0.23736178  1
  C  C37  1  0.04086727  0.31985043  0.42637993  1
  C  C38  1  0.04695894  0.29370724  0.28350057  1
  C  C39  1  0.03556659  0.45516435  0.33788430  1
  C  C40  1  0.01935051  0.62510209  0.26329414  1
  C  C41  1  0.02359489  0.64501213  0.12951408  1
  C  C42  1  0.99998026  0.79388524  0.21680101  1
  C  C43  1  0.00801390  0.82161695  0.07391931  1
  C  C44  1  0.01174084  0.95615734  0.16244966  1
  C  C45  1  0.00749972  0.31828226  0.00364296  1
  C  C46  1  0.95388180  0.69801237  0.71694952  1
  C  C47  1  0.99339071  0.67465306  0.99636420  1
  C  C48  1  0.54969833  0.68233219  0.42317799  1
  C  C49  1  0.55741843  0.70255626  0.29200273  1
  C  C50  1  0.53662973  0.85874371  0.37073914  1
  C  C51  1  0.54836854  0.86485979  0.23594558  1
  C  C52  1  0.54017230  0.03210591  0.15860434  1
  C  C53  1  0.52509978  0.16964164  0.07188834  1
  C  C54  1  0.48622536  0.35839686  0.26334178  1
  C  C55  1  0.50321394  0.34505806  0.12937638  1
  C  C56  1  0.49974645  0.31836354  0.99547209  1
  C  C57  1  0.50418576  0.67198925  0.00479148  1
  C  C58  1  0.49808020  0.64325448  0.87105044  1
  C  C59  1  0.49419536  0.62503659  0.73720072  1
  C  C60  1  0.47642940  0.81896454  0.92659870  1
  C  C61  1  0.48666315  0.79369097  0.78356869  1
  C  C62  1  0.46213884  0.95466737  0.83834262  1
  C  C63  1  0.45051274  0.12488428  0.76357266  1
  C  C64  1  0.46148336  0.14468248  0.62984990  1
  C  C65  1  0.45052279  0.29399987  0.71731713  1
  C  C66  1  0.46124075  0.32139905  0.57438802  1
  C  C67  1  0.46746908  0.45590552  0.66271361  1
  C  C68  1  0.52398476  0.82326198  0.50380917  1
  C  C69  1  0.51831866  0.19226836  0.21462021  1
  C  C70  1  0.47531177  0.17516417  0.49642130  1
  N  N71  1  0.00714962  0.09432474  0.77325805  1
  N  N72  1  0.98682082  0.06742631  0.91411633  1
  N  N73  1  0.99020545  0.23810205  0.85998198  1
  N  N74  1  0.00583965  0.26262486  0.72150055  1
  N  N75  1  0.98083586  0.38634359  0.94218361  1
  N  N76  1  0.96360558  0.40947575  0.80712664  1
  N  N77  1  0.98035013  0.42823630  0.66948265  1
  N  N78  1  0.95613494  0.59497025  0.72768002  1
  N  N79  1  0.97267756  0.56917699  0.58668760  1
  N  N80  1  0.96628304  0.71324288  0.50165809  1
  N  N81  1  0.95640270  0.73964847  0.64036918  1
  N  N82  1  0.95264387  0.76263444  0.77921919  1
  N  N83  1  0.97305465  0.92777006  0.83081944  1
  N  N84  1  0.95484882  0.91181338  0.69244432  1
  N  N85  1  0.95460937  0.88835999  0.55737754  1
  N  N86  1  0.95804328  0.86227300  0.42386165  1
  N  N87  1  0.04220290  0.13011272  0.57684397  1
  N  N88  1  0.04519801  0.10376128  0.44345498  1
  N  N89  1  0.04419386  0.08000570  0.30840097  1
  N  N90  1  0.02709671  0.06370528  0.17010124  1
  N  N91  1  0.03901038  0.27905314  0.49896900  1
  N  N92  1  0.04724288  0.25223196  0.36024134  1
  N  N93  1  0.04714332  0.22885635  0.22122789  1
  N  N94  1  0.03455375  0.42278955  0.41361215  1
  N  N95  1  0.04274229  0.39640046  0.27248451  1
  N  N96  1  0.02391445  0.56312429  0.33035512  1
  N  N97  1  0.03704744  0.58193988  0.19245690  1
  N  N98  1  0.01906723  0.60599946  0.05735312  1
  N  N99  1  0.99644392  0.72851003  0.27876094  1
  N  N100  1  0.01147370  0.75365321  0.14027309  1
  N  N101  1  0.99384416  0.89704774  0.22749998  1
  N  N102  1  0.01528611  0.92454548  0.08673115  1
  N  N103  1  0.99697198  0.78140303  0.00166471  1
  N  N104  1  0.03789762  0.36157390  0.07348890  1
  N  N105  1  0.00521456  0.21142225  0.99871848  1
  N  N106  1  0.96226889  0.63293936  0.92599033  1
  N  N107  1  0.57421515  0.59774111  0.30983773  1
  N  N108  1  0.57018417  0.58568246  0.38938375  1
  N  N109  1  0.54334657  0.75314474  0.36227401  1
  N  N110  1  0.55630219  0.75762499  0.22448988  1
  N  N111  1  0.52632226  0.89564091  0.44342540  1
  N  N112  1  0.54129511  0.91595488  0.30484185  1
  N  N113  1  0.54915737  0.92319021  0.16683472  1
  N  N114  1  0.52783996  0.08942709  0.22426051  1
  N  N115  1  0.54351698  0.06610814  0.08346937  1
  N  N116  1  0.51346658  0.21158735  0.00009899  1
  N  N117  1  0.51501265  0.23553601  0.13879928  1
  N  N118  1  0.51194099  0.25463961  0.27767569  1
  N  N119  1  0.43858319  0.41432945  0.32742037  1
  N  N120  1  0.48532393  0.40594031  0.19266114  1
  N  N121  1  0.50387579  0.38598942  0.05760273  1
  N  N122  1  0.47876114  0.36147092  0.92461496  1
  N  N123  1  0.52222199  0.62920639  0.07600024  1
  N  N124  1  0.50365932  0.60365078  0.94303599  1
  N  N125  1  0.50155710  0.58024936  0.80811640  1
  N  N126  1  0.48641442  0.56344784  0.67019414  1
  N  N127  1  0.48777408  0.77829644  0.99905423  1
  N  N128  1  0.48683332  0.75204681  0.86016964  1
  N  N129  1  0.49296769  0.72937404  0.72122219  1
  N  N130  1  0.45693772  0.92150740  0.91390116  1
  N  N131  1  0.47863556  0.89659849  0.77294470  1
  N  N132  1  0.44997848  0.06257498  0.83092342  1
  N  N133  1  0.45767419  0.08084325  0.69274775  1
  N  N134  1  0.47237214  0.10572384  0.55809040  1
  N  N135  1  0.44487740  0.22886645  0.77949224  1
  N  N136  1  0.45638491  0.25350574  0.64080196  1
  N  N137  1  0.45458444  0.39703260  0.72816568  1
  N  N138  1  0.46475543  0.42478665  0.58699332  1
  N  N139  1  0.46699760  0.28147033  0.50239355  1
  N  N140  1  0.50878808  0.86225942  0.57578323  1
  N  N141  1  0.53755570  0.71491395  0.49736644  1
  N  N142  1  0.48857071  0.13434631  0.42483103  1
