# generated using pymatgen
data_MnH20C2S2(NO2)6
_symmetry_space_group_name_H-M   'P 1'
_cell_length_a   6.44438777
_cell_length_b   6.47715764
_cell_length_c   10.14355835
_cell_angle_alpha   89.63339766
_cell_angle_beta   95.97207286
_cell_angle_gamma   109.55764783
_symmetry_Int_Tables_number   1
_chemical_formula_structural   MnH20C2S2(NO2)6
_chemical_formula_sum   'Mn1 H20 C2 S2 N6 O12'
_cell_volume   396.62916658
_cell_formula_units_Z   1
loop_
 _symmetry_equiv_pos_site_id
 _symmetry_equiv_pos_as_xyz
  1  'x, y, z'
loop_
 _atom_site_type_symbol
 _atom_site_label
 _atom_site_symmetry_multiplicity
 _atom_site_fract_x
 _atom_site_fract_y
 _atom_site_fract_z
 _atom_site_occupancy
  Mn  Mn0  1  0.50000000  0.50000000  0.50000000  1
  H  H1  1  0.67583856  0.93131186  0.61201630  1
  H  H2  1  0.32416144  0.06868814  0.38798370  1
  H  H3  1  0.41402444  0.87092494  0.61125673  1
  H  H4  1  0.58597556  0.12907506  0.38874327  1
  H  H5  1  0.88300564  0.40853398  0.62847496  1
  H  H6  1  0.11699436  0.59146602  0.37152504  1
  H  H7  1  0.94581709  0.67037939  0.62228332  1
  H  H8  1  0.05418291  0.32962061  0.37771668  1
  H  H9  1  0.80833066  0.17155926  0.84385366  1
  H  H10  1  0.19166934  0.82844074  0.15614634  1
  H  H11  1  0.75966458  0.03569644  0.99374337  1
  H  H12  1  0.24033542  0.96430356  0.00625663  1
  H  H13  1  0.68302791  0.45606640  0.17126456  1
  H  H14  1  0.31697209  0.54393360  0.82873544  1
  H  H15  1  0.72420902  0.20348389  0.17930554  1
  H  H16  1  0.27579098  0.79651611  0.82069446  1
  H  H17  1  0.74648423  0.52144312  0.82824301  1
  H  H18  1  0.25351577  0.47855688  0.17175699  1
  H  H19  1  0.74671625  0.65117287  0.98187649  1
  H  H20  1  0.25328375  0.34882713  0.01812351  1
  C  C21  1  0.73051691  0.33467897  0.99425404  1
  C  C22  1  0.26948309  0.66532103  0.00574596  1
  S  S23  1  0.83830013  0.85893913  0.28369795  1
  S  S24  1  0.16169987  0.14106087  0.71630205  1
  N  N25  1  0.74641701  0.15880356  0.93354740  1
  N  N26  1  0.25358299  0.84119644  0.06645260  1
  N  N27  1  0.70145388  0.32683602  0.12312221  1
  N  N28  1  0.29854612  0.67316398  0.87687779  1
  N  N29  1  0.73782528  0.51546888  0.92799555  1
  N  N30  1  0.26217472  0.48453112  0.07200445  1
  O  O31  1  0.53223374  0.81145052  0.59531514  1
  O  O32  1  0.46776626  0.18854948  0.40468486  1
  O  O33  1  0.82124063  0.52991252  0.62160070  1
  O  O34  1  0.17875937  0.47008748  0.37839930  1
  O  O35  1  0.79455923  0.85542101  0.13691882  1
  O  O36  1  0.20544077  0.14457899  0.86308118  1
  O  O37  1  0.82431919  0.06592058  0.34122367  1
  O  O38  1  0.17568081  0.93407942  0.65877633  1
  O  O39  1  0.67075456  0.66320493  0.33440806  1
  O  O40  1  0.32924544  0.33679507  0.66559194  1
  O  O41  1  0.06541544  0.84612661  0.32243349  1
  O  O42  1  0.93458456  0.15387339  0.67756651  1
