# generated using pymatgen
data_Ti9Co2(B4Ru9)2
_symmetry_space_group_name_H-M   'P 1'
_cell_length_a   2.99235714
_cell_length_b   17.61015448
_cell_length_c   17.61015448
_cell_angle_alpha   90.00000000
_cell_angle_beta   90.00000000
_cell_angle_gamma   90.00000000
_symmetry_Int_Tables_number   1
_chemical_formula_structural   Ti9Co2(B4Ru9)2
_chemical_formula_sum   'Ti18 Co4 B16 Ru36'
_cell_volume   927.98243748
_cell_formula_units_Z   2
loop_
 _symmetry_equiv_pos_site_id
 _symmetry_equiv_pos_as_xyz
  1  'x, y, z'
loop_
 _atom_site_type_symbol
 _atom_site_label
 _atom_site_symmetry_multiplicity
 _atom_site_fract_x
 _atom_site_fract_y
 _atom_site_fract_z
 _atom_site_occupancy
  Ti  Ti0  1  0.50000000  0.30365709  0.80365709  1
  Ti  Ti1  1  0.50000000  0.69634291  0.19634291  1
  Ti  Ti2  1  0.50000000  0.19634291  0.30365709  1
  Ti  Ti3  1  0.50000000  0.80365709  0.69634291  1
  Ti  Ti4  1  0.50000000  0.50000000  0.50000000  1
  Ti  Ti5  1  0.50000000  -0.00000000  -0.00000000  1
  Ti  Ti6  1  0.50000000  0.53486925  0.68582694  1
  Ti  Ti7  1  0.50000000  0.46513075  0.31417306  1
  Ti  Ti8  1  0.50000000  0.96513075  0.18582694  1
  Ti  Ti9  1  0.50000000  0.03486925  0.81417306  1
  Ti  Ti10  1  0.50000000  0.68582694  0.46513075  1
  Ti  Ti11  1  0.50000000  0.31417306  0.53486925  1
  Ti  Ti12  1  0.50000000  0.18582694  0.03486925  1
  Ti  Ti13  1  0.50000000  0.81417306  0.96513075  1
  Ti  Ti14  1  0.50000000  0.67192323  0.82807677  1
  Ti  Ti15  1  0.50000000  0.32807677  0.17192323  1
  Ti  Ti16  1  0.50000000  0.82807677  0.32807677  1
  Ti  Ti17  1  0.50000000  0.17192323  0.67192323  1
  Co  Co18  1  0.50000000  0.54890178  0.95109822  1
  Co  Co19  1  0.50000000  0.45109822  0.04890178  1
  Co  Co20  1  0.50000000  0.95109822  0.45109822  1
  Co  Co21  1  0.50000000  0.04890178  0.54890178  1
  B  B22  1  0.50000000  0.37878368  0.67001229  1
  B  B23  1  0.50000000  0.62121632  0.32998771  1
  B  B24  1  0.50000000  0.12121632  0.17001229  1
  B  B25  1  0.50000000  0.87878368  0.82998771  1
  B  B26  1  0.50000000  0.67001229  0.62121632  1
  B  B27  1  0.50000000  0.32998771  0.37878368  1
  B  B28  1  0.50000000  0.17001229  0.87878368  1
  B  B29  1  0.50000000  0.82998771  0.12121632  1
  B  B30  1  0.50000000  0.46269441  0.83656316  1
  B  B31  1  0.50000000  0.53730559  0.16343684  1
  B  B32  1  0.50000000  0.03730559  0.33656316  1
  B  B33  1  0.50000000  0.96269441  0.66343684  1
  B  B34  1  0.50000000  0.83656316  0.53730559  1
  B  B35  1  0.50000000  0.16343684  0.46269441  1
  B  B36  1  0.50000000  0.33656316  0.96269441  1
  B  B37  1  0.50000000  0.66343684  0.03730559  1
  Ru  Ru38  1  -0.00000000  0.41932178  0.75477583  1
  Ru  Ru39  1  0.00000000  0.58067822  0.24522417  1
  Ru  Ru40  1  -0.00000000  0.08067822  0.25477583  1
  Ru  Ru41  1  0.00000000  0.91932178  0.74522417  1
  Ru  Ru42  1  0.00000000  0.75477583  0.58067822  1
  Ru  Ru43  1  -0.00000000  0.24522417  0.41932178  1
  Ru  Ru44  1  0.00000000  0.25477583  0.91932178  1
  Ru  Ru45  1  -0.00000000  0.74522417  0.08067822  1
  Ru  Ru46  1  0.00000000  0.41873986  0.91873986  1
  Ru  Ru47  1  -0.00000000  0.58126014  0.08126014  1
  Ru  Ru48  1  -0.00000000  0.08126014  0.41873986  1
  Ru  Ru49  1  0.00000000  0.91873986  0.58126014  1
  Ru  Ru50  1  0.00000000  0.55134664  0.83222812  1
  Ru  Ru51  1  -0.00000000  0.44865336  0.16777188  1
  Ru  Ru52  1  -0.00000000  0.94865336  0.33222812  1
  Ru  Ru53  1  0.00000000  0.05134664  0.66777188  1
  Ru  Ru54  1  0.00000000  0.83222812  0.44865336  1
  Ru  Ru55  1  -0.00000000  0.16777188  0.55134664  1
  Ru  Ru56  1  -0.00000000  0.33222812  0.05134664  1
  Ru  Ru57  1  0.00000000  0.66777188  0.94865336  1
  Ru  Ru58  1  0.00000000  0.28891954  0.66786837  1
  Ru  Ru59  1  -0.00000000  0.71108046  0.33213163  1
  Ru  Ru60  1  0.00000000  0.21108046  0.16786837  1
  Ru  Ru61  1  -0.00000000  0.78891954  0.83213163  1
  Ru  Ru62  1  -0.00000000  0.66786837  0.71108046  1
  Ru  Ru63  1  0.00000000  0.33213163  0.28891954  1
  Ru  Ru64  1  -0.00000000  0.16786837  0.78891954  1
  Ru  Ru65  1  0.00000000  0.83213163  0.21108046  1
  Ru  Ru66  1  0.00000000  0.43026430  0.59778112  1
  Ru  Ru67  1  -0.00000000  0.56973570  0.40221888  1
  Ru  Ru68  1  -0.00000000  0.06973570  0.09778112  1
  Ru  Ru69  1  0.00000000  0.93026430  0.90221888  1
  Ru  Ru70  1  0.00000000  0.59778112  0.56973570  1
  Ru  Ru71  1  -0.00000000  0.40221888  0.43026430  1
  Ru  Ru72  1  -0.00000000  0.09778112  0.93026430  1
  Ru  Ru73  1  0.00000000  0.90221888  0.06973570  1
