# generated using pymatgen
data_H6CSN2O
_symmetry_space_group_name_H-M   'P 1'
_cell_length_a   6.04109645
_cell_length_b   8.32702724
_cell_length_c   9.45999264
_cell_angle_alpha   90.00000000
_cell_angle_beta   90.00000000
_cell_angle_gamma   98.70904837
_symmetry_Int_Tables_number   1
_chemical_formula_structural   H6CSN2O
_chemical_formula_sum   'H24 C4 S4 N8 O4'
_cell_volume   470.39212313
_cell_formula_units_Z   4
loop_
 _symmetry_equiv_pos_site_id
 _symmetry_equiv_pos_as_xyz
  1  'x, y, z'
loop_
 _atom_site_type_symbol
 _atom_site_label
 _atom_site_symmetry_multiplicity
 _atom_site_fract_x
 _atom_site_fract_y
 _atom_site_fract_z
 _atom_site_occupancy
  H  H0  1  0.02419172  0.08818501  0.76744387  1
  H  H1  1  0.97580828  0.41181499  0.26744387  1
  H  H2  1  0.97580828  0.91181499  0.23255613  1
  H  H3  1  0.02419172  0.58818501  0.73255613  1
  H  H4  1  0.93687429  0.12012890  0.61455480  1
  H  H5  1  0.06312571  0.37987110  0.11455480  1
  H  H6  1  0.06312571  0.87987110  0.38544520  1
  H  H7  1  0.93687429  0.62012890  0.88544520  1
  H  H8  1  0.77935987  0.81532058  0.62589886  1
  H  H9  1  0.22064013  0.68467942  0.12589886  1
  H  H10  1  0.22064013  0.18467942  0.37410114  1
  H  H11  1  0.77935987  0.31532058  0.87410114  1
  H  H12  1  0.67160353  0.63527447  0.53588454  1
  H  H13  1  0.32839647  0.86472553  0.03588454  1
  H  H14  1  0.32839647  0.36472553  0.46411546  1
  H  H15  1  0.67160353  0.13527447  0.96411546  1
  H  H16  1  0.54911071  0.98105637  0.71395973  1
  H  H17  1  0.45088929  0.51894363  0.21395973  1
  H  H18  1  0.45088929  0.01894363  0.28604027  1
  H  H19  1  0.54911071  0.48105637  0.78604027  1
  H  H20  1  0.26220006  0.95245590  0.66818300  1
  H  H21  1  0.73779994  0.54754410  0.16818300  1
  H  H22  1  0.73779994  0.04754410  0.33181700  1
  H  H23  1  0.26220006  0.45245590  0.83181700  1
  C  C24  1  0.43897344  0.77731730  0.59728480  1
  C  C25  1  0.56102656  0.72268270  0.09728480  1
  C  C26  1  0.56102656  0.22268270  0.40271520  1
  C  C27  1  0.43897344  0.27731730  0.90271520  1
  S  S28  1  0.21327081  0.66120486  0.51895253  1
  S  S29  1  0.78672919  0.83879514  0.01895253  1
  S  S30  1  0.78672919  0.33879514  0.48104747  1
  S  S31  1  0.21327081  0.16120486  0.98104747  1
  N  N32  1  0.64447401  0.73554170  0.59115144  1
  N  N33  1  0.35552599  0.76445830  0.09115144  1
  N  N34  1  0.35552599  0.26445830  0.40884856  1
  N  N35  1  0.64447401  0.23554170  0.90884856  1
  N  N36  1  0.41430622  0.91235480  0.66807972  1
  N  N37  1  0.58569378  0.58764520  0.16807972  1
  N  N38  1  0.58569378  0.08764520  0.33192028  1
  N  N39  1  0.41430622  0.41235480  0.83192028  1
  O  O40  1  0.97351860  0.03352486  0.67753610  1
  O  O41  1  0.02648140  0.46647514  0.17753610  1
  O  O42  1  0.02648140  0.96647514  0.32246390  1
  O  O43  1  0.97351860  0.53352486  0.82246390  1
