# generated using pymatgen
data_Co4GeP4(H6O11)2
_symmetry_space_group_name_H-M   'P 1'
_cell_length_a   6.53432224
_cell_length_b   7.62538416
_cell_length_c   16.56105767
_cell_angle_alpha   90.00000000
_cell_angle_beta   90.00000000
_cell_angle_gamma   97.61994506
_symmetry_Int_Tables_number   1
_chemical_formula_structural   Co4GeP4(H6O11)2
_chemical_formula_sum   'Co8 Ge2 P8 H24 O44'
_cell_volume   817.89631072
_cell_formula_units_Z   2
loop_
 _symmetry_equiv_pos_site_id
 _symmetry_equiv_pos_as_xyz
  1  'x, y, z'
loop_
 _atom_site_type_symbol
 _atom_site_label
 _atom_site_symmetry_multiplicity
 _atom_site_fract_x
 _atom_site_fract_y
 _atom_site_fract_z
 _atom_site_occupancy
  Co  Co0  1  0.80650398  0.23658376  0.35459680  1
  Co  Co1  1  0.30650398  0.73658376  0.14540320  1
  Co  Co2  1  0.19349602  0.76341624  0.64540320  1
  Co  Co3  1  0.69349602  0.26341624  0.85459680  1
  Co  Co4  1  0.56809849  0.47282395  0.23196113  1
  Co  Co5  1  0.06809849  0.97282395  0.26803887  1
  Co  Co6  1  0.43190151  0.52717605  0.76803887  1
  Co  Co7  1  0.93190151  0.02717605  0.73196113  1
  Ge  Ge8  1  0.50000000  0.00000000  0.50000000  1
  Ge  Ge9  1  0.00000000  0.50000000  -0.00000000  1
  P  P10  1  0.32263657  0.28026353  0.38925363  1
  P  P11  1  0.82263657  0.78026353  0.11074637  1
  P  P12  1  0.67736343  0.71973647  0.61074637  1
  P  P13  1  0.17736343  0.21973647  0.88925363  1
  P  P14  1  0.54147905  0.86875407  0.31147393  1
  P  P15  1  0.04147905  0.36875407  0.18852607  1
  P  P16  1  0.45852095  0.13124593  0.68852607  1
  P  P17  1  0.95852095  0.63124593  0.81147393  1
  H  H18  1  0.59622263  0.33022652  0.09404438  1
  H  H19  1  0.09622263  0.83022652  0.40595562  1
  H  H20  1  0.40377737  0.66977348  0.90595562  1
  H  H21  1  0.90377737  0.16977348  0.59404438  1
  H  H22  1  0.57180097  0.16407419  0.15151106  1
  H  H23  1  0.07180097  0.66407419  0.34848894  1
  H  H24  1  0.42819903  0.83592581  0.84848894  1
  H  H25  1  0.92819903  0.33592581  0.65151106  1
  H  H26  1  0.77720004  0.49277856  0.48613036  1
  H  H27  1  0.27720004  0.99277856  0.01386964  1
  H  H28  1  0.22279996  0.50722144  0.51386964  1
  H  H29  1  0.72279996  0.00722144  0.98613036  1
  H  H30  1  0.75503070  0.56970652  0.39930184  1
  H  H31  1  0.25503070  0.06970652  0.10069816  1
  H  H32  1  0.24496930  0.43029348  0.60069816  1
  H  H33  1  0.74496930  0.93029348  0.89930184  1
  H  H34  1  0.76010578  0.23303923  0.49824127  1
  H  H35  1  0.26010578  0.73303923  0.00175873  1
  H  H36  1  0.23989422  0.76696077  0.50175873  1
  H  H37  1  0.73989422  0.26696077  0.99824127  1
  H  H38  1  0.40209062  0.56555876  0.37560559  1
  H  H39  1  0.90209062  0.06555876  0.12439441  1
  H  H40  1  0.59790938  0.43444124  0.62439441  1
  H  H41  1  0.09790938  0.93444124  0.87560559  1
  O  O42  1  0.52887353  0.28111203  0.14332483  1
  O  O43  1  0.02887353  0.78111203  0.35667517  1
  O  O44  1  0.47112647  0.71888797  0.85667517  1
  O  O45  1  0.97112647  0.21888797  0.64332483  1
  O  O46  1  0.82087254  0.48121382  0.42942140  1
  O  O47  1  0.32087254  0.98121382  0.07057860  1
  O  O48  1  0.17912746  0.51878618  0.57057860  1
  O  O49  1  0.67912746  0.01878618  0.92942140  1
  O  O50  1  0.11915686  0.18073260  0.35690894  1
  O  O51  1  0.61915686  0.68073260  0.14309106  1
  O  O52  1  0.88084314  0.81926740  0.64309106  1
  O  O53  1  0.38084314  0.31926740  0.85690894  1
  O  O54  1  0.50141812  0.28604699  0.32805894  1
  O  O55  1  0.00141812  0.78604699  0.17194106  1
  O  O56  1  0.49858188  0.71395301  0.67194106  1
  O  O57  1  0.99858188  0.21395301  0.82805894  1
  O  O58  1  0.57238274  0.66918173  0.31821715  1
  O  O59  1  0.07238274  0.16918173  0.18178285  1
  O  O60  1  0.42761726  0.33081827  0.68178285  1
  O  O61  1  0.92761726  0.83081827  0.81821715  1
  O  O62  1  0.74588962  0.99121879  0.29517380  1
  O  O63  1  0.24588962  0.49121879  0.20482620  1
  O  O64  1  0.25411038  0.00878121  0.70482620  1
  O  O65  1  0.75411038  0.50878121  0.79517380  1
  O  O66  1  0.87532883  0.39634203  0.25376946  1
  O  O67  1  0.37532883  0.89634203  0.24623054  1
  O  O68  1  0.12467117  0.60365797  0.74623054  1
  O  O69  1  0.62467117  0.10365797  0.75376946  1
  O  O70  1  0.76196887  0.12005341  0.47087163  1
  O  O71  1  0.26196887  0.62005341  0.02912837  1
  O  O72  1  0.23803113  0.87994659  0.52912837  1
  O  O73  1  0.73803113  0.37994659  0.97087163  1
  O  O74  1  0.29026594  0.48320365  0.40621537  1
  O  O75  1  0.79026594  0.98320365  0.09378463  1
  O  O76  1  0.70973406  0.51679635  0.59378463  1
  O  O77  1  0.20973406  0.01679635  0.90621537  1
  O  O78  1  0.37912360  0.21231071  0.47371994  1
  O  O79  1  0.87912360  0.71231071  0.02628006  1
  O  O80  1  0.62087640  0.78768929  0.52628006  1
  O  O81  1  0.12087640  0.28768929  0.97371994  1
  O  O82  1  0.44370545  0.91411993  0.39387380  1
  O  O83  1  0.94370545  0.41411993  0.10612620  1
  O  O84  1  0.55629455  0.08588007  0.60612620  1
  O  O85  1  0.05629455  0.58588007  0.89387380  1
