# generated using pymatgen
data_Ce2TeMo6(H6O7)6
_symmetry_space_group_name_H-M   'P 1'
_cell_length_a   9.38060167
_cell_length_b   10.45103415
_cell_length_c   10.96464847
_cell_angle_alpha   102.64820476
_cell_angle_beta   108.17136114
_cell_angle_gamma   106.95206244
_symmetry_Int_Tables_number   1
_chemical_formula_structural   Ce2TeMo6(H6O7)6
_chemical_formula_sum   'Ce2 Te1 Mo6 H36 O42'
_cell_volume   918.40708406
_cell_formula_units_Z   1
loop_
 _symmetry_equiv_pos_site_id
 _symmetry_equiv_pos_as_xyz
  1  'x, y, z'
loop_
 _atom_site_type_symbol
 _atom_site_label
 _atom_site_symmetry_multiplicity
 _atom_site_fract_x
 _atom_site_fract_y
 _atom_site_fract_z
 _atom_site_occupancy
  Ce  Ce0  1  0.02660824  0.26438056  0.74254006  1
  Ce  Ce1  1  0.97339176  0.73561944  0.25745994  1
  Te  Te2  1  0.50000000  0.50000000  0.50000000  1
  Mo  Mo3  1  0.38176846  0.60485852  0.74481909  1
  Mo  Mo4  1  0.61823154  0.39514148  0.25518091  1
  Mo  Mo5  1  0.45085130  0.30844387  0.69679625  1
  Mo  Mo6  1  0.54914870  0.69155613  0.30320375  1
  Mo  Mo7  1  0.57952929  0.20433108  0.45610718  1
  Mo  Mo8  1  0.42047071  0.79566892  0.54389282  1
  H  H9  1  0.00471092  0.56759494  0.80888341  1
  H  H10  1  0.99528908  0.43240506  0.19111659  1
  H  H11  1  0.82154961  0.45747928  0.72350590  1
  H  H12  1  0.17845039  0.54252072  0.27649410  1
  H  H13  1  0.16625114  0.50723857  0.01778123  1
  H  H14  1  0.83374886  0.49276143  0.98221877  1
  H  H15  1  0.29448396  0.43787857  0.05407114  1
  H  H16  1  0.70551604  0.56212143  0.94592886  1
  H  H17  1  0.87373381  0.20367181  0.95957414  1
  H  H18  1  0.12626619  0.79632819  0.04042586  1
  H  H19  1  0.73541687  0.17103707  0.81793036  1
  H  H20  1  0.26458313  0.82896293  0.18206964  1
  H  H21  1  0.16959526  0.15308014  0.98978297  1
  H  H22  1  0.83040474  0.84691986  0.01021703  1
  H  H23  1  0.21835949  0.09222396  0.86741769  1
  H  H24  1  0.78164051  0.90777604  0.13258231  1
  H  H25  1  0.79771630  0.94721712  0.55893393  1
  H  H26  1  0.20228370  0.05278288  0.44106607  1
  H  H27  1  0.97177288  0.93955681  0.59022091  1
  H  H28  1  0.02822712  0.06044319  0.40977909  1
  H  H29  1  0.91285668  0.27255896  0.43623792  1
  H  H30  1  0.08714332  0.72744104  0.56376208  1
  H  H31  1  0.10377150  0.30964448  0.49011008  1
  H  H32  1  0.89622850  0.69035552  0.50988992  1
  H  H33  1  0.98850918  0.20461226  0.15433699  1
  H  H34  1  0.01149082  0.79538774  0.84566301  1
  H  H35  1  0.80372604  0.17620907  0.13245221  1
  H  H36  1  0.19627396  0.82379093  0.86754779  1
  H  H37  1  0.25461555  0.21427488  0.23363832  1
  H  H38  1  0.74538445  0.78572512  0.76636168  1
  H  H39  1  0.12291770  0.05645549  0.16504364  1
  H  H40  1  0.87708230  0.94354451  0.83495636  1
  H  H41  1  0.60217937  0.00968741  0.20759141  1
  H  H42  1  0.39782063  0.99031259  0.79240859  1
  H  H43  1  0.56437277  0.92251734  0.05752066  1
  H  H44  1  0.43562723  0.07748266  0.94247934  1
  O  O45  1  0.32767879  0.41519922  0.55384686  1
  O  O46  1  0.67232121  0.58480078  0.44615314  1
  O  O47  1  0.55805994  0.67507996  0.65112810  1
  O  O48  1  0.44194006  0.32492004  0.34887190  1
  O  O49  1  0.51809990  0.50200611  0.81523611  1
  O  O50  1  0.48190010  0.49799389  0.18476389  1
  O  O51  1  0.47465500  0.75509877  0.89066157  1
  O  O52  1  0.52534500  0.24490123  0.10933843  1
  O  O53  1  0.27460030  0.67855306  0.60700656  1
  O  O54  1  0.72539970  0.32144694  0.39299344  1
  O  O55  1  0.20302808  0.48968213  0.74854665  1
  O  O56  1  0.79697192  0.51031787  0.25145335  1
  O  O57  1  0.62648774  0.41883591  0.61510745  1
  O  O58  1  0.37351226  0.58116409  0.38489255  1
  O  O59  1  0.40588976  0.16631786  0.52292081  1
  O  O60  1  0.59411024  0.83368214  0.47707919  1
  O  O61  1  0.25943396  0.22979849  0.70406902  1
  O  O62  1  0.74056604  0.77020151  0.29593098  1
  O  O63  1  0.59069349  0.26434083  0.80846780  1
  O  O64  1  0.40930651  0.73565917  0.19153220  1
  O  O65  1  0.49132766  0.04930927  0.31510604  1
  O  O66  1  0.50867234  0.95069073  0.68489396  1
  O  O67  1  0.73757480  0.18617385  0.58298558  1
  O  O68  1  0.26242520  0.81382615  0.41701442  1
  O  O69  1  0.93141535  0.46727426  0.78416078  1
  O  O70  1  0.06858465  0.53272574  0.21583922  1
  O  O71  1  0.18373664  0.42047969  0.98799934  1
  O  O72  1  0.81626336  0.57952031  0.01200066  1
  O  O73  1  0.84742121  0.17602578  0.85910223  1
  O  O74  1  0.15257879  0.82397422  0.14089777  1
  O  O75  1  0.15107914  0.14207848  0.89335457  1
  O  O76  1  0.84892086  0.85792152  0.10664543  1
  O  O77  1  0.91655681  0.00268157  0.61154331  1
  O  O78  1  0.08344319  0.99731843  0.38845669  1
  O  O79  1  0.99967239  0.24342925  0.48335489  1
  O  O80  1  0.00032761  0.75657075  0.51664511  1
  O  O81  1  0.89944987  0.24036568  0.12593787  1
  O  O82  1  0.10055013  0.75963432  0.87406213  1
  O  O83  1  0.14849734  0.15036870  0.15525605  1
  O  O84  1  0.85150266  0.84963130  0.84474395  1
  O  O85  1  0.65192431  0.99733737  0.14059322  1
  O  O86  1  0.34807569  0.00266263  0.85940678  1
