# generated using pymatgen
data_Ti9Cu2(B4Ru9)2
_symmetry_space_group_name_H-M   'P 1'
_cell_length_a   2.99495648
_cell_length_b   17.61429463
_cell_length_c   17.61429463
_cell_angle_alpha   90.00000000
_cell_angle_beta   90.00000000
_cell_angle_gamma   90.00000000
_symmetry_Int_Tables_number   1
_chemical_formula_structural   Ti9Cu2(B4Ru9)2
_chemical_formula_sum   'Ti18 Cu4 B16 Ru36'
_cell_volume   929.22530640
_cell_formula_units_Z   2
loop_
 _symmetry_equiv_pos_site_id
 _symmetry_equiv_pos_as_xyz
  1  'x, y, z'
loop_
 _atom_site_type_symbol
 _atom_site_label
 _atom_site_symmetry_multiplicity
 _atom_site_fract_x
 _atom_site_fract_y
 _atom_site_fract_z
 _atom_site_occupancy
  Ti  Ti0  1  0.50000000  0.30412210  0.80412210  1
  Ti  Ti1  1  0.50000000  0.69587790  0.19587790  1
  Ti  Ti2  1  0.50000000  0.19587790  0.30412210  1
  Ti  Ti3  1  0.50000000  0.80412210  0.69587790  1
  Ti  Ti4  1  0.50000000  0.50000000  0.50000000  1
  Ti  Ti5  1  0.50000000  -0.00000000  -0.00000000  1
  Ti  Ti6  1  0.50000000  0.53502341  0.68797987  1
  Ti  Ti7  1  0.50000000  0.46497659  0.31202013  1
  Ti  Ti8  1  0.50000000  0.96497659  0.18797987  1
  Ti  Ti9  1  0.50000000  0.03502341  0.81202013  1
  Ti  Ti10  1  0.50000000  0.68797987  0.46497659  1
  Ti  Ti11  1  0.50000000  0.31202013  0.53502341  1
  Ti  Ti12  1  0.50000000  0.18797987  0.03502341  1
  Ti  Ti13  1  0.50000000  0.81202013  0.96497659  1
  Ti  Ti14  1  0.50000000  0.67086817  0.82913183  1
  Ti  Ti15  1  0.50000000  0.32913183  0.17086817  1
  Ti  Ti16  1  0.50000000  0.82913183  0.32913183  1
  Ti  Ti17  1  0.50000000  0.17086817  0.67086817  1
  Cu  Cu18  1  0.50000000  0.54924739  0.95075261  1
  Cu  Cu19  1  0.50000000  0.45075261  0.04924739  1
  Cu  Cu20  1  0.50000000  0.95075261  0.45075261  1
  Cu  Cu21  1  0.50000000  0.04924739  0.54924739  1
  B  B22  1  0.50000000  0.37856114  0.66948381  1
  B  B23  1  0.50000000  0.62143886  0.33051619  1
  B  B24  1  0.50000000  0.12143886  0.16948381  1
  B  B25  1  0.50000000  0.87856114  0.83051619  1
  B  B26  1  0.50000000  0.66948381  0.62143886  1
  B  B27  1  0.50000000  0.33051619  0.37856114  1
  B  B28  1  0.50000000  0.16948381  0.87856114  1
  B  B29  1  0.50000000  0.83051619  0.12143886  1
  B  B30  1  0.50000000  0.46237981  0.83555054  1
  B  B31  1  0.50000000  0.53762019  0.16444946  1
  B  B32  1  0.50000000  0.03762019  0.33555054  1
  B  B33  1  0.50000000  0.96237981  0.66444946  1
  B  B34  1  0.50000000  0.83555054  0.53762019  1
  B  B35  1  0.50000000  0.16444946  0.46237981  1
  B  B36  1  0.50000000  0.33555054  0.96237981  1
  B  B37  1  0.50000000  0.66444946  0.03762019  1
  Ru  Ru38  1  0.00000000  0.41897120  0.75339709  1
  Ru  Ru39  1  -0.00000000  0.58102880  0.24660291  1
  Ru  Ru40  1  0.00000000  0.08102880  0.25339709  1
  Ru  Ru41  1  -0.00000000  0.91897120  0.74660291  1
  Ru  Ru42  1  -0.00000000  0.75339709  0.58102880  1
  Ru  Ru43  1  0.00000000  0.24660291  0.41897120  1
  Ru  Ru44  1  0.00000000  0.25339709  0.91897120  1
  Ru  Ru45  1  -0.00000000  0.74660291  0.08102880  1
  Ru  Ru46  1  -0.00000000  0.41540509  0.91540509  1
  Ru  Ru47  1  0.00000000  0.58459491  0.08459491  1
  Ru  Ru48  1  -0.00000000  0.08459491  0.41540509  1
  Ru  Ru49  1  0.00000000  0.91540509  0.58459491  1
  Ru  Ru50  1  -0.00000000  0.55144613  0.82663118  1
  Ru  Ru51  1  0.00000000  0.44855387  0.17336882  1
  Ru  Ru52  1  -0.00000000  0.94855387  0.32663118  1
  Ru  Ru53  1  0.00000000  0.05144613  0.67336882  1
  Ru  Ru54  1  -0.00000000  0.82663118  0.44855387  1
  Ru  Ru55  1  0.00000000  0.17336882  0.55144613  1
  Ru  Ru56  1  0.00000000  0.32663118  0.05144613  1
  Ru  Ru57  1  -0.00000000  0.67336882  0.94855387  1
  Ru  Ru58  1  -0.00000000  0.28896605  0.66902199  1
  Ru  Ru59  1  0.00000000  0.71103395  0.33097801  1
  Ru  Ru60  1  -0.00000000  0.21103395  0.16902199  1
  Ru  Ru61  1  0.00000000  0.78896605  0.83097801  1
  Ru  Ru62  1  0.00000000  0.66902199  0.71103395  1
  Ru  Ru63  1  -0.00000000  0.33097801  0.28896605  1
  Ru  Ru64  1  -0.00000000  0.16902199  0.78896605  1
  Ru  Ru65  1  0.00000000  0.83097801  0.21103395  1
  Ru  Ru66  1  0.00000000  0.42998202  0.59737491  1
  Ru  Ru67  1  -0.00000000  0.57001798  0.40262509  1
  Ru  Ru68  1  0.00000000  0.07001798  0.09737491  1
  Ru  Ru69  1  -0.00000000  0.92998202  0.90262509  1
  Ru  Ru70  1  -0.00000000  0.59737491  0.57001798  1
  Ru  Ru71  1  0.00000000  0.40262509  0.42998202  1
  Ru  Ru72  1  0.00000000  0.09737491  0.92998202  1
  Ru  Ru73  1  -0.00000000  0.90262509  0.07001798  1
