# generated using pymatgen
data_Ba3Fe26O41
_symmetry_space_group_name_H-M   'P 1'
_cell_length_a   6.02333764
_cell_length_b   6.02333764
_cell_length_c   52.87936608
_cell_angle_alpha   90.00000000
_cell_angle_beta   90.00000000
_cell_angle_gamma   120.01077623
_symmetry_Int_Tables_number   1
_chemical_formula_structural   Ba3Fe26O41
_chemical_formula_sum   'Ba6 Fe52 O82'
_cell_volume   1661.28490715
_cell_formula_units_Z   2
loop_
 _symmetry_equiv_pos_site_id
 _symmetry_equiv_pos_as_xyz
  1  'x, y, z'
loop_
 _atom_site_type_symbol
 _atom_site_label
 _atom_site_symmetry_multiplicity
 _atom_site_fract_x
 _atom_site_fract_y
 _atom_site_fract_z
 _atom_site_occupancy
  Ba  Ba0  1  0.66705532  0.33294468  0.52826337  1
  Ba  Ba1  1  0.33294468  0.66705532  0.47173663  1
  Ba  Ba2  1  0.33294468  0.66705532  0.02826337  1
  Ba  Ba3  1  0.66705532  0.33294468  0.97173663  1
  Ba  Ba4  1  0.00008020  0.99991980  0.75000000  1
  Ba  Ba5  1  0.99991980  0.00008020  0.25000000  1
  Fe  Fe6  1  -0.00000000  -0.00000000  0.50000000  1
  Fe  Fe7  1  -0.00000000  -0.00000000  -0.00000000  1
  Fe  Fe8  1  0.33400065  0.66599935  0.53503848  1
  Fe  Fe9  1  0.66599935  0.33400065  0.46496152  1
  Fe  Fe10  1  0.66599935  0.33400065  0.03503848  1
  Fe  Fe11  1  0.33400065  0.66599935  0.96496152  1
  Fe  Fe12  1  0.00016656  -0.00016656  0.55251461  1
  Fe  Fe13  1  -0.00016656  0.00016656  0.44748539  1
  Fe  Fe14  1  -0.00016656  0.00016656  0.05251461  1
  Fe  Fe15  1  0.00016656  -0.00016656  0.94748539  1
  Fe  Fe16  1  0.50469161  0.00924881  0.59065499  1
  Fe  Fe17  1  0.50486311  0.49513689  0.59070597  1
  Fe  Fe18  1  0.99075119  0.49530839  0.59065499  1
  Fe  Fe19  1  0.49530839  0.99075119  0.40934501  1
  Fe  Fe20  1  0.49513689  0.50486311  0.40929403  1
  Fe  Fe21  1  0.00924881  0.50469161  0.40934501  1
  Fe  Fe22  1  0.49530839  0.99075119  0.09065499  1
  Fe  Fe23  1  0.49513689  0.50486311  0.09070597  1
  Fe  Fe24  1  0.00924881  0.50469161  0.09065499  1
  Fe  Fe25  1  0.50469161  0.00924881  0.90934501  1
  Fe  Fe26  1  0.50486311  0.49513689  0.90929403  1
  Fe  Fe27  1  0.99075119  0.49530839  0.90934501  1
  Fe  Fe28  1  0.00014015  0.99985985  0.62612255  1
  Fe  Fe29  1  0.99985985  0.00014015  0.37387745  1
  Fe  Fe30  1  0.99985985  0.00014015  0.12612255  1
  Fe  Fe31  1  0.00014015  0.99985985  0.87387745  1
  Fe  Fe32  1  0.33337648  0.66662352  0.63847995  1
  Fe  Fe33  1  0.66662352  0.33337648  0.36152005  1
  Fe  Fe34  1  0.66662352  0.33337648  0.13847995  1
  Fe  Fe35  1  0.33337648  0.66662352  0.86152005  1
  Fe  Fe36  1  0.66670678  0.33329322  0.65166293  1
  Fe  Fe37  1  0.33329322  0.66670678  0.34833707  1
  Fe  Fe38  1  0.33329322  0.66670678  0.15166293  1
  Fe  Fe39  1  0.66670678  0.33329322  0.84833707  1
  Fe  Fe40  1  0.16527197  0.83472803  0.68696264  1
  Fe  Fe41  1  0.66953512  0.83473636  0.68696593  1
  Fe  Fe42  1  0.16526364  0.33046488  0.68696593  1
  Fe  Fe43  1  0.83472803  0.16527197  0.31303736  1
  Fe  Fe44  1  0.33046488  0.16526364  0.31303407  1
  Fe  Fe45  1  0.83473636  0.66953512  0.31303407  1
  Fe  Fe46  1  0.83472803  0.16527197  0.18696264  1
  Fe  Fe47  1  0.33046488  0.16526364  0.18696593  1
  Fe  Fe48  1  0.83473636  0.66953512  0.18696593  1
  Fe  Fe49  1  0.16527197  0.83472803  0.81303736  1
  Fe  Fe50  1  0.66953512  0.83473636  0.81303407  1
  Fe  Fe51  1  0.16526364  0.33046488  0.81303407  1
  Fe  Fe52  1  0.66666338  0.33333662  0.72346553  1
  Fe  Fe53  1  0.33333662  0.66666338  0.27653447  1
  Fe  Fe54  1  0.33333662  0.66666338  0.22346553  1
  Fe  Fe55  1  0.66666338  0.33333662  0.77653447  1
  Fe  Fe56  1  0.33335748  0.66664252  0.75000000  1
  Fe  Fe57  1  0.66664252  0.33335748  0.25000000  1
  O  O58  1  0.16156290  0.83843710  0.52349541  1
  O  O59  1  0.67817737  0.83878979  0.52325383  1
  O  O60  1  0.16121021  0.32182263  0.52325383  1
  O  O61  1  0.83843710  0.16156290  0.47650459  1
  O  O62  1  0.32182263  0.16121021  0.47674617  1
  O  O63  1  0.83878979  0.67817737  0.47674617  1
  O  O64  1  0.83843710  0.16156290  0.02349541  1
  O  O65  1  0.32182263  0.16121021  0.02325383  1
  O  O66  1  0.83878979  0.67817737  0.02325383  1
  O  O67  1  0.16156290  0.83843710  0.97650459  1
  O  O68  1  0.67817737  0.83878979  0.97674617  1
  O  O69  1  0.16121021  0.32182263  0.97674617  1
  O  O70  1  0.33366900  0.66633100  0.57214104  1
  O  O71  1  0.66633100  0.33366900  0.42785896  1
  O  O72  1  0.66633100  0.33366900  0.07214104  1
  O  O73  1  0.33366900  0.66633100  0.92785896  1
  O  O74  1  0.82434744  0.64860149  0.57155112  1
  O  O75  1  0.82410123  0.17589877  0.57144179  1
  O  O76  1  0.35139851  0.17565256  0.57155112  1
  O  O77  1  0.17565256  0.35139851  0.42844888  1
  O  O78  1  0.17589877  0.82410123  0.42855821  1
  O  O79  1  0.64860149  0.82434744  0.42844888  1
  O  O80  1  0.17565256  0.35139851  0.07155112  1
  O  O81  1  0.17589877  0.82410123  0.07144179  1
  O  O82  1  0.64860149  0.82434744  0.07155112  1
  O  O83  1  0.82434744  0.64860149  0.92844888  1
  O  O84  1  0.82410123  0.17589877  0.92855821  1
  O  O85  1  0.35139851  0.17565256  0.92844888  1
  O  O86  1  0.66681474  0.33318526  0.61477391  1
  O  O87  1  0.33318526  0.66681474  0.38522609  1
  O  O88  1  0.33318526  0.66681474  0.11477391  1
  O  O89  1  0.66681474  0.33318526  0.88522609  1
  O  O90  1  0.17804917  0.82195083  0.61523401  1
  O  O91  1  0.64424597  0.82219455  0.61522771  1
  O  O92  1  0.17780545  0.35575403  0.61522771  1
  O  O93  1  0.82195083  0.17804917  0.38476599  1
  O  O94  1  0.35575403  0.17780545  0.38477229  1
  O  O95  1  0.82219455  0.64424597  0.38477229  1
  O  O96  1  0.82195083  0.17804917  0.11523401  1
  O  O97  1  0.35575403  0.17780545  0.11522771  1
  O  O98  1  0.82219455  0.64424597  0.11522771  1
  O  O99  1  0.17804917  0.82195083  0.88476599  1
  O  O100  1  0.64424597  0.82219455  0.88477229  1
  O  O101  1  0.17780545  0.35575403  0.88477229  1
  O  O102  1  0.48811580  0.51188420  0.66210816  1
  O  O103  1  0.02394497  0.51187701  0.66212208  1
  O  O104  1  0.48812299  0.97605503  0.66212208  1
  O  O105  1  0.51188420  0.48811580  0.33789184  1
  O  O106  1  0.97605503  0.48812299  0.33787792  1
  O  O107  1  0.51187701  0.02394497  0.33787792  1
  O  O108  1  0.51188420  0.48811580  0.16210816  1
  O  O109  1  0.97605503  0.48812299  0.16212208  1
  O  O110  1  0.51187701  0.02394497  0.16212208  1
  O  O111  1  0.48811580  0.51188420  0.83789184  1
  O  O112  1  0.02394497  0.51187701  0.83787792  1
  O  O113  1  0.48812299  0.97605503  0.83787792  1
  O  O114  1  0.00004413  0.99995587  0.66305041  1
  O  O115  1  0.99995587  0.00004413  0.33694959  1
  O  O116  1  0.99995587  0.00004413  0.16305041  1
  O  O117  1  0.00004413  0.99995587  0.83694959  1
  O  O118  1  0.83708273  0.67416633  0.70505349  1
  O  O119  1  0.83711665  0.16288335  0.70507020  1
  O  O120  1  0.32583367  0.16291727  0.70505349  1
  O  O121  1  0.16291727  0.32583367  0.29494651  1
  O  O122  1  0.16288335  0.83711665  0.29492980  1
  O  O123  1  0.67416633  0.83708273  0.29494651  1
  O  O124  1  0.16291727  0.32583367  0.20505349  1
  O  O125  1  0.16288335  0.83711665  0.20507020  1
  O  O126  1  0.67416633  0.83708273  0.20505349  1
  O  O127  1  0.83708273  0.67416633  0.79494651  1
  O  O128  1  0.83711665  0.16288335  0.79492980  1
  O  O129  1  0.32583367  0.16291727  0.79494651  1
  O  O130  1  0.33334171  0.66665829  0.70608050  1
  O  O131  1  0.66665829  0.33334171  0.29391950  1
  O  O132  1  0.66665829  0.33334171  0.20608050  1
  O  O133  1  0.33334171  0.66665829  0.79391950  1
  O  O134  1  0.51601313  0.03231849  0.75000000  1
  O  O135  1  0.51611516  0.48388484  0.75000000  1
  O  O136  1  0.96768151  0.48398687  0.75000000  1
  O  O137  1  0.48398687  0.96768151  0.25000000  1
  O  O138  1  0.48388484  0.51611516  0.25000000  1
  O  O139  1  0.03231849  0.51601313  0.25000000  1
