# generated using pymatgen
data_Ce3Ge
_symmetry_space_group_name_H-M   'P 1'
_cell_length_a   5.93561203
_cell_length_b   11.96770505
_cell_length_c   11.96770505
_cell_angle_alpha   90.00000000
_cell_angle_beta   90.00000000
_cell_angle_gamma   90.00000000
_symmetry_Int_Tables_number   1
_chemical_formula_structural   Ce3Ge
_chemical_formula_sum   'Ce24 Ge8'
_cell_volume   850.13375590
_cell_formula_units_Z   8
loop_
 _symmetry_equiv_pos_site_id
 _symmetry_equiv_pos_as_xyz
  1  'x, y, z'
loop_
 _atom_site_type_symbol
 _atom_site_label
 _atom_site_symmetry_multiplicity
 _atom_site_fract_x
 _atom_site_fract_y
 _atom_site_fract_z
 _atom_site_occupancy
  Ce  Ce0  1  0.23317610  0.07605574  0.53203049  1
  Ce  Ce1  1  0.23317610  0.42394426  0.96796951  1
  Ce  Ce2  1  0.73317610  0.03203049  0.92394426  1
  Ce  Ce3  1  0.73317610  0.46796951  0.57605574  1
  Ce  Ce4  1  0.76682390  0.92394426  0.46796951  1
  Ce  Ce5  1  0.76682390  0.57605574  0.03203049  1
  Ce  Ce6  1  0.26682390  0.96796951  0.07605574  1
  Ce  Ce7  1  0.26682390  0.53203049  0.42394426  1
  Ce  Ce8  1  0.77527136  0.16933496  0.63760014  1
  Ce  Ce9  1  0.77527136  0.33066504  0.86239986  1
  Ce  Ce10  1  0.27527136  0.13760014  0.83066504  1
  Ce  Ce11  1  0.27527136  0.36239986  0.66933496  1
  Ce  Ce12  1  0.22472864  0.83066504  0.36239986  1
  Ce  Ce13  1  0.22472864  0.66933496  0.13760014  1
  Ce  Ce14  1  0.72472864  0.86239986  0.16933496  1
  Ce  Ce15  1  0.72472864  0.63760014  0.33066504  1
  Ce  Ce16  1  0.98032457  0.11058418  0.28167118  1
  Ce  Ce17  1  0.98032457  0.38941582  0.21832882  1
  Ce  Ce18  1  0.48032457  0.78167118  0.88941582  1
  Ce  Ce19  1  0.48032457  0.71832882  0.61058418  1
  Ce  Ce20  1  0.01967543  0.88941582  0.71832882  1
  Ce  Ce21  1  0.01967543  0.61058418  0.78167118  1
  Ce  Ce22  1  0.51967543  0.21832882  0.11058418  1
  Ce  Ce23  1  0.51967543  0.28167118  0.38941582  1
  Ge  Ge24  1  0.02768911  0.20031706  0.04633005  1
  Ge  Ge25  1  0.02768911  0.29968294  0.45366995  1
  Ge  Ge26  1  0.52768911  0.54633005  0.79968294  1
  Ge  Ge27  1  0.52768911  0.95366995  0.70031706  1
  Ge  Ge28  1  0.97231089  0.79968294  0.95366995  1
  Ge  Ge29  1  0.97231089  0.70031706  0.54633005  1
  Ge  Ge30  1  0.47231089  0.45366995  0.20031706  1
  Ge  Ge31  1  0.47231089  0.04633005  0.29968294  1
