# generated using pymatgen
data_KNa2(NiO2)2
_symmetry_space_group_name_H-M   'P 1'
_cell_length_a   5.82120250
_cell_length_b   8.53440658
_cell_length_c   11.16728657
_cell_angle_alpha   90.00000000
_cell_angle_beta   90.00000000
_cell_angle_gamma   104.13968272
_symmetry_Int_Tables_number   1
_chemical_formula_structural   KNa2(NiO2)2
_chemical_formula_sum   'K4 Na8 Ni8 O16'
_cell_volume   537.98784223
_cell_formula_units_Z   4
loop_
 _symmetry_equiv_pos_site_id
 _symmetry_equiv_pos_as_xyz
  1  'x, y, z'
loop_
 _atom_site_type_symbol
 _atom_site_label
 _atom_site_symmetry_multiplicity
 _atom_site_fract_x
 _atom_site_fract_y
 _atom_site_fract_z
 _atom_site_occupancy
  K  K0  1  0.78552738  0.95328813  0.11189006  1
  K  K1  1  0.28552738  0.45328813  0.38810994  1
  K  K2  1  0.21447262  0.04671187  0.88810994  1
  K  K3  1  0.71447262  0.54671187  0.61189006  1
  Na  Na4  1  0.28168041  0.39118901  0.07947317  1
  Na  Na5  1  0.78168041  0.89118901  0.42052683  1
  Na  Na6  1  0.71831959  0.60881099  0.92052683  1
  Na  Na7  1  0.21831959  0.10881099  0.57947317  1
  Na  Na8  1  0.73349297  0.62538656  0.20274282  1
  Na  Na9  1  0.23349297  0.12538656  0.29725718  1
  Na  Na10  1  0.26650703  0.37461344  0.79725718  1
  Na  Na11  1  0.76650703  0.87461344  0.70274282  1
  Ni  Ni12  1  0.75820905  0.30372693  0.08230538  1
  Ni  Ni13  1  0.25820905  0.80372693  0.41769462  1
  Ni  Ni14  1  0.24179095  0.69627307  0.91769462  1
  Ni  Ni15  1  0.74179095  0.19627307  0.58230538  1
  Ni  Ni16  1  0.74653868  0.24047676  0.83310745  1
  Ni  Ni17  1  0.24653868  0.74047676  0.66689255  1
  Ni  Ni18  1  0.25346132  0.75952324  0.16689255  1
  Ni  Ni19  1  0.75346132  0.25952324  0.33310745  1
  O  O20  1  0.56621635  0.33950469  0.22085293  1
  O  O21  1  0.06621635  0.83950469  0.27914707  1
  O  O22  1  0.43378365  0.66049531  0.77914707  1
  O  O23  1  0.93378365  0.16049531  0.72085293  1
  O  O24  1  0.96208116  0.25091590  0.95211921  1
  O  O25  1  0.46208116  0.75091590  0.54788079  1
  O  O26  1  0.03791884  0.74908410  0.04788079  1
  O  O27  1  0.53791884  0.24908410  0.45211921  1
  O  O28  1  0.52985903  0.23092248  0.71455808  1
  O  O29  1  0.02985903  0.73092248  0.78544192  1
  O  O30  1  0.47014097  0.76907752  0.28544192  1
  O  O31  1  0.97014097  0.26907752  0.21455808  1
  O  O32  1  0.55917012  0.32146627  0.94399829  1
  O  O33  1  0.05917012  0.82146627  0.55600171  1
  O  O34  1  0.44082988  0.67853373  0.05600171  1
  O  O35  1  0.94082988  0.17853373  0.44399829  1
