# generated using pymatgen
data_Hf3(CrGa2)2
_symmetry_space_group_name_H-M   'P 1'
_cell_length_a   5.25848837
_cell_length_b   13.53194212
_cell_length_c   16.70917876
_cell_angle_alpha   90.00000000
_cell_angle_beta   90.00000000
_cell_angle_gamma   90.00000000
_symmetry_Int_Tables_number   1
_chemical_formula_structural   Hf3(CrGa2)2
_chemical_formula_sum   'Hf24 Cr16 Ga32'
_cell_volume   1188.98439454
_cell_formula_units_Z   8
loop_
 _symmetry_equiv_pos_site_id
 _symmetry_equiv_pos_as_xyz
  1  'x, y, z'
loop_
 _atom_site_type_symbol
 _atom_site_label
 _atom_site_symmetry_multiplicity
 _atom_site_fract_x
 _atom_site_fract_y
 _atom_site_fract_z
 _atom_site_occupancy
  Hf  Hf0  1  0.25000000  0.35682000  0.46227935  1
  Hf  Hf1  1  0.25000000  0.14318000  0.96227935  1
  Hf  Hf2  1  0.75000000  0.64318000  0.53772065  1
  Hf  Hf3  1  0.75000000  0.85682000  0.03772065  1
  Hf  Hf4  1  0.25000000  0.96873115  0.43506213  1
  Hf  Hf5  1  0.25000000  0.53126885  0.93506213  1
  Hf  Hf6  1  0.75000000  0.03126885  0.56493787  1
  Hf  Hf7  1  0.75000000  0.46873115  0.06493787  1
  Hf  Hf8  1  0.25000000  0.73346710  0.44214388  1
  Hf  Hf9  1  0.25000000  0.76653290  0.94214388  1
  Hf  Hf10  1  0.75000000  0.26653290  0.55785612  1
  Hf  Hf11  1  0.75000000  0.23346710  0.05785612  1
  Hf  Hf12  1  0.25000000  0.97536032  0.67348331  1
  Hf  Hf13  1  0.25000000  0.52463968  0.17348331  1
  Hf  Hf14  1  0.75000000  0.02463968  0.32651669  1
  Hf  Hf15  1  0.75000000  0.47536032  0.82651669  1
  Hf  Hf16  1  0.25000000  0.81974912  0.15387815  1
  Hf  Hf17  1  0.25000000  0.68025088  0.65387815  1
  Hf  Hf18  1  0.75000000  0.18025088  0.84612185  1
  Hf  Hf19  1  0.75000000  0.31974912  0.34612185  1
  Hf  Hf20  1  0.25000000  0.18727943  0.28601299  1
  Hf  Hf21  1  0.25000000  0.31272057  0.78601299  1
  Hf  Hf22  1  0.75000000  0.81272057  0.71398701  1
  Hf  Hf23  1  0.75000000  0.68727943  0.21398701  1
  Cr  Cr24  1  0.01510080  0.96091562  0.87258853  1
  Cr  Cr25  1  0.48489920  0.53908438  0.37258853  1
  Cr  Cr26  1  0.51510080  0.03908438  0.12741147  1
  Cr  Cr27  1  0.98489920  0.46091562  0.62741147  1
  Cr  Cr28  1  0.98489920  0.03908438  0.12741147  1
  Cr  Cr29  1  0.51510080  0.46091562  0.62741147  1
  Cr  Cr30  1  0.48489920  0.96091562  0.87258853  1
  Cr  Cr31  1  0.01510080  0.53908438  0.37258853  1
  Cr  Cr32  1  0.02406714  0.83593910  0.31494943  1
  Cr  Cr33  1  0.47593286  0.66406090  0.81494943  1
  Cr  Cr34  1  0.52406714  0.16406090  0.68505057  1
  Cr  Cr35  1  0.97593286  0.33593910  0.18505057  1
  Cr  Cr36  1  0.97593286  0.16406090  0.68505057  1
  Cr  Cr37  1  0.52406714  0.33593910  0.18505057  1
  Cr  Cr38  1  0.47593286  0.83593910  0.31494943  1
  Cr  Cr39  1  0.02406714  0.66406090  0.81494943  1
  Ga  Ga40  1  0.25000000  0.12593061  0.56057967  1
  Ga  Ga41  1  0.25000000  0.37406939  0.06057967  1
  Ga  Ga42  1  0.75000000  0.87406939  0.43942033  1
  Ga  Ga43  1  0.75000000  0.62593061  0.93942033  1
  Ga  Ga44  1  0.25000000  0.94856326  0.01688171  1
  Ga  Ga45  1  0.25000000  0.55143674  0.51688171  1
  Ga  Ga46  1  0.75000000  0.05143674  0.98311829  1
  Ga  Ga47  1  0.75000000  0.44856326  0.48311829  1
  Ga  Ga48  1  0.25000000  0.10619805  0.80272481  1
  Ga  Ga49  1  0.25000000  0.39380195  0.30272481  1
  Ga  Ga50  1  0.75000000  0.89380195  0.19727519  1
  Ga  Ga51  1  0.75000000  0.60619805  0.69727519  1
  Ga  Ga52  1  0.25000000  0.19590424  0.12217738  1
  Ga  Ga53  1  0.25000000  0.30409576  0.62217738  1
  Ga  Ga54  1  0.75000000  0.80409576  0.87782262  1
  Ga  Ga55  1  0.75000000  0.69590424  0.37782262  1
  Ga  Ga56  1  0.25000000  0.82652799  0.78401840  1
  Ga  Ga57  1  0.25000000  0.67347201  0.28401840  1
  Ga  Ga58  1  0.75000000  0.17347201  0.21598160  1
  Ga  Ga59  1  0.75000000  0.32652799  0.71598160  1
  Ga  Ga60  1  0.25000000  0.98645343  0.25625968  1
  Ga  Ga61  1  0.25000000  0.51354657  0.75625968  1
  Ga  Ga62  1  0.75000000  0.01354657  0.74374032  1
  Ga  Ga63  1  0.75000000  0.48645343  0.24374032  1
  Ga  Ga64  1  0.99437735  0.16033697  0.43098946  1
  Ga  Ga65  1  0.50562265  0.33966303  0.93098946  1
  Ga  Ga66  1  0.49437735  0.83966303  0.56901054  1
  Ga  Ga67  1  0.00562265  0.66033697  0.06901054  1
  Ga  Ga68  1  0.00562265  0.83966303  0.56901054  1
  Ga  Ga69  1  0.49437735  0.66033697  0.06901054  1
  Ga  Ga70  1  0.50562265  0.16033697  0.43098946  1
  Ga  Ga71  1  0.99437735  0.33966303  0.93098946  1
