# generated using pymatgen
data_H16C3S3(N3O)2
_symmetry_space_group_name_H-M   'P 1'
_cell_length_a   6.04229707
_cell_length_b   6.04229707
_cell_length_c   17.46247734
_cell_angle_alpha   88.99072134
_cell_angle_beta   88.99072134
_cell_angle_gamma   93.09556983
_symmetry_Int_Tables_number   1
_chemical_formula_structural   H16C3S3(N3O)2
_chemical_formula_sum   'H32 C6 S6 N12 O4'
_cell_volume   636.40466496
_cell_formula_units_Z   2
loop_
 _symmetry_equiv_pos_site_id
 _symmetry_equiv_pos_as_xyz
  1  'x, y, z'
loop_
 _atom_site_type_symbol
 _atom_site_label
 _atom_site_symmetry_multiplicity
 _atom_site_fract_x
 _atom_site_fract_y
 _atom_site_fract_z
 _atom_site_occupancy
  H  H0  1  0.02797017  0.22674632  0.04779459  1
  H  H1  1  0.77325368  0.97202983  0.45220541  1
  H  H2  1  0.97202983  0.77325368  0.95220541  1
  H  H3  1  0.22674632  0.02797017  0.54779459  1
  H  H4  1  0.74638832  0.23152833  0.02366329  1
  H  H5  1  0.76847167  0.25361168  0.47633671  1
  H  H6  1  0.25361168  0.76847167  0.97633671  1
  H  H7  1  0.23152833  0.74638832  0.52366329  1
  H  H8  1  0.30017695  0.25821460  0.95767398  1
  H  H9  1  0.74178540  0.69982305  0.54232602  1
  H  H10  1  0.69982305  0.74178540  0.04232602  1
  H  H11  1  0.25821460  0.30017695  0.45767398  1
  H  H12  1  0.23816613  0.31584396  0.86143418  1
  H  H13  1  0.68415604  0.76183387  0.63856582  1
  H  H14  1  0.76183387  0.68415604  0.13856582  1
  H  H15  1  0.31584396  0.23816613  0.36143418  1
  H  H16  1  0.88206228  0.86395209  0.27472607  1
  H  H17  1  0.13604791  0.11793772  0.22527393  1
  H  H18  1  0.11793772  0.13604791  0.72527393  1
  H  H19  1  0.86395209  0.88206228  0.77472607  1
  H  H20  1  0.60715049  0.93169393  0.29386181  1
  H  H21  1  0.06830607  0.39284951  0.20613819  1
  H  H22  1  0.39284951  0.06830607  0.70613819  1
  H  H23  1  0.93169393  0.60715049  0.79386181  1
  H  H24  1  0.41234762  0.10146505  0.09448419  1
  H  H25  1  0.89853495  0.58765238  0.40551581  1
  H  H26  1  0.58765238  0.89853495  0.90551581  1
  H  H27  1  0.10146505  0.41234762  0.59448419  1
  H  H28  1  0.42864251  0.36194716  0.09487128  1
  H  H29  1  0.63805284  0.57135749  0.40512872  1
  H  H30  1  0.57135749  0.63805284  0.90512872  1
  H  H31  1  0.36194716  0.42864251  0.59487128  1
  C  C32  1  0.96896027  0.26276719  0.93327521  1
  C  C33  1  0.73723281  0.03103973  0.56672479  1
  C  C34  1  0.03103973  0.73723281  0.06672479  1
  C  C35  1  0.26276719  0.96896027  0.43327521  1
  C  C36  1  0.81275121  0.18724879  0.25000000  1
  C  C37  1  0.18724879  0.81275121  0.75000000  1
  S  S38  1  0.77152440  0.28326148  0.86416002  1
  S  S39  1  0.71673852  0.22847560  0.63583998  1
  S  S40  1  0.22847560  0.71673852  0.13583998  1
  S  S41  1  0.28326148  0.77152440  0.36416002  1
  S  S42  1  0.61816763  0.38183237  0.25000000  1
  S  S43  1  0.38183237  0.61816763  0.75000000  1
  N  N44  1  0.90992859  0.23498398  0.00715121  1
  N  N45  1  0.76501602  0.09007141  0.49284879  1
  N  N46  1  0.09007141  0.76501602  0.99284879  1
  N  N47  1  0.23498398  0.90992859  0.50715121  1
  N  N48  1  0.18576874  0.26804903  0.91525076  1
  N  N49  1  0.73195097  0.81423126  0.58474924  1
  N  N50  1  0.81423126  0.73195097  0.08474924  1
  N  N51  1  0.26804903  0.18576874  0.41525076  1
  N  N52  1  0.76455497  0.97872988  0.27532323  1
  N  N53  1  0.02127012  0.23544503  0.22467677  1
  N  N54  1  0.23544503  0.02127012  0.72467677  1
  N  N55  1  0.97872988  0.76455497  0.77532323  1
  O  O56  1  0.43924758  0.23350025  0.06136194  1
  O  O57  1  0.76649975  0.56075242  0.43863806  1
  O  O58  1  0.56075242  0.76649975  0.93863806  1
  O  O59  1  0.23350025  0.43924758  0.56136194  1
