# generated using pymatgen
data_ZrH5S3O14
_symmetry_space_group_name_H-M   'P 1'
_cell_length_a   5.18608255
_cell_length_b   9.01309922
_cell_length_c   12.73668517
_cell_angle_alpha   92.86542288
_cell_angle_beta   89.71167838
_cell_angle_gamma   94.23927510
_symmetry_Int_Tables_number   1
_chemical_formula_structural   ZrH5S3O14
_chemical_formula_sum   'Zr2 H10 S6 O28'
_cell_volume   592.97505521
_cell_formula_units_Z   2
loop_
 _symmetry_equiv_pos_site_id
 _symmetry_equiv_pos_as_xyz
  1  'x, y, z'
loop_
 _atom_site_type_symbol
 _atom_site_label
 _atom_site_symmetry_multiplicity
 _atom_site_fract_x
 _atom_site_fract_y
 _atom_site_fract_z
 _atom_site_occupancy
  Zr  Zr0  1  0.78691843  0.89394851  0.82073905  1
  Zr  Zr1  1  0.21308157  0.10605149  0.17926095  1
  H  H2  1  0.40377427  0.67503796  0.53750921  1
  H  H3  1  0.59622573  0.32496204  0.46249079  1
  H  H4  1  0.26556491  0.83091953  0.51843782  1
  H  H5  1  0.73443509  0.16908047  0.48156218  1
  H  H6  1  0.39144162  0.73890636  0.41733579  1
  H  H7  1  0.60855838  0.26109364  0.58266421  1
  H  H8  1  0.09692528  0.42711073  0.80582188  1
  H  H9  1  0.90307472  0.57288927  0.19417812  1
  H  H10  1  0.28720304  0.46554363  0.90196562  1
  H  H11  1  0.71279696  0.53445637  0.09803438  1
  S  S12  1  0.75244036  0.61959597  0.69717855  1
  S  S13  1  0.24755964  0.38040403  0.30282145  1
  S  S14  1  0.30178139  0.05530407  0.67941371  1
  S  S15  1  0.69821861  0.94469593  0.32058629  1
  S  S16  1  0.28310521  0.79966140  0.99644502  1
  S  S17  1  0.71689479  0.20033860  0.00355498  1
  O  O18  1  0.92628922  0.76305027  0.68450635  1
  O  O19  1  0.07371078  0.23694973  0.31549365  1
  O  O20  1  0.56545548  0.59497516  0.61130691  1
  O  O21  1  0.43454452  0.40502484  0.38869309  1
  O  O22  1  0.90041913  0.49131893  0.70810966  1
  O  O23  1  0.09958087  0.50868107  0.29189034  1
  O  O24  1  0.61721850  0.66440638  0.80012423  1
  O  O25  1  0.38278150  0.33559362  0.19987577  1
  O  O26  1  0.24853268  0.99622326  0.57180261  1
  O  O27  1  0.75146732  0.00377674  0.42819739  1
  O  O28  1  0.06148179  0.04883380  0.74466445  1
  O  O29  1  0.93851821  0.95116620  0.25533555  1
  O  O30  1  0.41709019  0.20893217  0.68098934  1
  O  O31  1  0.58290981  0.79106783  0.31901066  1
  O  O32  1  0.48495095  0.95648780  0.73103163  1
  O  O33  1  0.51504905  0.04351220  0.26896837  1
  O  O34  1  0.09254299  0.83755021  0.91471349  1
  O  O35  1  0.90745701  0.16244979  0.08528651  1
  O  O36  1  0.77160215  0.11441493  0.90508037  1
  O  O37  1  0.22839785  0.88558507  0.09491963  1
  O  O38  1  0.26724507  0.64044291  0.01157547  1
  O  O39  1  0.73275493  0.35955709  0.98842453  1
  O  O40  1  0.54646561  0.85130413  0.95908426  1
  O  O41  1  0.45353439  0.14869587  0.04091574  1
  O  O42  1  0.19163546  0.38211284  0.86285324  1
  O  O43  1  0.80836454  0.61788716  0.13714676  1
  O  O44  1  0.29313311  0.72812016  0.48576411  1
  O  O45  1  0.70686689  0.27187984  0.51423589  1
