# generated using pymatgen
data_Mg19Al4Zn15
_symmetry_space_group_name_H-M   'P 1'
_cell_length_a   8.69968829
_cell_length_b   8.69968829
_cell_length_c   19.51676078
_cell_angle_alpha   90.00000000
_cell_angle_beta   90.00000000
_cell_angle_gamma   110.04621742
_symmetry_Int_Tables_number   1
_chemical_formula_structural   Mg19Al4Zn15
_chemical_formula_sum   'Mg38 Al8 Zn30'
_cell_volume   1387.62869571
_cell_formula_units_Z   2
loop_
 _symmetry_equiv_pos_site_id
 _symmetry_equiv_pos_as_xyz
  1  'x, y, z'
loop_
 _atom_site_type_symbol
 _atom_site_label
 _atom_site_symmetry_multiplicity
 _atom_site_fract_x
 _atom_site_fract_y
 _atom_site_fract_z
 _atom_site_occupancy
  Mg  Mg0  1  0.95694973  0.31933416  0.47621626  1
  Mg  Mg1  1  0.68066584  0.04305027  0.52378374  1
  Mg  Mg2  1  0.95694973  0.31933416  0.02378374  1
  Mg  Mg3  1  0.68066584  0.04305027  0.97621626  1
  Mg  Mg4  1  0.04305027  0.68066584  0.52378374  1
  Mg  Mg5  1  0.31933416  0.95694973  0.47621626  1
  Mg  Mg6  1  0.04305027  0.68066584  0.97621626  1
  Mg  Mg7  1  0.31933416  0.95694973  0.02378374  1
  Mg  Mg8  1  0.17862590  0.58053032  0.38136073  1
  Mg  Mg9  1  0.41946968  0.82137410  0.61863927  1
  Mg  Mg10  1  0.17862590  0.58053032  0.11863927  1
  Mg  Mg11  1  0.41946968  0.82137410  0.88136073  1
  Mg  Mg12  1  0.82137410  0.41946968  0.61863927  1
  Mg  Mg13  1  0.58053032  0.17862590  0.38136073  1
  Mg  Mg14  1  0.82137410  0.41946968  0.88136073  1
  Mg  Mg15  1  0.58053032  0.17862590  0.11863927  1
  Mg  Mg16  1  0.02087265  0.64885684  0.25000000  1
  Mg  Mg17  1  0.35114316  0.97912735  0.75000000  1
  Mg  Mg18  1  0.97912735  0.35114316  0.75000000  1
  Mg  Mg19  1  0.64885684  0.02087265  0.25000000  1
  Mg  Mg20  1  0.67684128  0.42411186  0.25000000  1
  Mg  Mg21  1  0.57588814  0.32315872  0.75000000  1
  Mg  Mg22  1  0.32315872  0.57588814  0.75000000  1
  Mg  Mg23  1  0.42411186  0.67684128  0.25000000  1
  Mg  Mg24  1  0.17830633  0.17830633  0.37694681  1
  Mg  Mg25  1  0.82169367  0.82169367  0.62305319  1
  Mg  Mg26  1  0.17830633  0.17830633  0.12305319  1
  Mg  Mg27  1  0.82169367  0.82169367  0.87694681  1
  Mg  Mg28  1  0.28326455  0.28326455  0.97561284  1
  Mg  Mg29  1  0.71673545  0.71673545  0.02438716  1
  Mg  Mg30  1  0.28326455  0.28326455  0.52438716  1
  Mg  Mg31  1  0.71673545  0.71673545  0.47561284  1
  Mg  Mg32  1  0.47908688  0.47908688  0.38123393  1
  Mg  Mg33  1  0.52091312  0.52091312  0.61876607  1
  Mg  Mg34  1  0.47908688  0.47908688  0.11876607  1
  Mg  Mg35  1  0.52091312  0.52091312  0.88123393  1
  Mg  Mg36  1  0.00244782  0.00244782  0.25000000  1
  Mg  Mg37  1  0.99755218  0.99755218  0.75000000  1
  Al  Al38  1  0.91404332  0.29250150  0.32087617  1
  Al  Al39  1  0.70749850  0.08595668  0.67912383  1
  Al  Al40  1  0.91404332  0.29250150  0.17912383  1
  Al  Al41  1  0.70749850  0.08595668  0.82087617  1
  Al  Al42  1  0.08595668  0.70749850  0.67912383  1
  Al  Al43  1  0.29250150  0.91404332  0.32087617  1
  Al  Al44  1  0.08595668  0.70749850  0.82087617  1
  Al  Al45  1  0.29250150  0.91404332  0.17912383  1
  Zn  Zn46  1  0.82635920  0.51206325  0.38797231  1
  Zn  Zn47  1  0.48793675  0.17364080  0.61202769  1
  Zn  Zn48  1  0.82635920  0.51206325  0.11202769  1
  Zn  Zn49  1  0.48793675  0.17364080  0.88797231  1
  Zn  Zn50  1  0.17364080  0.48793675  0.61202769  1
  Zn  Zn51  1  0.51206325  0.82635920  0.38797231  1
  Zn  Zn52  1  0.17364080  0.48793675  0.88797231  1
  Zn  Zn53  1  0.51206325  0.82635920  0.11202769  1
  Zn  Zn54  1  0.01559941  0.82498235  0.38893820  1
  Zn  Zn55  1  0.17501765  0.98440059  0.61106180  1
  Zn  Zn56  1  0.01559941  0.82498235  0.11106180  1
  Zn  Zn57  1  0.17501765  0.98440059  0.88893820  1
  Zn  Zn58  1  0.98440059  0.17501765  0.61106180  1
  Zn  Zn59  1  0.82498235  0.01559941  0.38893820  1
  Zn  Zn60  1  0.98440059  0.17501765  0.88893820  1
  Zn  Zn61  1  0.82498235  0.01559941  0.11106180  1
  Zn  Zn62  1  0.19531708  0.37633923  0.25000000  1
  Zn  Zn63  1  0.62366077  0.80468292  0.75000000  1
  Zn  Zn64  1  0.80468292  0.62366077  0.75000000  1
  Zn  Zn65  1  0.37633923  0.19531708  0.25000000  1
  Zn  Zn66  1  0.26553413  0.26553413  0.81700221  1
  Zn  Zn67  1  0.73446587  0.73446587  0.18299779  1
  Zn  Zn68  1  0.26553413  0.26553413  0.68299779  1
  Zn  Zn69  1  0.73446587  0.73446587  0.31700221  1
  Zn  Zn70  1  0.63139618  0.36860382  0.50000000  1
  Zn  Zn71  1  0.63139618  0.36860382  -0.00000000  1
  Zn  Zn72  1  0.36860382  0.63139618  0.50000000  1
  Zn  Zn73  1  0.36860382  0.63139618  -0.00000000  1
  Zn  Zn74  1  0.00000000  -0.00000000  0.50000000  1
  Zn  Zn75  1  0.00000000  -0.00000000  -0.00000000  1
