# generated using pymatgen
data_Rb11Cu18(Cl15O)2
_symmetry_space_group_name_H-M   'P 1'
_cell_length_a   11.41540055
_cell_length_b   12.89085782
_cell_length_c   13.76072428
_cell_angle_alpha   118.01659058
_cell_angle_beta   114.50558665
_cell_angle_gamma   90.00000000
_symmetry_Int_Tables_number   1
_chemical_formula_structural   Rb11Cu18(Cl15O)2
_chemical_formula_sum   'Rb11 Cu18 Cl30 O2'
_cell_volume   1578.04830591
_cell_formula_units_Z   1
loop_
 _symmetry_equiv_pos_site_id
 _symmetry_equiv_pos_as_xyz
  1  'x, y, z'
loop_
 _atom_site_type_symbol
 _atom_site_label
 _atom_site_symmetry_multiplicity
 _atom_site_fract_x
 _atom_site_fract_y
 _atom_site_fract_z
 _atom_site_occupancy
  Rb  Rb0  1  0.00000000  0.00000000  0.00000000  1
  Rb  Rb1  1  0.75314539  0.57818506  0.50629077  1
  Rb  Rb2  1  0.24685461  0.42181494  0.49370923  1
  Rb  Rb3  1  0.63513696  0.66393317  0.86820693  1
  Rb  Rb4  1  0.23306997  0.66393317  0.86820693  1
  Rb  Rb5  1  0.36486304  0.33606683  0.13179307  1
  Rb  Rb6  1  0.76693003  0.33606683  0.13179307  1
  Rb  Rb7  1  0.84323084  0.75706098  0.28384192  1
  Rb  Rb8  1  0.44061107  0.75706098  0.28384192  1
  Rb  Rb9  1  0.15676916  0.24293902  0.71615808  1
  Rb  Rb10  1  0.55938893  0.24293902  0.71615808  1
  Cu  Cu11  1  0.00000000  0.50000000  0.00000000  1
  Cu  Cu12  1  0.52372162  0.93379073  0.04744325  1
  Cu  Cu13  1  0.47627838  0.06620927  0.95255675  1
  Cu  Cu14  1  0.82483835  0.39389699  0.64967670  1
  Cu  Cu15  1  0.17516165  0.60610301  0.35032330  1
  Cu  Cu16  1  0.04856672  0.75199357  0.09713344  1
  Cu  Cu17  1  0.95143328  0.24800643  0.90286656  1
  Cu  Cu18  1  0.76272842  0.07430493  0.52545685  1
  Cu  Cu19  1  0.23727158  0.92569507  0.47454315  1
  Cu  Cu20  1  0.29856223  0.05433890  0.30347562  1
  Cu  Cu21  1  0.00491338  0.05433890  0.30347562  1
  Cu  Cu22  1  0.70143777  0.94566110  0.69652438  1
  Cu  Cu23  1  0.99508662  0.94566110  0.69652438  1
  Cu  Cu24  1  0.53210770  0.23880194  0.38442887  1
  Cu  Cu25  1  0.85232117  0.23880194  0.38442887  1
  Cu  Cu26  1  0.46789230  0.76119806  0.61557113  1
  Cu  Cu27  1  0.14767883  0.76119806  0.61557113  1
  Cu  Cu28  1  0.50000000  0.50000000  0.00000000  1
  Cl  Cl29  1  0.85879263  0.25484339  0.71758526  1
  Cl  Cl30  1  0.14120737  0.74515661  0.28241474  1
  Cl  Cl31  1  0.54727076  0.78775805  0.09454152  1
  Cl  Cl32  1  0.45272924  0.21224195  0.90545848  1
  Cl  Cl33  1  0.61557282  0.55503876  0.23114565  1
  Cl  Cl34  1  0.38442718  0.44496124  0.76885435  1
  Cl  Cl35  1  0.22486276  0.09180062  0.44972551  1
  Cl  Cl36  1  0.77513724  0.90819938  0.55027449  1
  Cl  Cl37  1  0.64867520  0.27471399  0.29735040  1
  Cl  Cl38  1  0.35132480  0.72528601  0.70264960  1
  Cl  Cl39  1  0.94674042  0.58807080  0.89348085  1
  Cl  Cl40  1  0.05325958  0.41192920  0.10651915  1
  Cl  Cl41  1  0.70123537  0.50000000  0.00000000  1
  Cl  Cl42  1  0.29876463  0.50000000  0.00000000  1
  Cl  Cl43  1  0.22754396  0.87059665  0.12657586  1
  Cl  Cl44  1  0.89903190  0.87059665  0.12657586  1
  Cl  Cl45  1  0.77245604  0.12940335  0.87342414  1
  Cl  Cl46  1  0.10096810  0.12940335  0.87342414  1
  Cl  Cl47  1  0.30386273  0.21349756  0.27233098  1
  Cl  Cl48  1  0.96846825  0.21349756  0.27233098  1
  Cl  Cl49  1  0.69613727  0.78650244  0.72766902  1
  Cl  Cl50  1  0.03153175  0.78650244  0.72766902  1
  Cl  Cl51  1  0.61652595  0.41627442  0.59110858  1
  Cl  Cl52  1  0.97458263  0.41627442  0.59110858  1
  Cl  Cl53  1  0.38347405  0.58372558  0.40889142  1
  Cl  Cl54  1  0.02541737  0.58372558  0.40889142  1
  Cl  Cl55  1  0.54361820  0.07403341  0.41504945  1
  Cl  Cl56  1  0.87143124  0.07403341  0.41504945  1
  Cl  Cl57  1  0.45638180  0.92596659  0.58495055  1
  Cl  Cl58  1  0.12856876  0.92596659  0.58495055  1
  O  O59  1  0.38394347  0.00000000  0.00000000  1
  O  O60  1  0.61605653  0.00000000  0.00000000  1
