# generated using pymatgen
data_Sb2O3
_symmetry_space_group_name_H-M   'P 1'
_cell_length_a   7.61340551
_cell_length_b   7.77717591
_cell_length_c   12.06785906
_cell_angle_alpha   90.00000000
_cell_angle_beta   90.00000000
_cell_angle_gamma   90.00000000
_symmetry_Int_Tables_number   1
_chemical_formula_structural   Sb2O3
_chemical_formula_sum   'Sb16 O24'
_cell_volume   714.54751592
_cell_formula_units_Z   8
loop_
 _symmetry_equiv_pos_site_id
 _symmetry_equiv_pos_as_xyz
  1  'x, y, z'
loop_
 _atom_site_type_symbol
 _atom_site_label
 _atom_site_symmetry_multiplicity
 _atom_site_fract_x
 _atom_site_fract_y
 _atom_site_fract_z
 _atom_site_occupancy
  Sb  Sb0  1  0.98553075  0.02903600  0.23451667  1
  Sb  Sb1  1  0.48553075  0.97096400  0.26548333  1
  Sb  Sb2  1  0.01446925  0.47096400  0.73451667  1
  Sb  Sb3  1  0.51446925  0.52903600  0.76548333  1
  Sb  Sb4  1  0.77505272  0.31883102  0.50783276  1
  Sb  Sb5  1  0.27505272  0.68116898  0.99216724  1
  Sb  Sb6  1  0.22494728  0.18116898  0.00783276  1
  Sb  Sb7  1  0.72494728  0.81883102  0.49216724  1
  Sb  Sb8  1  0.74843084  0.25366188  0.00957292  1
  Sb  Sb9  1  0.24843084  0.74633812  0.49042708  1
  Sb  Sb10  1  0.25156916  0.24633812  0.50957292  1
  Sb  Sb11  1  0.75156916  0.75366188  0.99042708  1
  Sb  Sb12  1  0.52362045  0.49862165  0.23363870  1
  Sb  Sb13  1  0.02362045  0.50137835  0.26636130  1
  Sb  Sb14  1  0.47637955  0.00137835  0.73363870  1
  Sb  Sb15  1  0.97637955  0.99862165  0.76636130  1
  O  O16  1  0.63339683  0.02024681  0.39926103  1
  O  O17  1  0.13339683  0.97975319  0.10073897  1
  O  O18  1  0.36660317  0.47975319  0.89926103  1
  O  O19  1  0.86660317  0.52024681  0.60073897  1
  O  O20  1  0.77209520  0.10084386  0.14411293  1
  O  O21  1  0.27209520  0.89915614  0.35588707  1
  O  O22  1  0.22790480  0.39915614  0.64411293  1
  O  O23  1  0.72790480  0.60084386  0.85588707  1
  O  O24  1  0.68990326  0.46695114  0.10525442  1
  O  O25  1  0.18990326  0.53304886  0.39474558  1
  O  O26  1  0.31009674  0.03304886  0.60525442  1
  O  O27  1  0.81009674  0.96695114  0.89474558  1
  O  O28  1  0.00319234  0.32058823  0.00074530  1
  O  O29  1  0.50319234  0.67941177  0.49925470  1
  O  O30  1  0.99680766  0.17941177  0.50074530  1
  O  O31  1  0.49680766  0.82058823  0.99925470  1
  O  O32  1  0.10418909  0.25835503  0.24788571  1
  O  O33  1  0.60418909  0.74164497  0.25211429  1
  O  O34  1  0.89581091  0.24164497  0.74788571  1
  O  O35  1  0.39581091  0.75835503  0.75211429  1
  O  O36  1  0.80941414  0.43831783  0.36162732  1
  O  O37  1  0.30941414  0.56168217  0.13837268  1
  O  O38  1  0.19058586  0.06168217  0.86162732  1
  O  O39  1  0.69058586  0.93831783  0.63837268  1
