# generated using pymatgen
data_ZnH8C2S2(IN2)2
_symmetry_space_group_name_H-M   'P 1'
_cell_length_a   8.10397135
_cell_length_b   11.09914161
_cell_length_c   15.14526429
_cell_angle_alpha   90.22056101
_cell_angle_beta   90.00000000
_cell_angle_gamma   90.00000000
_symmetry_Int_Tables_number   1
_chemical_formula_structural   ZnH8C2S2(IN2)2
_chemical_formula_sum   'Zn4 H32 C8 S8 I8 N16'
_cell_volume   1362.26289540
_cell_formula_units_Z   4
loop_
 _symmetry_equiv_pos_site_id
 _symmetry_equiv_pos_as_xyz
  1  'x, y, z'
loop_
 _atom_site_type_symbol
 _atom_site_label
 _atom_site_symmetry_multiplicity
 _atom_site_fract_x
 _atom_site_fract_y
 _atom_site_fract_z
 _atom_site_occupancy
  Zn  Zn0  1  0.98152967  0.73502247  0.61472322  1
  Zn  Zn1  1  0.48152967  0.26497753  0.88527678  1
  Zn  Zn2  1  0.01847033  0.26497753  0.38527678  1
  Zn  Zn3  1  0.51847033  0.73502247  0.11472322  1
  H  H4  1  0.81316416  0.75837222  0.88891442  1
  H  H5  1  0.31316416  0.24162778  0.61108558  1
  H  H6  1  0.18683584  0.24162778  0.11108558  1
  H  H7  1  0.68683584  0.75837222  0.38891442  1
  H  H8  1  0.85420843  0.79294573  0.77824315  1
  H  H9  1  0.35420843  0.20705427  0.72175685  1
  H  H10  1  0.14579157  0.20705427  0.22175685  1
  H  H11  1  0.64579157  0.79294573  0.27824315  1
  H  H12  1  0.87385153  0.57264546  0.94416231  1
  H  H13  1  0.37385153  0.42735454  0.55583769  1
  H  H14  1  0.12614847  0.42735454  0.05583769  1
  H  H15  1  0.62614847  0.57264546  0.44416231  1
  H  H16  1  0.97873694  0.46582835  0.87848307  1
  H  H17  1  0.47873694  0.53417165  0.62151693  1
  H  H18  1  0.02126306  0.53417165  0.12151693  1
  H  H19  1  0.52126306  0.46582835  0.37848307  1
  H  H20  1  0.24247701  0.93059548  0.39759062  1
  H  H21  1  0.74247701  0.06940452  0.10240938  1
  H  H22  1  0.75752299  0.06940452  0.60240938  1
  H  H23  1  0.25752299  0.93059548  0.89759062  1
  H  H24  1  0.23585205  0.88158475  0.50718790  1
  H  H25  1  0.73585205  0.11841525  0.99281210  1
  H  H26  1  0.76414795  0.11841525  0.49281210  1
  H  H27  1  0.26414795  0.88158475  0.00718790  1
  H  H28  1  0.16605152  0.79572021  0.28372044  1
  H  H29  1  0.66605152  0.20427979  0.21627956  1
  H  H30  1  0.83394848  0.20427979  0.71627956  1
  H  H31  1  0.33394848  0.79572021  0.78372044  1
  H  H32  1  0.07424625  0.65799442  0.31424027  1
  H  H33  1  0.57424625  0.34200558  0.18575973  1
  H  H34  1  0.92575375  0.34200558  0.68575973  1
  H  H35  1  0.42575375  0.65799442  0.81424027  1
  C  C36  1  0.92209695  0.62355415  0.81656502  1
  C  C37  1  0.42209695  0.37644585  0.68343498  1
  C  C38  1  0.07790305  0.37644585  0.18343498  1
  C  C39  1  0.57790305  0.62355415  0.31656502  1
  C  C40  1  0.15224377  0.75951101  0.41706059  1
  C  C41  1  0.65224377  0.24048899  0.08293941  1
  C  C42  1  0.84775623  0.24048899  0.58293941  1
  C  C43  1  0.34775623  0.75951101  0.91706059  1
  S  S44  1  0.00971035  0.57611419  0.71922836  1
  S  S45  1  0.50971035  0.42388581  0.78077164  1
  S  S46  1  0.99028965  0.42388581  0.28077164  1
  S  S47  1  0.49028965  0.57611419  0.21922836  1
  S  S48  1  0.10498966  0.64577802  0.49046125  1
  S  S49  1  0.60498966  0.35422198  0.00953875  1
  S  S50  1  0.89501034  0.35422198  0.50953875  1
  S  S51  1  0.39501034  0.64577802  0.99046125  1
  I  I52  1  0.66442723  0.77038063  0.58115220  1
  I  I53  1  0.16442723  0.22961937  0.91884780  1
  I  I54  1  0.33557277  0.22961937  0.41884780  1
  I  I55  1  0.83557277  0.77038063  0.08115220  1
  I  I56  1  0.12569115  0.93110497  0.67694083  1
  I  I57  1  0.62569115  0.06889503  0.82305917  1
  I  I58  1  0.87430885  0.06889503  0.32305917  1
  I  I59  1  0.37430885  0.93110497  0.17694083  1
  N  N60  1  0.85175953  0.73157408  0.82760958  1
  N  N61  1  0.35175953  0.26842592  0.67239042  1
  N  N62  1  0.14824047  0.26842592  0.17239042  1
  N  N63  1  0.64824047  0.73157408  0.32760958  1
  N  N64  1  0.92391042  0.54775367  0.88499718  1
  N  N65  1  0.42391042  0.45224633  0.61500282  1
  N  N66  1  0.07608958  0.45224633  0.11500282  1
  N  N67  1  0.57608958  0.54775367  0.38499718  1
  N  N68  1  0.22172055  0.86333605  0.44163528  1
  N  N69  1  0.72172055  0.13666395  0.05836472  1
  N  N70  1  0.77827945  0.13666395  0.55836472  1
  N  N71  1  0.27827945  0.86333605  0.94163528  1
  N  N72  1  0.12192432  0.73951618  0.33162893  1
  N  N73  1  0.62192432  0.26048382  0.16837107  1
  N  N74  1  0.87807568  0.26048382  0.66837107  1
  N  N75  1  0.37807568  0.73951618  0.83162893  1
