# generated using pymatgen
data_MnBiO3
_symmetry_space_group_name_H-M   'P 1'
_cell_length_a   5.67085540
_cell_length_b   11.40494807
_cell_length_c   15.84574354
_cell_angle_alpha   90.00000000
_cell_angle_beta   90.00000000
_cell_angle_gamma   90.00000000
_symmetry_Int_Tables_number   1
_chemical_formula_structural   MnBiO3
_chemical_formula_sum   'Mn16 Bi16 O48'
_cell_volume   1024.83631989
_cell_formula_units_Z   16
loop_
 _symmetry_equiv_pos_site_id
 _symmetry_equiv_pos_as_xyz
  1  'x, y, z'
loop_
 _atom_site_type_symbol
 _atom_site_label
 _atom_site_symmetry_multiplicity
 _atom_site_fract_x
 _atom_site_fract_y
 _atom_site_fract_z
 _atom_site_occupancy
  Mn  Mn0  1  0.50256713  0.12983723  0.62449100  1
  Mn  Mn1  1  0.50256713  0.12983723  0.37550900  1
  Mn  Mn2  1  0.49743287  0.62983723  0.87550900  1
  Mn  Mn3  1  0.49743287  0.62983723  0.12449100  1
  Mn  Mn4  1  0.99032062  0.38191041  0.37562198  1
  Mn  Mn5  1  0.99032062  0.38191041  0.62437802  1
  Mn  Mn6  1  0.00967938  0.88191041  0.12437802  1
  Mn  Mn7  1  0.00967938  0.88191041  0.87562198  1
  Mn  Mn8  1  0.99828754  0.38158111  0.12508458  1
  Mn  Mn9  1  0.99828754  0.38158111  0.87491542  1
  Mn  Mn10  1  0.00171246  0.88158111  0.37491542  1
  Mn  Mn11  1  0.00171246  0.88158111  0.62508458  1
  Mn  Mn12  1  0.49543265  0.63135824  0.37453829  1
  Mn  Mn13  1  0.49543265  0.63135824  0.62546171  1
  Mn  Mn14  1  0.50456735  0.13135824  0.12546171  1
  Mn  Mn15  1  0.50456735  0.13135824  0.87453829  1
  Bi  Bi16  1  0.94207299  0.63487723  0.50000000  1
  Bi  Bi17  1  0.05792701  0.13487723  -0.00000000  1
  Bi  Bi18  1  0.53930831  0.37019003  0.50000000  1
  Bi  Bi19  1  0.46069169  0.87019003  -0.00000000  1
  Bi  Bi20  1  0.44321176  0.87993864  0.50000000  1
  Bi  Bi21  1  0.55678824  0.37993864  -0.00000000  1
  Bi  Bi22  1  0.03711002  0.14601746  0.50000000  1
  Bi  Bi23  1  0.96288998  0.64601746  -0.00000000  1
  Bi  Bi24  1  0.04000844  0.62237012  0.25181057  1
  Bi  Bi25  1  0.04000844  0.62237012  0.74818943  1
  Bi  Bi26  1  0.95999156  0.12237012  0.24818943  1
  Bi  Bi27  1  0.95999156  0.12237012  0.75181057  1
  Bi  Bi28  1  0.55176185  0.38406235  0.24612043  1
  Bi  Bi29  1  0.55176185  0.38406235  0.75387957  1
  Bi  Bi30  1  0.44823815  0.88406235  0.25387957  1
  Bi  Bi31  1  0.44823815  0.88406235  0.74612043  1
  O  O32  1  0.27949520  0.00773683  0.65447425  1
  O  O33  1  0.27949520  0.00773683  0.34552575  1
  O  O34  1  0.72050480  0.50773683  0.84552575  1
  O  O35  1  0.72050480  0.50773683  0.15447425  1
  O  O36  1  0.56237398  0.17007689  0.74789336  1
  O  O37  1  0.56237398  0.17007689  0.25210664  1
  O  O38  1  0.43762602  0.67007689  0.75210664  1
  O  O39  1  0.43762602  0.67007689  0.24789336  1
  O  O40  1  0.27555867  0.77437715  0.39585752  1
  O  O41  1  0.27555867  0.77437715  0.60414248  1
  O  O42  1  0.72444133  0.27437715  0.10414248  1
  O  O43  1  0.72444133  0.27437715  0.89585752  1
  O  O44  1  0.71796297  0.49006275  0.35107763  1
  O  O45  1  0.71796297  0.49006275  0.64892237  1
  O  O46  1  0.28203703  0.99006275  0.14892237  1
  O  O47  1  0.28203703  0.99006275  0.85107763  1
  O  O48  1  0.21516355  0.52792160  0.35995130  1
  O  O49  1  0.21516355  0.52792160  0.64004870  1
  O  O50  1  0.78483645  0.02792160  0.14004870  1
  O  O51  1  0.78483645  0.02792160  0.85995130  1
  O  O52  1  0.22448325  0.25647179  0.40020850  1
  O  O53  1  0.22448325  0.25647179  0.59979150  1
  O  O54  1  0.77551675  0.75647179  0.09979150  1
  O  O55  1  0.77551675  0.75647179  0.90020850  1
  O  O56  1  0.72375028  0.25206014  0.40670162  1
  O  O57  1  0.72375028  0.25206014  0.59329838  1
  O  O58  1  0.27624972  0.75206014  0.09329838  1
  O  O59  1  0.27624972  0.75206014  0.90670162  1
  O  O60  1  0.94852998  0.34031138  0.25141636  1
  O  O61  1  0.94852998  0.34031138  0.74858364  1
  O  O62  1  0.05147002  0.84031138  0.24858364  1
  O  O63  1  0.05147002  0.84031138  0.75141636  1
  O  O64  1  0.22559732  0.23627381  0.11000206  1
  O  O65  1  0.22559732  0.23627381  0.88999794  1
  O  O66  1  0.77440268  0.73627381  0.38999794  1
  O  O67  1  0.77440268  0.73627381  0.61000206  1
  O  O68  1  0.21804098  0.51071630  0.14809985  1
  O  O69  1  0.21804098  0.51071630  0.85190015  1
  O  O70  1  0.78195902  0.01071630  0.35190015  1
  O  O71  1  0.78195902  0.01071630  0.64809985  1
  O  O72  1  0.95129463  0.42174025  -0.00000000  1
  O  O73  1  0.04870537  0.92174025  0.50000000  1
  O  O74  1  0.44122808  0.08822676  0.50000000  1
  O  O75  1  0.55877192  0.58822676  -0.00000000  1
  O  O76  1  0.54809056  0.59420220  0.50000000  1
  O  O77  1  0.45190944  0.09420220  -0.00000000  1
  O  O78  1  0.93945046  0.42395124  0.50000000  1
  O  O79  1  0.06054954  0.92395124  -0.00000000  1
