# generated using pymatgen
data_Te7OsO5F32
_symmetry_space_group_name_H-M   'P 1'
_cell_length_a   10.51906127
_cell_length_b   10.58427115
_cell_length_c   15.67416711
_cell_angle_alpha   78.73631023
_cell_angle_beta   79.47925032
_cell_angle_gamma   71.92738865
_symmetry_Int_Tables_number   1
_chemical_formula_structural   Te7OsO5F32
_chemical_formula_sum   'Te14 Os2 O10 F64'
_cell_volume   1613.06819478
_cell_formula_units_Z   2
loop_
 _symmetry_equiv_pos_site_id
 _symmetry_equiv_pos_as_xyz
  1  'x, y, z'
loop_
 _atom_site_type_symbol
 _atom_site_label
 _atom_site_symmetry_multiplicity
 _atom_site_fract_x
 _atom_site_fract_y
 _atom_site_fract_z
 _atom_site_occupancy
  Te  Te0  1  0.34457414  0.87123010  0.10361536  1
  Te  Te1  1  0.65542586  0.12876990  0.89638464  1
  Te  Te2  1  0.69083749  0.52277761  0.09353960  1
  Te  Te3  1  0.30916251  0.47722239  0.90646040  1
  Te  Te4  1  0.97346301  0.78345626  0.04948899  1
  Te  Te5  1  0.02653699  0.21654374  0.95051101  1
  Te  Te6  1  0.60230699  0.71927898  0.37982055  1
  Te  Te7  1  0.39769301  0.28072102  0.62017945  1
  Te  Te8  1  0.47694830  0.21445555  0.28895173  1
  Te  Te9  1  0.52305170  0.78554445  0.71104827  1
  Te  Te10  1  0.00273969  0.21520741  0.27838652  1
  Te  Te11  1  0.99726031  0.78479259  0.72161348  1
  Te  Te12  1  0.11903780  0.72401755  0.38499751  1
  Te  Te13  1  0.88096220  0.27598245  0.61500249  1
  Os  Os14  1  0.28833878  0.97530633  0.36595094  1
  Os  Os15  1  0.71166122  0.02469367  0.63404906  1
  O  O16  1  0.25672225  0.99666439  0.47203361  1
  O  O17  1  0.74327775  0.00333561  0.52796639  1
  O  O18  1  0.40982351  0.79631313  0.37549776  1
  O  O19  1  0.59017649  0.20368687  0.62450224  1
  O  O20  1  0.44531620  0.04026383  0.32959554  1
  O  O21  1  0.55468380  0.95973617  0.67040446  1
  O  O22  1  0.18080930  0.14727562  0.31466414  1
  O  O23  1  0.81919070  0.85272438  0.68533586  1
  O  O24  1  0.14090627  0.90351347  0.36437835  1
  O  O25  1  0.85909373  0.09648653  0.63562165  1
  F  F26  1  0.32365050  0.94471264  0.22882085  1
  F  F27  1  0.67634950  0.05528736  0.77117915  1
  F  F28  1  0.78457307  0.62929920  0.38573723  1
  F  F29  1  0.21542693  0.37070080  0.61426277  1
  F  F30  1  0.61864754  0.84702590  0.44265782  1
  F  F31  1  0.38135246  0.15297410  0.55734218  1
  F  F32  1  0.59457617  0.58613080  0.31811210  1
  F  F33  1  0.40542383  0.41386920  0.68188790  1
  F  F34  1  0.55906132  0.61491070  0.48589563  1
  F  F35  1  0.44093868  0.38508930  0.51410437  1
  F  F36  1  0.65281894  0.81583992  0.27129730  1
  F  F37  1  0.34718106  0.18416008  0.72870270  1
  F  F38  1  0.32780163  0.30848211  0.36068259  1
  F  F39  1  0.67219837  0.69151789  0.63931741  1
  F  F40  1  0.58280093  0.17828007  0.38010559  1
  F  F41  1  0.41719907  0.82171993  0.61989441  1
  F  F42  1  0.63163259  0.13131183  0.21743045  1
  F  F43  1  0.36836741  0.86868817  0.78256955  1
  F  F44  1  0.52268476  0.37732574  0.25123383  1
  F  F45  1  0.47731524  0.62267426  0.74876617  1
  F  F46  1  0.37723389  0.25892100  0.19399329  1
  F  F47  1  0.62276611  0.74107900  0.80600671  1
  F  F48  1  0.01822030  0.07316552  0.21679247  1
  F  F49  1  0.98177970  0.92683448  0.78320753  1
  F  F50  1  0.83292042  0.29875669  0.23830334  1
  F  F51  1  0.16707958  0.70124331  0.76169666  1
  F  F52  1  0.97491792  0.36663228  0.33203292  1
  F  F53  1  0.02508208  0.63336772  0.66796708  1
  F  F54  1  0.07796473  0.30273810  0.17412527  1
  F  F55  1  0.92203527  0.69726190  0.82587473  1
  F  F56  1  0.91133845  0.13544675  0.37888601  1
  F  F57  1  0.08866155  0.86455325  0.62111399  1
  F  F58  1  0.25782855  0.66746715  0.29295696  1
  F  F59  1  0.74217145  0.33253285  0.70704304  1
  F  F60  1  0.23776932  0.65521048  0.47028734  1
  F  F61  1  0.76223068  0.34478952  0.52971266  1
  F  F62  1  0.97546860  0.77831888  0.47342376  1
  F  F63  1  0.02453140  0.22168112  0.52657624  1
  F  F64  1  0.99502115  0.78769304  0.30321499  1
  F  F65  1  0.00497885  0.21230696  0.69678501  1
  F  F66  1  0.08913939  0.55559377  0.40159226  1
  F  F67  1  0.91086061  0.44440623  0.59840774  1
  F  F68  1  0.38686851  0.85103002  0.98331212  1
  F  F69  1  0.61313149  0.14896998  0.01668788  1
  F  F70  1  0.25991046  0.05613623  0.06685156  1
  F  F71  1  0.74008954  0.94386377  0.93314844  1
  F  F72  1  0.51224162  0.90253882  0.09636108  1
  F  F73  1  0.48775838  0.09746118  0.90363892  1
  F  F74  1  0.86065643  0.39993467  0.04187907  1
  F  F75  1  0.13934357  0.60006533  0.95812093  1
  F  F76  1  0.69176270  0.62948041  0.98374844  1
  F  F77  1  0.30823730  0.37051959  0.01625156  1
  F  F78  1  0.49906576  0.64500701  0.11697953  1
  F  F79  1  0.50093424  0.35499299  0.88302047  1
  F  F80  1  0.60671885  0.41170754  0.05930197  1
  F  F81  1  0.39328115  0.58829246  0.94069803  1
  F  F82  1  0.07625120  0.66350088  0.13292999  1
  F  F83  1  0.92374880  0.33649912  0.86707001  1
  F  F84  1  0.86396542  0.89651619  0.12869408  1
  F  F85  1  0.13603458  0.10348381  0.87130592  1
  F  F86  1  0.84650111  0.66929838  0.09321316  1
  F  F87  1  0.15349889  0.33070162  0.90678684  1
  F  F88  1  0.10631598  0.88562021  0.04458259  1
  F  F89  1  0.89368402  0.11437979  0.95541741  1
