# generated using pymatgen
data_SrLiTi3Cr2O11
_symmetry_space_group_name_H-M   'P 1'
_cell_length_a   5.81207977
_cell_length_b   13.89753729
_cell_length_c   9.96145242
_cell_angle_alpha   90.00000000
_cell_angle_beta   90.00000000
_cell_angle_gamma   90.00000000
_symmetry_Int_Tables_number   1
_chemical_formula_structural   SrLiTi3Cr2O11
_chemical_formula_sum   'Sr4 Li4 Ti12 Cr8 O44'
_cell_volume   804.62232673
_cell_formula_units_Z   4
loop_
 _symmetry_equiv_pos_site_id
 _symmetry_equiv_pos_as_xyz
  1  'x, y, z'
loop_
 _atom_site_type_symbol
 _atom_site_label
 _atom_site_symmetry_multiplicity
 _atom_site_fract_x
 _atom_site_fract_y
 _atom_site_fract_z
 _atom_site_occupancy
  Sr  Sr0  1  0.75000000  0.40454667  0.39698280  1
  Sr  Sr1  1  0.25000000  0.59545333  0.60301720  1
  Sr  Sr2  1  0.25000000  0.09545333  0.89698280  1
  Sr  Sr3  1  0.75000000  0.90454667  0.10301720  1
  Li  Li4  1  0.75000000  0.95979633  0.42106856  1
  Li  Li5  1  0.25000000  0.04020367  0.57893144  1
  Li  Li6  1  0.25000000  0.54020367  0.92106856  1
  Li  Li7  1  0.75000000  0.45979633  0.07893144  1
  Ti  Ti8  1  0.75000000  0.99766649  0.77009714  1
  Ti  Ti9  1  0.25000000  0.00233351  0.22990286  1
  Ti  Ti10  1  0.25000000  0.50233351  0.27009714  1
  Ti  Ti11  1  0.75000000  0.49766649  0.72990286  1
  Ti  Ti12  1  0.75000000  0.66749081  0.43161354  1
  Ti  Ti13  1  0.25000000  0.33250919  0.56838646  1
  Ti  Ti14  1  0.25000000  0.83250919  0.93161354  1
  Ti  Ti15  1  0.75000000  0.16749081  0.06838646  1
  Ti  Ti16  1  0.75000000  0.66769114  0.89135210  1
  Ti  Ti17  1  0.25000000  0.33230886  0.10864790  1
  Ti  Ti18  1  0.25000000  0.83230886  0.39135210  1
  Ti  Ti19  1  0.75000000  0.16769114  0.60864790  1
  Cr  Cr20  1  0.99851859  0.82814064  0.66400609  1
  Cr  Cr21  1  0.00148141  0.17185936  0.33599391  1
  Cr  Cr22  1  0.00148141  0.67185936  0.16400609  1
  Cr  Cr23  1  0.49851859  0.17185936  0.33599391  1
  Cr  Cr24  1  0.99851859  0.32814064  0.83599391  1
  Cr  Cr25  1  0.50148141  0.82814064  0.66400609  1
  Cr  Cr26  1  0.50148141  0.32814064  0.83599391  1
  Cr  Cr27  1  0.49851859  0.67185936  0.16400609  1
  O  O28  1  0.75000000  0.56510970  0.55981469  1
  O  O29  1  0.25000000  0.43489030  0.44018531  1
  O  O30  1  0.25000000  0.93489030  0.05981469  1
  O  O31  1  0.75000000  0.06510970  0.94018531  1
  O  O32  1  0.75000000  0.91319835  0.60352337  1
  O  O33  1  0.25000000  0.08680165  0.39647663  1
  O  O34  1  0.25000000  0.58680165  0.10352337  1
  O  O35  1  0.75000000  0.41319835  0.89647663  1
  O  O36  1  0.97254054  0.58612021  0.81629605  1
  O  O37  1  0.02745946  0.41387979  0.18370395  1
  O  O38  1  0.02745946  0.91387979  0.31629605  1
  O  O39  1  0.47254054  0.41387979  0.18370395  1
  O  O40  1  0.97254054  0.08612021  0.68370395  1
  O  O41  1  0.52745946  0.58612021  0.81629605  1
  O  O42  1  0.52745946  0.08612021  0.68370395  1
  O  O43  1  0.47254054  0.91387979  0.31629605  1
  O  O44  1  0.75000000  0.60310417  0.07216777  1
  O  O45  1  0.25000000  0.39689583  0.92783223  1
  O  O46  1  0.25000000  0.89689583  0.57216777  1
  O  O47  1  0.75000000  0.10310417  0.42783223  1
  O  O48  1  0.49474874  0.91378985  0.82652342  1
  O  O49  1  0.50525126  0.08621015  0.17347658  1
  O  O50  1  0.50525126  0.58621015  0.32652342  1
  O  O51  1  0.99474874  0.08621015  0.17347658  1
  O  O52  1  0.49474874  0.41378985  0.67347658  1
  O  O53  1  0.00525126  0.91378985  0.82652342  1
  O  O54  1  0.00525126  0.41378985  0.67347658  1
  O  O55  1  0.99474874  0.58621015  0.32652342  1
  O  O56  1  0.75000000  0.73908062  0.25111710  1
  O  O57  1  0.25000000  0.26091938  0.74888290  1
  O  O58  1  0.25000000  0.76091938  0.75111710  1
  O  O59  1  0.75000000  0.23908062  0.24888290  1
  O  O60  1  0.75000000  0.75506511  0.74562796  1
  O  O61  1  0.25000000  0.24493489  0.25437204  1
  O  O62  1  0.25000000  0.74493489  0.24562796  1
  O  O63  1  0.75000000  0.25506511  0.75437204  1
  O  O64  1  0.00015061  0.75626470  0.00044335  1
  O  O65  1  -0.00015061  0.24373530  0.99955665  1
  O  O66  1  -0.00015061  0.74373530  0.50044335  1
  O  O67  1  0.50015061  0.24373530  0.99955665  1
  O  O68  1  0.00015061  0.25626470  0.49955665  1
  O  O69  1  0.49984939  0.75626470  0.00044335  1
  O  O70  1  0.49984939  0.25626470  0.49955665  1
  O  O71  1  0.50015061  0.74373530  0.50044335  1
