# generated using pymatgen
data_U3P2(PbO8)2
_symmetry_space_group_name_H-M   'P 1'
_cell_length_a   7.03806536
_cell_length_b   6.86425382
_cell_length_c   17.10610351
_cell_angle_alpha   90.00000000
_cell_angle_beta   90.00000000
_cell_angle_gamma   107.66107911
_symmetry_Int_Tables_number   1
_chemical_formula_structural   U3P2(PbO8)2
_chemical_formula_sum   'U6 P4 Pb4 O32'
_cell_volume   787.46339049
_cell_formula_units_Z   2
loop_
 _symmetry_equiv_pos_site_id
 _symmetry_equiv_pos_as_xyz
  1  'x, y, z'
loop_
 _atom_site_type_symbol
 _atom_site_label
 _atom_site_symmetry_multiplicity
 _atom_site_fract_x
 _atom_site_fract_y
 _atom_site_fract_z
 _atom_site_occupancy
  U  U0  1  0.19821309  0.89581245  0.85820767  1
  U  U1  1  0.80178691  0.10418755  0.14179233  1
  U  U2  1  0.80178691  0.10418755  0.35820767  1
  U  U3  1  0.19821309  0.89581245  0.64179233  1
  U  U4  1  0.69977086  0.89576611  0.75000000  1
  U  U5  1  0.30022914  0.10423389  0.25000000  1
  P  P6  1  0.69402309  0.90110171  0.94299291  1
  P  P7  1  0.30597691  0.09889829  0.05700709  1
  P  P8  1  0.30597691  0.09889829  0.44299291  1
  P  P9  1  0.69402309  0.90110171  0.55700709  1
  Pb  Pb10  1  0.60196723  0.38541630  0.89983038  1
  Pb  Pb11  1  0.39803277  0.61458370  0.10016962  1
  Pb  Pb12  1  0.39803277  0.61458370  0.39983038  1
  Pb  Pb13  1  0.60196723  0.38541630  0.60016962  1
  O  O14  1  0.71892411  0.81719243  0.35443344  1
  O  O15  1  0.28107589  0.18280757  0.64556656  1
  O  O16  1  0.28107589  0.18280757  0.85443344  1
  O  O17  1  0.71892411  0.81719243  0.14556656  1
  O  O18  1  0.57307929  0.69265946  0.52156374  1
  O  O19  1  0.42692071  0.30734054  0.47843626  1
  O  O20  1  0.42692071  0.30734054  0.02156374  1
  O  O21  1  0.57307929  0.69265946  0.97843626  1
  O  O22  1  0.01531618  0.88740411  0.75000000  1
  O  O23  1  0.98468382  0.11259589  0.25000000  1
  O  O24  1  0.22188919  0.93355660  0.99557387  1
  O  O25  1  0.77811081  0.06644340  0.00442613  1
  O  O26  1  0.77811081  0.06644340  0.49557387  1
  O  O27  1  0.22188919  0.93355660  0.50442613  1
  O  O28  1  0.61572618  0.61160362  0.75000000  1
  O  O29  1  0.38427382  0.38839638  0.25000000  1
  O  O30  1  0.55852290  0.97720807  0.88500692  1
  O  O31  1  0.44147710  0.02279193  0.11499308  1
  O  O32  1  0.44147710  0.02279193  0.38500692  1
  O  O33  1  0.55852290  0.97720807  0.61499308  1
  O  O34  1  0.13229811  0.62150479  0.87492808  1
  O  O35  1  0.86770189  0.37849521  0.12507192  1
  O  O36  1  0.86770189  0.37849521  0.37492808  1
  O  O37  1  0.13229811  0.62150479  0.62507192  1
  O  O38  1  0.37700244  0.87233492  0.75000000  1
  O  O39  1  0.62299756  0.12766508  0.25000000  1
  O  O40  1  0.85317683  0.86249817  0.88717101  1
  O  O41  1  0.14682317  0.13750183  0.11282899  1
  O  O42  1  0.14682317  0.13750183  0.38717101  1
  O  O43  1  0.85317683  0.86249817  0.61282899  1
  O  O44  1  0.78039402  0.17472913  0.75000000  1
  O  O45  1  0.21960598  0.82527087  0.25000000  1
