# generated using pymatgen
data_Ti4Ag2O9
_symmetry_space_group_name_H-M   'P 1'
_cell_length_a   3.74603140
_cell_length_b   8.99013310
_cell_length_c   12.20123286
_cell_angle_alpha   107.73940856
_cell_angle_beta   90.00000000
_cell_angle_gamma   102.02516594
_symmetry_Int_Tables_number   1
_chemical_formula_structural   Ti4Ag2O9
_chemical_formula_sum   'Ti8 Ag4 O18'
_cell_volume   381.88934224
_cell_formula_units_Z   2
loop_
 _symmetry_equiv_pos_site_id
 _symmetry_equiv_pos_as_xyz
  1  'x, y, z'
loop_
 _atom_site_type_symbol
 _atom_site_label
 _atom_site_symmetry_multiplicity
 _atom_site_fract_x
 _atom_site_fract_y
 _atom_site_fract_z
 _atom_site_occupancy
  Ti  Ti0  1  0.75483493  0.50966986  0.33535826  1
  Ti  Ti1  1  0.24516507  0.49033014  0.66464174  1
  Ti  Ti2  1  0.19896997  0.39793994  0.89370346  1
  Ti  Ti3  1  0.80103003  0.60206006  0.10629654  1
  Ti  Ti4  1  0.84806371  0.69612741  0.87826416  1
  Ti  Ti5  1  0.15193629  0.30387259  0.12173584  1
  Ti  Ti6  1  0.88668507  0.77337014  0.63622190  1
  Ti  Ti7  1  0.11331493  0.22662986  0.36377810  1
  Ag  Ag8  1  0.56133388  0.12266776  0.63025272  1
  Ag  Ag9  1  0.43866612  0.87733224  0.36974728  1
  Ag  Ag10  1  0.52250533  0.04501066  0.86159579  1
  Ag  Ag11  1  0.47749467  0.95498934  0.13840421  1
  O  O12  1  0.77291536  0.54583072  0.70439651  1
  O  O13  1  0.22708464  0.45416928  0.29560349  1
  O  O14  1  0.84205664  0.68411327  0.26222538  1
  O  O15  1  0.15794336  0.31588673  0.73777462  1
  O  O16  1  0.11177160  0.22354320  0.95408247  1
  O  O17  1  0.88822840  0.77645680  0.04591753  1
  O  O18  1  0.31463077  0.62926155  0.86355843  1
  O  O19  1  0.68536923  0.37073845  0.13644157  1
  O  O20  1  0.98178918  0.96357836  0.62015062  1
  O  O21  1  0.01821082  0.03642164  0.37984938  1
  O  O22  1  0.81956709  0.63913417  0.47660352  1
  O  O23  1  0.18043291  0.36086583  0.52339648  1
  O  O24  1  0.73003167  0.46006333  0.92164137  1
  O  O25  1  0.26996833  0.53993667  0.07835863  1
  O  O26  1  0.64320857  0.28641713  0.35229133  1
  O  O27  1  0.35679143  0.71358287  0.64770867  1
  O  O28  1  0.93212159  0.86424317  0.82468703  1
  O  O29  1  0.06787841  0.13575683  0.17531297  1
