# generated using pymatgen
data_SrTiF5
_symmetry_space_group_name_H-M   'P 1'
_cell_length_a   7.25057787
_cell_length_b   7.40563963
_cell_length_c   15.01519947
_cell_angle_alpha   90.00000000
_cell_angle_beta   94.78301087
_cell_angle_gamma   90.00000000
_symmetry_Int_Tables_number   1
_chemical_formula_structural   SrTiF5
_chemical_formula_sum   'Sr8 Ti8 F40'
_cell_volume   803.43599903
_cell_formula_units_Z   8
loop_
 _symmetry_equiv_pos_site_id
 _symmetry_equiv_pos_as_xyz
  1  'x, y, z'
loop_
 _atom_site_type_symbol
 _atom_site_label
 _atom_site_symmetry_multiplicity
 _atom_site_fract_x
 _atom_site_fract_y
 _atom_site_fract_z
 _atom_site_occupancy
  Sr  Sr0  1  0.00281210  0.65228707  0.13471729  1
  Sr  Sr1  1  0.99718790  0.34771293  0.86528271  1
  Sr  Sr2  1  0.99718790  0.15228707  0.36528271  1
  Sr  Sr3  1  0.00281210  0.84771293  0.63471729  1
  Sr  Sr4  1  0.69074334  0.15252914  0.08545807  1
  Sr  Sr5  1  0.30925666  0.84747086  0.91454193  1
  Sr  Sr6  1  0.30925666  0.65252914  0.41454193  1
  Sr  Sr7  1  0.69074334  0.34747086  0.58545807  1
  Ti  Ti8  1  0.49320202  0.11759413  0.33778440  1
  Ti  Ti9  1  0.50679798  0.88240587  0.66221560  1
  Ti  Ti10  1  0.50679798  0.61759413  0.16221560  1
  Ti  Ti11  1  0.49320202  0.38240587  0.83778440  1
  Ti  Ti12  1  0.18922694  0.18090859  0.12517053  1
  Ti  Ti13  1  0.81077306  0.81909141  0.87482947  1
  Ti  Ti14  1  0.81077306  0.68090859  0.37482947  1
  Ti  Ti15  1  0.18922694  0.31909141  0.62517053  1
  F  F16  1  0.31658292  0.70124055  0.06782655  1
  F  F17  1  0.68341708  0.29875945  0.93217345  1
  F  F18  1  0.68341708  0.20124055  0.43217345  1
  F  F19  1  0.31658292  0.79875945  0.56782655  1
  F  F20  1  0.35231105  0.07843011  0.04017646  1
  F  F21  1  0.64768895  0.92156989  0.95982354  1
  F  F22  1  0.64768895  0.57843011  0.45982354  1
  F  F23  1  0.35231105  0.42156989  0.54017646  1
  F  F24  1  0.99991039  0.51160164  0.60778683  1
  F  F25  1  0.00008961  0.48839836  0.39221317  1
  F  F26  1  0.00008961  0.01160164  0.89221317  1
  F  F27  1  0.99991039  0.98839836  0.10778683  1
  F  F28  1  0.03098015  0.30796090  0.20721280  1
  F  F29  1  0.96901985  0.69203910  0.79278720  1
  F  F30  1  0.96901985  0.80796090  0.29278720  1
  F  F31  1  0.03098015  0.19203910  0.70721280  1
  F  F32  1  0.32422200  0.06065428  0.22902782  1
  F  F33  1  0.67577800  0.93934572  0.77097218  1
  F  F34  1  0.67577800  0.56065428  0.27097218  1
  F  F35  1  0.32422200  0.43934572  0.72902782  1
  F  F36  1  0.03850241  0.32231937  0.03231244  1
  F  F37  1  0.96149759  0.67768063  0.96768756  1
  F  F38  1  0.96149759  0.82231937  0.46768756  1
  F  F39  1  0.03850241  0.17768063  0.53231244  1
  F  F40  1  0.34561977  0.33215899  0.35178071  1
  F  F41  1  0.65438023  0.66784101  0.64821929  1
  F  F42  1  0.65438023  0.83215899  0.14821929  1
  F  F43  1  0.34561977  0.16784101  0.85178071  1
  F  F44  1  0.69040992  0.16326910  0.25751136  1
  F  F45  1  0.30959008  0.83673090  0.74248864  1
  F  F46  1  0.30959008  0.66326910  0.24248864  1
  F  F47  1  0.69040992  0.33673090  0.75751136  1
  F  F48  1  0.70030976  0.49172446  0.09889163  1
  F  F49  1  0.29969024  0.50827554  0.90110837  1
  F  F50  1  0.29969024  0.99172446  0.40110837  1
  F  F51  1  0.70030976  0.00827554  0.59889163  1
  F  F52  1  0.38727106  0.36917208  0.14423555  1
  F  F53  1  0.61272894  0.63082792  0.85576445  1
  F  F54  1  0.61272894  0.86917208  0.35576445  1
  F  F55  1  0.38727106  0.13082792  0.64423555  1
