# generated using pymatgen
data_NaCu2(SeO5)2
_symmetry_space_group_name_H-M   'P 1'
_cell_length_a   5.63485253
_cell_length_b   5.63485253
_cell_length_c   7.74957200
_cell_angle_alpha   101.18330552
_cell_angle_beta   104.15168985
_cell_angle_gamma   113.39194245
_symmetry_Int_Tables_number   1
_chemical_formula_structural   NaCu2(SeO5)2
_chemical_formula_sum   'Na1 Cu2 Se2 O10'
_cell_volume   206.94488216
_cell_formula_units_Z   1
loop_
 _symmetry_equiv_pos_site_id
 _symmetry_equiv_pos_as_xyz
  1  'x, y, z'
loop_
 _atom_site_type_symbol
 _atom_site_label
 _atom_site_symmetry_multiplicity
 _atom_site_fract_x
 _atom_site_fract_y
 _atom_site_fract_z
 _atom_site_occupancy
  Na  Na0  1  0.00000000  -0.00000000  -0.00000000  1
  Cu  Cu1  1  0.00000000  -0.00000000  0.50000000  1
  Cu  Cu2  1  0.50000000  0.50000000  0.50000000  1
  Se  Se3  1  0.79275680  0.41582091  0.20857771  1
  Se  Se4  1  0.20724320  0.58417909  0.79142229  1
  O  O5  1  0.31016584  0.71087454  0.02104038  1
  O  O6  1  0.68983416  0.28912546  0.97895962  1
  O  O7  1  0.00594635  0.31057054  0.31651689  1
  O  O8  1  0.99405365  0.68942946  0.68348311  1
  O  O9  1  0.95631635  0.76707312  0.26852922  1
  O  O10  1  0.04368365  0.23292688  0.73147078  1
  O  O11  1  0.49854390  0.68778713  0.73147078  1
  O  O12  1  0.50145610  0.31221287  0.26852922  1
  O  O13  1  0.36661214  0.17974558  0.54635772  1
  O  O14  1  0.63338786  0.82025442  0.45364228  1
