# generated using pymatgen
data_Rb5(TmI4)3
_symmetry_space_group_name_H-M   'P 1'
_cell_length_a   4.58832514
_cell_length_b   15.09609048
_cell_length_c   15.09609048
_cell_angle_alpha   119.99999764
_cell_angle_beta   90.00000000
_cell_angle_gamma   90.00000000
_symmetry_Int_Tables_number   1
_chemical_formula_structural   Rb5(TmI4)3
_chemical_formula_sum   'Rb5 Tm3 I12'
_cell_volume   905.55286291
_cell_formula_units_Z   1
loop_
 _symmetry_equiv_pos_site_id
 _symmetry_equiv_pos_as_xyz
  1  'x, y, z'
loop_
 _atom_site_type_symbol
 _atom_site_label
 _atom_site_symmetry_multiplicity
 _atom_site_fract_x
 _atom_site_fract_y
 _atom_site_fract_z
 _atom_site_occupancy
  Rb  Rb0  1  0.00000000  0.66666700  0.33333300  1
  Rb  Rb1  1  -0.00000000  0.33333300  0.66666700  1
  Rb  Rb2  1  -0.00000000  0.28233965  0.28233965  1
  Rb  Rb3  1  -0.00000000  1.00000000  0.71766035  1
  Rb  Rb4  1  0.00000000  0.71766035  1.00000000  1
  Tm  Tm5  1  0.50000000  0.67784645  0.67784645  1
  Tm  Tm6  1  0.50000000  0.00000000  0.32215355  1
  Tm  Tm7  1  0.50000000  0.32215355  0.00000000  1
  I  I8  1  -0.00000000  0.81484583  0.81484583  1
  I  I9  1  0.00000000  1.00000000  0.18515417  1
  I  I10  1  -0.00000000  0.18515417  1.00000000  1
  I  I11  1  0.00000000  0.54274537  0.54274537  1
  I  I12  1  0.00000000  0.00000000  0.45725463  1
  I  I13  1  -0.00000000  0.45725463  0.00000000  1
  I  I14  1  0.50000000  0.76668945  0.20787601  1
  I  I15  1  0.50000000  0.44118656  0.23331055  1
  I  I16  1  0.50000000  0.55881344  0.79212399  1
  I  I17  1  0.50000000  0.79212399  0.55881344  1
  I  I18  1  0.50000000  0.20787601  0.76668945  1
  I  I19  1  0.50000000  0.23331055  0.44118656  1
