# generated using pymatgen
data_La2CuIrO6
_symmetry_space_group_name_H-M   'P 1'
_cell_length_a   5.91655840
_cell_length_b   5.56680925
_cell_length_c   7.78359327
_cell_angle_alpha   90.36769083
_cell_angle_beta   90.00000000
_cell_angle_gamma   90.00000000
_symmetry_Int_Tables_number   1
_chemical_formula_structural   La2CuIrO6
_chemical_formula_sum   'La4 Cu2 Ir2 O12'
_cell_volume   256.35788899
_cell_formula_units_Z   2
loop_
 _symmetry_equiv_pos_site_id
 _symmetry_equiv_pos_as_xyz
  1  'x, y, z'
loop_
 _atom_site_type_symbol
 _atom_site_label
 _atom_site_symmetry_multiplicity
 _atom_site_fract_x
 _atom_site_fract_y
 _atom_site_fract_z
 _atom_site_occupancy
  La  La0  1  0.43312478  0.01707525  0.74979798  1
  La  La1  1  0.56687522  0.98292475  0.25020202  1
  La  La2  1  0.93312478  0.48292475  0.75020202  1
  La  La3  1  0.06687522  0.51707525  0.24979798  1
  Cu  Cu4  1  0.00000000  -0.00000000  0.50000000  1
  Cu  Cu5  1  0.50000000  0.50000000  -0.00000000  1
  Ir  Ir6  1  0.00000000  -0.00000000  -0.00000000  1
  Ir  Ir7  1  0.50000000  0.50000000  0.50000000  1
  O  O8  1  0.03009691  0.90107047  0.74904726  1
  O  O9  1  0.96990309  0.09892953  0.25095274  1
  O  O10  1  0.53009691  0.59892953  0.75095274  1
  O  O11  1  0.46990309  0.40107047  0.24904726  1
  O  O12  1  0.71298334  0.18143109  0.94463183  1
  O  O13  1  0.28701666  0.81856891  0.05536817  1
  O  O14  1  0.21298334  0.31856891  0.55536817  1
  O  O15  1  0.78701666  0.68143109  0.44463183  1
  O  O16  1  0.18913724  0.29822981  0.95153956  1
  O  O17  1  0.81086276  0.70177019  0.04846044  1
  O  O18  1  0.68913724  0.20177019  0.54846044  1
  O  O19  1  0.31086276  0.79822981  0.45153956  1
