# generated using pymatgen
data_Na4MnO5
_symmetry_space_group_name_H-M   'P 1'
_cell_length_a   7.47481642
_cell_length_b   9.11081249
_cell_length_c   8.33952002
_cell_angle_alpha   90.00000000
_cell_angle_beta   90.00000000
_cell_angle_gamma   90.00000000
_symmetry_Int_Tables_number   1
_chemical_formula_structural   Na4MnO5
_chemical_formula_sum   'Na16 Mn4 O20'
_cell_volume   567.93508024
_cell_formula_units_Z   4
loop_
 _symmetry_equiv_pos_site_id
 _symmetry_equiv_pos_as_xyz
  1  'x, y, z'
loop_
 _atom_site_type_symbol
 _atom_site_label
 _atom_site_symmetry_multiplicity
 _atom_site_fract_x
 _atom_site_fract_y
 _atom_site_fract_z
 _atom_site_occupancy
  Na  Na0  1  0.49330376  0.86929444  0.64836185  1
  Na  Na1  1  0.50669624  0.13070556  0.35163815  1
  Na  Na2  1  0.50669624  0.63070556  0.14836185  1
  Na  Na3  1  0.99330376  0.13070556  0.35163815  1
  Na  Na4  1  0.49330376  0.36929444  0.85163815  1
  Na  Na5  1  0.00669624  0.86929444  0.64836185  1
  Na  Na6  1  0.00669624  0.36929444  0.85163815  1
  Na  Na7  1  0.99330376  0.63070556  0.14836185  1
  Na  Na8  1  0.75000000  0.86165068  0.27433375  1
  Na  Na9  1  0.25000000  0.13834932  0.72566625  1
  Na  Na10  1  0.25000000  0.63834932  0.77433375  1
  Na  Na11  1  0.75000000  0.36165068  0.22566625  1
  Na  Na12  1  0.00000000  -0.00000000  0.00000000  1
  Na  Na13  1  -0.00000000  0.50000000  0.50000000  1
  Na  Na14  1  0.50000000  -0.00000000  0.00000000  1
  Na  Na15  1  0.50000000  0.50000000  0.50000000  1
  Mn  Mn16  1  0.75000000  0.63823026  0.85153413  1
  Mn  Mn17  1  0.25000000  0.36176974  0.14846587  1
  Mn  Mn18  1  0.25000000  0.86176974  0.35153413  1
  Mn  Mn19  1  0.75000000  0.13823026  0.64846587  1
  O  O20  1  0.75000000  0.60774092  0.33175639  1
  O  O21  1  0.25000000  0.39225908  0.66824361  1
  O  O22  1  0.25000000  0.89225908  0.83175639  1
  O  O23  1  0.75000000  0.10774092  0.16824361  1
  O  O24  1  0.75000000  0.98762491  0.52115948  1
  O  O25  1  0.25000000  0.01237509  0.47884052  1
  O  O26  1  0.25000000  0.51237509  0.02115948  1
  O  O27  1  0.75000000  0.48762491  0.97884052  1
  O  O28  1  0.93881580  0.62785775  0.73743388  1
  O  O29  1  0.06118420  0.37214225  0.26256612  1
  O  O30  1  0.06118420  0.87214225  0.23743388  1
  O  O31  1  0.43881580  0.37214225  0.26256612  1
  O  O32  1  0.93881580  0.12785775  0.76256612  1
  O  O33  1  0.56118420  0.62785775  0.73743388  1
  O  O34  1  0.56118420  0.12785775  0.76256612  1
  O  O35  1  0.43881580  0.87214225  0.23743388  1
  O  O36  1  0.75000000  0.78909169  0.97274476  1
  O  O37  1  0.25000000  0.21090831  0.02725524  1
  O  O38  1  0.25000000  0.71090831  0.47274476  1
  O  O39  1  0.75000000  0.28909169  0.52725524  1
