# generated using pymatgen
data_InSb
_symmetry_space_group_name_H-M   'P 1'
_cell_length_a   4.39771324
_cell_length_b   4.39771324
_cell_length_c   18.01654784
_cell_angle_alpha   90.00000000
_cell_angle_beta   90.00000000
_cell_angle_gamma   92.56967363
_symmetry_Int_Tables_number   1
_chemical_formula_structural   InSb
_chemical_formula_sum   'In6 Sb6'
_cell_volume   348.08752893
_cell_formula_units_Z   6
loop_
 _symmetry_equiv_pos_site_id
 _symmetry_equiv_pos_as_xyz
  1  'x, y, z'
loop_
 _atom_site_type_symbol
 _atom_site_label
 _atom_site_symmetry_multiplicity
 _atom_site_fract_x
 _atom_site_fract_y
 _atom_site_fract_z
 _atom_site_occupancy
  In  In0  1  0.07967080  0.92032920  0.75000000  1
  In  In1  1  0.92032920  0.07967080  0.25000000  1
  In  In2  1  0.41384356  0.58615644  0.91023094  1
  In  In3  1  0.58615644  0.41384356  0.41023094  1
  In  In4  1  0.58615644  0.41384356  0.08976906  1
  In  In5  1  0.41384356  0.58615644  0.58976906  1
  Sb  Sb6  1  0.57724280  0.42275720  0.75000000  1
  Sb  Sb7  1  0.42275720  0.57724280  0.25000000  1
  Sb  Sb8  1  0.91876015  0.08123985  0.92392595  1
  Sb  Sb9  1  0.08123985  0.91876015  0.42392595  1
  Sb  Sb10  1  0.08123985  0.91876015  0.07607405  1
  Sb  Sb11  1  0.91876015  0.08123985  0.57607405  1
