# generated using pymatgen
data_Rb3LiPb4
_symmetry_space_group_name_H-M   'P 1'
_cell_length_a   7.53073357
_cell_length_b   9.23163128
_cell_length_c   10.60139946
_cell_angle_alpha   90.00000000
_cell_angle_beta   90.00000000
_cell_angle_gamma   114.07151849
_symmetry_Int_Tables_number   1
_chemical_formula_structural   Rb3LiPb4
_chemical_formula_sum   'Rb6 Li2 Pb8'
_cell_volume   672.92603312
_cell_formula_units_Z   2
loop_
 _symmetry_equiv_pos_site_id
 _symmetry_equiv_pos_as_xyz
  1  'x, y, z'
loop_
 _atom_site_type_symbol
 _atom_site_label
 _atom_site_symmetry_multiplicity
 _atom_site_fract_x
 _atom_site_fract_y
 _atom_site_fract_z
 _atom_site_occupancy
  Rb  Rb0  1  0.76934187  0.53868375  0.25000000  1
  Rb  Rb1  1  0.23065813  0.46131625  0.75000000  1
  Rb  Rb2  1  0.38931976  0.77863953  0.04906340  1
  Rb  Rb3  1  0.61068024  0.22136047  0.95093660  1
  Rb  Rb4  1  0.61068024  0.22136047  0.54906340  1
  Rb  Rb5  1  0.38931976  0.77863953  0.45093660  1
  Li  Li6  1  -0.00000000  0.00000000  -0.00000000  1
  Li  Li7  1  -0.00000000  0.00000000  0.50000000  1
  Pb  Pb8  1  0.25132262  0.08118667  0.25000000  1
  Pb  Pb9  1  0.74867738  0.91881333  0.75000000  1
  Pb  Pb10  1  0.82986405  0.08118667  0.25000000  1
  Pb  Pb11  1  0.17013595  0.91881333  0.75000000  1
  Pb  Pb12  1  0.17214589  0.34429179  0.10308718  1
  Pb  Pb13  1  0.82785411  0.65570821  0.89691282  1
  Pb  Pb14  1  0.82785411  0.65570821  0.60308718  1
  Pb  Pb15  1  0.17214589  0.34429179  0.39691282  1
