# generated using pymatgen
data_DyMnCrO5
_symmetry_space_group_name_H-M   'P 1'
_cell_length_a   5.83530621
_cell_length_b   7.23985723
_cell_length_c   8.65588919
_cell_angle_alpha   90.00000000
_cell_angle_beta   90.00000000
_cell_angle_gamma   90.00000000
_symmetry_Int_Tables_number   1
_chemical_formula_structural   DyMnCrO5
_chemical_formula_sum   'Dy4 Mn4 Cr4 O20'
_cell_volume   365.68347967
_cell_formula_units_Z   4
loop_
 _symmetry_equiv_pos_site_id
 _symmetry_equiv_pos_as_xyz
  1  'x, y, z'
loop_
 _atom_site_type_symbol
 _atom_site_label
 _atom_site_symmetry_multiplicity
 _atom_site_fract_x
 _atom_site_fract_y
 _atom_site_fract_z
 _atom_site_occupancy
  Dy  Dy0  1  0.50000000  0.36290515  0.32639738  1
  Dy  Dy1  1  0.50000000  0.63709485  0.67360262  1
  Dy  Dy2  1  0.50000000  0.13709485  0.82639738  1
  Dy  Dy3  1  0.50000000  0.86290515  0.17360262  1
  Mn  Mn4  1  -0.00000000  0.09230015  0.15002795  1
  Mn  Mn5  1  -0.00000000  0.90769985  0.84997205  1
  Mn  Mn6  1  -0.00000000  0.40769985  0.65002795  1
  Mn  Mn7  1  -0.00000000  0.59230015  0.34997205  1
  Cr  Cr8  1  0.24887802  -0.00000000  0.50000000  1
  Cr  Cr9  1  0.75112198  -0.00000000  0.50000000  1
  Cr  Cr10  1  0.75112198  0.50000000  0.00000000  1
  Cr  Cr11  1  0.24887802  0.50000000  0.00000000  1
  O  O12  1  0.50000000  0.33045697  0.05430653  1
  O  O13  1  0.50000000  0.66954303  0.94569347  1
  O  O14  1  0.50000000  0.16954303  0.55430653  1
  O  O15  1  0.50000000  0.83045697  0.44569347  1
  O  O16  1  0.25970163  0.10749208  0.28911870  1
  O  O17  1  0.74029837  0.89250792  0.71088130  1
  O  O18  1  0.25970163  0.89250792  0.71088130  1
  O  O19  1  0.74029837  0.39250792  0.78911870  1
  O  O20  1  0.74029837  0.10749208  0.28911870  1
  O  O21  1  0.25970163  0.60749208  0.21088130  1
  O  O22  1  0.74029837  0.60749208  0.21088130  1
  O  O23  1  0.25970163  0.39250792  0.78911870  1
  O  O24  1  0.22469186  -0.00000000  0.00000000  1
  O  O25  1  0.77530814  -0.00000000  0.00000000  1
  O  O26  1  0.77530814  0.50000000  0.50000000  1
  O  O27  1  0.22469186  0.50000000  0.50000000  1
  O  O28  1  -0.00000000  0.35224796  0.07768161  1
  O  O29  1  -0.00000000  0.64775204  0.92231839  1
  O  O30  1  -0.00000000  0.14775204  0.57768161  1
  O  O31  1  -0.00000000  0.85224796  0.42231839  1
