# generated using pymatgen
data_K2CuCl4
_symmetry_space_group_name_H-M   'P 1'
_cell_length_a   7.22757520
_cell_length_b   9.49231763
_cell_length_c   12.06948094
_cell_angle_alpha   90.00000000
_cell_angle_beta   90.00000000
_cell_angle_gamma   90.00000000
_symmetry_Int_Tables_number   1
_chemical_formula_structural   K2CuCl4
_chemical_formula_sum   'K8 Cu4 Cl16'
_cell_volume   828.04411382
_cell_formula_units_Z   4
loop_
 _symmetry_equiv_pos_site_id
 _symmetry_equiv_pos_as_xyz
  1  'x, y, z'
loop_
 _atom_site_type_symbol
 _atom_site_label
 _atom_site_symmetry_multiplicity
 _atom_site_fract_x
 _atom_site_fract_y
 _atom_site_fract_z
 _atom_site_occupancy
  K  K0  1  0.75000000  0.50182196  0.32713514  1
  K  K1  1  0.25000000  0.49817804  0.67286486  1
  K  K2  1  0.25000000  0.99817804  0.82713514  1
  K  K3  1  0.75000000  0.00182196  0.17286486  1
  K  K4  1  0.75000000  0.84879210  0.58572163  1
  K  K5  1  0.25000000  0.15120790  0.41427837  1
  K  K6  1  0.25000000  0.65120790  0.08572163  1
  K  K7  1  0.75000000  0.34879210  0.91427837  1
  Cu  Cu8  1  0.75000000  0.77255460  0.92176301  1
  Cu  Cu9  1  0.25000000  0.22744540  0.07823699  1
  Cu  Cu10  1  0.25000000  0.72744540  0.42176301  1
  Cu  Cu11  1  0.75000000  0.27255460  0.57823699  1
  Cl  Cl12  1  0.02056138  0.70126385  0.84978999  1
  Cl  Cl13  1  0.97943862  0.29873615  0.15021001  1
  Cl  Cl14  1  0.97943862  0.79873615  0.34978999  1
  Cl  Cl15  1  0.52056138  0.29873615  0.15021001  1
  Cl  Cl16  1  0.02056138  0.20126385  0.65021001  1
  Cl  Cl17  1  0.47943862  0.70126385  0.84978999  1
  Cl  Cl18  1  0.47943862  0.20126385  0.65021001  1
  Cl  Cl19  1  0.52056138  0.79873615  0.34978999  1
  Cl  Cl20  1  0.75000000  0.01211125  0.90057787  1
  Cl  Cl21  1  0.25000000  0.98788875  0.09942213  1
  Cl  Cl22  1  0.25000000  0.48788875  0.40057787  1
  Cl  Cl23  1  0.75000000  0.51211125  0.59942213  1
  Cl  Cl24  1  0.75000000  0.16678822  0.41075561  1
  Cl  Cl25  1  0.25000000  0.83321178  0.58924439  1
  Cl  Cl26  1  0.25000000  0.33321178  0.91075561  1
  Cl  Cl27  1  0.75000000  0.66678822  0.08924439  1
