# generated using pymatgen
data_Ba3Ta2Ti6O21
_symmetry_space_group_name_H-M   'P 1'
_cell_length_a   9.05506874
_cell_length_b   9.05506874
_cell_length_c   11.94359988
_cell_angle_alpha   90.00000000
_cell_angle_beta   90.00000000
_cell_angle_gamma   119.99999534
_symmetry_Int_Tables_number   1
_chemical_formula_structural   Ba3Ta2Ti6O21
_chemical_formula_sum   'Ba6 Ta4 Ti12 O42'
_cell_volume   848.10456558
_cell_formula_units_Z   2
loop_
 _symmetry_equiv_pos_site_id
 _symmetry_equiv_pos_as_xyz
  1  'x, y, z'
loop_
 _atom_site_type_symbol
 _atom_site_label
 _atom_site_symmetry_multiplicity
 _atom_site_fract_x
 _atom_site_fract_y
 _atom_site_fract_z
 _atom_site_occupancy
  Ba  Ba0  1  0.40438265  0.40438265  0.75000000  1
  Ba  Ba1  1  0.59561735  0.59561735  0.25000000  1
  Ba  Ba2  1  0.00000000  0.59561735  0.75000000  1
  Ba  Ba3  1  1.00000000  0.40438265  0.25000000  1
  Ba  Ba4  1  0.59561735  0.00000000  0.75000000  1
  Ba  Ba5  1  0.40438265  1.00000000  0.25000000  1
  Ta  Ta6  1  0.66666700  0.33333300  -0.00000000  1
  Ta  Ta7  1  0.33333300  0.66666700  -0.00000000  1
  Ta  Ta8  1  0.33333300  0.66666700  0.50000000  1
  Ta  Ta9  1  0.66666700  0.33333300  0.50000000  1
  Ti  Ti10  1  0.76302896  0.76302896  0.90412836  1
  Ti  Ti11  1  0.23697104  0.23697104  0.09587164  1
  Ti  Ti12  1  1.00000000  0.23697104  0.90412836  1
  Ti  Ti13  1  0.23697104  0.23697104  0.40412836  1
  Ti  Ti14  1  1.00000000  0.23697104  0.59587164  1
  Ti  Ti15  1  0.00000000  0.76302896  0.09587164  1
  Ti  Ti16  1  0.76302896  0.76302896  0.59587164  1
  Ti  Ti17  1  0.00000000  0.76302896  0.40412836  1
  Ti  Ti18  1  0.23697104  1.00000000  0.90412836  1
  Ti  Ti19  1  0.76302896  0.00000000  0.09587164  1
  Ti  Ti20  1  0.76302896  0.00000000  0.40412836  1
  Ti  Ti21  1  0.23697104  1.00000000  0.59587164  1
  O  O22  1  0.83289163  0.31315591  0.90037143  1
  O  O23  1  0.16710837  0.68684409  0.09962857  1
  O  O24  1  0.48026428  0.16710837  0.90037143  1
  O  O25  1  0.16710837  0.68684409  0.40037143  1
  O  O26  1  0.51973572  0.68684409  0.59962857  1
  O  O27  1  0.51973572  0.83289163  0.09962857  1
  O  O28  1  0.83289163  0.31315591  0.59962857  1
  O  O29  1  0.48026428  0.31315591  0.40037143  1
  O  O30  1  0.68684409  0.51973572  0.90037143  1
  O  O31  1  0.51973572  0.83289163  0.40037143  1
  O  O32  1  0.31315591  0.83289163  0.59962857  1
  O  O33  1  0.31315591  0.48026428  0.09962857  1
  O  O34  1  0.48026428  0.16710837  0.59962857  1
  O  O35  1  0.68684409  0.16710837  0.40037143  1
  O  O36  1  0.48026428  0.31315591  0.09962857  1
  O  O37  1  0.51973572  0.68684409  0.90037143  1
  O  O38  1  0.31315591  0.48026428  0.40037143  1
  O  O39  1  0.68684409  0.16710837  0.09962857  1
  O  O40  1  0.68684409  0.51973572  0.59962857  1
  O  O41  1  0.31315591  0.83289163  0.90037143  1
  O  O42  1  0.16710837  0.48026428  0.59962857  1
  O  O43  1  0.83289163  0.51973572  0.40037143  1
  O  O44  1  0.83289163  0.51973572  0.09962857  1
  O  O45  1  0.16710837  0.48026428  0.90037143  1
  O  O46  1  0.79878748  0.79878748  0.42606902  1
  O  O47  1  0.20121252  0.20121252  0.57393098  1
  O  O48  1  0.00000000  0.20121252  0.42606902  1
  O  O49  1  0.20121252  0.20121252  0.92606902  1
  O  O50  1  0.00000000  0.20121252  0.07393098  1
  O  O51  1  1.00000000  0.79878748  0.57393098  1
  O  O52  1  0.79878748  0.79878748  0.07393098  1
  O  O53  1  1.00000000  0.79878748  0.92606902  1
  O  O54  1  0.20121252  0.00000000  0.42606902  1
  O  O55  1  0.79878748  1.00000000  0.57393098  1
  O  O56  1  0.79878748  1.00000000  0.92606902  1
  O  O57  1  0.20121252  0.00000000  0.07393098  1
  O  O58  1  0.79526660  0.79526660  0.75000000  1
  O  O59  1  0.20473340  0.20473340  0.25000000  1
  O  O60  1  0.00000000  0.20473340  0.75000000  1
  O  O61  1  1.00000000  0.79526660  0.25000000  1
  O  O62  1  0.20473340  0.00000000  0.75000000  1
  O  O63  1  0.79526660  1.00000000  0.25000000  1
