# generated using pymatgen
data_CsEu(MoO4)2
_symmetry_space_group_name_H-M   'P 1'
_cell_length_a   7.75212790
_cell_length_b   7.75212790
_cell_length_c   7.92330734
_cell_angle_alpha   62.08413694
_cell_angle_beta   62.08413694
_cell_angle_gamma   88.98400135
_symmetry_Int_Tables_number   1
_chemical_formula_structural   CsEu(MoO4)2
_chemical_formula_sum   'Cs2 Eu2 Mo4 O16'
_cell_volume   359.20017870
_cell_formula_units_Z   2
loop_
 _symmetry_equiv_pos_site_id
 _symmetry_equiv_pos_as_xyz
  1  'x, y, z'
loop_
 _atom_site_type_symbol
 _atom_site_label
 _atom_site_symmetry_multiplicity
 _atom_site_fract_x
 _atom_site_fract_y
 _atom_site_fract_z
 _atom_site_occupancy
  Cs  Cs0  1  0.80180377  0.19819623  0.75000000  1
  Cs  Cs1  1  0.19819623  0.80180377  0.25000000  1
  Eu  Eu2  1  0.23098596  0.76901404  0.75000000  1
  Eu  Eu3  1  0.76901404  0.23098596  0.25000000  1
  Mo  Mo4  1  0.30654638  0.30590086  0.73568708  1
  Mo  Mo5  1  0.69345362  0.69409914  0.26431292  1
  Mo  Mo6  1  0.69409914  0.69345362  0.76431292  1
  Mo  Mo7  1  0.30590086  0.30654638  0.23568708  1
  O  O8  1  0.38155981  0.24012271  0.93486512  1
  O  O9  1  0.61844019  0.75987729  0.06513488  1
  O  O10  1  0.75987729  0.61844019  0.56513488  1
  O  O11  1  0.24012271  0.38155981  0.43486512  1
  O  O12  1  0.61690576  0.92468359  0.63185647  1
  O  O13  1  0.38309424  0.07531641  0.36814353  1
  O  O14  1  0.07531641  0.38309424  0.86814353  1
  O  O15  1  0.92468359  0.61690576  0.13185647  1
  O  O16  1  0.42055337  0.62916861  0.52661577  1
  O  O17  1  0.57944663  0.37083139  0.47338423  1
  O  O18  1  0.37083139  0.57944663  0.97338423  1
  O  O19  1  0.62916861  0.42055337  0.02661577  1
  O  O20  1  0.20942995  0.05652831  0.80543350  1
  O  O21  1  0.79057005  0.94347169  0.19456650  1
  O  O22  1  0.94347169  0.79057005  0.69456650  1
  O  O23  1  0.05652831  0.20942995  0.30543350  1
