# generated using pymatgen
data_K3Ce(AsO4)2
_symmetry_space_group_name_H-M   'P 1'
_cell_length_a   5.96442713
_cell_length_b   7.75630920
_cell_length_c   10.03274229
_cell_angle_alpha   91.62607211
_cell_angle_beta   90.00000000
_cell_angle_gamma   90.00000000
_symmetry_Int_Tables_number   1
_chemical_formula_structural   K3Ce(AsO4)2
_chemical_formula_sum   'K6 Ce2 As4 O16'
_cell_volume   463.94722819
_cell_formula_units_Z   2
loop_
 _symmetry_equiv_pos_site_id
 _symmetry_equiv_pos_as_xyz
  1  'x, y, z'
loop_
 _atom_site_type_symbol
 _atom_site_label
 _atom_site_symmetry_multiplicity
 _atom_site_fract_x
 _atom_site_fract_y
 _atom_site_fract_z
 _atom_site_occupancy
  K  K0  1  0.75000000  0.85916864  0.58988645  1
  K  K1  1  0.25000000  0.14083136  0.41011355  1
  K  K2  1  0.75000000  0.29787291  0.91583510  1
  K  K3  1  0.25000000  0.70212709  0.08416490  1
  K  K4  1  0.75000000  0.00570129  0.19591301  1
  K  K5  1  0.25000000  0.99429871  0.80408699  1
  Ce  Ce6  1  0.75000000  0.51022258  0.28748262  1
  Ce  Ce7  1  0.25000000  0.48977742  0.71251738  1
  As  As8  1  0.75000000  0.30750427  0.57276404  1
  As  As9  1  0.25000000  0.69249573  0.42723596  1
  As  As10  1  0.75000000  0.73838773  0.91376391  1
  As  As11  1  0.25000000  0.26161227  0.08623609  1
  O  O12  1  0.75000000  0.68177981  0.07878708  1
  O  O13  1  0.25000000  0.31822019  0.92121292  1
  O  O14  1  0.98594927  0.25008827  0.66169206  1
  O  O15  1  0.01405073  0.74991173  0.33830794  1
  O  O16  1  0.48594927  0.74991173  0.33830794  1
  O  O17  1  0.51405073  0.25008827  0.66169206  1
  O  O18  1  0.75000000  0.20904152  0.41648067  1
  O  O19  1  0.25000000  0.79095848  0.58351933  1
  O  O20  1  0.75000000  0.95644685  0.89625861  1
  O  O21  1  0.25000000  0.04355315  0.10374139  1
  O  O22  1  0.98682166  0.65211763  0.83782016  1
  O  O23  1  0.01317834  0.34788237  0.16217984  1
  O  O24  1  0.48682166  0.34788237  0.16217984  1
  O  O25  1  0.51317834  0.65211763  0.83782016  1
  O  O26  1  0.75000000  0.52490786  0.54355566  1
  O  O27  1  0.25000000  0.47509214  0.45644434  1
