# generated using pymatgen
data_K2SmNb5O15
_symmetry_space_group_name_H-M   'P 1'
_cell_length_a   3.96380660
_cell_length_b   12.77141348
_cell_length_c   12.77141348
_cell_angle_alpha   90.00000000
_cell_angle_beta   90.00000000
_cell_angle_gamma   90.00000000
_symmetry_Int_Tables_number   1
_chemical_formula_structural   K2SmNb5O15
_chemical_formula_sum   'K4 Sm2 Nb10 O30'
_cell_volume   646.53253975
_cell_formula_units_Z   2
loop_
 _symmetry_equiv_pos_site_id
 _symmetry_equiv_pos_as_xyz
  1  'x, y, z'
loop_
 _atom_site_type_symbol
 _atom_site_label
 _atom_site_symmetry_multiplicity
 _atom_site_fract_x
 _atom_site_fract_y
 _atom_site_fract_z
 _atom_site_occupancy
  K  K0  1  0.50000000  0.16989966  0.66989966  1
  K  K1  1  0.50000000  0.83010034  0.33010034  1
  K  K2  1  0.50000000  0.33010034  0.16989966  1
  K  K3  1  0.50000000  0.66989966  0.83010034  1
  Sm  Sm4  1  0.50000000  -0.00000000  0.00000000  1
  Sm  Sm5  1  0.50000000  0.50000000  0.50000000  1
  Nb  Nb6  1  -0.00000000  0.00000000  0.50000000  1
  Nb  Nb7  1  -0.00000000  0.50000000  0.00000000  1
  Nb  Nb8  1  0.00000000  0.07652215  0.21285343  1
  Nb  Nb9  1  -0.00000000  0.92347785  0.78714657  1
  Nb  Nb10  1  -0.00000000  0.78714657  0.07652215  1
  Nb  Nb11  1  -0.00000000  0.42347785  0.71285343  1
  Nb  Nb12  1  0.00000000  0.21285343  0.92347785  1
  Nb  Nb13  1  0.00000000  0.57652215  0.28714657  1
  Nb  Nb14  1  0.00000000  0.71285343  0.57652215  1
  Nb  Nb15  1  -0.00000000  0.28714657  0.42347785  1
  O  O16  1  0.50000000  0.07879983  0.18821982  1
  O  O17  1  0.50000000  0.92120017  0.81178018  1
  O  O18  1  0.50000000  0.81178018  0.07879983  1
  O  O19  1  0.50000000  0.42120017  0.68821982  1
  O  O20  1  0.50000000  0.18821982  0.92120017  1
  O  O21  1  0.50000000  0.57879983  0.31178018  1
  O  O22  1  0.50000000  0.68821982  0.57879983  1
  O  O23  1  0.50000000  0.31178018  0.42120017  1
  O  O24  1  -0.00000000  0.71803705  0.21803705  1
  O  O25  1  0.00000000  0.28196295  0.78196295  1
  O  O26  1  0.00000000  0.78196295  0.71803705  1
  O  O27  1  -0.00000000  0.21803705  0.28196295  1
  O  O28  1  0.50000000  -0.00000000  0.50000000  1
  O  O29  1  0.50000000  0.50000000  0.00000000  1
  O  O30  1  0.00000000  0.13079081  0.05782215  1
  O  O31  1  -0.00000000  0.86920919  0.94217785  1
  O  O32  1  -0.00000000  0.94217785  0.13079081  1
  O  O33  1  -0.00000000  0.36920919  0.55782215  1
  O  O34  1  0.00000000  0.05782215  0.86920919  1
  O  O35  1  0.00000000  0.63079081  0.44217785  1
  O  O36  1  0.00000000  0.55782215  0.63079081  1
  O  O37  1  -0.00000000  0.44217785  0.36920919  1
  O  O38  1  0.00000000  0.99901403  0.34207186  1
  O  O39  1  -0.00000000  0.00098597  0.65792814  1
  O  O40  1  0.00000000  0.65792814  0.99901403  1
  O  O41  1  -0.00000000  0.50098597  0.84207186  1
  O  O42  1  -0.00000000  0.34207186  0.00098597  1
  O  O43  1  0.00000000  0.49901403  0.15792814  1
  O  O44  1  -0.00000000  0.84207186  0.49901403  1
  O  O45  1  0.00000000  0.15792814  0.50098597  1
