# generated using pymatgen
data_Er2Cu(GeO4)2
_symmetry_space_group_name_H-M   'P 1'
_cell_length_a   5.13339947
_cell_length_b   8.13033609
_cell_length_c   8.88274186
_cell_angle_alpha   116.92922688
_cell_angle_beta   106.34481208
_cell_angle_gamma   90.94355746
_symmetry_Int_Tables_number   1
_chemical_formula_structural   Er2Cu(GeO4)2
_chemical_formula_sum   'Er4 Cu2 Ge4 O16'
_cell_volume   312.65443468
_cell_formula_units_Z   2
loop_
 _symmetry_equiv_pos_site_id
 _symmetry_equiv_pos_as_xyz
  1  'x, y, z'
loop_
 _atom_site_type_symbol
 _atom_site_label
 _atom_site_symmetry_multiplicity
 _atom_site_fract_x
 _atom_site_fract_y
 _atom_site_fract_z
 _atom_site_occupancy
  Er  Er0  1  0.11321191  0.30111200  0.76005993  1
  Er  Er1  1  0.35315197  0.54105207  0.23994007  1
  Er  Er2  1  0.36604947  0.04448570  0.24109257  1
  Er  Er3  1  0.12495690  0.80339314  0.75890743  1
  Cu  Cu4  1  0.54733037  0.92492971  0.58554448  1
  Cu  Cu5  1  0.96178589  0.33938523  0.41445552  1
  Ge  Ge6  1  0.78773614  0.16230190  0.00000000  1
  Ge  Ge7  1  0.97095889  0.88862660  0.42116090  1
  Ge  Ge8  1  0.54979799  0.46746570  0.57883910  1
  Ge  Ge9  1  0.68762757  0.66655823  0.00000000  1
  O  O10  1  0.17335792  0.09699809  0.46912441  1
  O  O11  1  0.70423351  0.62787368  0.53087559  1
  O  O12  1  0.47847367  0.06259569  0.81218119  1
  O  O13  1  0.66629248  0.25041450  0.18781881  1
  O  O14  1  0.47785306  0.49076072  1.00000000  1
  O  O15  1  0.19562637  0.74393950  0.48241713  1
  O  O16  1  0.71320924  0.26152237  0.51758287  1
  O  O17  1  0.00501170  0.75726825  0.18414251  1
  O  O18  1  0.82086919  0.57312574  0.81585749  1
  O  O19  1  0.00125278  0.33839381  0.00000000  1
  O  O20  1  0.47816806  0.83730083  1.00000000  1
  O  O21  1  0.59490168  0.83865952  0.33819571  1
  O  O22  1  0.25670598  0.50046381  0.66180429  1
  O  O23  1  0.01058851  0.99537301  0.00000000  1
  O  O24  1  0.93470381  0.00487952  0.65935885  1
  O  O25  1  0.27534496  0.34552067  0.34064115  1
