# generated using pymatgen
data_Dy2NiRuO6
_symmetry_space_group_name_H-M   'P 1'
_cell_length_a   5.29566900
_cell_length_b   5.75981805
_cell_length_c   7.57275110
_cell_angle_alpha   90.03733440
_cell_angle_beta   89.98610544
_cell_angle_gamma   89.98441193
_symmetry_Int_Tables_number   1
_chemical_formula_structural   Dy2NiRuO6
_chemical_formula_sum   'Dy4 Ni2 Ru2 O12'
_cell_volume   230.98467033
_cell_formula_units_Z   2
loop_
 _symmetry_equiv_pos_site_id
 _symmetry_equiv_pos_as_xyz
  1  'x, y, z'
loop_
 _atom_site_type_symbol
 _atom_site_label
 _atom_site_symmetry_multiplicity
 _atom_site_fract_x
 _atom_site_fract_y
 _atom_site_fract_z
 _atom_site_occupancy
  Dy  Dy0  1  0.02724506  0.42185583  0.25225982  1
  Dy  Dy1  1  0.97275494  0.57814417  0.74774018  1
  Dy  Dy2  1  0.47270534  0.92191177  0.24752335  1
  Dy  Dy3  1  0.52729466  0.07808823  0.75247665  1
  Ni  Ni4  1  0.00000000  0.00000000  0.50000000  1
  Ni  Ni5  1  0.50000000  0.50000000  0.00000000  1
  Ru  Ru6  1  0.00000000  0.00000000  0.00000000  1
  Ru  Ru7  1  0.50000000  0.50000000  0.50000000  1
  O  O8  1  0.87575110  0.04483387  0.24580101  1
  O  O9  1  0.12424890  0.95516613  0.75419899  1
  O  O10  1  0.62424136  0.54482652  0.25428692  1
  O  O11  1  0.37575864  0.45517348  0.74571308  1
  O  O12  1  0.18247182  0.69674909  0.06453343  1
  O  O13  1  0.81752818  0.30325091  0.93546657  1
  O  O14  1  0.31752469  0.19687101  0.43534107  1
  O  O15  1  0.68247531  0.80312899  0.56465893  1
  O  O16  1  0.31331945  0.18965718  0.05640052  1
  O  O17  1  0.68668055  0.81034282  0.94359948  1
  O  O18  1  0.18679269  0.68955192  0.44354632  1
  O  O19  1  0.81320731  0.31044808  0.55645368  1
