# generated using pymatgen
data_ZnFe2Cu6(SnS4)3
_symmetry_space_group_name_H-M   'P 1'
_cell_length_a   5.42192189
_cell_length_b   5.42192189
_cell_length_c   16.80387842
_cell_angle_alpha   80.71592602
_cell_angle_beta   80.71592602
_cell_angle_gamma   90.00000000
_symmetry_Int_Tables_number   1
_chemical_formula_structural   ZnFe2Cu6(SnS4)3
_chemical_formula_sum   'Zn1 Fe2 Cu6 Sn3 S12'
_cell_volume   480.95865808
_cell_formula_units_Z   1
loop_
 _symmetry_equiv_pos_site_id
 _symmetry_equiv_pos_as_xyz
  1  'x, y, z'
loop_
 _atom_site_type_symbol
 _atom_site_label
 _atom_site_symmetry_multiplicity
 _atom_site_fract_x
 _atom_site_fract_y
 _atom_site_fract_z
 _atom_site_occupancy
  Zn  Zn0  1  0.08333300  0.58333300  0.83333300  1
  Fe  Fe1  1  0.41662385  0.91662385  0.16675330  1
  Fe  Fe2  1  0.75004315  0.25004315  0.49991370  1
  Cu  Cu3  1  0.91666997  0.41666997  0.16666107  1
  Cu  Cu4  1  0.24999703  0.74999703  0.50000593  1
  Cu  Cu5  1  0.58333300  0.08333300  0.83333300  1
  Cu  Cu6  1  0.99990712  0.99990712  0.00018575  1
  Cu  Cu7  1  0.33333300  0.33333300  0.33333300  1
  Cu  Cu8  1  0.66675988  0.66675988  0.66648125  1
  Sn  Sn9  1  0.49987492  0.49987492  0.00025016  1
  Sn  Sn10  1  0.83333300  0.83333300  0.33333300  1
  Sn  Sn11  1  0.16679208  0.16679208  0.66641684  1
  S  S12  1  0.19473846  0.72101994  0.08814327  1
  S  S13  1  0.52633628  0.05512307  0.42175914  1
  S  S14  1  0.85575984  0.38327598  0.75307158  1
  S  S15  1  0.71711727  0.19083578  0.08814327  1
  S  S16  1  0.05190558  0.52311879  0.42175914  1
  S  S17  1  0.39116858  0.86365245  0.75307158  1
  S  S18  1  0.61154393  0.61476142  0.24490786  1
  S  S19  1  0.94564606  0.94954873  0.57852273  1
  S  S20  1  0.28339102  0.27549842  0.91359542  1
  S  S21  1  0.14354821  0.14033072  0.24490786  1
  S  S22  1  0.47583022  0.47192754  0.57852273  1
  S  S23  1  0.80301455  0.81090716  0.91359542  1
