# generated using pymatgen
data_MnGeN2
_symmetry_space_group_name_H-M   'P 1'
_cell_length_a   5.31697680
_cell_length_b   5.55986711
_cell_length_c   6.69949362
_cell_angle_alpha   90.00000000
_cell_angle_beta   90.00000000
_cell_angle_gamma   90.00000000
_symmetry_Int_Tables_number   1
_chemical_formula_structural   MnGeN2
_chemical_formula_sum   'Mn4 Ge4 N8'
_cell_volume   198.04831627
_cell_formula_units_Z   4
loop_
 _symmetry_equiv_pos_site_id
 _symmetry_equiv_pos_as_xyz
  1  'x, y, z'
loop_
 _atom_site_type_symbol
 _atom_site_label
 _atom_site_symmetry_multiplicity
 _atom_site_fract_x
 _atom_site_fract_y
 _atom_site_fract_z
 _atom_site_occupancy
  N  N0  1  0.39864854  0.60277935  0.85433898  1
  N  N1  1  0.89864854  0.39722065  0.14566102  1
  N  N2  1  0.89864854  0.89722065  0.35433898  1
  N  N3  1  0.39864854  0.10277935  0.64566102  1
  N  N4  1  0.35548971  0.56037626  0.39448486  1
  N  N5  1  0.35548971  0.06037626  0.10551514  1
  N  N6  1  0.85548971  0.93962374  0.89448486  1
  N  N7  1  0.85548971  0.43962374  0.60551514  1
  Mn  Mn8  1  0.99800144  0.58142317  0.87596236  1
  Mn  Mn9  1  0.49800144  0.91857683  0.37596236  1
  Mn  Mn10  1  0.49800144  0.41857683  0.12403764  1
  Mn  Mn11  1  0.99800144  0.08142317  0.62403764  1
  Ge  Ge12  1  0.00086032  0.07202173  0.12538019  1
  Ge  Ge13  1  0.50086032  0.92797827  0.87461981  1
  Ge  Ge14  1  0.50086032  0.42797827  0.62538019  1
  Ge  Ge15  1  0.00086032  0.57202173  0.37461981  1
