# generated using pymatgen
data_Zr3Ti2(PbO3)5
_symmetry_space_group_name_H-M   'P 1'
_cell_length_a   5.84187640
_cell_length_b   7.30095286
_cell_length_c   9.20212850
_cell_angle_alpha   104.75363948
_cell_angle_beta   108.50695664
_cell_angle_gamma   89.99999275
_symmetry_Int_Tables_number   1
_chemical_formula_structural   Zr3Ti2(PbO3)5
_chemical_formula_sum   'Zr3 Ti2 Pb5 O15'
_cell_volume   358.51313708
_cell_formula_units_Z   1
loop_
 _symmetry_equiv_pos_site_id
 _symmetry_equiv_pos_as_xyz
  1  'x, y, z'
loop_
 _atom_site_type_symbol
 _atom_site_label
 _atom_site_symmetry_multiplicity
 _atom_site_fract_x
 _atom_site_fract_y
 _atom_site_fract_z
 _atom_site_occupancy
  Zr  Zr0  1  0.99863508  0.02783667  0.99727017  1
  Zr  Zr1  1  0.59867686  0.42838815  0.19735371  1
  Zr  Zr2  1  0.20125719  0.83026928  0.40251438  1
  Ti  Ti3  1  0.80189658  0.23867081  0.60379316  1
  Ti  Ti4  1  0.40261369  0.63783486  0.80522739  1
  Pb  Pb5  1  0.79941675  0.77972769  0.59883349  1
  Pb  Pb6  1  0.39371414  0.17720472  0.78742827  1
  Pb  Pb7  1  0.99348478  0.56288957  0.98696957  1
  Pb  Pb8  1  0.60747317  0.97820134  0.21494634  1
  Pb  Pb9  1  0.20837857  0.37475956  0.41675715  1
  O  O10  1  0.19531422  0.78551298  0.89325133  1
  O  O11  1  0.79059020  0.19476582  0.10557478  1
  O  O12  1  0.39679388  0.59855748  0.31176938  1
  O  O13  1  0.99011068  0.00743635  0.50626706  1
  O  O14  1  0.59866098  0.39386726  0.69751112  1
  O  O15  1  0.69793711  0.78551298  0.89325133  1
  O  O16  1  0.31498458  0.19476582  0.10557478  1
  O  O17  1  0.91497550  0.59855748  0.31176938  1
  O  O18  1  0.51615638  0.00743635  0.50626706  1
  O  O19  1  0.09885014  0.39386726  0.69751112  1
  O  O20  1  0.09231666  0.88415624  0.18463332  1
  O  O21  1  0.70082519  0.28968388  0.40165037  1
  O  O22  1  0.30203654  0.68840923  0.60407308  1
  O  O23  1  0.89369573  0.10191704  0.78739145  1
  O  O24  1  0.49120539  0.49677115  0.98241079  1
