# generated using pymatgen
data_Zr3Ti(PbO3)4
_symmetry_space_group_name_H-M   'P 1'
_cell_length_a   5.86739224
_cell_length_b   5.93340970
_cell_length_c   10.17431413
_cell_angle_alpha   106.61679178
_cell_angle_beta   90.01994221
_cell_angle_gamma   119.63860665
_symmetry_Int_Tables_number   1
_chemical_formula_structural   Zr3Ti(PbO3)4
_chemical_formula_sum   'Zr3 Ti1 Pb4 O12'
_cell_volume   290.69964936
_cell_formula_units_Z   1
loop_
 _symmetry_equiv_pos_site_id
 _symmetry_equiv_pos_as_xyz
  1  'x, y, z'
loop_
 _atom_site_type_symbol
 _atom_site_label
 _atom_site_symmetry_multiplicity
 _atom_site_fract_x
 _atom_site_fract_y
 _atom_site_fract_z
 _atom_site_occupancy
  Zr  Zr0  1  0.35050595  0.70112506  0.11366235  1
  Zr  Zr1  1  0.85470069  0.70829067  0.62207989  1
  Zr  Zr2  1  0.10364734  0.20709809  0.36819304  1
  Ti  Ti3  1  0.60021773  0.20000217  0.86652469  1
  Pb  Pb4  1  0.19761088  0.39638460  0.73985086  1
  Pb  Pb5  1  0.69500750  0.38892536  0.22333049  1
  Pb  Pb6  1  0.44834023  0.89405342  0.48508511  1
  Pb  Pb7  1  0.93956310  0.88154818  0.97924149  1
  O  O8  1  0.76758383  0.01460316  0.76870648  1
  O  O9  1  0.27958512  0.00402206  0.25854154  1
  O  O10  1  0.47657813  0.50847881  0.51558159  1
  O  O11  1  0.96819553  0.49583995  0.00696869  1
  O  O12  1  0.97332440  0.00801292  0.51272742  1
  O  O13  1  0.47945173  0.01243574  0.99790228  1
  O  O14  1  0.49882618  0.49566189  0.97814941  1
  O  O15  1  0.99942786  0.50851381  0.48365150  1
  O  O16  1  0.27237688  0.01392408  0.74156496  1
  O  O17  1  0.75599436  0.00487193  0.22824898  1
  O  O18  1  0.77738826  0.49701217  0.76037152  1
  O  O19  1  0.28507429  0.50599593  0.25741771  1
