# generated using pymatgen
data_ZrTi(PbO3)2
_symmetry_space_group_name_H-M   'P 1'
_cell_length_a   5.79700726
_cell_length_b   5.79700785
_cell_length_c   5.86624175
_cell_angle_alpha   60.38964794
_cell_angle_beta   89.99999336
_cell_angle_gamma   59.99999658
_symmetry_Int_Tables_number   1
_chemical_formula_structural   ZrTi(PbO3)2
_chemical_formula_sum   'Zr1 Ti1 Pb2 O6'
_cell_volume   140.21211230
_cell_formula_units_Z   1
loop_
 _symmetry_equiv_pos_site_id
 _symmetry_equiv_pos_as_xyz
  1  'x, y, z'
loop_
 _atom_site_type_symbol
 _atom_site_label
 _atom_site_symmetry_multiplicity
 _atom_site_fract_x
 _atom_site_fract_y
 _atom_site_fract_z
 _atom_site_occupancy
  Zr  Zr0  1  0.01289855  0.97420289  0.03869566  1
  Ti  Ti1  1  0.51323946  0.97352107  0.53971839  1
  Pb  Pb2  1  0.78103359  0.43793282  0.34310077  1
  Pb  Pb3  1  0.28401373  0.43197254  0.85204120  1
  O  O4  1  0.24444710  0.01276078  0.73003133  1
  O  O5  1  0.72894646  0.01224510  0.24656333  1
  O  O6  1  0.74279211  0.01276078  0.73003133  1
  O  O7  1  0.25880843  0.01224510  0.24656333  1
  O  O8  1  0.74279211  0.51441577  0.73003133  1
  O  O9  1  0.25880843  0.48238314  0.24656333  1
