# generated using pymatgen
data_ZrMn6(GaSn2)2
_symmetry_space_group_name_H-M   'P 1'
_cell_length_a   5.35956942
_cell_length_b   5.35975032
_cell_length_c   8.78127019
_cell_angle_alpha   90.00000000
_cell_angle_beta   90.00000000
_cell_angle_gamma   60.00111772
_symmetry_Int_Tables_number   1
_chemical_formula_structural   ZrMn6(GaSn2)2
_chemical_formula_sum   'Zr1 Mn6 Ga2 Sn4'
_cell_volume   218.45768273
_cell_formula_units_Z   1
loop_
 _symmetry_equiv_pos_site_id
 _symmetry_equiv_pos_as_xyz
  1  'x, y, z'
loop_
 _atom_site_type_symbol
 _atom_site_label
 _atom_site_symmetry_multiplicity
 _atom_site_fract_x
 _atom_site_fract_y
 _atom_site_fract_z
 _atom_site_occupancy
  Zr  Zr0  1  -0.00000455  1.00000000  0.50000000  1
  Mn  Mn1  1  0.49997441  0.00000000  0.24484877  1
  Mn  Mn2  1  0.00000124  0.50004283  0.24476036  1
  Mn  Mn3  1  0.50004407  0.49995717  0.24476036  1
  Mn  Mn4  1  0.49997441  0.00000000  0.75515123  1
  Mn  Mn5  1  0.00000124  0.50004283  0.75523964  1
  Mn  Mn6  1  0.50004407  0.49995717  0.75523964  1
  Ga  Ga7  1  0.66657927  0.66671664  0.00000000  1
  Ga  Ga8  1  0.33329591  0.33328336  0.00000000  1
  Sn  Sn9  1  0.99993631  -0.00000000  0.16455493  1
  Sn  Sn10  1  0.99993631  -0.00000000  0.83544507  1
  Sn  Sn11  1  0.66674090  0.66653551  0.50000000  1
  Sn  Sn12  1  0.33327641  0.33346449  0.50000000  1
