# generated using pymatgen
data_ZnGaPSe
_symmetry_space_group_name_H-M   'P 1'
_cell_length_a   3.95991745
_cell_length_b   3.95991745
_cell_length_c   6.92062041
_cell_angle_alpha   73.37565382
_cell_angle_beta   90.00000000
_cell_angle_gamma   120.00000000
_symmetry_Int_Tables_number   1
_chemical_formula_structural   ZnGaPSe
_chemical_formula_sum   'Zn1 Ga1 P1 Se1'
_cell_volume   88.70621808
_cell_formula_units_Z   1
loop_
 _symmetry_equiv_pos_site_id
 _symmetry_equiv_pos_as_xyz
  1  'x, y, z'
loop_
 _atom_site_type_symbol
 _atom_site_label
 _atom_site_symmetry_multiplicity
 _atom_site_fract_x
 _atom_site_fract_y
 _atom_site_fract_z
 _atom_site_occupancy
  Zn  Zn0  1  0.99468053  0.98936106  0.01595841  1
  Ga  Ga1  1  0.50461214  0.00922427  0.48616359  1
  P  P2  1  0.87418764  0.74837528  0.37743708  1
  Se  Se3  1  0.37651969  0.75303939  0.87044092  1
