# generated using pymatgen
data_ZnCdSe2
_symmetry_space_group_name_H-M   'P 1'
_cell_length_a   4.22496868
_cell_length_b   4.22496868
_cell_length_c   6.92533411
_cell_angle_alpha   90.00009932
_cell_angle_beta   89.99990068
_cell_angle_gamma   119.99586468
_symmetry_Int_Tables_number   1
_chemical_formula_structural   ZnCdSe2
_chemical_formula_sum   'Zn1 Cd1 Se2'
_cell_volume   107.06226956
_cell_formula_units_Z   1
loop_
 _symmetry_equiv_pos_site_id
 _symmetry_equiv_pos_as_xyz
  1  'x, y, z'
loop_
 _atom_site_type_symbol
 _atom_site_label
 _atom_site_symmetry_multiplicity
 _atom_site_fract_x
 _atom_site_fract_y
 _atom_site_fract_z
 _atom_site_occupancy
  Zn  Zn0  1  0.66667773  0.33332227  0.00012570  1
  Cd  Cd1  1  0.33332847  0.66667153  0.49713758  1
  Se  Se2  1  0.33332420  0.66667580  0.10854031  1
  Se  Se3  1  0.66666960  0.33333040  0.64219640  1
