# generated using pymatgen
data_V6PbO15
_symmetry_space_group_name_H-M   'P 1'
_cell_length_a   3.73141646
_cell_length_b   8.05531218
_cell_length_c   10.39045452
_cell_angle_alpha   109.30308995
_cell_angle_beta   90.00000000
_cell_angle_gamma   76.60799523
_symmetry_Int_Tables_number   1
_chemical_formula_structural   V6PbO15
_chemical_formula_sum   'V6 Pb1 O15'
_cell_volume   285.74244002
_cell_formula_units_Z   1
loop_
 _symmetry_equiv_pos_site_id
 _symmetry_equiv_pos_as_xyz
  1  'x, y, z'
loop_
 _atom_site_type_symbol
 _atom_site_label
 _atom_site_symmetry_multiplicity
 _atom_site_fract_x
 _atom_site_fract_y
 _atom_site_fract_z
 _atom_site_occupancy
  V  V0  1  0.66566353  0.66867295  0.09817213  1
  V  V1  1  0.33212965  0.33574071  0.89860282  1
  V  V2  1  0.88432695  0.23134611  0.10964953  1
  V  V3  1  0.12173385  0.75653230  0.88724096  1
  V  V4  1  0.71590980  0.56818039  0.40723872  1
  V  V5  1  0.28135950  0.43728100  0.58766600  1
  Pb  Pb6  1  0.99947418  0.00105164  0.39866239  1
  O  O7  1  0.56253157  0.87493685  0.22478730  1
  O  O8  1  0.43215421  0.13569158  0.78507937  1
  O  O9  1  0.89215964  0.21568072  0.26656120  1
  O  O10  1  0.11800714  0.76398572  0.73128058  1
  O  O11  1  0.75387208  0.49225584  0.56975020  1
  O  O12  1  0.24173540  0.51652921  0.42416087  1
  O  O13  1  0.99870422  0.00259156  0.00016202  1
  O  O14  1  0.36503496  0.26993008  0.07532238  1
  O  O15  1  0.63104738  0.73790524  0.92702418  1
  O  O16  1  0.73924129  0.52151741  0.22449800  1
  O  O17  1  0.26193898  0.47612203  0.78714002  1
  O  O18  1  0.18419012  0.63161977  0.04494670  1
  O  O19  1  0.81367567  0.37264866  0.95668914  1
  O  O20  1  0.60404844  0.79190311  0.46789847  1
  O  O21  1  0.39665144  0.20669711  0.52139702  1
