# generated using pymatgen
data_Zr4Ti(PbO3)5
_symmetry_space_group_name_H-M   'P 1'
_cell_length_a   5.88360118
_cell_length_b   5.95084716
_cell_length_c   24.28171973
_cell_angle_alpha   96.61879095
_cell_angle_beta   89.98413652
_cell_angle_gamma   119.62203000
_symmetry_Int_Tables_number   1
_chemical_formula_structural   Zr4Ti(PbO3)5
_chemical_formula_sum   'Zr8 Ti2 Pb10 O30'
_cell_volume   732.53988024
_cell_formula_units_Z   2
loop_
 _symmetry_equiv_pos_site_id
 _symmetry_equiv_pos_as_xyz
  1  'x, y, z'
loop_
 _atom_site_type_symbol
 _atom_site_label
 _atom_site_symmetry_multiplicity
 _atom_site_fract_x
 _atom_site_fract_y
 _atom_site_fract_z
 _atom_site_occupancy
  Zr  Zr0  1  0.12031686  0.24024192  0.29988881  1
  Zr  Zr1  1  0.52023816  0.04043136  0.50207787  1
  Zr  Zr2  1  0.92085218  0.84118567  0.70364561  1
  Zr  Zr3  1  0.32309283  0.64566296  0.90588395  1
  Zr  Zr4  1  0.72201357  0.44414812  0.10304959  1
  Zr  Zr5  1  0.82016978  0.63957068  0.40110976  1
  Zr  Zr6  1  0.22033213  0.44056198  0.60290397  1
  Zr  Zr7  1  0.62039528  0.24142167  0.80448982  1
  Ti  Ti8  1  0.02365528  0.04853985  0.00446666  1
  Ti  Ti9  1  0.42461353  0.84748171  0.20230336  1
  Pb  Pb10  1  0.10546095  0.21110602  0.15612591  1
  Pb  Pb11  1  0.50153709  0.00051806  0.35497014  1
  Pb  Pb12  1  0.90158395  0.80303586  0.55742324  1
  Pb  Pb13  1  0.30218279  0.60424552  0.75871133  1
  Pb  Pb14  1  0.70565739  0.41395157  0.95983406  1
  Pb  Pb15  1  0.20095421  0.40267869  0.45690912  1
  Pb  Pb16  1  0.60167052  0.20328821  0.65794392  1
  Pb  Pb17  1  0.00294156  0.00317973  0.86159221  1
  Pb  Pb18  1  0.40092595  0.80158750  0.05730765  1
  Pb  Pb19  1  0.79920562  0.60009503  0.25294328  1
  O  O20  1  0.28099378  0.50611144  0.24473416  1
  O  O21  1  0.68369984  0.29820978  0.44516169  1
  O  O22  1  0.08457581  0.09791342  0.64646930  1
  O  O23  1  0.48104671  0.89653358  0.84818093  1
  O  O24  1  0.87851843  0.70284736  0.04729948  1
  O  O25  1  0.43597561  0.38423274  0.35556497  1
  O  O26  1  0.83732846  0.18587391  0.55804893  1
  O  O27  1  0.23925274  0.98636340  0.75902416  1
  O  O28  1  0.64983388  0.79521021  0.95956224  1
  O  O29  1  0.04508241  0.59150436  0.15683347  1
  O  O30  1  0.92156105  0.39678417  0.34256114  1
  O  O31  1  0.32000211  0.20033761  0.54382926  1
  O  O32  1  0.71946935  0.00096083  0.74510762  1
  O  O33  1  0.12342475  0.80655174  0.94825896  1
  O  O34  1  0.52453085  0.60189861  0.14612220  1
  O  O35  1  0.75447686  0.99138110  0.24161684  1
  O  O36  1  0.17886358  0.79944177  0.44326123  1
  O  O37  1  0.58096563  0.60076369  0.64437507  1
  O  O38  1  0.97866612  0.39994353  0.84766655  1
  O  O39  1  0.35421620  0.19076142  0.04489315  1
  O  O40  1  0.25715459  0.98189148  0.25200223  1
  O  O41  1  0.64878440  0.78555510  0.45708293  1
  O  O42  1  0.04822745  0.58618441  0.65860967  1
  O  O43  1  0.44535236  0.38639273  0.85995684  1
  O  O44  1  0.85458916  0.18168974  0.05432014  1
  O  O45  1  0.91758258  0.89685095  0.34354976  1
  O  O46  1  0.31348440  0.69788690  0.54587137  1
  O  O47  1  0.71402952  0.49784328  0.74729761  1
  O  O48  1  0.11758014  0.28653264  0.95219238  1
  O  O49  1  0.51875159  0.08425599  0.14922547  1
