# generated using pymatgen
data_Y2Ga3(Fe7C)2
_symmetry_space_group_name_H-M   'P 1'
_cell_length_a   6.57895678
_cell_length_b   6.60395773
_cell_length_c   6.57895678
_cell_angle_alpha   83.64889921
_cell_angle_beta   82.86064384
_cell_angle_gamma   83.64889921
_symmetry_Int_Tables_number   1
_chemical_formula_structural   Y2Ga3(Fe7C)2
_chemical_formula_sum   'Y2 Ga3 Fe14 C2'
_cell_volume   280.51680980
_cell_formula_units_Z   1
loop_
 _symmetry_equiv_pos_site_id
 _symmetry_equiv_pos_as_xyz
  1  'x, y, z'
loop_
 _atom_site_type_symbol
 _atom_site_label
 _atom_site_symmetry_multiplicity
 _atom_site_fract_x
 _atom_site_fract_y
 _atom_site_fract_z
 _atom_site_occupancy
  Y  Y0  1  0.65326908  0.66035375  0.65326908  1
  Y  Y1  1  0.34673092  0.33964625  0.34673092  1
  Ga  Ga2  1  0.00000000  0.50000000  -0.00000000  1
  Ga  Ga3  1  0.50000000  0.00000000  -0.00000000  1
  Ga  Ga4  1  0.00000000  0.00000000  0.50000000  1
  Fe  Fe5  1  0.90735592  0.90514516  0.90735592  1
  Fe  Fe6  1  0.09264408  0.09485484  0.09264408  1
  Fe  Fe7  1  0.34559364  0.84820298  0.34559364  1
  Fe  Fe8  1  0.84885864  0.34414822  0.34658341  1
  Fe  Fe9  1  0.34658341  0.34414822  0.84885864  1
  Fe  Fe10  1  0.65440636  0.15179702  0.65440636  1
  Fe  Fe11  1  0.15114136  0.65585178  0.65341659  1
  Fe  Fe12  1  0.65341659  0.65585178  0.15114136  1
  Fe  Fe13  1  0.70909520  -0.00000000  0.29090480  1
  Fe  Fe14  1  0.99992183  0.28592867  0.71394374  1
  Fe  Fe15  1  0.28605626  0.71407133  0.00007817  1
  Fe  Fe16  1  0.00007817  0.71407133  0.28605626  1
  Fe  Fe17  1  0.71394374  0.28592867  0.99992183  1
  Fe  Fe18  1  0.29090480  0.00000000  0.70909520  1
  C  C19  1  0.00000000  0.50000000  0.50000000  1
  C  C20  1  0.50000000  0.50000000  -0.00000000  1
