# generated using pymatgen
data_V3B100
_symmetry_space_group_name_H-M   'P 1'
_cell_length_a   4.98834059
_cell_length_b   8.86165399
_cell_length_c   17.73195308
_cell_angle_alpha   90.00000000
_cell_angle_beta   90.00000000
_cell_angle_gamma   90.00000000
_symmetry_Int_Tables_number   1
_chemical_formula_structural   V3B100
_chemical_formula_sum   'V3 B100'
_cell_volume   783.84006903
_cell_formula_units_Z   1
loop_
 _symmetry_equiv_pos_site_id
 _symmetry_equiv_pos_as_xyz
  1  'x, y, z'
loop_
 _atom_site_type_symbol
 _atom_site_label
 _atom_site_symmetry_multiplicity
 _atom_site_fract_x
 _atom_site_fract_y
 _atom_site_fract_z
 _atom_site_occupancy
  V  V0  1  0.50000000  0.50000000  0.25040540  1
  V  V1  1  0.50000000  0.50000000  0.74959460  1
  V  V2  1  0.00000000  0.00000000  -0.00000000  1
  B  B3  1  0.41278411  0.41487758  0.13209290  1
  B  B4  1  0.41542691  0.41522743  0.63333321  1
  B  B5  1  0.41542691  0.58477257  0.36666679  1
  B  B6  1  0.41278411  0.58512242  0.86790710  1
  B  B7  1  0.08906669  0.91973921  0.38505734  1
  B  B8  1  0.08655508  0.91458870  0.88236261  1
  B  B9  1  0.08655508  0.08541130  0.11763739  1
  B  B10  1  0.08906669  0.08026079  0.61494266  1
  B  B11  1  0.58721589  0.58512242  0.13209290  1
  B  B12  1  0.58457309  0.58477257  0.63333321  1
  B  B13  1  0.58457309  0.41522743  0.36666679  1
  B  B14  1  0.58721589  0.41487758  0.86790710  1
  B  B15  1  0.91093331  0.08026079  0.38505734  1
  B  B16  1  0.91344492  0.08541130  0.88236261  1
  B  B17  1  0.91344492  0.91458870  0.11763739  1
  B  B18  1  0.91093331  0.91973921  0.61494266  1
  B  B19  1  0.58843160  0.73518863  0.20708901  1
  B  B20  1  0.58317447  0.73399305  0.70797340  1
  B  B21  1  0.58317447  0.26600695  0.29202660  1
  B  B22  1  0.58843160  0.26481137  0.79291099  1
  B  B23  1  0.91046932  0.22982085  0.45980060  1
  B  B24  1  0.91338083  0.23517618  0.95733700  1
  B  B25  1  0.91338083  0.76482382  0.04266300  1
  B  B26  1  0.91046932  0.77017915  0.54019940  1
  B  B27  1  0.41156840  0.26481137  0.20708901  1
  B  B28  1  0.41682553  0.26600695  0.70797340  1
  B  B29  1  0.41682553  0.73399305  0.29202660  1
  B  B30  1  0.41156840  0.73518863  0.79291099  1
  B  B31  1  0.08953068  0.77017915  0.45980060  1
  B  B32  1  0.08661917  0.76482382  0.95733700  1
  B  B33  1  0.08661917  0.23517618  0.04266300  1
  B  B34  1  0.08953068  0.22982085  0.54019940  1
  B  B35  1  0.12437264  0.37373881  0.18657431  1
  B  B36  1  0.12792729  0.37307232  0.68674365  1
  B  B37  1  0.12792729  0.62692768  0.31325635  1
  B  B38  1  0.12437264  0.62626119  0.81342569  1
  B  B39  1  0.39090242  0.87052234  0.43495706  1
  B  B40  1  0.37465839  0.87354942  0.93680768  1
  B  B41  1  0.37465839  0.12645058  0.06319232  1
  B  B42  1  0.39090242  0.12947766  0.56504294  1
  B  B43  1  0.87562736  0.62626119  0.18657431  1
  B  B44  1  0.87207271  0.62692768  0.68674365  1
  B  B45  1  0.87207271  0.37307232  0.31325635  1
  B  B46  1  0.87562736  0.37373881  0.81342569  1
  B  B47  1  0.60909758  0.12947766  0.43495706  1
  B  B48  1  0.62534161  0.12645058  0.93680768  1
  B  B49  1  0.62534161  0.87354942  0.06319232  1
  B  B50  1  0.60909758  0.87052234  0.56504294  1
  B  B51  1  0.00000000  0.50000000  0.25026163  1
  B  B52  1  0.00000000  0.50000000  0.74973837  1
  B  B53  1  0.50000000  0.00000000  -0.00000000  1
  B  B54  1  0.50000000  -0.00000000  0.50000000  1
  B  B55  1  0.09442568  0.41587731  0.08663235  1
  B  B56  1  0.09729624  0.41393776  0.58666527  1
  B  B57  1  0.09729624  0.58606224  0.41333473  1
  B  B58  1  0.09442568  0.58412269  0.91336765  1
  B  B59  1  0.40608326  0.91484513  0.33581737  1
  B  B60  1  0.40503280  0.91589699  0.83688541  1
  B  B61  1  0.40503280  0.08410301  0.16311459  1
  B  B62  1  0.40608326  0.08515487  0.66418263  1
  B  B63  1  0.90557432  0.58412269  0.08663235  1
  B  B64  1  0.90270376  0.58606224  0.58666527  1
  B  B65  1  0.90270376  0.41393776  0.41333473  1
  B  B66  1  0.90557432  0.41587731  0.91336765  1
  B  B67  1  0.59391674  0.08515487  0.33581737  1
  B  B68  1  0.59496720  0.08410301  0.83688541  1
  B  B69  1  0.59496720  0.91589699  0.16311459  1
  B  B70  1  0.59391674  0.91484513  0.66418263  1
  B  B71  1  0.90808207  0.82572969  0.20820971  1
  B  B72  1  0.90072376  0.82747715  0.70690322  1
  B  B73  1  0.90072376  0.17252285  0.29309678  1
  B  B74  1  0.90808207  0.17427031  0.79179029  1
  B  B75  1  0.59450069  0.32838843  0.45724511  1
  B  B76  1  0.59461824  0.32620796  0.95803933  1
  B  B77  1  0.59461824  0.67379204  0.04196067  1
  B  B78  1  0.59450069  0.67161157  0.54275489  1
  B  B79  1  0.09191793  0.17427031  0.20820971  1
  B  B80  1  0.09927624  0.17252285  0.70690322  1
  B  B81  1  0.09927624  0.82747715  0.29309678  1
  B  B82  1  0.09191793  0.82572969  0.79179029  1
  B  B83  1  0.40549931  0.67161157  0.45724511  1
  B  B84  1  0.40538176  0.67379204  0.95803933  1
  B  B85  1  0.40538176  0.32620796  0.04196067  1
  B  B86  1  0.40549931  0.32838843  0.54275489  1
  B  B87  1  0.91738709  0.25718898  0.12844049  1
  B  B88  1  0.92639301  0.25436652  0.62724249  1
  B  B89  1  0.92639301  0.74563348  0.37275751  1
  B  B90  1  0.91738709  0.74281102  0.87155951  1
  B  B91  1  0.58499672  0.75741638  0.37869637  1
  B  B92  1  0.58186637  0.75703041  0.87856825  1
  B  B93  1  0.58186637  0.24296959  0.12143175  1
  B  B94  1  0.58499672  0.24258362  0.62130363  1
  B  B95  1  0.08261291  0.74281102  0.12844049  1
  B  B96  1  0.07360699  0.74563348  0.62724249  1
  B  B97  1  0.07360699  0.25436652  0.37275751  1
  B  B98  1  0.08261291  0.25718898  0.87155951  1
  B  B99  1  0.41500328  0.24258362  0.37869637  1
  B  B100  1  0.41813363  0.24296959  0.87856825  1
  B  B101  1  0.41813363  0.75703041  0.12143175  1
  B  B102  1  0.41500328  0.75741638  0.62130363  1
