# generated using pymatgen
data_Y4ZrSi3
_symmetry_space_group_name_H-M   'P 1'
_cell_length_a   6.20049192
_cell_length_b   8.36834819
_cell_length_c   8.36973898
_cell_angle_alpha   119.99449984
_cell_angle_beta   89.99909526
_cell_angle_gamma   90.00180978
_symmetry_Int_Tables_number   1
_chemical_formula_structural   Y4ZrSi3
_chemical_formula_sum   'Y8 Zr2 Si6'
_cell_volume   376.12525980
_cell_formula_units_Z   2
loop_
 _symmetry_equiv_pos_site_id
 _symmetry_equiv_pos_as_xyz
  1  'x, y, z'
loop_
 _atom_site_type_symbol
 _atom_site_label
 _atom_site_symmetry_multiplicity
 _atom_site_fract_x
 _atom_site_fract_y
 _atom_site_fract_z
 _atom_site_occupancy
  Y  Y0  1  0.99999493  0.66665159  0.33330736  1
  Y  Y1  1  0.99999493  0.33334422  0.66669264  1
  Y  Y2  1  0.74295753  0.24585474  0.00000000  1
  Y  Y3  1  0.74295114  0.75415784  0.75400602  1
  Y  Y4  1  0.74295114  0.00015182  0.24599398  1
  Y  Y5  1  0.25704555  0.75414953  1.00000000  1
  Y  Y6  1  0.25705252  0.24584048  0.24599192  1
  Y  Y7  1  0.25705252  0.99984855  0.75400808  1
  Zr  Zr8  1  0.50000272  0.33338173  0.66676126  1
  Zr  Zr9  1  0.50000272  0.66662046  0.33323874  1
  Si  Si10  1  0.72407986  0.60184513  0.00000000  1
  Si  Si11  1  0.72417150  0.39811499  0.39814613  1
  Si  Si12  1  0.72417150  0.99996886  0.60185387  1
  Si  Si13  1  0.27591725  0.39815396  1.00000000  1
  Si  Si14  1  0.27582710  0.60188306  0.60185003  1
  Si  Si15  1  0.27582710  0.00003303  0.39814997  1
