# generated using pymatgen
data_UMn5Al7
_symmetry_space_group_name_H-M   'P 1'
_cell_length_a   4.95155362
_cell_length_b   6.66139872
_cell_length_c   6.66139872
_cell_angle_alpha   98.34318930
_cell_angle_beta   111.81804758
_cell_angle_gamma   68.18195242
_symmetry_Int_Tables_number   1
_chemical_formula_structural   UMn5Al7
_chemical_formula_sum   'U1 Mn5 Al7'
_cell_volume   189.36478419
_cell_formula_units_Z   1
loop_
 _symmetry_equiv_pos_site_id
 _symmetry_equiv_pos_as_xyz
  1  'x, y, z'
loop_
 _atom_site_type_symbol
 _atom_site_label
 _atom_site_symmetry_multiplicity
 _atom_site_fract_x
 _atom_site_fract_y
 _atom_site_fract_z
 _atom_site_occupancy
  U  U0  1  0.00000000  0.01138706  0.01138706  1
  Mn  Mn1  1  0.48500732  0.99801905  0.49616604  1
  Mn  Mn2  1  0.01313967  0.99801905  0.49616604  1
  Mn  Mn3  1  0.51499268  0.49616604  0.99801905  1
  Mn  Mn4  1  0.98686033  0.49616604  0.99801905  1
  Mn  Mn5  1  0.50000000  0.22534018  0.22534018  1
  Al  Al6  1  -0.00000000  0.66218968  0.66218968  1
  Al  Al7  1  -0.00000000  0.34827734  0.34827734  1
  Al  Al8  1  0.65554148  0.33263636  0.64371931  1
  Al  Al9  1  0.34445852  0.64371931  0.33263636  1
  Al  Al10  1  0.50000000  0.77737441  0.77737441  1
  Al  Al11  1  0.71086545  0.79448729  0.21621819  1
  Al  Al12  1  0.28913455  0.21621819  0.79448729  1
