# generated using pymatgen
data_V8Cd3CuO24
_symmetry_space_group_name_H-M   'P 1'
_cell_length_a   3.61031821
_cell_length_b   17.65721920
_cell_length_c   6.92573606
_cell_angle_alpha   90.32949095
_cell_angle_beta   90.00000000
_cell_angle_gamma   90.00000000
_symmetry_Int_Tables_number   1
_chemical_formula_structural   V8Cd3CuO24
_chemical_formula_sum   'V8 Cd3 Cu1 O24'
_cell_volume   441.49576851
_cell_formula_units_Z   1
loop_
 _symmetry_equiv_pos_site_id
 _symmetry_equiv_pos_as_xyz
  1  'x, y, z'
loop_
 _atom_site_type_symbol
 _atom_site_label
 _atom_site_symmetry_multiplicity
 _atom_site_fract_x
 _atom_site_fract_y
 _atom_site_fract_z
 _atom_site_occupancy
  V  V0  1  0.00000000  0.09236316  0.55371864  1
  V  V1  1  0.50000000  0.34291026  0.29555112  1
  V  V2  1  -0.00000000  0.59317514  0.04418469  1
  V  V3  1  0.50000000  0.84771227  0.79724743  1
  V  V4  1  0.50000000  0.15228773  0.20275257  1
  V  V5  1  0.00000000  0.40682486  0.95581531  1
  V  V6  1  0.50000000  0.65708974  0.70444888  1
  V  V7  1  0.00000000  0.90763684  0.44628136  1
  Cd  Cd8  1  0.50000000  0.25120032  0.75164018  1
  Cd  Cd9  1  0.00000000  0.50000000  0.50000000  1
  Cd  Cd10  1  0.50000000  0.74879968  0.24835982  1
  Cu  Cu11  1  -0.00000000  -0.00000000  0.00000000  1
  O  O12  1  0.00000000  0.14982549  0.28506703  1
  O  O13  1  0.50000000  0.40186246  0.03285660  1
  O  O14  1  0.00000000  0.65233950  0.78336898  1
  O  O15  1  0.50000000  0.90491518  0.52868527  1
  O  O16  1  0.50000000  0.09508482  0.47131473  1
  O  O17  1  -0.00000000  0.34766050  0.21663102  1
  O  O18  1  0.50000000  0.59813754  0.96714340  1
  O  O19  1  0.00000000  0.85017451  0.71493297  1
  O  O20  1  0.00000000  0.01582563  0.70926779  1
  O  O21  1  0.50000000  0.26395746  0.43512368  1
  O  O22  1  -0.00000000  0.51347688  0.18299433  1
  O  O23  1  0.50000000  0.76689599  0.93408857  1
  O  O24  1  0.50000000  0.23310401  0.06591143  1
  O  O25  1  0.00000000  0.48652312  0.81700567  1
  O  O26  1  0.50000000  0.73604254  0.56487632  1
  O  O27  1  0.00000000  0.98417437  0.29073221  1
  O  O28  1  -0.00000000  0.16734839  0.70679922  1
  O  O29  1  0.50000000  0.41678741  0.45599230  1
  O  O30  1  -0.00000000  0.66654694  0.20615663  1
  O  O31  1  0.50000000  0.92188977  0.95605143  1
  O  O32  1  0.50000000  0.07811023  0.04394857  1
  O  O33  1  -0.00000000  0.33345306  0.79384337  1
  O  O34  1  0.50000000  0.58321259  0.54400770  1
  O  O35  1  -0.00000000  0.83265161  0.29320078  1
