# generated using pymatgen
data_Tm4MgS7
_symmetry_space_group_name_H-M   'P 1'
_cell_length_a   3.75878468
_cell_length_b   6.51634383
_cell_length_c   11.38441874
_cell_angle_alpha   104.16273872
_cell_angle_beta   90.00000000
_cell_angle_gamma   73.23708159
_symmetry_Int_Tables_number   1
_chemical_formula_structural   Tm4MgS7
_chemical_formula_sum   'Tm4 Mg1 S7'
_cell_volume   258.13117677
_cell_formula_units_Z   1
loop_
 _symmetry_equiv_pos_site_id
 _symmetry_equiv_pos_as_xyz
  1  'x, y, z'
loop_
 _atom_site_type_symbol
 _atom_site_label
 _atom_site_symmetry_multiplicity
 _atom_site_fract_x
 _atom_site_fract_y
 _atom_site_fract_z
 _atom_site_occupancy
  Tm  Tm0  1  0.69324113  0.61351773  0.20287400  1
  Tm  Tm1  1  0.30623374  0.38753252  0.80280593  1
  Tm  Tm2  1  -0.00011395  0.00022791  0.00458124  1
  Tm  Tm3  1  0.11371899  0.77256201  0.56889445  1
  Mg  Mg4  1  0.88564316  0.22871368  0.42126939  1
  S  S5  1  0.74277784  0.51444431  0.64189895  1
  S  S6  1  0.26509508  0.46980985  0.35265732  1
  S  S7  1  0.33940315  0.32119371  0.05039900  1
  S  S8  1  0.65959050  0.68081900  0.94869169  1
  S  S9  1  0.03658151  0.92683697  0.22211792  1
  S  S10  1  0.96208234  0.07583533  0.78487614  1
  S  S11  1  0.49574651  0.00850698  0.49893398  1
