# generated using pymatgen
data_TiNbHO5
_symmetry_space_group_name_H-M   'P 1'
_cell_length_a   3.81773764
_cell_length_b   6.58120074
_cell_length_c   16.93368445
_cell_angle_alpha   90.00000000
_cell_angle_beta   90.00000000
_cell_angle_gamma   90.00000000
_symmetry_Int_Tables_number   1
_chemical_formula_structural   TiNbHO5
_chemical_formula_sum   'Ti4 Nb4 H4 O20'
_cell_volume   425.46386434
_cell_formula_units_Z   4
loop_
 _symmetry_equiv_pos_site_id
 _symmetry_equiv_pos_as_xyz
  1  'x, y, z'
loop_
 _atom_site_type_symbol
 _atom_site_label
 _atom_site_symmetry_multiplicity
 _atom_site_fract_x
 _atom_site_fract_y
 _atom_site_fract_z
 _atom_site_occupancy
  Ti  Ti0  1  0.75000000  0.18211754  0.53396387  1
  Ti  Ti1  1  0.75000000  0.68211754  0.96603613  1
  Ti  Ti2  1  0.25000000  0.81788246  0.46603613  1
  Ti  Ti3  1  0.25000000  0.31788246  0.03396387  1
  Nb  Nb4  1  0.75000000  0.70921759  0.62243499  1
  Nb  Nb5  1  0.75000000  0.20921759  0.87756501  1
  Nb  Nb6  1  0.25000000  0.29078241  0.37756501  1
  Nb  Nb7  1  0.25000000  0.79078241  0.12243499  1
  H  H8  1  0.75000000  0.09605829  0.68758435  1
  H  H9  1  0.75000000  0.59605829  0.81241565  1
  H  H10  1  0.25000000  0.90394171  0.31241565  1
  H  H11  1  0.25000000  0.40394171  0.18758435  1
  O  O12  1  0.75000000  0.03012021  0.63273351  1
  O  O13  1  0.75000000  0.53012021  0.86726649  1
  O  O14  1  0.25000000  0.96987979  0.36726649  1
  O  O15  1  0.25000000  0.46987979  0.13273351  1
  O  O16  1  0.75000000  0.42820628  0.57675032  1
  O  O17  1  0.75000000  0.92820628  0.92324968  1
  O  O18  1  0.25000000  0.57179372  0.42324968  1
  O  O19  1  0.25000000  0.07179372  0.07675032  1
  O  O20  1  0.75000000  0.86038850  0.49229326  1
  O  O21  1  0.75000000  0.36038850  0.00770674  1
  O  O22  1  0.25000000  0.13961150  0.50770674  1
  O  O23  1  0.25000000  0.63961150  0.99229326  1
  O  O24  1  0.75000000  0.66525170  0.72516005  1
  O  O25  1  0.75000000  0.16525170  0.77483995  1
  O  O26  1  0.25000000  0.33474830  0.27483995  1
  O  O27  1  0.25000000  0.83474830  0.22516005  1
  O  O28  1  0.75000000  0.26478682  0.41328423  1
  O  O29  1  0.75000000  0.76478682  0.08671577  1
  O  O30  1  0.25000000  0.73521318  0.58671577  1
  O  O31  1  0.25000000  0.23521318  0.91328423  1
