# generated using pymatgen
data_U4TeSe7
_symmetry_space_group_name_H-M   'P 1'
_cell_length_a   4.17061479
_cell_length_b   7.61350617
_cell_length_c   9.15650597
_cell_angle_alpha   89.56521142
_cell_angle_beta   90.00000000
_cell_angle_gamma   90.00000000
_symmetry_Int_Tables_number   1
_chemical_formula_structural   U4TeSe7
_chemical_formula_sum   'U4 Te1 Se7'
_cell_volume   290.73817602
_cell_formula_units_Z   1
loop_
 _symmetry_equiv_pos_site_id
 _symmetry_equiv_pos_as_xyz
  1  'x, y, z'
loop_
 _atom_site_type_symbol
 _atom_site_label
 _atom_site_symmetry_multiplicity
 _atom_site_fract_x
 _atom_site_fract_y
 _atom_site_fract_z
 _atom_site_occupancy
  U  U0  1  0.75000000  0.23573732  0.86022894  1
  U  U1  1  0.75000000  0.74445271  0.63016023  1
  U  U2  1  0.25000000  0.77753643  0.13470499  1
  U  U3  1  0.25000000  0.24694268  0.37807142  1
  Te  Te4  1  0.75000000  0.46428304  0.16303995  1
  Se  Se5  1  0.75000000  0.36192683  0.56740715  1
  Se  Se6  1  0.75000000  0.85584863  0.92963527  1
  Se  Se7  1  0.25000000  0.64056464  0.43198130  1
  Se  Se8  1  0.25000000  0.14685016  0.06778511  1
  Se  Se9  1  0.75000000  0.96928104  0.33570736  1
  Se  Se10  1  0.25000000  0.52810766  0.83627663  1
  Se  Se11  1  0.25000000  0.02846887  0.66500165  1
