# generated using pymatgen
data_TeMoSe
_symmetry_space_group_name_H-M   'P 1'
_cell_length_a   3.43926314
_cell_length_b   3.43926314
_cell_length_c   14.24481120
_cell_angle_alpha   90.00045088
_cell_angle_beta   89.99954912
_cell_angle_gamma   120.00008973
_symmetry_Int_Tables_number   1
_chemical_formula_structural   TeMoSe
_chemical_formula_sum   'Te2 Mo2 Se2'
_cell_volume   145.92098349
_cell_formula_units_Z   2
loop_
 _symmetry_equiv_pos_site_id
 _symmetry_equiv_pos_as_xyz
  1  'x, y, z'
loop_
 _atom_site_type_symbol
 _atom_site_label
 _atom_site_symmetry_multiplicity
 _atom_site_fract_x
 _atom_site_fract_y
 _atom_site_fract_z
 _atom_site_occupancy
  Te  Te0  1  0.66667631  0.33332369  0.12524561  1
  Te  Te1  1  0.33332369  0.66667631  0.87475439  1
  Mo  Mo2  1  0.66665612  0.33334388  0.74374595  1
  Mo  Mo3  1  0.33334388  0.66665612  0.25625405  1
  Se  Se4  1  0.33332726  0.66667274  0.63016397  1
  Se  Se5  1  0.66667274  0.33332726  0.36983603  1
