# generated using pymatgen
data_Ti8C5
_symmetry_space_group_name_H-M   'P 1'
_cell_length_a   3.09453017
_cell_length_b   3.09411637
_cell_length_c   19.51494356
_cell_angle_alpha   85.45307193
_cell_angle_beta   94.55390266
_cell_angle_gamma   119.99558907
_symmetry_Int_Tables_number   1
_chemical_formula_structural   Ti8C5
_chemical_formula_sum   'Ti8 C5'
_cell_volume   161.14560040
_cell_formula_units_Z   1
loop_
 _symmetry_equiv_pos_site_id
 _symmetry_equiv_pos_as_xyz
  1  'x, y, z'
loop_
 _atom_site_type_symbol
 _atom_site_label
 _atom_site_symmetry_multiplicity
 _atom_site_fract_x
 _atom_site_fract_y
 _atom_site_fract_z
 _atom_site_occupancy
  Ti  Ti0  1  0.64613080  0.68701031  0.93877719  1
  Ti  Ti1  1  0.89454223  0.43889724  0.68341475  1
  Ti  Ti2  1  0.39506674  0.93861131  0.18451112  1
  Ti  Ti3  1  0.14471013  0.18868722  0.43400268  1
  Ti  Ti4  1  0.27158347  0.06139779  0.81545389  1
  Ti  Ti5  1  0.52201365  0.81126670  0.56614626  1
  Ti  Ti6  1  0.02052553  0.31300643  0.06117867  1
  Ti  Ti7  1  0.77213333  0.56109234  0.31661465  1
  C  C8  1  0.95656425  0.37677188  0.86968749  1
  C  C9  1  0.20833792  0.12504814  0.62490865  1
  C  C10  1  0.71008412  0.62323562  0.13027988  1
  C  C11  1  0.45835423  0.87492895  0.37516333  1
  C  C12  1  0.33333161  0.00000609  0.99998644  1
