# generated using pymatgen
data_USeS
_symmetry_space_group_name_H-M   'P 1'
_cell_length_a   3.75820888
_cell_length_b   7.16041616
_cell_length_c   10.20393626
_cell_angle_alpha   90.00000000
_cell_angle_beta   90.00000000
_cell_angle_gamma   90.00000000
_symmetry_Int_Tables_number   1
_chemical_formula_structural   USeS
_chemical_formula_sum   'U4 Se4 S4'
_cell_volume   274.59138998
_cell_formula_units_Z   4
loop_
 _symmetry_equiv_pos_site_id
 _symmetry_equiv_pos_as_xyz
  1  'x, y, z'
loop_
 _atom_site_type_symbol
 _atom_site_label
 _atom_site_symmetry_multiplicity
 _atom_site_fract_x
 _atom_site_fract_y
 _atom_site_fract_z
 _atom_site_occupancy
  U  U0  1  0.75000000  0.17396894  0.66869982  1
  U  U1  1  0.75000000  0.67396894  0.83130018  1
  U  U2  1  0.25000000  0.82603106  0.33130018  1
  U  U3  1  0.25000000  0.32603106  0.16869982  1
  Se  Se4  1  0.75000000  0.80195470  0.54382886  1
  Se  Se5  1  0.75000000  0.30195470  0.95617114  1
  Se  Se6  1  0.25000000  0.19804530  0.45617114  1
  Se  Se7  1  0.25000000  0.69804530  0.04382886  1
  S  S8  1  0.75000000  0.04071996  0.21272173  1
  S  S9  1  0.75000000  0.54071996  0.28727827  1
  S  S10  1  0.25000000  0.95928004  0.78727827  1
  S  S11  1  0.25000000  0.45928004  0.71272173  1
