# generated using pymatgen
data_Ti5MnS10
_symmetry_space_group_name_H-M   'P 1'
_cell_length_a   3.43470765
_cell_length_b   3.43470793
_cell_length_c   29.96033729
_cell_angle_alpha   89.99978941
_cell_angle_beta   89.99978940
_cell_angle_gamma   59.98386617
_symmetry_Int_Tables_number   1
_chemical_formula_structural   Ti5MnS10
_chemical_formula_sum   'Ti5 Mn1 S10'
_cell_volume   306.04570691
_cell_formula_units_Z   1
loop_
 _symmetry_equiv_pos_site_id
 _symmetry_equiv_pos_as_xyz
  1  'x, y, z'
loop_
 _atom_site_type_symbol
 _atom_site_label
 _atom_site_symmetry_multiplicity
 _atom_site_fract_x
 _atom_site_fract_y
 _atom_site_fract_z
 _atom_site_occupancy
  Ti  Ti0  1  0.00001786  0.00001786  0.99814009  1
  Ti  Ti1  1  0.99998214  0.99998214  0.20185991  1
  Ti  Ti2  1  0.99996399  0.99996399  0.40017385  1
  Ti  Ti3  1  -0.00000000  -0.00000000  0.60000000  1
  Ti  Ti4  1  0.00003601  0.00003601  0.79982615  1
  Mn  Mn5  1  -0.00000000  -0.00000000  0.10000000  1
  S  S6  1  0.66669237  0.66669237  0.05024659  1
  S  S7  1  0.66668303  0.66668303  0.24769787  1
  S  S8  1  0.66673888  0.66673888  0.44724027  1
  S  S9  1  0.66679820  0.66679820  0.64715976  1
  S  S10  1  0.66665752  0.66665752  0.84711270  1
  S  S11  1  0.33330763  0.33330763  0.14975341  1
  S  S12  1  0.33334248  0.33334248  0.35288730  1
  S  S13  1  0.33320180  0.33320180  0.55284024  1
  S  S14  1  0.33326112  0.33326112  0.75275973  1
  S  S15  1  0.33331697  0.33331697  0.95230213  1
