# generated using pymatgen
data_TiNi5(BO5)2
_symmetry_space_group_name_H-M   'P 1'
_cell_length_a   3.02327997
_cell_length_b   9.30698366
_cell_length_c   12.35572376
_cell_angle_alpha   90.00000000
_cell_angle_beta   90.00000000
_cell_angle_gamma   90.00000000
_symmetry_Int_Tables_number   1
_chemical_formula_structural   TiNi5(BO5)2
_chemical_formula_sum   'Ti2 Ni10 B4 O20'
_cell_volume   347.66062638
_cell_formula_units_Z   2
loop_
 _symmetry_equiv_pos_site_id
 _symmetry_equiv_pos_as_xyz
  1  'x, y, z'
loop_
 _atom_site_type_symbol
 _atom_site_label
 _atom_site_symmetry_multiplicity
 _atom_site_fract_x
 _atom_site_fract_y
 _atom_site_fract_z
 _atom_site_occupancy
  Ti  Ti0  1  0.00000000  0.26037110  0.61358873  1
  Ti  Ti1  1  0.00000000  0.23962890  0.11358873  1
  Ni  Ni2  1  0.50000000  0.50952797  0.21987993  1
  Ni  Ni3  1  0.50000000  0.50924591  0.78478157  1
  Ni  Ni4  1  0.50000000  0.99075409  0.28478157  1
  Ni  Ni5  1  0.50000000  0.99047203  0.71987993  1
  Ni  Ni6  1  0.50000000  0.50987312  0.49654995  1
  Ni  Ni7  1  0.50000000  0.99012688  0.99654995  1
  Ni  Ni8  1  0.00000000  0.98997638  0.49701102  1
  Ni  Ni9  1  0.00000000  0.51002362  0.99701102  1
  Ni  Ni10  1  0.00000000  0.73790904  0.38521583  1
  Ni  Ni11  1  0.00000000  0.76209096  0.88521583  1
  B  B12  1  0.00000000  0.77584338  0.13998361  1
  B  B13  1  0.00000000  0.22993306  0.85998646  1
  B  B14  1  0.00000000  0.27006694  0.35998646  1
  B  B15  1  0.00000000  0.72415662  0.63998361  1
  O  O16  1  0.00000000  0.64778752  0.54375815  1
  O  O17  1  0.00000000  0.34515534  0.45887276  1
  O  O18  1  0.00000000  0.15484466  0.95887276  1
  O  O19  1  0.00000000  0.85221248  0.04375815  1
  O  O20  1  0.50000000  0.88880709  0.42451748  1
  O  O21  1  0.50000000  0.12624343  0.57728046  1
  O  O22  1  0.50000000  0.37375657  0.07728046  1
  O  O23  1  0.50000000  0.61119291  0.92451748  1
  O  O24  1  0.00000000  0.85023400  0.23659486  1
  O  O25  1  0.00000000  0.15580134  0.76111684  1
  O  O26  1  0.00000000  0.34419866  0.26111684  1
  O  O27  1  0.00000000  0.64976600  0.73659486  1
  O  O28  1  0.50000000  0.60392864  0.35658986  1
  O  O29  1  0.50000000  0.38591263  0.64524401  1
  O  O30  1  0.50000000  0.11408737  0.14524401  1
  O  O31  1  0.50000000  0.89607136  0.85658986  1
  O  O32  1  0.00000000  0.62512647  0.14046609  1
  O  O33  1  0.00000000  0.37630562  0.85856240  1
  O  O34  1  0.00000000  0.12369438  0.35856240  1
  O  O35  1  0.00000000  0.87487353  0.64046609  1
