# generated using pymatgen
data_SrCa3(RuO4)2
_symmetry_space_group_name_H-M   'P 1'
_cell_length_a   5.37752693
_cell_length_b   5.37783604
_cell_length_c   13.27929716
_cell_angle_alpha   78.31742708
_cell_angle_beta   78.31810806
_cell_angle_gamma   90.00000000
_symmetry_Int_Tables_number   1
_chemical_formula_structural   SrCa3(RuO4)2
_chemical_formula_sum   'Sr2 Ca6 Ru4 O16'
_cell_volume   367.94826687
_cell_formula_units_Z   2
loop_
 _symmetry_equiv_pos_site_id
 _symmetry_equiv_pos_as_xyz
  1  'x, y, z'
loop_
 _atom_site_type_symbol
 _atom_site_label
 _atom_site_symmetry_multiplicity
 _atom_site_fract_x
 _atom_site_fract_y
 _atom_site_fract_z
 _atom_site_occupancy
  Sr  Sr0  1  0.29895014  0.54895014  0.40209972  1
  Sr  Sr1  1  0.79895014  0.04895014  0.40209972  1
  Ca  Ca2  1  0.54792244  0.29792244  0.90415511  1
  Ca  Ca3  1  0.04792244  0.79792244  0.90415511  1
  Ca  Ca4  1  0.69943981  0.44943981  0.60112038  1
  Ca  Ca5  1  0.19943981  0.94943981  0.60112038  1
  Ca  Ca6  1  0.45207412  0.70207412  0.09585176  1
  Ca  Ca7  1  0.95207412  0.20207412  0.09585176  1
  Ru  Ru8  1  0.12327381  0.37327381  0.75345238  1
  Ru  Ru9  1  0.62327381  0.87327381  0.75345238  1
  Ru  Ru10  1  0.37701750  0.12701750  0.24596500  1
  Ru  Ru11  1  0.87701750  0.62701750  0.24596500  1
  O  O12  1  0.07260401  0.32259919  0.24330127  1
  O  O13  1  0.18409473  0.82259919  0.24330127  1
  O  O14  1  0.30645270  0.05644814  0.75255142  1
  O  O15  1  0.44099587  0.55644814  0.75255142  1
  O  O16  1  0.94099587  0.69100044  0.75255142  1
  O  O17  1  0.80645270  0.19100044  0.75255142  1
  O  O18  1  0.68409473  0.93409955  0.24330127  1
  O  O19  1  0.57260401  0.43409955  0.24330127  1
  O  O20  1  0.20442436  0.45442436  0.59115129  1
  O  O21  1  0.70442436  0.95442436  0.59115129  1
  O  O22  1  0.45890338  0.20890338  0.08219324  1
  O  O23  1  0.95890338  0.70890338  0.08219324  1
  O  O24  1  0.79238019  0.54238019  0.41523962  1
  O  O25  1  0.29238019  0.04238019  0.41523962  1
  O  O26  1  0.54146693  0.79146693  0.91706614  1
  O  O27  1  0.04146693  0.29146693  0.91706614  1
