# generated using pymatgen
data_Sr4CePrO8
_symmetry_space_group_name_H-M   'P 1'
_cell_length_a   3.66951254
_cell_length_b   6.20545479
_cell_length_c   10.43869178
_cell_angle_alpha   90.31693001
_cell_angle_beta   90.00000000
_cell_angle_gamma   90.00000000
_symmetry_Int_Tables_number   1
_chemical_formula_structural   Sr4CePrO8
_chemical_formula_sum   'Sr4 Ce1 Pr1 O8'
_cell_volume   237.69575330
_cell_formula_units_Z   1
loop_
 _symmetry_equiv_pos_site_id
 _symmetry_equiv_pos_as_xyz
  1  'x, y, z'
loop_
 _atom_site_type_symbol
 _atom_site_label
 _atom_site_symmetry_multiplicity
 _atom_site_fract_x
 _atom_site_fract_y
 _atom_site_fract_z
 _atom_site_occupancy
  Sr  Sr0  1  0.50000000  0.56469938  0.82188340  1
  Sr  Sr1  1  0.50000000  0.43530062  0.17811660  1
  Sr  Sr2  1  0.50000000  0.06583823  0.67709180  1
  Sr  Sr3  1  0.50000000  0.93416177  0.32290820  1
  Ce  Ce4  1  -0.00000000  0.50000000  0.50000000  1
  Pr  Pr5  1  -0.00000000  0.00000000  0.00000000  1
  O  O6  1  -0.00000000  0.35870324  0.69109164  1
  O  O7  1  -0.00000000  0.64129676  0.30890836  1
  O  O8  1  0.00000000  0.85204953  0.79359660  1
  O  O9  1  0.00000000  0.14795047  0.20640340  1
  O  O10  1  0.50000000  0.72610938  0.54041969  1
  O  O11  1  0.50000000  0.27389062  0.45958031  1
  O  O12  1  0.50000000  0.24107720  0.95611493  1
  O  O13  1  0.50000000  0.75892280  0.04388507  1
