# generated using pymatgen
data_ThFe4Co
_symmetry_space_group_name_H-M   'P 1'
_cell_length_a   4.05268483
_cell_length_b   5.07227338
_cell_length_c   5.06188299
_cell_angle_alpha   59.98532346
_cell_angle_beta   90.00000000
_cell_angle_gamma   90.00000000
_symmetry_Int_Tables_number   1
_chemical_formula_structural   ThFe4Co
_chemical_formula_sum   'Th1 Fe4 Co1'
_cell_volume   90.09982951
_cell_formula_units_Z   1
loop_
 _symmetry_equiv_pos_site_id
 _symmetry_equiv_pos_as_xyz
  1  'x, y, z'
loop_
 _atom_site_type_symbol
 _atom_site_label
 _atom_site_symmetry_multiplicity
 _atom_site_fract_x
 _atom_site_fract_y
 _atom_site_fract_z
 _atom_site_occupancy
  Th  Th0  1  -0.00000000  0.00004222  0.99995746  1
  Fe  Fe1  1  -0.00000000  0.66644816  0.66687285  1
  Fe  Fe2  1  0.50000000  0.50025077  0.50014980  1
  Fe  Fe3  1  0.50000000  0.50023954  0.99958656  1
  Fe  Fe4  1  0.50000000  0.99959749  0.50018528  1
  Co  Co5  1  -0.00000000  0.33332181  0.33334805  1
