# generated using pymatgen
data_SrLa3Mn4O10
_symmetry_space_group_name_H-M   'P 1'
_cell_length_a   5.57965884
_cell_length_b   9.09883944
_cell_length_c   11.57965839
_cell_angle_alpha   108.45276287
_cell_angle_beta   90.00000000
_cell_angle_gamma   72.14471849
_symmetry_Int_Tables_number   1
_chemical_formula_structural   SrLa3Mn4O10
_chemical_formula_sum   'Sr2 La6 Mn8 O20'
_cell_volume   527.71979726
_cell_formula_units_Z   2
loop_
 _symmetry_equiv_pos_site_id
 _symmetry_equiv_pos_as_xyz
  1  'x, y, z'
loop_
 _atom_site_type_symbol
 _atom_site_label
 _atom_site_symmetry_multiplicity
 _atom_site_fract_x
 _atom_site_fract_y
 _atom_site_fract_z
 _atom_site_occupancy
  Sr  Sr0  1  0.60675315  0.77299937  0.18736914  1
  Sr  Sr1  1  0.62024748  0.77299937  0.68736914  1
  La  La2  1  0.87657281  0.22073279  0.04368853  1
  La  La3  1  0.09201698  0.77473383  0.45672679  1
  La  La4  1  0.13324920  0.77473383  0.95672679  1
  La  La5  1  0.90269440  0.22073279  0.54368853  1
  La  La6  1  0.37920894  0.21895014  0.31527482  1
  La  La7  1  0.40184092  0.21895014  0.81527482  1
  Mn  Mn8  1  0.50292484  0.99696486  0.00104153  1
  Mn  Mn9  1  0.50011031  0.99696486  0.50104153  1
  Mn  Mn10  1  0.71153312  0.49920609  0.34672387  1
  Mn  Mn11  1  0.20577140  0.50143236  0.15264015  1
  Mn  Mn12  1  0.29279624  0.50143236  0.65264015  1
  Mn  Mn13  1  0.78926079  0.49920609  0.84672387  1
  Mn  Mn14  1  0.00097295  0.99631624  0.24960488  1
  Mn  Mn15  1  0.00271081  0.99631624  0.74960488  1
  O  O16  1  0.83697832  0.48566352  0.17081674  1
  O  O17  1  0.32479524  0.49883263  0.32794976  1
  O  O18  1  0.17637213  0.49883263  0.82794976  1
  O  O19  1  0.67735816  0.48566352  0.67081674  1
  O  O20  1  0.14240708  0.73181470  0.14592619  1
  O  O21  1  0.88669010  0.26838227  0.35162957  1
  O  O22  1  0.84492763  0.26838227  0.85162957  1
  O  O23  1  0.12577822  0.73181470  0.64592619  1
  O  O24  1  0.24315257  0.02682141  0.62853895  1
  O  O25  1  0.26103531  0.99098742  0.87811944  1
  O  O26  1  0.74797727  0.99098742  0.37811944  1
  O  O27  1  0.73002602  0.02682141  0.12853895  1
  O  O28  1  0.23265760  0.04131862  0.12969261  1
  O  O29  1  0.26353218  0.96874483  0.37630120  1
  O  O30  1  0.76772299  0.96874483  0.87630120  1
  O  O31  1  0.72602378  0.04131862  0.62969261  1
  O  O32  1  0.40078069  0.28041358  0.02757865  1
  O  O33  1  0.68702019  0.72568533  0.46037718  1
  O  O34  1  0.58729448  0.72568533  0.96037718  1
  O  O35  1  0.31880572  0.28041358  0.52757865  1
