# generated using pymatgen
data_SrLa3MgAlO8
_symmetry_space_group_name_H-M   'P 1'
_cell_length_a   5.46268189
_cell_length_b   5.43734585
_cell_length_c   6.88233854
_cell_angle_alpha   90.00000000
_cell_angle_beta   66.61782023
_cell_angle_gamma   90.00000000
_symmetry_Int_Tables_number   1
_chemical_formula_structural   SrLa3MgAlO8
_chemical_formula_sum   'Sr1 La3 Mg1 Al1 O8'
_cell_volume   187.63502499
_cell_formula_units_Z   1
loop_
 _symmetry_equiv_pos_site_id
 _symmetry_equiv_pos_as_xyz
  1  'x, y, z'
loop_
 _atom_site_type_symbol
 _atom_site_label
 _atom_site_symmetry_multiplicity
 _atom_site_fract_x
 _atom_site_fract_y
 _atom_site_fract_z
 _atom_site_occupancy
  Sr  Sr0  1  0.85764938  0.50000000  0.28470124  1
  La  La1  1  0.36198058  0.00000000  0.27603884  1
  La  La2  1  0.64059154  0.00000000  0.71881691  1
  La  La3  1  0.13831168  0.50000000  0.72337665  1
  Mg  Mg4  1  0.99604286  0.00000000  0.00791428  1
  Al  Al5  1  0.50265574  0.50000000  0.99468852  1
  O  O6  1  0.17617105  0.00000000  0.64765790  1
  O  O7  1  0.66223191  0.50000000  0.67553618  1
  O  O8  1  0.32966464  0.50000000  0.34067071  1
  O  O9  1  0.82497658  0.00000000  0.35004683  1
  O  O10  1  0.26324670  0.25638118  0.99513799  1
  O  O11  1  0.74161532  0.74361882  0.99513799  1
  O  O12  1  0.74161532  0.25638118  0.99513799  1
  O  O13  1  0.26324670  0.74361882  0.99513799  1
