# generated using pymatgen
data_SrCa3IrO6
_symmetry_space_group_name_H-M   'P 1'
_cell_length_a   6.72167441
_cell_length_b   6.68235746
_cell_length_c   6.68235745
_cell_angle_alpha   91.72627437
_cell_angle_beta   90.86843173
_cell_angle_gamma   90.86844229
_symmetry_Int_Tables_number   1
_chemical_formula_structural   SrCa3IrO6
_chemical_formula_sum   'Sr2 Ca6 Ir2 O12'
_cell_volume   299.94169468
_cell_formula_units_Z   2
loop_
 _symmetry_equiv_pos_site_id
 _symmetry_equiv_pos_as_xyz
  1  'x, y, z'
loop_
 _atom_site_type_symbol
 _atom_site_label
 _atom_site_symmetry_multiplicity
 _atom_site_fract_x
 _atom_site_fract_y
 _atom_site_fract_z
 _atom_site_occupancy
  Sr  Sr0  1  0.61434947  0.88431748  0.24858536  1
  Sr  Sr1  1  0.88565053  0.25141464  0.61568252  1
  Ca  Ca2  1  0.25000000  0.25060091  0.24939909  1
  Ca  Ca3  1  0.75000000  0.74928354  0.75071646  1
  Ca  Ca4  1  0.25000000  0.61035010  0.88964990  1
  Ca  Ca5  1  0.11085354  0.74846723  0.39091696  1
  Ca  Ca6  1  0.75000000  0.39046138  0.10953862  1
  Ca  Ca7  1  0.38914646  0.10908304  0.75153277  1
  Ir  Ir8  1  0.49790562  0.50309255  0.50147025  1
  Ir  Ir9  1  0.00209438  0.99852975  0.99690745  1
  O  O10  1  0.54750322  0.21026558  0.42590988  1
  O  O11  1  0.20971307  0.43193256  0.55663384  1
  O  O12  1  0.42268623  0.54918776  0.20686490  1
  O  O13  1  0.05753432  0.91649174  0.70566754  1
  O  O14  1  0.92946282  0.70373087  0.05023973  1
  O  O15  1  0.70859852  0.05860991  0.92050315  1
  O  O16  1  0.44246568  0.79433246  0.58350826  1
  O  O17  1  0.79140148  0.57949685  0.44139009  1
  O  O18  1  0.57053718  0.44976027  0.79626913  1
  O  O19  1  0.95249678  0.07409012  0.28973442  1
  O  O20  1  0.07731377  0.29313510  0.95081224  1
  O  O21  1  0.29028693  0.94336616  0.06806744  1
