# generated using pymatgen
data_SrLa3Mn2Cr2O12
_symmetry_space_group_name_H-M   'P 1'
_cell_length_a   5.49069698
_cell_length_b   7.93605242
_cell_length_c   5.59184964
_cell_angle_alpha   90.35076856
_cell_angle_beta   88.97254729
_cell_angle_gamma   90.98774289
_symmetry_Int_Tables_number   1
_chemical_formula_structural   SrLa3Mn2Cr2O12
_chemical_formula_sum   'Sr1 La3 Mn2 Cr2 O12'
_cell_volume   243.58232823
_cell_formula_units_Z   1
loop_
 _symmetry_equiv_pos_site_id
 _symmetry_equiv_pos_as_xyz
  1  'x, y, z'
loop_
 _atom_site_type_symbol
 _atom_site_label
 _atom_site_symmetry_multiplicity
 _atom_site_fract_x
 _atom_site_fract_y
 _atom_site_fract_z
 _atom_site_occupancy
  Sr  Sr0  1  0.49954496  0.25243746  0.99642327  1
  La  La1  1  0.00068481  0.74881165  0.50490601  1
  La  La2  1  0.50063531  0.74633523  0.00096388  1
  La  La3  1  0.99858397  0.25215071  0.49680608  1
  Mn  Mn4  1  0.99989689  0.49923475  0.99959620  1
  Mn  Mn5  1  0.50032394  0.00068015  0.50087091  1
  Cr  Cr6  1  0.00092232  0.00122096  0.00068243  1
  Cr  Cr7  1  0.49966842  0.49905434  0.49960146  1
  O  O8  1  0.27706865  0.47719135  0.78602991  1
  O  O9  1  0.77685969  0.96288646  0.28828436  1
  O  O10  1  0.22080626  0.53429511  0.28761280  1
  O  O11  1  0.71504572  0.02636141  0.77058068  1
  O  O12  1  0.00075819  0.75643972  0.93555109  1
  O  O13  1  0.50273581  0.24252104  0.44332505  1
  O  O14  1  0.78605953  0.47489925  0.70573010  1
  O  O15  1  0.28440928  0.95856017  0.22799668  1
  O  O16  1  0.99988730  0.24442503  0.07169727  1
  O  O17  1  0.49765518  0.75563121  0.56576300  1
  O  O18  1  0.72377352  0.53812232  0.21425735  1
  O  O19  1  0.21468025  0.02874170  0.70332148  1
