# generated using pymatgen
data_Sr3CoRuO7
_symmetry_space_group_name_H-M   'P 1'
_cell_length_a   3.94711620
_cell_length_b   3.94711620
_cell_length_c   10.72710235
_cell_angle_alpha   79.39841030
_cell_angle_beta   79.39841030
_cell_angle_gamma   90.00000000
_symmetry_Int_Tables_number   1
_chemical_formula_structural   Sr3CoRuO7
_chemical_formula_sum   'Sr3 Co1 Ru1 O7'
_cell_volume   161.36931655
_cell_formula_units_Z   1
loop_
 _symmetry_equiv_pos_site_id
 _symmetry_equiv_pos_as_xyz
  1  'x, y, z'
loop_
 _atom_site_type_symbol
 _atom_site_label
 _atom_site_symmetry_multiplicity
 _atom_site_fract_x
 _atom_site_fract_y
 _atom_site_fract_z
 _atom_site_occupancy
  Sr  Sr0  1  0.67965548  0.67965548  0.64068904  1
  Sr  Sr1  1  0.31499400  0.31499400  0.37001200  1
  Sr  Sr2  1  0.51095785  0.51095785  0.97808430  1
  Co  Co3  1  0.10548563  0.10548563  0.78902875  1
  Ru  Ru4  1  0.90331791  0.90331791  0.19336418  1
  O  O5  1  0.19624077  0.19624077  0.60751846  1
  O  O6  1  0.80444108  0.80444108  0.39111784  1
  O  O7  1  0.99502932  0.99502932  0.00994136  1
  O  O8  1  0.59507489  0.09507489  0.80985023  1
  O  O9  1  0.09507489  0.59507489  0.80985023  1
  O  O10  1  0.39986410  0.89986410  0.20027181  1
  O  O11  1  0.89986410  0.39986410  0.20027181  1
