# generated using pymatgen
data_Sr3Be2B5HO13
_symmetry_space_group_name_H-M   'P 1'
_cell_length_a   6.70616122
_cell_length_b   6.70616188
_cell_length_c   6.61948373
_cell_angle_alpha   103.13427797
_cell_angle_beta   103.13427882
_cell_angle_gamma   101.57962682
_symmetry_Int_Tables_number   1
_chemical_formula_structural   Sr3Be2B5HO13
_chemical_formula_sum   'Sr3 Be2 B5 H1 O13'
_cell_volume   272.14435045
_cell_formula_units_Z   1
loop_
 _symmetry_equiv_pos_site_id
 _symmetry_equiv_pos_as_xyz
  1  'x, y, z'
loop_
 _atom_site_type_symbol
 _atom_site_label
 _atom_site_symmetry_multiplicity
 _atom_site_fract_x
 _atom_site_fract_y
 _atom_site_fract_z
 _atom_site_occupancy
  Sr  Sr0  1  0.40785416  0.98279127  0.98209414  1
  Sr  Sr1  1  0.99240327  0.99240327  0.41043671  1
  Sr  Sr2  1  0.98279127  0.40785416  0.98209414  1
  Be  Be3  1  0.57265536  0.29174513  0.56959501  1
  Be  Be4  1  0.29174513  0.57265536  0.56959501  1
  B  B5  1  0.44193863  0.44193863  0.90744440  1
  B  B6  1  0.43320740  0.89607258  0.43313180  1
  B  B7  1  0.89607258  0.43320740  0.43313180  1
  B  B8  1  0.95324508  0.95324508  0.95433334  1
  B  B9  1  0.57383757  0.57383757  0.30669117  1
  H  H10  1  0.62609456  0.62609456  0.62667231  1
  O  O11  1  0.80339082  0.03605509  0.03649939  1
  O  O12  1  0.04125617  0.04125617  0.81099881  1
  O  O13  1  0.03605509  0.80339082  0.03649939  1
  O  O14  1  0.51714957  0.51714957  0.50640839  1
  O  O15  1  0.42438823  0.42438823  0.11412264  1
  O  O16  1  0.41388031  0.08669175  0.39713592  1
  O  O17  1  0.08669175  0.41388031  0.39713592  1
  O  O18  1  0.32789521  0.56133556  0.81465135  1
  O  O19  1  0.56357249  0.79479608  0.32926028  1
  O  O20  1  0.81357850  0.32727523  0.56078323  1
  O  O21  1  0.56133556  0.32789521  0.81465135  1
  O  O22  1  0.32727523  0.81357850  0.56078323  1
  O  O23  1  0.79479608  0.56357249  0.32926028  1
