# generated using pymatgen
data_FeSn2(CN)6
_symmetry_space_group_name_H-M   'P 1'
_cell_length_a   7.24406953
_cell_length_b   7.24406953
_cell_length_c   5.56480728
_cell_angle_alpha   90.00000000
_cell_angle_beta   90.00000000
_cell_angle_gamma   119.99999999
_symmetry_Int_Tables_number   1
_chemical_formula_structural   FeSn2(CN)6
_chemical_formula_sum   'Fe1 Sn2 C6 N6'
_cell_volume   252.89834100
_cell_formula_units_Z   1
loop_
 _symmetry_equiv_pos_site_id
 _symmetry_equiv_pos_as_xyz
  1  'x, y, z'
loop_
 _atom_site_type_symbol
 _atom_site_label
 _atom_site_symmetry_multiplicity
 _atom_site_fract_x
 _atom_site_fract_y
 _atom_site_fract_z
 _atom_site_occupancy
  C  C0  1  0.24212046  0.16198518  0.80914048  1
  C  C1  1  0.83801482  0.08013529  0.80914048  1
  C  C2  1  0.91986471  0.75787954  0.80914048  1
  C  C3  1  0.08013529  0.24212046  0.19085952  1
  C  C4  1  0.75787954  0.83801482  0.19085952  1
  C  C5  1  0.16198518  0.91986471  0.19085952  1
  N  N6  1  0.73008092  0.12731491  0.69543676  1
  N  N7  1  0.39723398  0.26991908  0.69543676  1
  N  N8  1  0.87268509  0.60276602  0.69543676  1
  N  N9  1  0.26991908  0.87268509  0.30456324  1
  N  N10  1  0.12731491  0.39723398  0.30456324  1
  N  N11  1  0.60276602  0.73008092  0.30456324  1
  Fe  Fe12  1  0.00000000  0.00000000  0.00000000  1
  Sn  Sn13  1  0.66666667  0.33333333  0.44372252  1
  Sn  Sn14  1  0.33333333  0.66666667  0.55627748  1
