# generated using pymatgen
data_CaFeBiO5
_symmetry_space_group_name_H-M   'P 1'
_cell_length_a   5.59388156
_cell_length_b   11.38383291
_cell_length_c   15.39735166
_cell_angle_alpha   90.00000000
_cell_angle_beta   90.00000000
_cell_angle_gamma   90.00000000
_symmetry_Int_Tables_number   1
_chemical_formula_structural   CaFeBiO5
_chemical_formula_sum   'Ca8 Fe8 Bi8 O40'
_cell_volume   980.50047436
_cell_formula_units_Z   8
loop_
 _symmetry_equiv_pos_site_id
 _symmetry_equiv_pos_as_xyz
  1  'x, y, z'
loop_
 _atom_site_type_symbol
 _atom_site_label
 _atom_site_symmetry_multiplicity
 _atom_site_fract_x
 _atom_site_fract_y
 _atom_site_fract_z
 _atom_site_occupancy
  Ca  Ca0  1  0.50620065  0.35946041  0.44938329  1
  Ca  Ca1  1  0.00620065  0.14053959  0.44938329  1
  Ca  Ca2  1  0.00620065  0.64053959  0.05061671  1
  Ca  Ca3  1  0.99379935  0.35946041  0.94938329  1
  Ca  Ca4  1  0.49379935  0.14053959  0.94938329  1
  Ca  Ca5  1  0.99379935  0.85946041  0.55061671  1
  Ca  Ca6  1  0.49379935  0.64053959  0.55061671  1
  Ca  Ca7  1  0.50620065  0.85946041  0.05061671  1
  Fe  Fe8  1  0.97737424  0.40267229  0.59710282  1
  Fe  Fe9  1  0.52262576  0.90267229  0.40289718  1
  Fe  Fe10  1  0.02262576  0.59732771  0.40289718  1
  Fe  Fe11  1  0.47737424  0.09732771  0.59710282  1
  Fe  Fe12  1  0.02262576  0.09732771  0.09710282  1
  Fe  Fe13  1  0.97737424  0.90267229  0.90289718  1
  Fe  Fe14  1  0.52262576  0.40267229  0.09710282  1
  Fe  Fe15  1  0.47737424  0.59732771  0.90289718  1
  Bi  Bi16  1  0.94889537  0.84512044  0.23140168  1
  Bi  Bi17  1  0.05110463  0.15487956  0.76859832  1
  Bi  Bi18  1  0.55110463  0.34512044  0.76859832  1
  Bi  Bi19  1  0.05110463  0.65487956  0.73140168  1
  Bi  Bi20  1  0.44889537  0.15487956  0.26859832  1
  Bi  Bi21  1  0.44889537  0.65487956  0.23140168  1
  Bi  Bi22  1  0.55110463  0.84512044  0.73140168  1
  Bi  Bi23  1  0.94889537  0.34512044  0.26859832  1
  O  O24  1  0.91966991  0.32175420  0.69749128  1
  O  O25  1  0.31027867  0.04545579  0.07392081  1
  O  O26  1  0.18972133  0.54545579  0.92607919  1
  O  O27  1  0.24053238  0.76871026  0.15068993  1
  O  O28  1  0.25946762  0.26871026  0.84931007  1
  O  O29  1  0.91966991  0.82175420  0.80250872  1
  O  O30  1  0.25946762  0.76871026  0.65068993  1
  O  O31  1  0.58033009  0.82175420  0.30250872  1
  O  O32  1  0.31027867  0.54545579  0.42607919  1
  O  O33  1  0.08033009  0.67824580  0.30250872  1
  O  O34  1  0.58033009  0.32175420  0.19749128  1
  O  O35  1  0.64268963  0.18200076  0.52445886  1
  O  O36  1  0.81027867  0.95454421  0.42607919  1
  O  O37  1  0.75946762  0.73128974  0.65068993  1
  O  O38  1  0.17007898  0.02636842  0.87273492  1
  O  O39  1  0.81027867  0.45454421  0.07392081  1
  O  O40  1  0.08033009  0.17824580  0.19749128  1
  O  O41  1  0.74053238  0.23128974  0.34931007  1
  O  O42  1  0.14268963  0.81799924  0.97554114  1
  O  O43  1  0.18972133  0.04545579  0.57392081  1
  O  O44  1  0.35731037  0.81799924  0.47554114  1
  O  O45  1  0.82992102  0.97363158  0.12726508  1
  O  O46  1  0.75946762  0.23128974  0.84931007  1
  O  O47  1  0.67007898  0.97363158  0.62726508  1
  O  O48  1  0.35731037  0.31799924  0.02445886  1
  O  O49  1  0.14268963  0.31799924  0.52445886  1
  O  O50  1  0.68972133  0.45454421  0.57392081  1
  O  O51  1  0.68972133  0.95454421  0.92607919  1
  O  O52  1  0.67007898  0.47363158  0.87273492  1
  O  O53  1  0.85731037  0.68200076  0.47554114  1
  O  O54  1  0.85731037  0.18200076  0.02445886  1
  O  O55  1  0.64268963  0.68200076  0.97554114  1
  O  O56  1  0.82992102  0.47363158  0.37273492  1
  O  O57  1  0.74053238  0.73128974  0.15068993  1
  O  O58  1  0.24053238  0.26871026  0.34931007  1
  O  O59  1  0.17007898  0.52636842  0.62726508  1
  O  O60  1  0.32992102  0.52636842  0.12726508  1
  O  O61  1  0.41966991  0.17824580  0.69749128  1
  O  O62  1  0.32992102  0.02636842  0.37273492  1
  O  O63  1  0.41966991  0.67824580  0.80250872  1
