# generated using pymatgen
data_Sm9Ga5Se21
_symmetry_space_group_name_H-M   'P 1'
_cell_length_a   12.17212306
_cell_length_b   12.17214226
_cell_length_c   12.17181378
_cell_angle_alpha   95.31414648
_cell_angle_beta   84.68189150
_cell_angle_gamma   84.68463640
_symmetry_Int_Tables_number   1
_chemical_formula_structural   Sm9Ga5Se21
_chemical_formula_sum   'Sm18 Ga10 Se42'
_cell_volume   1778.56222603
_cell_formula_units_Z   2
loop_
 _symmetry_equiv_pos_site_id
 _symmetry_equiv_pos_as_xyz
  1  'x, y, z'
loop_
 _atom_site_type_symbol
 _atom_site_label
 _atom_site_symmetry_multiplicity
 _atom_site_fract_x
 _atom_site_fract_y
 _atom_site_fract_z
 _atom_site_occupancy
  Sm  Sm0  1  0.25698730  0.11177792  0.88204704  1
  Sm  Sm1  1  0.91933091  0.45515965  0.22590238  1
  Sm  Sm2  1  0.59778142  0.77653713  0.55431982  1
  Sm  Sm3  1  0.44569237  0.40222361  0.77652633  1
  Sm  Sm4  1  0.11796399  0.74300409  0.11177818  1
  Sm  Sm5  1  0.77409364  0.08066111  0.45516182  1
  Sm  Sm6  1  0.54483931  0.22589651  0.08064573  1
  Sm  Sm7  1  0.22346565  0.55432830  0.40222322  1
  Sm  Sm8  1  0.88820995  0.88204589  0.74299850  1
  Sm  Sm9  1  0.41771784  0.21206963  0.43870492  1
  Sm  Sm10  1  0.07271360  0.55206131  0.78021117  1
  Sm  Sm11  1  0.74964876  0.87613090  0.10631904  1
  Sm  Sm12  1  0.21978685  0.92729220  0.55205901  1
  Sm  Sm13  1  0.89366120  0.25035007  0.87612281  1
  Sm  Sm14  1  0.56131348  0.58227870  0.21207983  1
  Sm  Sm15  1  0.12386994  0.10631771  0.25035467  1
  Sm  Sm16  1  0.78792608  0.43868927  0.58229934  1
  Sm  Sm17  1  0.44794381  0.78020822  0.92729434  1
  Ga  Ga18  1  0.94678380  0.72246038  0.39013636  1
  Ga  Ga19  1  0.60987244  0.05321713  0.72244895  1
  Ga  Ga20  1  0.27755400  0.39015607  0.05321694  1
  Ga  Ga21  1  0.44652306  0.88690241  0.22380109  1
  Ga  Ga22  1  0.11310709  0.22380390  0.55348496  1
  Ga  Ga23  1  0.77617817  0.55348072  0.88690040  1
  Ga  Ga24  1  0.14862677  0.85137977  0.85137770  1
  Ga  Ga25  1  0.84927702  0.15071516  0.15071579  1
  Ga  Ga26  1  0.35017159  0.64982895  0.64982766  1
  Ga  Ga27  1  0.64856403  0.35144178  0.35143346  1
  Se  Se28  1  0.69474040  0.55700383  0.40213944  1
  Se  Se29  1  0.34507018  0.89262492  0.75111079  1
  Se  Se30  1  0.01481071  0.23550622  0.08662065  1
  Se  Se31  1  0.91340074  0.98518271  0.23550008  1
  Se  Se32  1  0.59785923  0.30525845  0.55699237  1
  Se  Se33  1  0.24887652  0.65494612  0.89264117  1
  Se  Se34  1  0.10736141  0.75111863  0.65492433  1
  Se  Se35  1  0.76450301  0.08661382  0.98518685  1
  Se  Se36  1  0.44300496  0.40213414  0.30526122  1
  Se  Se37  1  0.62415780  0.14036386  0.28219684  1
  Se  Se38  1  0.27978962  0.47012560  0.61570265  1
  Se  Se39  1  0.96349049  0.78343126  0.93972756  1
  Se  Se40  1  0.38428806  0.72021294  0.47012076  1
  Se  Se41  1  0.06028469  0.03648796  0.78340118  1
  Se  Se42  1  0.71779580  0.37583599  0.14036295  1
  Se  Se43  1  0.21659165  0.93971835  0.03649376  1
  Se  Se44  1  0.85964254  0.28220115  0.37583077  1
  Se  Se45  1  0.52987413  0.61570726  0.72021375  1
  Se  Se46  1  0.98564860  0.53881383  0.44989839  1
  Se  Se47  1  0.64583127  0.87030755  0.78318527  1
  Se  Se48  1  0.30673678  0.20307992  0.10864224  1
  Se  Se49  1  0.89136049  0.69325543  0.20308405  1
  Se  Se50  1  0.55009698  0.01435992  0.53879759  1
  Se  Se51  1  0.21681357  0.35417952  0.87031359  1
  Se  Se52  1  0.12968385  0.78318139  0.35419531  1
  Se  Se53  1  0.79693210  0.10864378  0.69327342  1
  Se  Se54  1  0.46119065  0.44991246  0.01435491  1
  Se  Se55  1  0.52160482  0.96763645  0.06182379  1
  Se  Se56  1  0.18636720  0.30049439  0.38793989  1
  Se  Se57  1  0.84332621  0.63247336  0.71976963  1
  Se  Se58  1  0.61204719  0.81361555  0.30047449  1
  Se  Se59  1  0.28024569  0.15667134  0.63246348  1
  Se  Se60  1  0.93816579  0.47840228  0.96764158  1
  Se  Se61  1  0.36754344  0.71975352  0.15667229  1
  Se  Se62  1  0.03236918  0.06182336  0.47839637  1
  Se  Se63  1  0.69951612  0.38793525  0.81363356  1
  Se  Se64  1  0.82057757  0.84763779  0.51427898  1
  Se  Se65  1  0.48571030  0.17942023  0.84764939  1
  Se  Se66  1  0.15233673  0.51427177  0.17943812  1
  Se  Se67  1  0.65283120  0.67965075  0.01379081  1
  Se  Se68  1  0.32035980  0.01376356  0.34715059  1
  Se  Se69  1  0.98622446  0.34715887  0.67964769  1
