# generated using pymatgen
data_UFeS3
_symmetry_space_group_name_H-M   'P 1'
_cell_length_a   3.67469330
_cell_length_b   5.65865745
_cell_length_c   8.49182346
_cell_angle_alpha   90.00000000
_cell_angle_beta   90.00000000
_cell_angle_gamma   108.94719263
_symmetry_Int_Tables_number   1
_chemical_formula_structural   UFeS3
_chemical_formula_sum   'U2 Fe2 S6'
_cell_volume   167.01025653
_cell_formula_units_Z   2
loop_
 _symmetry_equiv_pos_site_id
 _symmetry_equiv_pos_as_xyz
  1  'x, y, z'
loop_
 _atom_site_type_symbol
 _atom_site_label
 _atom_site_symmetry_multiplicity
 _atom_site_fract_x
 _atom_site_fract_y
 _atom_site_fract_z
 _atom_site_occupancy
  S  S0  1  0.63070794  0.26141588  0.54402888  1
  S  S1  1  0.36929206  0.73858412  0.45597112  1
  S  S2  1  0.36929206  0.73858412  0.04402888  1
  S  S3  1  0.63070794  0.26141588  0.95597112  1
  S  S4  1  0.92172758  0.84345517  0.75000000  1
  S  S5  1  0.07827242  0.15654483  0.25000000  1
  Fe  Fe6  1  0.00000000  0.00000000  0.00000000  1
  Fe  Fe7  1  0.00000000  0.00000000  0.50000000  1
  U  U8  1  0.23308699  0.46617398  0.75000000  1
  U  U9  1  0.76691301  0.53382602  0.25000000  1
