# generated using pymatgen
data_Sr3CeMn4O12
_symmetry_space_group_name_H-M   'P 1'
_cell_length_a   6.75077056
_cell_length_b   6.75077056
_cell_length_c   6.75077056
_cell_angle_alpha   70.50948112
_cell_angle_beta   70.53842763
_cell_angle_gamma   109.46157237
_symmetry_Int_Tables_number   1
_chemical_formula_structural   Sr3CeMn4O12
_chemical_formula_sum   'Sr3 Ce1 Mn4 O12'
_cell_volume   236.83076422
_cell_formula_units_Z   1
loop_
 _symmetry_equiv_pos_site_id
 _symmetry_equiv_pos_as_xyz
  1  'x, y, z'
loop_
 _atom_site_type_symbol
 _atom_site_label
 _atom_site_symmetry_multiplicity
 _atom_site_fract_x
 _atom_site_fract_y
 _atom_site_fract_z
 _atom_site_occupancy
  Sr  Sr0  1  0.50000000  0.50000000  0.50000000  1
  Sr  Sr1  1  0.00000000  0.50000000  0.00000000  1
  Sr  Sr2  1  0.00000000  -0.00000000  0.50000000  1
  Ce  Ce3  1  0.50000000  -0.00000000  0.00000000  1
  Mn  Mn4  1  0.00000000  0.50000000  0.50000000  1
  Mn  Mn5  1  0.00000000  -0.00000000  0.00000000  1
  Mn  Mn6  1  0.50000000  0.50000000  0.00000000  1
  Mn  Mn7  1  0.50000000  -0.00000000  0.50000000  1
  O  O8  1  0.74170271  0.75822017  0.00007711  1
  O  O9  1  0.74170271  0.24177983  0.51651746  1
  O  O10  1  0.25829729  0.75822017  0.48348254  1
  O  O11  1  0.25829729  0.24177983  0.99992289  1
  O  O12  1  0.25829729  0.51651746  0.24177983  1
  O  O13  1  0.25829729  0.00007711  0.75822017  1
  O  O14  1  0.74170271  0.48348254  0.75822017  1
  O  O15  1  0.74170271  0.99992289  0.24177983  1
  O  O16  1  0.98316583  0.24158292  0.75841708  1
  O  O17  1  0.01683417  0.75841708  0.24158292  1
  O  O18  1  0.50000000  0.24158292  0.24158292  1
  O  O19  1  0.50000000  0.75841708  0.75841708  1
