# generated using pymatgen
data_Sr10Fe4Co(MoO6)5
_symmetry_space_group_name_H-M   'P 1'
_cell_length_a   8.02736718
_cell_length_b   9.74930324
_cell_length_c   9.74930324
_cell_angle_alpha   80.24194166
_cell_angle_beta   65.68899900
_cell_angle_gamma   65.68899899
_symmetry_Int_Tables_number   1
_chemical_formula_structural   Sr10Fe4Co(MoO6)5
_chemical_formula_sum   'Sr10 Fe4 Co1 Mo5 O30'
_cell_volume   633.67436331
_cell_formula_units_Z   1
loop_
 _symmetry_equiv_pos_site_id
 _symmetry_equiv_pos_as_xyz
  1  'x, y, z'
loop_
 _atom_site_type_symbol
 _atom_site_label
 _atom_site_symmetry_multiplicity
 _atom_site_fract_x
 _atom_site_fract_y
 _atom_site_fract_z
 _atom_site_occupancy
  Sr  Sr0  1  0.65205101  0.90030181  0.29737021  1
  Sr  Sr1  1  0.25000000  0.50000000  0.50000000  1
  Sr  Sr2  1  0.44764718  0.70262979  0.90030181  1
  Sr  Sr3  1  0.05057878  0.29737021  0.09969819  1
  Sr  Sr4  1  0.84972303  0.09969819  0.70262979  1
  Sr  Sr5  1  0.75000000  0.50000000  0.50000000  1
  Sr  Sr6  1  0.34794899  0.09969819  0.70262979  1
  Sr  Sr7  1  0.55235282  0.29737021  0.09969819  1
  Sr  Sr8  1  0.15027697  0.90030181  0.29737021  1
  Sr  Sr9  1  0.94942122  0.70262979  0.90030181  1
  Fe  Fe10  1  0.20147836  0.20075433  0.39628896  1
  Fe  Fe11  1  0.40223269  0.39628896  0.79924567  1
  Fe  Fe12  1  0.59776731  0.60371104  0.20075433  1
  Fe  Fe13  1  0.79852164  0.79924567  0.60371104  1
  Co  Co14  1  -0.00000000  0.00000000  0.00000000  1
  Mo  Mo15  1  0.10003567  0.60203065  0.19789800  1
  Mo  Mo16  1  0.70206633  0.19789800  0.39796935  1
  Mo  Mo17  1  0.89996433  0.39796935  0.80210200  1
  Mo  Mo18  1  0.50000000  0.00000000  0.00000000  1
  Mo  Mo19  1  0.29793367  0.80210200  0.60203065  1
  O  O20  1  0.55180899  0.80121843  0.59911350  1
  O  O21  1  0.15092249  0.40088650  0.80121843  1
  O  O22  1  0.35302741  0.59911350  0.19878157  1
  O  O23  1  0.95214092  0.19878157  0.40088650  1
  O  O24  1  0.74658546  0.00000000  0.00000000  1
  O  O25  1  0.84907751  0.59911350  0.19878157  1
  O  O26  1  0.44819101  0.19878157  0.40088650  1
  O  O27  1  0.64697259  0.40088650  0.80121843  1
  O  O28  1  0.25341454  1.00000000  1.00000000  1
  O  O29  1  0.04785908  0.80121843  0.59911350  1
  O  O30  1  0.15260153  0.87493362  0.81986333  1
  O  O31  1  0.35771763  0.06941019  0.21515455  1
  O  O32  1  0.55758623  0.27292916  0.61189839  1
  O  O33  1  0.76127235  0.46929783  0.00815746  1
  O  O34  1  0.96086535  0.67250606  0.40576324  1
  O  O35  1  0.64228237  0.93058981  0.78484545  1
  O  O36  1  0.84739847  0.12506638  0.18013667  1
  O  O37  1  0.03913465  0.32749394  0.59423676  1
  O  O38  1  0.23872765  0.53070217  0.99184254  1
  O  O39  1  0.44241377  0.72707084  0.38810161  1
  O  O40  1  0.23057018  0.00815746  0.53070217  1
  O  O41  1  0.42712782  0.21515455  0.93058981  1
  O  O42  1  0.63337141  0.40576324  0.32749394  1
  O  O43  1  0.83051539  0.61189839  0.72707084  1
  O  O44  1  0.02753514  0.81986333  0.12506638  1
  O  O45  1  0.36662859  0.59423676  0.67250606  1
  O  O46  1  0.57287218  0.78484545  0.06941019  1
  O  O47  1  0.76942982  0.99184254  0.46929783  1
  O  O48  1  0.97246486  0.18013667  0.87493362  1
  O  O49  1  0.16948461  0.38810161  0.27292916  1
