# generated using pymatgen
data_Sr2PrGaO5
_symmetry_space_group_name_H-M   'P 1'
_cell_length_a   6.85739481
_cell_length_b   6.85739481
_cell_length_c   7.48949691
_cell_angle_alpha   62.65812601
_cell_angle_beta   62.65812601
_cell_angle_gamma   89.81249734
_symmetry_Int_Tables_number   1
_chemical_formula_structural   Sr2PrGaO5
_chemical_formula_sum   'Sr4 Pr2 Ga2 O10'
_cell_volume   268.09107190
_cell_formula_units_Z   2
loop_
 _symmetry_equiv_pos_site_id
 _symmetry_equiv_pos_as_xyz
  1  'x, y, z'
loop_
 _atom_site_type_symbol
 _atom_site_label
 _atom_site_symmetry_multiplicity
 _atom_site_fract_x
 _atom_site_fract_y
 _atom_site_fract_z
 _atom_site_occupancy
  Sr  Sr0  1  0.25000000  0.25000000  0.50000000  1
  Sr  Sr1  1  0.75000000  0.75000000  0.50000000  1
  Sr  Sr2  1  0.82554946  0.67445054  0.00000000  1
  Sr  Sr3  1  0.17445054  0.32554946  0.00000000  1
  Pr  Pr4  1  0.67888981  0.17888981  0.00000000  1
  Pr  Pr5  1  0.32111019  0.82111019  1.00000000  1
  Ga  Ga6  1  0.75229722  0.25229722  0.49540556  1
  Ga  Ga7  1  0.24770278  0.74770278  0.50459444  1
  O  O8  1  0.50000000  0.50000000  0.00000000  1
  O  O9  1  -0.00000000  0.00000000  0.00000000  1
  O  O10  1  0.21715801  0.99856401  0.28427799  1
  O  O11  1  0.49856401  0.71715801  0.28427799  1
  O  O12  1  0.00392032  0.50392032  0.28972329  1
  O  O13  1  0.70635639  0.20635639  0.28972329  1
  O  O14  1  0.78284199  0.00143599  0.71572201  1
  O  O15  1  0.50143599  0.28284199  0.71572201  1
  O  O16  1  0.99607968  0.49607968  0.71027671  1
  O  O17  1  0.29364361  0.79364361  0.71027671  1
