# generated using pymatgen
data_SnSb
_symmetry_space_group_name_H-M   'P 1'
_cell_length_a   3.07497178
_cell_length_b   6.25924455
_cell_length_c   3.07497091
_cell_angle_alpha   90.20574881
_cell_angle_beta   90.53236081
_cell_angle_gamma   89.79426375
_symmetry_Int_Tables_number   1
_chemical_formula_structural   SnSb
_chemical_formula_sum   'Sn1 Sb1'
_cell_volume   59.18065551
_cell_formula_units_Z   1
loop_
 _symmetry_equiv_pos_site_id
 _symmetry_equiv_pos_as_xyz
  1  'x, y, z'
loop_
 _atom_site_type_symbol
 _atom_site_label
 _atom_site_symmetry_multiplicity
 _atom_site_fract_x
 _atom_site_fract_y
 _atom_site_fract_z
 _atom_site_occupancy
  Sn  Sn0  1  -0.00000000  -0.00000000  -0.00000000  1
  Sb  Sb1  1  0.00000000  0.50000000  0.00000000  1
