# generated using pymatgen
data_SmErTi2(Fe8Co3)2
_symmetry_space_group_name_H-M   'P 1'
_cell_length_a   4.71135825
_cell_length_b   6.42689121
_cell_length_c   11.94269387
_cell_angle_alpha   90.00254804
_cell_angle_beta   90.00000000
_cell_angle_gamma   111.50206599
_symmetry_Int_Tables_number   1
_chemical_formula_structural   SmErTi2(Fe8Co3)2
_chemical_formula_sum   'Sm1 Er1 Ti2 Fe16 Co6'
_cell_volume   336.45044764
_cell_formula_units_Z   1
loop_
 _symmetry_equiv_pos_site_id
 _symmetry_equiv_pos_as_xyz
  1  'x, y, z'
loop_
 _atom_site_type_symbol
 _atom_site_label
 _atom_site_symmetry_multiplicity
 _atom_site_fract_x
 _atom_site_fract_y
 _atom_site_fract_z
 _atom_site_occupancy
  Sm  Sm0  1  0.50262905  0.00525809  0.50282728  1
  Er  Er1  1  0.00312596  0.00625191  0.00276330  1
  Ti  Ti2  1  0.31209616  0.62419232  0.31081069  1
  Ti  Ti3  1  0.81202474  0.62404949  0.81340286  1
  Fe  Fe4  1  0.39004383  0.78008766  0.10862646  1
  Fe  Fe5  1  0.88827181  0.77654361  0.61210592  1
  Fe  Fe6  1  0.11117599  0.22235199  0.38735682  1
  Fe  Fe7  1  0.60938654  0.21877308  0.89086649  1
  Fe  Fe8  1  0.88645539  0.77291078  0.38573915  1
  Fe  Fe9  1  0.38820094  0.77640188  0.88903746  1
  Fe  Fe10  1  0.61606319  0.23212638  0.11524946  1
  Fe  Fe11  1  0.11798359  0.23596718  0.61878263  1
  Fe  Fe12  1  0.25165431  0.00290486  0.24856887  1
  Fe  Fe13  1  0.75236687  0.00270005  0.75161187  1
  Fe  Fe14  1  0.75125054  0.00290486  0.24856887  1
  Fe  Fe15  1  0.25033318  0.00270005  0.75161187  1
  Fe  Fe16  1  0.49953791  0.50032000  0.50147908  1
  Fe  Fe17  1  0.99952142  0.50008516  0.00147954  1
  Fe  Fe18  1  0.00078209  0.50032000  0.50147908  1
  Fe  Fe19  1  0.50056375  0.50008516  0.00147954  1
  Co  Co20  1  0.68148335  0.36296670  0.32079541  1
  Co  Co21  1  0.18051856  0.36103713  0.82350327  1
  Co  Co22  1  0.82269803  0.64539606  0.17950318  1
  Co  Co23  1  0.32172947  0.64345894  0.68245941  1
  Co  Co24  1  0.17465491  0.34930982  0.17372621  1
  Co  Co25  1  0.67544841  0.35089682  0.67616529  1
