# generated using pymatgen
data_Sm2ScNbO7
_symmetry_space_group_name_H-M   'P 1'
_cell_length_a   7.46905815
_cell_length_b   7.40921209
_cell_length_c   7.54165931
_cell_angle_alpha   90.00000000
_cell_angle_beta   59.67793215
_cell_angle_gamma   119.73529965
_symmetry_Int_Tables_number   1
_chemical_formula_structural   Sm2ScNbO7
_chemical_formula_sum   'Sm4 Sc2 Nb2 O14'
_cell_volume   294.85016498
_cell_formula_units_Z   2
loop_
 _symmetry_equiv_pos_site_id
 _symmetry_equiv_pos_as_xyz
  1  'x, y, z'
loop_
 _atom_site_type_symbol
 _atom_site_label
 _atom_site_symmetry_multiplicity
 _atom_site_fract_x
 _atom_site_fract_y
 _atom_site_fract_z
 _atom_site_occupancy
  Sm  Sm0  1  0.50000000  0.00000000  0.50000000  1
  Sm  Sm1  1  0.50000000  0.50000000  0.50000000  1
  Sm  Sm2  1  -0.00000000  0.50000000  0.00000000  1
  Sm  Sm3  1  -0.00000000  0.50000000  0.50000000  1
  Sc  Sc4  1  0.50000000  0.50000000  0.00000000  1
  Sc  Sc5  1  0.50000000  0.00000000  0.00000000  1
  Nb  Nb6  1  0.00000000  0.00000000  0.50000000  1
  Nb  Nb7  1  -0.00000000  0.00000000  0.00000000  1
  O  O8  1  0.85954075  0.92977037  0.32022963  1
  O  O9  1  0.69371120  0.34685560  0.90314440  1
  O  O10  1  0.25060301  0.92528830  0.90778052  1
  O  O11  1  0.25060301  0.32531471  0.34161647  1
  O  O12  1  0.25060301  0.32531471  0.90778052  1
  O  O13  1  0.25060301  0.92528830  0.34161647  1
  O  O14  1  0.14045925  0.07022963  0.67977037  1
  O  O15  1  0.30628880  0.65314440  0.09685560  1
  O  O16  1  0.74939699  0.07471170  0.09221948  1
  O  O17  1  0.74939699  0.67468529  0.65838353  1
  O  O18  1  0.74939699  0.67468529  0.09221948  1
  O  O19  1  0.74939699  0.07471170  0.65838353  1
  O  O20  1  0.74438733  0.37219366  0.37780634  1
  O  O21  1  0.25561267  0.62780634  0.62219366  1
