# generated using pymatgen
data_Pr2Mn17C2
_symmetry_space_group_name_H-M   'P 1'
_cell_length_a   6.50467096
_cell_length_b   6.48205993
_cell_length_c   6.50467096
_cell_angle_alpha   83.62653547
_cell_angle_beta   84.31488388
_cell_angle_gamma   83.62653547
_symmetry_Int_Tables_number   1
_chemical_formula_structural   Pr2Mn17C2
_chemical_formula_sum   'Pr2 Mn17 C2'
_cell_volume   269.83448524
_cell_formula_units_Z   1
loop_
 _symmetry_equiv_pos_site_id
 _symmetry_equiv_pos_as_xyz
  1  'x, y, z'
loop_
 _atom_site_type_symbol
 _atom_site_label
 _atom_site_symmetry_multiplicity
 _atom_site_fract_x
 _atom_site_fract_y
 _atom_site_fract_z
 _atom_site_occupancy
  Pr  Pr0  1  0.64128892  0.65883562  0.64128892  1
  Pr  Pr1  1  0.35871108  0.34116438  0.35871108  1
  Mn  Mn2  1  0.73406029  -0.00000000  0.26593971  1
  Mn  Mn3  1  0.99236717  0.28058042  0.71840310  1
  Mn  Mn4  1  0.28159690  0.71941958  0.00763283  1
  Mn  Mn5  1  0.00763283  0.71941958  0.28159690  1
  Mn  Mn6  1  0.71840310  0.28058042  0.99236717  1
  Mn  Mn7  1  0.26593971  0.00000000  0.73406029  1
  Mn  Mn8  1  -0.00000000  0.50000000  -0.00000000  1
  Mn  Mn9  1  0.50000000  -0.00000000  -0.00000000  1
  Mn  Mn10  1  -0.00000000  -0.00000000  0.50000000  1
  Mn  Mn11  1  0.33504650  0.33613157  0.86932667  1
  Mn  Mn12  1  0.34263270  0.87179868  0.34263270  1
  Mn  Mn13  1  0.86932667  0.33613157  0.33504650  1
  Mn  Mn14  1  0.66495350  0.66386843  0.13067333  1
  Mn  Mn15  1  0.65736730  0.12820132  0.65736730  1
  Mn  Mn16  1  0.13067333  0.66386843  0.66495350  1
  Mn  Mn17  1  0.90595045  0.90598620  0.90595045  1
  Mn  Mn18  1  0.09404955  0.09401380  0.09404955  1
  C  C19  1  -0.00000000  0.50000000  0.50000000  1
  C  C20  1  0.50000000  0.50000000  -0.00000000  1
