# generated using pymatgen
data_PNO
_symmetry_space_group_name_H-M   'P 1'
_cell_length_a   4.82156904
_cell_length_b   7.10074436
_cell_length_c   7.38273207
_cell_angle_alpha   86.16278326
_cell_angle_beta   109.05912480
_cell_angle_gamma   70.15288389
_symmetry_Int_Tables_number   1
_chemical_formula_structural   PNO
_chemical_formula_sum   'P6 N6 O6'
_cell_volume   220.17521922
_cell_formula_units_Z   6
loop_
 _symmetry_equiv_pos_site_id
 _symmetry_equiv_pos_as_xyz
  1  'x, y, z'
loop_
 _atom_site_type_symbol
 _atom_site_label
 _atom_site_symmetry_multiplicity
 _atom_site_fract_x
 _atom_site_fract_y
 _atom_site_fract_z
 _atom_site_occupancy
  P  P0  1  0.27150763  0.33223257  0.33299897  1
  P  P1  1  0.75380371  0.16478289  0.16409012  1
  P  P2  1  0.74550353  0.66478289  0.66409012  1
  P  P3  1  0.22925877  0.83223257  0.83299897  1
  P  P4  1  0.27165732  0.75006757  0.24841114  1
  P  P5  1  0.72668625  0.25006757  0.74841114  1
  N  N6  1  0.45330100  0.20081160  0.21589237  1
  N  N7  1  0.06177977  0.70081160  0.71589237  1
  N  N8  1  0.42619526  0.29930492  0.56028107  1
  N  N9  1  0.68397432  0.19903070  0.94260549  1
  N  N10  1  0.55960046  0.69903070  0.44260549  1
  N  N11  1  0.33478089  0.79930492  0.06028107  1
  O  O12  1  0.12782011  0.57346264  0.23570571  1
  O  O13  1  0.98081364  0.93226427  0.26645716  1
  O  O14  1  0.85337925  0.43226427  0.76645716  1
  O  O15  1  0.03442296  0.07346264  0.73570571  1
  O  O16  1  0.94205385  0.29804285  0.28355797  1
  O  O17  1  0.54346126  0.79804285  0.78355797  1
