# generated using pymatgen
data_Pt3(RhSe5)2
_symmetry_space_group_name_H-M   'P 1'
_cell_length_a   3.76910300
_cell_length_b   3.77053591
_cell_length_c   25.52931004
_cell_angle_alpha   90.00000000
_cell_angle_beta   90.01258597
_cell_angle_gamma   120.01257096
_symmetry_Int_Tables_number   1
_chemical_formula_structural   Pt3(RhSe5)2
_chemical_formula_sum   'Pt3 Rh2 Se10'
_cell_volume   314.16352063
_cell_formula_units_Z   1
loop_
 _symmetry_equiv_pos_site_id
 _symmetry_equiv_pos_as_xyz
  1  'x, y, z'
loop_
 _atom_site_type_symbol
 _atom_site_label
 _atom_site_symmetry_multiplicity
 _atom_site_fract_x
 _atom_site_fract_y
 _atom_site_fract_z
 _atom_site_occupancy
  Pt  Pt0  1  -0.00001670  -0.00000835  -0.00017508  1
  Pt  Pt1  1  -0.00000000  0.00000000  0.20000000  1
  Pt  Pt2  1  0.00001670  0.00000835  0.40017508  1
  Rh  Rh3  1  0.00000718  0.00000359  0.59947533  1
  Rh  Rh4  1  -0.00000718  -0.00000359  0.80052467  1
  Se  Se5  1  0.33341739  0.66670870  0.05064726  1
  Se  Se6  1  0.33340568  0.66670284  0.25083572  1
  Se  Se7  1  0.33341209  0.66670604  0.45139289  1
  Se  Se8  1  0.33308533  0.66654267  0.64964006  1
  Se  Se9  1  0.33317096  0.66658548  0.84898218  1
  Se  Se10  1  0.66659432  0.33329716  0.14916428  1
  Se  Se11  1  0.66658261  0.33329130  0.34935274  1
  Se  Se12  1  0.66682904  0.33341452  0.55101782  1
  Se  Se13  1  0.66691467  0.33345733  0.75035994  1
  Se  Se14  1  0.66658791  0.33329396  0.94860711  1
