# generated using pymatgen
data_Nd4Si5
_symmetry_space_group_name_H-M   'P 1'
_cell_length_a   3.94827607
_cell_length_b   4.31038827
_cell_length_c   12.68203530
_cell_angle_alpha   80.21562796
_cell_angle_beta   90.00000000
_cell_angle_gamma   90.00000000
_symmetry_Int_Tables_number   1
_chemical_formula_structural   Nd4Si5
_chemical_formula_sum   'Nd4 Si5'
_cell_volume   212.69111365
_cell_formula_units_Z   1
loop_
 _symmetry_equiv_pos_site_id
 _symmetry_equiv_pos_as_xyz
  1  'x, y, z'
loop_
 _atom_site_type_symbol
 _atom_site_label
 _atom_site_symmetry_multiplicity
 _atom_site_fract_x
 _atom_site_fract_y
 _atom_site_fract_z
 _atom_site_occupancy
  Nd  Nd0  1  0.25000000  0.57028265  0.85943470  1
  Nd  Nd1  1  0.75000000  0.42999491  0.14001018  1
  Nd  Nd2  1  0.25000000  0.29905886  0.40188227  1
  Nd  Nd3  1  0.75000000  0.70236340  0.59527321  1
  Si  Si4  1  0.25000000  0.17062508  0.65874984  1
  Si  Si5  1  0.75000000  0.82927809  0.34144382  1
  Si  Si6  1  0.25000000  0.88720551  0.22558898  1
  Si  Si7  1  0.75000000  0.11171546  0.77656909  1
  Si  Si8  1  0.25000000  0.98147604  0.03704793  1
