# generated using pymatgen
data_Pr5Al4(AgGe2)2
_symmetry_space_group_name_H-M   'P 1'
_cell_length_a   4.30981407
_cell_length_b   4.33170337
_cell_length_c   19.18423476
_cell_angle_alpha   83.52078456
_cell_angle_beta   90.00000000
_cell_angle_gamma   90.00000000
_symmetry_Int_Tables_number   1
_chemical_formula_structural   Pr5Al4(AgGe2)2
_chemical_formula_sum   'Pr5 Al4 Ag2 Ge4'
_cell_volume   355.85979631
_cell_formula_units_Z   1
loop_
 _symmetry_equiv_pos_site_id
 _symmetry_equiv_pos_as_xyz
  1  'x, y, z'
loop_
 _atom_site_type_symbol
 _atom_site_label
 _atom_site_symmetry_multiplicity
 _atom_site_fract_x
 _atom_site_fract_y
 _atom_site_fract_z
 _atom_site_occupancy
  Pr  Pr0  1  0.00000000  0.00606804  0.98754481  1
  Pr  Pr1  1  0.00000000  0.39499073  0.20998496  1
  Pr  Pr2  1  0.00000000  0.79605057  0.40774038  1
  Pr  Pr3  1  0.00000000  0.19905609  0.60155461  1
  Pr  Pr4  1  -0.00000000  0.60219009  0.79584156  1
  Al  Al5  1  0.50000000  0.73180010  0.53611663  1
  Al  Al6  1  0.50000000  0.13446328  0.73134577  1
  Al  Al7  1  0.50000000  0.53535586  0.92903496  1
  Al  Al8  1  0.50000000  0.46785047  0.06430716  1
  Ag  Ag9  1  0.50000000  0.93439200  0.13128438  1
  Ag  Ag10  1  0.50000000  0.33114380  0.33777237  1
  Ge  Ge11  1  0.50000000  0.86664450  0.26686487  1
  Ge  Ge12  1  0.50000000  0.26408282  0.47149769  1
  Ge  Ge13  1  0.50000000  0.66648264  0.66720836  1
  Ge  Ge14  1  0.50000000  0.06892900  0.86190150  1
