# generated using pymatgen
data_NdGaSb2
_symmetry_space_group_name_H-M   'P 1'
_cell_length_a   4.38387511
_cell_length_b   4.38387511
_cell_length_c   22.87038722
_cell_angle_alpha   84.50023135
_cell_angle_beta   84.50023135
_cell_angle_gamma   90.00000000
_symmetry_Int_Tables_number   1
_chemical_formula_structural   NdGaSb2
_chemical_formula_sum   'Nd4 Ga4 Sb8'
_cell_volume   435.47526615
_cell_formula_units_Z   4
loop_
 _symmetry_equiv_pos_site_id
 _symmetry_equiv_pos_as_xyz
  1  'x, y, z'
loop_
 _atom_site_type_symbol
 _atom_site_label
 _atom_site_symmetry_multiplicity
 _atom_site_fract_x
 _atom_site_fract_y
 _atom_site_fract_z
 _atom_site_occupancy
  Nd  Nd0  1  0.31921249  0.56921249  0.36157503  1
  Nd  Nd1  1  0.06921249  0.81921249  0.86157503  1
  Nd  Nd2  1  0.68078751  0.43078751  0.63842497  1
  Nd  Nd3  1  0.93078751  0.18078751  0.13842497  1
  Ga  Ga4  1  -0.00000000  0.66293603  0.50000000  1
  Ga  Ga5  1  0.16293603  0.50000000  0.00000000  1
  Ga  Ga6  1  0.50000000  0.33706397  0.50000000  1
  Ga  Ga7  1  0.83706397  -0.00000000  0.00000000  1
  Sb  Sb8  1  0.45419218  0.70419218  0.09161564  1
  Sb  Sb9  1  0.20419218  0.95419218  0.59161564  1
  Sb  Sb10  1  0.54580782  0.29580782  0.90838436  1
  Sb  Sb11  1  0.79580782  0.04580782  0.40838436  1
  Sb  Sb12  1  0.87500000  0.62500000  0.25000000  1
  Sb  Sb13  1  0.12500000  0.37500000  0.75000000  1
  Sb  Sb14  1  0.62500000  0.87500000  0.75000000  1
  Sb  Sb15  1  0.37500000  0.12500000  0.25000000  1
