# generated using pymatgen
data_Pr2ScNbO7
_symmetry_space_group_name_H-M   'P 1'
_cell_length_a   7.56656870
_cell_length_b   7.51144440
_cell_length_c   7.62214171
_cell_angle_alpha   90.00000000
_cell_angle_beta   59.75674551
_cell_angle_gamma   119.75929726
_symmetry_Int_Tables_number   1
_chemical_formula_structural   Pr2ScNbO7
_chemical_formula_sum   'Pr4 Sc2 Nb2 O14'
_cell_volume   306.30914245
_cell_formula_units_Z   2
loop_
 _symmetry_equiv_pos_site_id
 _symmetry_equiv_pos_as_xyz
  1  'x, y, z'
loop_
 _atom_site_type_symbol
 _atom_site_label
 _atom_site_symmetry_multiplicity
 _atom_site_fract_x
 _atom_site_fract_y
 _atom_site_fract_z
 _atom_site_occupancy
  Pr  Pr0  1  0.50000000  -0.00000000  0.50000000  1
  Pr  Pr1  1  0.50000000  0.50000000  0.50000000  1
  Pr  Pr2  1  0.00000000  0.50000000  -0.00000000  1
  Pr  Pr3  1  0.00000000  0.50000000  0.50000000  1
  Sc  Sc4  1  0.50000000  0.50000000  -0.00000000  1
  Sc  Sc5  1  0.50000000  -0.00000000  -0.00000000  1
  Nb  Nb6  1  -0.00000000  -0.00000000  0.50000000  1
  Nb  Nb7  1  -0.00000000  -0.00000000  -0.00000000  1
  O  O8  1  0.85931128  0.92965564  0.32034436  1
  O  O9  1  0.68392455  0.34196227  0.90803773  1
  O  O10  1  0.24848849  0.92690512  0.91242519  1
  O  O11  1  0.24848849  0.32158337  0.33908632  1
  O  O12  1  0.24848849  0.32158337  0.91242519  1
  O  O13  1  0.24848849  0.92690512  0.33908632  1
  O  O14  1  0.14068872  0.07034436  0.67965564  1
  O  O15  1  0.31607545  0.65803773  0.09196227  1
  O  O16  1  0.75151151  0.07309488  0.08757481  1
  O  O17  1  0.75151151  0.67841663  0.66091368  1
  O  O18  1  0.75151151  0.67841663  0.08757481  1
  O  O19  1  0.75151151  0.07309488  0.66091368  1
  O  O20  1  0.74565806  0.37282903  0.37717097  1
  O  O21  1  0.25434194  0.62717097  0.62282903  1
