# generated using pymatgen
data_Nb6CdS8
_symmetry_space_group_name_H-M   'P 1'
_cell_length_a   3.38033762
_cell_length_b   9.70921570
_cell_length_c   9.71128461
_cell_angle_alpha   60.00950232
_cell_angle_beta   90.00130784
_cell_angle_gamma   90.00134109
_symmetry_Int_Tables_number   1
_chemical_formula_structural   Nb6CdS8
_chemical_formula_sum   'Nb6 Cd1 S8'
_cell_volume   276.05341160
_cell_formula_units_Z   1
loop_
 _symmetry_equiv_pos_site_id
 _symmetry_equiv_pos_as_xyz
  1  'x, y, z'
loop_
 _atom_site_type_symbol
 _atom_site_label
 _atom_site_symmetry_multiplicity
 _atom_site_fract_x
 _atom_site_fract_y
 _atom_site_fract_z
 _atom_site_occupancy
  Nb  Nb0  1  0.75010743  0.37255005  0.51371622  1
  Nb  Nb1  1  0.75011882  0.11376491  0.37252426  1
  Nb  Nb2  1  0.75010334  0.51369417  0.11373519  1
  Nb  Nb3  1  0.24989257  0.62744995  0.48628378  1
  Nb  Nb4  1  0.24988118  0.88623509  0.62747574  1
  Nb  Nb5  1  0.24989666  0.48630583  0.88626481  1
  Cd  Cd6  1  0.50000000  -0.00000000  0.00000000  1
  S  S7  1  0.75006039  0.66671122  0.66665471  1
  S  S8  1  0.24993961  0.33328878  0.33334529  1
  S  S9  1  0.74966378  0.05657855  0.65607850  1
  S  S10  1  0.74966684  0.28726225  0.05656666  1
  S  S11  1  0.74964186  0.65609846  0.28727863  1
  S  S12  1  0.25033622  0.94342145  0.34392150  1
  S  S13  1  0.25033316  0.71273775  0.94343334  1
  S  S14  1  0.25035814  0.34390154  0.71272137  1
