# generated using pymatgen
data_NaV5MoO15
_symmetry_space_group_name_H-M   'P 1'
_cell_length_a   3.74448411
_cell_length_b   8.18837101
_cell_length_c   10.29179277
_cell_angle_alpha   108.61116971
_cell_angle_beta   90.00000000
_cell_angle_gamma   76.78260626
_symmetry_Int_Tables_number   1
_chemical_formula_structural   NaV5MoO15
_chemical_formula_sum   'Na1 V5 Mo1 O15'
_cell_volume   290.22298456
_cell_formula_units_Z   1
loop_
 _symmetry_equiv_pos_site_id
 _symmetry_equiv_pos_as_xyz
  1  'x, y, z'
loop_
 _atom_site_type_symbol
 _atom_site_label
 _atom_site_symmetry_multiplicity
 _atom_site_fract_x
 _atom_site_fract_y
 _atom_site_fract_z
 _atom_site_occupancy
  Na  Na0  1  0.99551755  0.00896489  0.39677801  1
  V  V1  1  0.71400439  0.57199122  0.41258591  1
  V  V2  1  0.28710007  0.42579986  0.58993325  1
  V  V3  1  0.66719942  0.66560115  0.10223593  1
  V  V4  1  0.33481973  0.33036054  0.90592052  1
  V  V5  1  0.87508863  0.24982273  0.12657692  1
  Mo  Mo6  1  0.11375046  0.77249908  0.88878889  1
  O  O7  1  0.76021468  0.47957064  0.57277733  1
  O  O8  1  0.24027099  0.51945802  0.43412053  1
  O  O9  1  0.73983744  0.52032513  0.22760234  1
  O  O10  1  0.26210825  0.47578351  0.77502829  1
  O  O11  1  0.81156647  0.37686705  0.94862002  1
  O  O12  1  0.18584815  0.62830369  0.03959133  1
  O  O13  1  0.56859036  0.86281929  0.22280282  1
  O  O14  1  0.42864954  0.14270091  0.78298319  1
  O  O15  1  0.00001491  0.99997018  0.99529965  1
  O  O16  1  0.89279256  0.21441488  0.27596886  1
  O  O17  1  0.11032573  0.77934855  0.72303552  1
  O  O18  1  0.60631690  0.78736619  0.46516937  1
  O  O19  1  0.39521445  0.20957109  0.52748697  1
  O  O20  1  0.36677652  0.26644695  0.06801996  1
  O  O21  1  0.63499279  0.73001443  0.92067438  1
