# generated using pymatgen
data_NdCoSbPbO6
_symmetry_space_group_name_H-M   'P 1'
_cell_length_a   5.64614456
_cell_length_b   5.82443803
_cell_length_c   8.03260950
_cell_angle_alpha   90.00000000
_cell_angle_beta   89.68672734
_cell_angle_gamma   90.00000000
_symmetry_Int_Tables_number   1
_chemical_formula_structural   NdCoSbPbO6
_chemical_formula_sum   'Nd2 Co2 Sb2 Pb2 O12'
_cell_volume   264.15338799
_cell_formula_units_Z   2
loop_
 _symmetry_equiv_pos_site_id
 _symmetry_equiv_pos_as_xyz
  1  'x, y, z'
loop_
 _atom_site_type_symbol
 _atom_site_label
 _atom_site_symmetry_multiplicity
 _atom_site_fract_x
 _atom_site_fract_y
 _atom_site_fract_z
 _atom_site_occupancy
  Nd  Nd0  1  0.51538229  0.43983914  0.75195969  1
  Nd  Nd1  1  0.01538229  0.06016086  0.25195969  1
  Co  Co2  1  0.00110641  0.51456245  0.50262644  1
  Co  Co3  1  0.50110641  0.98543755  0.00262644  1
  Sb  Sb4  1  0.00050757  0.50896039  0.99872994  1
  Sb  Sb5  1  0.50050757  0.99103961  0.49872994  1
  Pb  Pb6  1  0.49542626  0.52190926  0.25444350  1
  Pb  Pb7  1  0.99542626  0.97809074  0.75444350  1
  O  O8  1  0.20469981  0.81038559  0.44975068  1
  O  O9  1  0.70469981  0.68961441  0.94975068  1
  O  O10  1  0.77746004  0.20737894  0.53550765  1
  O  O11  1  0.27746004  0.29262106  0.03550765  1
  O  O12  1  0.60072871  0.98387491  0.25674873  1
  O  O13  1  0.10072871  0.51612509  0.75674873  1
  O  O14  1  0.43226196  0.03178157  0.74431232  1
  O  O15  1  0.93226196  0.46821843  0.24431232  1
  O  O16  1  0.28922069  0.26919316  0.45761721  1
  O  O17  1  0.78922069  0.23080684  0.95761721  1
  O  O18  1  0.68320626  0.70258202  0.54830384  1
  O  O19  1  0.18320626  0.79741798  0.04830384  1
