# generated using pymatgen
data_Nd4Zr3TiO14
_symmetry_space_group_name_H-M   'P 1'
_cell_length_a   7.56452487
_cell_length_b   7.56359075
_cell_length_c   7.56452487
_cell_angle_alpha   90.00000000
_cell_angle_beta   60.00000000
_cell_angle_gamma   120.00408549
_symmetry_Int_Tables_number   1
_chemical_formula_structural   Nd4Zr3TiO14
_chemical_formula_sum   'Nd4 Zr3 Ti1 O14'
_cell_volume   306.01978995
_cell_formula_units_Z   1
loop_
 _symmetry_equiv_pos_site_id
 _symmetry_equiv_pos_as_xyz
  1  'x, y, z'
loop_
 _atom_site_type_symbol
 _atom_site_label
 _atom_site_symmetry_multiplicity
 _atom_site_fract_x
 _atom_site_fract_y
 _atom_site_fract_z
 _atom_site_occupancy
  Nd  Nd0  1  0.50000000  0.00000000  0.50000000  1
  Nd  Nd1  1  0.50000000  0.50000000  0.50000000  1
  Nd  Nd2  1  -0.00000000  0.50000000  0.00000000  1
  Nd  Nd3  1  -0.00000000  0.50000000  0.50000000  1
  Zr  Zr4  1  0.50000000  0.00000000  0.00000000  1
  Zr  Zr5  1  -0.00000000  0.00000000  0.50000000  1
  Zr  Zr6  1  -0.00000000  0.00000000  0.00000000  1
  Ti  Ti7  1  0.50000000  0.50000000  0.00000000  1
  O  O8  1  0.75195801  0.37793701  0.37402100  1
  O  O9  1  0.24804199  0.62206299  0.62597900  1
  O  O10  1  0.82226909  0.90622294  0.33886545  1
  O  O11  1  0.65269965  0.33485678  0.92365018  1
  O  O12  1  0.24508840  0.90622294  0.91604615  1
  O  O13  1  0.25850695  0.33485678  0.31784287  1
  O  O14  1  0.25850695  0.33485678  0.92365018  1
  O  O15  1  0.24508840  0.90622294  0.33886545  1
  O  O16  1  0.17773091  0.09377706  0.66113455  1
  O  O17  1  0.34730035  0.66514322  0.07634982  1
  O  O18  1  0.75491160  0.09377706  0.08395385  1
  O  O19  1  0.74149305  0.66514322  0.68215713  1
  O  O20  1  0.74149305  0.66514322  0.07634982  1
  O  O21  1  0.75491160  0.09377706  0.66113455  1
