# generated using pymatgen
data_KH3(CO2)2
_symmetry_space_group_name_H-M   'P 1'
_cell_length_a   7.55441514
_cell_length_b   7.63724023
_cell_length_c   17.95619312
_cell_angle_alpha   90.00000000
_cell_angle_beta   90.00000000
_cell_angle_gamma   90.00000000
_symmetry_Int_Tables_number   1
_chemical_formula_structural   KH3(CO2)2
_chemical_formula_sum   'K8 H24 C16 O32'
_cell_volume   1035.98046516
_cell_formula_units_Z   8
loop_
 _symmetry_equiv_pos_site_id
 _symmetry_equiv_pos_as_xyz
  1  'x, y, z'
loop_
 _atom_site_type_symbol
 _atom_site_label
 _atom_site_symmetry_multiplicity
 _atom_site_fract_x
 _atom_site_fract_y
 _atom_site_fract_z
 _atom_site_occupancy
  H  H0  1  0.94886510  0.43032037  0.72807566  1
  H  H1  1  0.44886510  0.56967963  0.77192434  1
  H  H2  1  0.55113490  0.93032037  0.27192434  1
  H  H3  1  0.05113490  0.06967963  0.22807566  1
  H  H4  1  0.05113490  0.56967963  0.27192434  1
  H  H5  1  0.55113490  0.43032037  0.22807566  1
  H  H6  1  0.44886510  0.06967963  0.72807566  1
  H  H7  1  0.94886510  0.93032037  0.77192434  1
  H  H8  1  0.74188482  0.31256637  0.80078799  1
  H  H9  1  0.24188482  0.68743363  0.69921201  1
  H  H10  1  0.75811518  0.81256637  0.19921201  1
  H  H11  1  0.25811518  0.18743363  0.30078799  1
  H  H12  1  0.25811518  0.68743363  0.19921201  1
  H  H13  1  0.75811518  0.31256637  0.30078799  1
  H  H14  1  0.24188482  0.18743363  0.80078799  1
  H  H15  1  0.74188482  0.81256637  0.69921201  1
  H  H16  1  0.62766022  0.24789006  0.65667263  1
  H  H17  1  0.12766022  0.75210994  0.84332737  1
  H  H18  1  0.87233978  0.74789006  0.34332737  1
  H  H19  1  0.37233978  0.25210994  0.15667263  1
  H  H20  1  0.37233978  0.75210994  0.34332737  1
  H  H21  1  0.87233978  0.24789006  0.15667263  1
  H  H22  1  0.12766022  0.25210994  0.65667263  1
  H  H23  1  0.62766022  0.74789006  0.84332737  1
  C  C24  1  0.85388973  0.37342382  0.83138694  1
  C  C25  1  0.35388973  0.62657618  0.66861306  1
  C  C26  1  0.64611027  0.87342382  0.16861306  1
  C  C27  1  0.14611027  0.12657618  0.33138694  1
  C  C28  1  0.14611027  0.62657618  0.16861306  1
  C  C29  1  0.64611027  0.37342382  0.33138694  1
  C  C30  1  0.35388973  0.12657618  0.83138694  1
  C  C31  1  0.85388973  0.87342382  0.66861306  1
  C  C32  1  0.52393785  0.18371363  0.62233263  1
  C  C33  1  0.02393785  0.81628637  0.87766737  1
  C  C34  1  0.97606215  0.68371363  0.37766737  1
  C  C35  1  0.47606215  0.31628637  0.12233263  1
  C  C36  1  0.47606215  0.81628637  0.37766737  1
  C  C37  1  0.97606215  0.18371363  0.12233263  1
  C  C38  1  0.02393785  0.31628637  0.62233263  1
  C  C39  1  0.52393785  0.68371363  0.87766737  1
  O  O40  1  0.85653189  0.37334635  0.90058454  1
  O  O41  1  0.35653189  0.62665365  0.59941546  1
  O  O42  1  0.64346811  0.87334635  0.09941546  1
  O  O43  1  0.14346811  0.12665365  0.40058454  1
  O  O44  1  0.14346811  0.62665365  0.09941546  1
  O  O45  1  0.64346811  0.37334635  0.40058454  1
  O  O46  1  0.35653189  0.12665365  0.90058454  1
  O  O47  1  0.85653189  0.87334635  0.59941546  1
  O  O48  1  0.97803852  0.44181230  0.79029386  1
  O  O49  1  0.47803852  0.55818770  0.70970614  1
  O  O50  1  0.52196148  0.94181230  0.20970614  1
  O  O51  1  0.02196148  0.05818770  0.29029386  1
  O  O52  1  0.02196148  0.55818770  0.20970614  1
  O  O53  1  0.52196148  0.44181230  0.29029386  1
  O  O54  1  0.47803852  0.05818770  0.79029386  1
  O  O55  1  0.97803852  0.94181230  0.70970614  1
  O  O56  1  0.51593724  0.21712586  0.55407295  1
  O  O57  1  0.01593724  0.78287414  0.94592705  1
  O  O58  1  0.98406276  0.71712586  0.44592705  1
  O  O59  1  0.48406276  0.28287414  0.05407295  1
  O  O60  1  0.48406276  0.78287414  0.44592705  1
  O  O61  1  0.98406276  0.21712586  0.05407295  1
  O  O62  1  0.01593724  0.28287414  0.55407295  1
  O  O63  1  0.51593724  0.71712586  0.94592705  1
  O  O64  1  0.91821275  0.42149305  0.65680635  1
  O  O65  1  0.41821275  0.57850695  0.84319365  1
  O  O66  1  0.58178725  0.92149305  0.34319365  1
  O  O67  1  0.08178725  0.07850695  0.15680635  1
  O  O68  1  0.08178725  0.57850695  0.34319365  1
  O  O69  1  0.58178725  0.42149305  0.15680635  1
  O  O70  1  0.41821275  0.07850695  0.65680635  1
  O  O71  1  0.91821275  0.92149305  0.84319365  1
  K  K72  1  0.71572510  0.06377975  0.96352152  1
  K  K73  1  0.21572510  0.93622025  0.53647848  1
  K  K74  1  0.78427490  0.56377975  0.03647848  1
  K  K75  1  0.28427490  0.43622025  0.46352152  1
  K  K76  1  0.28427490  0.93622025  0.03647848  1
  K  K77  1  0.78427490  0.06377975  0.46352152  1
  K  K78  1  0.21572510  0.43622025  0.96352152  1
  K  K79  1  0.71572510  0.56377975  0.53647848  1
