# generated using pymatgen
data_Na2ZnFe(PO4)2
_symmetry_space_group_name_H-M   'P 1'
_cell_length_a   5.08278458
_cell_length_b   6.94208119
_cell_length_c   9.08818565
_cell_angle_alpha   90.00000000
_cell_angle_beta   90.00000000
_cell_angle_gamma   90.29482394
_symmetry_Int_Tables_number   1
_chemical_formula_structural   Na2ZnFe(PO4)2
_chemical_formula_sum   'Na4 Zn2 Fe2 P4 O16'
_cell_volume   320.67332356
_cell_formula_units_Z   2
loop_
 _symmetry_equiv_pos_site_id
 _symmetry_equiv_pos_as_xyz
  1  'x, y, z'
loop_
 _atom_site_type_symbol
 _atom_site_label
 _atom_site_symmetry_multiplicity
 _atom_site_fract_x
 _atom_site_fract_y
 _atom_site_fract_z
 _atom_site_occupancy
  Na  Na0  1  0.46793287  0.75046382  0.14878619  1
  Na  Na1  1  0.03206713  0.74953618  0.64878619  1
  Na  Na2  1  0.53206713  0.24953618  0.85121381  1
  Na  Na3  1  0.96793287  0.25046382  0.35121381  1
  Zn  Zn4  1  0.50000000  0.50000000  0.50000000  1
  Zn  Zn5  1  -0.00000000  0.00000000  -0.00000000  1
  Fe  Fe6  1  0.50000000  0.00000000  0.50000000  1
  Fe  Fe7  1  -0.00000000  0.50000000  -0.00000000  1
  P  P8  1  0.96204346  0.74972358  0.32527701  1
  P  P9  1  0.53795654  0.75027642  0.82527701  1
  P  P10  1  0.03795654  0.25027642  0.67472299  1
  P  P11  1  0.46204346  0.24972358  0.17472299  1
  O  O12  1  0.95483345  0.75048772  0.15224078  1
  O  O13  1  0.54516655  0.74951228  0.65224078  1
  O  O14  1  0.04516655  0.24951228  0.84775922  1
  O  O15  1  0.45483345  0.25048772  0.34775922  1
  O  O16  1  0.81712078  0.93220428  0.37872989  1
  O  O17  1  0.68287922  0.56779572  0.87872989  1
  O  O18  1  0.18583274  0.43266218  0.62039007  1
  O  O19  1  0.31416726  0.06733782  0.12039007  1
  O  O20  1  0.18287922  0.06779572  0.62127011  1
  O  O21  1  0.31712078  0.43220428  0.12127011  1
  O  O22  1  0.81416726  0.56733782  0.37960993  1
  O  O23  1  0.68583274  0.93266218  0.87960993  1
  O  O24  1  0.24909160  0.74961249  0.38518236  1
  O  O25  1  0.25090840  0.75038751  0.88518236  1
  O  O26  1  0.75090840  0.25038751  0.61481764  1
  O  O27  1  0.74909160  0.24961249  0.11481764  1
