# generated using pymatgen
data_Mn6BP
_symmetry_space_group_name_H-M   'P 1'
_cell_length_a   4.29610001
_cell_length_b   6.58720157
_cell_length_c   6.47902465
_cell_angle_alpha   95.04925843
_cell_angle_beta   109.36221539
_cell_angle_gamma   70.96810760
_symmetry_Int_Tables_number   1
_chemical_formula_structural   Mn6BP
_chemical_formula_sum   'Mn12 B2 P2'
_cell_volume   163.48441898
_cell_formula_units_Z   2
loop_
 _symmetry_equiv_pos_site_id
 _symmetry_equiv_pos_as_xyz
  1  'x, y, z'
loop_
 _atom_site_type_symbol
 _atom_site_label
 _atom_site_symmetry_multiplicity
 _atom_site_fract_x
 _atom_site_fract_y
 _atom_site_fract_z
 _atom_site_occupancy
  Mn  Mn0  1  0.65667416  0.38293769  0.68073144  1
  Mn  Mn1  1  0.35888041  0.61706231  0.31926856  1
  Mn  Mn2  1  0.01590221  0.33562236  0.38919580  1
  Mn  Mn3  1  0.96232878  0.66437764  0.61080420  1
  Mn  Mn4  1  0.06702359  0.39745376  0.04070307  1
  Mn  Mn5  1  0.42377428  0.60254624  0.95929693  1
  Mn  Mn6  1  0.97332360  0.94302115  0.38397632  1
  Mn  Mn7  1  0.53236843  0.05697885  0.61602368  1
  Mn  Mn8  1  0.68260865  0.18996874  0.01744055  1
  Mn  Mn9  1  0.85513684  0.81003126  0.98255945  1
  Mn  Mn10  1  0.34472753  0.96124615  0.18404905  1
  Mn  Mn11  1  0.12192463  0.03875385  0.81595095  1
  B  B12  1  0.21575292  0.33649358  0.75169003  1
  B  B13  1  0.80055648  0.66350642  0.24830997  1
  P  P14  1  0.53657250  0.25025914  0.33438666  1
  P  P15  1  0.45244498  0.74974086  0.66561334  1
