# generated using pymatgen
data_Mo3Os2
_symmetry_space_group_name_H-M   'P 1'
_cell_length_a   4.97792686
_cell_length_b   9.67435475
_cell_length_c   9.67435475
_cell_angle_alpha   90.12336953
_cell_angle_beta   90.00000000
_cell_angle_gamma   90.00000000
_symmetry_Int_Tables_number   1
_chemical_formula_structural   Mo3Os2
_chemical_formula_sum   'Mo18 Os12'
_cell_volume   465.89872432
_cell_formula_units_Z   6
loop_
 _symmetry_equiv_pos_site_id
 _symmetry_equiv_pos_as_xyz
  1  'x, y, z'
loop_
 _atom_site_type_symbol
 _atom_site_label
 _atom_site_symmetry_multiplicity
 _atom_site_fract_x
 _atom_site_fract_y
 _atom_site_fract_z
 _atom_site_occupancy
  Mo  Mo0  1  0.49944512  0.10385271  0.89614729  1
  Mo  Mo1  1  0.49944512  0.89614729  0.10385271  1
  Mo  Mo2  1  0.99913787  0.39696039  0.39696039  1
  Mo  Mo3  1  0.99913787  0.60303961  0.60303961  1
  Mo  Mo4  1  0.49976713  0.36925268  0.96180473  1
  Mo  Mo5  1  0.49976713  0.63074732  0.03819527  1
  Mo  Mo6  1  0.00086647  0.13210398  0.46498582  1
  Mo  Mo7  1  0.00086647  0.86789602  0.53501418  1
  Mo  Mo8  1  0.49976713  0.96180473  0.36925268  1
  Mo  Mo9  1  0.49976713  0.03819527  0.63074732  1
  Mo  Mo10  1  0.00086647  0.46498582  0.13210398  1
  Mo  Mo11  1  0.00086647  0.53501418  0.86789602  1
  Mo  Mo12  1  0.74838973  0.18093341  0.18093341  1
  Mo  Mo13  1  0.74838973  0.81906659  0.81906659  1
  Mo  Mo14  1  0.75087576  0.68097649  0.31902351  1
  Mo  Mo15  1  0.75087576  0.31902351  0.68097649  1
  Mo  Mo16  1  0.25034366  0.81779965  0.81779965  1
  Mo  Mo17  1  0.25034366  0.18220035  0.18220035  1
  Os  Os18  1  0.49852612  0.50000000  0.50000000  1
  Os  Os19  1  0.00154548  0.00000000  0.00000000  1
  Os  Os20  1  0.49833239  0.43395908  0.23593298  1
  Os  Os21  1  0.49833239  0.56604092  0.76406702  1
  Os  Os22  1  0.00167969  0.06835551  0.73635728  1
  Os  Os23  1  0.00167969  0.93164449  0.26364272  1
  Os  Os24  1  0.49833239  0.23593298  0.43395908  1
  Os  Os25  1  0.49833239  0.76406702  0.56604092  1
  Os  Os26  1  0.00167969  0.73635728  0.06835551  1
  Os  Os27  1  0.00167969  0.26364272  0.93164449  1
  Os  Os28  1  0.25048068  0.31890080  0.68109920  1
  Os  Os29  1  0.25048068  0.68109920  0.31890080  1
