# generated using pymatgen
data_Mo2N
_symmetry_space_group_name_H-M   'P 1'
_cell_length_a   2.90698516
_cell_length_b   2.90698515
_cell_length_c   5.27543323
_cell_angle_alpha   74.00692532
_cell_angle_beta   90.00000000
_cell_angle_gamma   119.99999992
_symmetry_Int_Tables_number   1
_chemical_formula_structural   Mo2N
_chemical_formula_sum   'Mo2 N1'
_cell_volume   36.60176980
_cell_formula_units_Z   1
loop_
 _symmetry_equiv_pos_site_id
 _symmetry_equiv_pos_as_xyz
  1  'x, y, z'
loop_
 _atom_site_type_symbol
 _atom_site_label
 _atom_site_symmetry_multiplicity
 _atom_site_fract_x
 _atom_site_fract_y
 _atom_site_fract_z
 _atom_site_occupancy
  Mo  Mo0  1  0.00695614  0.01391227  0.97913159  1
  Mo  Mo1  1  0.49304386  0.98608773  0.52086841  1
  N  N2  1  0.25000000  0.50000000  0.25000000  1
