# generated using pymatgen
data_MgMn2O3
_symmetry_space_group_name_H-M   'P 1'
_cell_length_a   3.13179763
_cell_length_b   3.13179763
_cell_length_c   7.68910557
_cell_angle_alpha   90.00000000
_cell_angle_beta   90.00000000
_cell_angle_gamma   120.00000000
_symmetry_Int_Tables_number   1
_chemical_formula_structural   MgMn2O3
_chemical_formula_sum   'Mg1 Mn2 O3'
_cell_volume   65.31212843
_cell_formula_units_Z   1
loop_
 _symmetry_equiv_pos_site_id
 _symmetry_equiv_pos_as_xyz
  1  'x, y, z'
loop_
 _atom_site_type_symbol
 _atom_site_label
 _atom_site_symmetry_multiplicity
 _atom_site_fract_x
 _atom_site_fract_y
 _atom_site_fract_z
 _atom_site_occupancy
  Mg  Mg0  1  -0.00000000  0.00000000  0.00000000  1
  Mn  Mn1  1  0.66666700  0.33333300  0.32836449  1
  Mn  Mn2  1  0.33333300  0.66666700  0.67163551  1
  O  O3  1  0.66666700  0.33333300  0.84515205  1
  O  O4  1  0.33333300  0.66666700  0.15484795  1
  O  O5  1  0.00000000  0.00000000  0.50000000  1
