# generated using pymatgen
data_MnFe2O3
_symmetry_space_group_name_H-M   'P 1'
_cell_length_a   3.21169260
_cell_length_b   4.27719922
_cell_length_c   5.47673015
_cell_angle_alpha   112.98488287
_cell_angle_beta   72.94959797
_cell_angle_gamma   90.00000000
_symmetry_Int_Tables_number   1
_chemical_formula_structural   MnFe2O3
_chemical_formula_sum   'Mn1 Fe2 O3'
_cell_volume   65.65421693
_cell_formula_units_Z   1
loop_
 _symmetry_equiv_pos_site_id
 _symmetry_equiv_pos_as_xyz
  1  'x, y, z'
loop_
 _atom_site_type_symbol
 _atom_site_label
 _atom_site_symmetry_multiplicity
 _atom_site_fract_x
 _atom_site_fract_y
 _atom_site_fract_z
 _atom_site_occupancy
  Mn  Mn0  1  0.00000000  -0.00000000  -0.00000000  1
  Fe  Fe1  1  0.33397232  0.66602768  0.33205435  1
  Fe  Fe2  1  0.66602768  0.33397232  0.66794565  1
  O  O3  1  0.00000000  0.50000000  -0.00000000  1
  O  O4  1  0.33083371  0.16916629  0.33833158  1
  O  O5  1  0.66916629  0.83083371  0.66166842  1
