# generated using pymatgen
data_MnCrB2
_symmetry_space_group_name_H-M   'P 1'
_cell_length_a   2.93480683
_cell_length_b   2.96271135
_cell_length_c   4.13827785
_cell_angle_alpha   69.02477157
_cell_angle_beta   90.00000000
_cell_angle_gamma   90.00000000
_symmetry_Int_Tables_number   1
_chemical_formula_structural   MnCrB2
_chemical_formula_sum   'Mn1 Cr1 B2'
_cell_volume   33.59791109
_cell_formula_units_Z   1
loop_
 _symmetry_equiv_pos_site_id
 _symmetry_equiv_pos_as_xyz
  1  'x, y, z'
loop_
 _atom_site_type_symbol
 _atom_site_label
 _atom_site_symmetry_multiplicity
 _atom_site_fract_x
 _atom_site_fract_y
 _atom_site_fract_z
 _atom_site_occupancy
  Mn  Mn0  1  0.25000000  0.14287967  0.71424066  1
  Cr  Cr1  1  0.75000000  0.85570956  0.28858089  1
  B  B2  1  0.75000000  0.56752134  0.86495732  1
  B  B3  1  0.25000000  0.43388943  0.13222114  1
