# generated using pymatgen
data_MnHg4S5
_symmetry_space_group_name_H-M   'P 1'
_cell_length_a   4.18391145
_cell_length_b   15.13147465
_cell_length_c   4.18391145
_cell_angle_alpha   82.05329384
_cell_angle_beta   90.00000000
_cell_angle_gamma   82.05329384
_symmetry_Int_Tables_number   1
_chemical_formula_structural   MnHg4S5
_chemical_formula_sum   'Mn1 Hg4 S5'
_cell_volume   259.76609737
_cell_formula_units_Z   1
loop_
 _symmetry_equiv_pos_site_id
 _symmetry_equiv_pos_as_xyz
  1  'x, y, z'
loop_
 _atom_site_type_symbol
 _atom_site_label
 _atom_site_symmetry_multiplicity
 _atom_site_fract_x
 _atom_site_fract_y
 _atom_site_fract_z
 _atom_site_occupancy
  Mn  Mn0  1  0.60000000  0.80000000  0.60000000  1
  Hg  Hg1  1  0.00354654  0.99290692  0.00354654  1
  Hg  Hg2  1  0.40053108  0.19893784  0.40053108  1
  Hg  Hg3  1  0.79946892  0.40106216  0.79946892  1
  Hg  Hg4  1  0.19645346  0.60709308  0.19645346  1
  S  S5  1  0.35000000  0.30000000  0.85000000  1
  S  S6  1  0.74815942  0.50368116  0.24815942  1
  S  S7  1  0.14280320  0.71439360  0.64280320  1
  S  S8  1  0.55719680  0.88560640  0.05719680  1
  S  S9  1  0.95184058  0.09631884  0.45184058  1
