# generated using pymatgen
data_Na2V16Mo2O45
_symmetry_space_group_name_H-M   'P 1'
_cell_length_a   9.69697140
_cell_length_b   10.92338424
_cell_length_c   9.69706739
_cell_angle_alpha   104.10611257
_cell_angle_beta   69.85074325
_cell_angle_gamma   115.99442005
_symmetry_Int_Tables_number   1
_chemical_formula_structural   Na2V16Mo2O45
_chemical_formula_sum   'Na2 V16 Mo2 O45'
_cell_volume   861.48516840
_cell_formula_units_Z   1
loop_
 _symmetry_equiv_pos_site_id
 _symmetry_equiv_pos_as_xyz
  1  'x, y, z'
loop_
 _atom_site_type_symbol
 _atom_site_label
 _atom_site_symmetry_multiplicity
 _atom_site_fract_x
 _atom_site_fract_y
 _atom_site_fract_z
 _atom_site_occupancy
  Na  Na0  1  0.25994860  0.39261377  0.12490345  1
  Na  Na1  1  0.07572014  0.60343202  0.53655604  1
  V  V2  1  0.32179613  0.41079300  0.51794785  1
  V  V3  1  0.65403727  0.41287646  0.18490712  1
  V  V4  1  0.98959881  0.41373031  0.85100145  1
  V  V5  1  0.68128996  0.58869364  0.48456033  1
  V  V6  1  0.01301901  0.58819807  0.15035754  1
  V  V7  1  0.34873841  0.59140788  0.81749544  1
  V  V8  1  0.06826524  0.10264712  0.36773330  1
  V  V9  1  0.40116615  0.10152557  0.03156628  1
  V  V10  1  0.73580994  0.10560954  0.70514004  1
  V  V11  1  0.93591446  0.90126556  0.63238043  1
  V  V12  1  0.26761151  0.89901273  0.30199363  1
  V  V13  1  0.59788838  0.89854962  0.96817857  1
  V  V14  1  0.95859218  0.12371761  0.91765325  1
  V  V15  1  0.62358103  0.12392394  0.24703327  1
  V  V16  1  0.29264267  0.11729514  0.58696155  1
  V  V17  1  0.37177785  0.88861943  0.74051855  1
  Mo  Mo18  1  0.04344289  0.88845877  0.07422751  1
  Mo  Mo19  1  0.70077746  0.88781368  0.41223506  1
  O  O20  1  0.40416952  0.26461180  0.65226692  1
  O  O21  1  0.74087703  0.26645469  0.31482079  1
  O  O22  1  0.07309651  0.27534924  0.98123177  1
  O  O23  1  0.58869400  0.72382608  0.35196971  1
  O  O24  1  0.92650379  0.72528501  0.01537017  1
  O  O25  1  0.26215611  0.73256154  0.68385064  1
  O  O26  1  0.78636881  0.95213261  0.80078619  1
  O  O27  1  0.10463768  0.95164394  0.46622514  1
  O  O28  1  0.44905023  0.94881793  0.12193360  1
  O  O29  1  0.21234303  0.03431374  0.20033308  1
  O  O30  1  0.55915152  0.04996867  0.86352665  1
  O  O31  1  0.87545904  0.04500975  0.53983967  1
  O  O32  1  0.25218418  0.46979028  0.43002238  1
  O  O33  1  0.57801639  0.46758137  0.10178886  1
  O  O34  1  0.92705591  0.47240233  0.75759559  1
  O  O35  1  0.75650962  0.53226448  0.56689602  1
  O  O36  1  0.08157186  0.52810951  0.23812812  1
  O  O37  1  0.40932042  0.53010223  0.90984079  1
  O  O38  1  0.33406855  0.99630538  0.66378209  1
  O  O39  1  0.65786481  0.99449906  0.33168005  1
  O  O40  1  0.99814163  0.99696458  0.99917908  1
  O  O41  1  0.47428254  0.57091891  0.61713458  1
  O  O42  1  0.80563277  0.57229914  0.28221809  1
  O  O43  1  0.13972309  0.57274465  0.94767335  1
  O  O44  1  0.52956595  0.42953695  0.38760588  1
  O  O45  1  0.86059437  0.42973816  0.04977523  1
  O  O46  1  0.19609308  0.43047458  0.71883903  1
  O  O47  1  0.41787882  0.07604408  0.39175539  1
  O  O48  1  0.74574258  0.07513276  0.06450842  1
  O  O49  1  0.08900303  0.07327258  0.72100203  1
  O  O50  1  0.58190548  0.92290279  0.61271066  1
  O  O51  1  0.91365197  0.92199467  0.27812000  1
  O  O52  1  0.25413025  0.92204331  0.93646069  1
  O  O53  1  0.05927673  0.22207038  0.30084665  1
  O  O54  1  0.37286710  0.22167019  0.98615184  1
  O  O55  1  0.71449764  0.21726258  0.64194761  1
  O  O56  1  0.95870121  0.78156114  0.68224632  1
  O  O57  1  0.27346160  0.77756996  0.36855667  1
  O  O58  1  0.61806295  0.78382531  0.02746950  1
  O  O59  1  0.22745620  0.22627605  0.48346350  1
  O  O60  1  0.55753406  0.22541982  0.15201325  1
  O  O61  1  0.88881866  0.22472284  0.81219842  1
  O  O62  1  0.77775005  0.77672901  0.52252744  1
  O  O63  1  0.10864488  0.77033381  0.18444165  1
  O  O64  1  0.44920025  0.77727826  0.85258182  1
