# generated using pymatgen
data_Mn7Ni8Sn
_symmetry_space_group_name_H-M   'P 1'
_cell_length_a   4.14037890
_cell_length_b   4.14037890
_cell_length_c   13.88311808
_cell_angle_alpha   81.42432235
_cell_angle_beta   98.57567765
_cell_angle_gamma   120.00000000
_symmetry_Int_Tables_number   1
_chemical_formula_structural   Mn7Ni8Sn
_chemical_formula_sum   'Mn7 Ni8 Sn1'
_cell_volume   203.03113230
_cell_formula_units_Z   1
loop_
 _symmetry_equiv_pos_site_id
 _symmetry_equiv_pos_as_xyz
  1  'x, y, z'
loop_
 _atom_site_type_symbol
 _atom_site_label
 _atom_site_symmetry_multiplicity
 _atom_site_fract_x
 _atom_site_fract_y
 _atom_site_fract_z
 _atom_site_occupancy
  Mn  Mn0  1  0.62300971  0.37699029  0.86902913  1
  Mn  Mn1  1  0.87414237  0.12585763  0.62242712  1
  Mn  Mn2  1  0.37699029  0.62300971  0.13097087  1
  Mn  Mn3  1  0.12585763  0.87414237  0.37757288  1
  Mn  Mn4  1  0.75193837  0.24806163  0.25581510  1
  Mn  Mn5  1  0.50000000  0.50000000  0.50000000  1
  Mn  Mn6  1  0.24806163  0.75193837  0.74418490  1
  Ni  Ni7  1  0.93488623  0.06511377  0.80465868  1
  Ni  Ni8  1  0.18711371  0.81288629  0.56134112  1
  Ni  Ni9  1  0.69141578  0.30858422  0.07424735  1
  Ni  Ni10  1  0.43814156  0.56185844  0.31442469  1
  Ni  Ni11  1  0.30858422  0.69141578  0.92575265  1
  Ni  Ni12  1  0.56185844  0.43814156  0.68557531  1
  Ni  Ni13  1  0.06511377  0.93488623  0.19534132  1
  Ni  Ni14  1  0.81288629  0.18711371  0.43865888  1
  Sn  Sn15  1  0.00000000  0.00000000  0.00000000  1
