# generated using pymatgen
data_Mn3Ni4Sn
_symmetry_space_group_name_H-M   'P 1'
_cell_length_a   4.17698154
_cell_length_b   4.17698154
_cell_length_c   7.34957469
_cell_angle_alpha   73.49107174
_cell_angle_beta   90.00000000
_cell_angle_gamma   120.00000000
_symmetry_Int_Tables_number   1
_chemical_formula_structural   Mn3Ni4Sn
_chemical_formula_sum   'Mn3 Ni4 Sn1'
_cell_volume   104.90148521
_cell_formula_units_Z   1
loop_
 _symmetry_equiv_pos_site_id
 _symmetry_equiv_pos_as_xyz
  1  'x, y, z'
loop_
 _atom_site_type_symbol
 _atom_site_label
 _atom_site_symmetry_multiplicity
 _atom_site_fract_x
 _atom_site_fract_y
 _atom_site_fract_z
 _atom_site_occupancy
  Mn  Mn0  1  0.24777314  0.49554629  0.25668057  1
  Mn  Mn1  1  0.75222686  0.50445371  0.74331943  1
  Mn  Mn2  1  0.50000000  -0.00000000  0.50000000  1
  Ni  Ni3  1  0.61896327  0.23792655  0.14311018  1
  Ni  Ni4  1  0.12902479  0.25804957  0.61292564  1
  Ni  Ni5  1  0.87097521  0.74195043  0.38707436  1
  Ni  Ni6  1  0.38103673  0.76207345  0.85688982  1
  Sn  Sn7  1  -0.00000000  -0.00000000  -0.00000000  1
