# generated using pymatgen
data_Mo2AsP3
_symmetry_space_group_name_H-M   'P 1'
_cell_length_a   3.18144984
_cell_length_b   5.09650561
_cell_length_c   5.93232721
_cell_angle_alpha   89.20162296
_cell_angle_beta   74.44607192
_cell_angle_gamma   90.00000000
_symmetry_Int_Tables_number   1
_chemical_formula_structural   Mo2AsP3
_chemical_formula_sum   'Mo2 As1 P3'
_cell_volume   92.65613944
_cell_formula_units_Z   1
loop_
 _symmetry_equiv_pos_site_id
 _symmetry_equiv_pos_as_xyz
  1  'x, y, z'
loop_
 _atom_site_type_symbol
 _atom_site_label
 _atom_site_symmetry_multiplicity
 _atom_site_fract_x
 _atom_site_fract_y
 _atom_site_fract_z
 _atom_site_occupancy
  Mo  Mo0  1  0.90862187  0.49779541  0.18275626  1
  Mo  Mo1  1  0.09044666  0.00762127  0.81910667  1
  As  As2  1  0.70407860  0.70040172  0.59184281  1
  P  P3  1  0.30009171  0.19676838  0.39981659  1
  P  P4  1  0.56571722  0.37339288  0.86856556  1
  P  P5  1  0.43104394  0.88202035  0.13791212  1
