# generated using pymatgen
data_Mg4SiSn
_symmetry_space_group_name_H-M   'P 1'
_cell_length_a   4.66819759
_cell_length_b   4.66819759
_cell_length_c   8.04741762
_cell_angle_alpha   73.13945737
_cell_angle_beta   90.00000000
_cell_angle_gamma   120.00000000
_symmetry_Int_Tables_number   1
_chemical_formula_structural   Mg4SiSn
_chemical_formula_sum   'Mg4 Si1 Sn1'
_cell_volume   143.10385535
_cell_formula_units_Z   1
loop_
 _symmetry_equiv_pos_site_id
 _symmetry_equiv_pos_as_xyz
  1  'x, y, z'
loop_
 _atom_site_type_symbol
 _atom_site_label
 _atom_site_symmetry_multiplicity
 _atom_site_fract_x
 _atom_site_fract_y
 _atom_site_fract_z
 _atom_site_occupancy
  Mg  Mg0  1  0.62155278  0.24310557  0.13534165  1
  Mg  Mg1  1  0.12813661  0.25627323  0.61559016  1
  Mg  Mg2  1  0.87186339  0.74372677  0.38440984  1
  Mg  Mg3  1  0.37844722  0.75689443  0.86465835  1
  Si  Si4  1  0.50000000  -0.00000000  0.50000000  1
  Sn  Sn5  1  -0.00000000  -0.00000000  0.00000000  1
