# generated using pymatgen
data_Mn4Te3Se
_symmetry_space_group_name_H-M   'P 1'
_cell_length_a   4.13171951
_cell_length_b   4.13473060
_cell_length_c   11.90178267
_cell_angle_alpha   90.00000000
_cell_angle_beta   90.00000000
_cell_angle_gamma   59.97589990
_symmetry_Int_Tables_number   1
_chemical_formula_structural   Mn4Te3Se
_chemical_formula_sum   'Mn4 Te3 Se1'
_cell_volume   176.04154762
_cell_formula_units_Z   1
loop_
 _symmetry_equiv_pos_site_id
 _symmetry_equiv_pos_as_xyz
  1  'x, y, z'
loop_
 _atom_site_type_symbol
 _atom_site_label
 _atom_site_symmetry_multiplicity
 _atom_site_fract_x
 _atom_site_fract_y
 _atom_site_fract_z
 _atom_site_occupancy
  Mn  Mn0  1  0.99986039  0.00006980  0.25999715  1
  Mn  Mn1  1  0.00005583  0.99997208  0.74934448  1
  Mn  Mn2  1  0.00005583  0.99997208  0.00065552  1
  Mn  Mn3  1  0.99986039  0.00006980  0.49000285  1
  Te  Te4  1  0.33334300  0.33332850  0.87500000  1
  Te  Te5  1  0.66670015  0.66664993  0.12711143  1
  Te  Te6  1  0.66670015  0.66664993  0.62288857  1
  Se  Se7  1  0.33342426  0.33328787  0.37500000  1
