# generated using pymatgen
data_LuZnCuAs2
_symmetry_space_group_name_H-M   'P 1'
_cell_length_a   4.08822853
_cell_length_b   4.08829414
_cell_length_c   6.66013165
_cell_angle_alpha   89.99999799
_cell_angle_beta   90.00109472
_cell_angle_gamma   120.00116939
_symmetry_Int_Tables_number   1
_chemical_formula_structural   LuZnCuAs2
_chemical_formula_sum   'Lu1 Zn1 Cu1 As2'
_cell_volume   96.40190723
_cell_formula_units_Z   1
loop_
 _symmetry_equiv_pos_site_id
 _symmetry_equiv_pos_as_xyz
  1  'x, y, z'
loop_
 _atom_site_type_symbol
 _atom_site_label
 _atom_site_symmetry_multiplicity
 _atom_site_fract_x
 _atom_site_fract_y
 _atom_site_fract_z
 _atom_site_occupancy
  Lu  Lu0  1  0.99998830  0.99999733  0.98322480  1
  Zn  Zn1  1  0.66667249  0.33333694  0.37912438  1
  Cu  Cu2  1  0.33334584  0.66666679  0.63652771  1
  As  As3  1  0.33332863  0.66666595  0.24570984  1
  As  As4  1  0.66666474  0.33333299  0.75541328  1
