# generated using pymatgen
data_Li3Co2RuO6
_symmetry_space_group_name_H-M   'P 1'
_cell_length_a   5.15197424
_cell_length_b   5.15197370
_cell_length_c   5.17432607
_cell_angle_alpha   80.09347813
_cell_angle_beta   99.90652477
_cell_angle_gamma   61.24794354
_symmetry_Int_Tables_number   1
_chemical_formula_structural   Li3Co2RuO6
_chemical_formula_sum   'Li3 Co2 Ru1 O6'
_cell_volume   113.33348474
_cell_formula_units_Z   1
loop_
 _symmetry_equiv_pos_site_id
 _symmetry_equiv_pos_as_xyz
  1  'x, y, z'
loop_
 _atom_site_type_symbol
 _atom_site_label
 _atom_site_symmetry_multiplicity
 _atom_site_fract_x
 _atom_site_fract_y
 _atom_site_fract_z
 _atom_site_occupancy
  Li  Li0  1  0.66666700  0.66666700  0.00000000  1
  Li  Li1  1  0.33334086  0.33334086  1.00000000  1
  Li  Li2  1  -0.00000786  -0.00000786  0.00000000  1
  Co  Co3  1  0.49560429  0.49560429  0.50000000  1
  Co  Co4  1  0.83772871  0.83772871  0.50000000  1
  Ru  Ru5  1  0.16666700  0.16666700  0.50000000  1
  O  O6  1  0.76556456  0.24900330  0.26281575  1
  O  O7  1  0.40987103  0.92346297  0.27449808  1
  O  O8  1  0.08432970  0.56776844  0.26281575  1
  O  O9  1  0.92346297  0.40987103  0.72550192  1
  O  O10  1  0.56776844  0.08432970  0.73718425  1
  O  O11  1  0.24900330  0.76556456  0.73718425  1
