# generated using pymatgen
data_SbP2O7
_symmetry_space_group_name_H-M   'P 1'
_cell_length_a   6.53186758
_cell_length_b   6.62486874
_cell_length_c   7.15126072
_cell_angle_alpha   112.59363685
_cell_angle_beta   92.27252375
_cell_angle_gamma   82.13901373
_symmetry_Int_Tables_number   1
_chemical_formula_structural   SbP2O7
_chemical_formula_sum   'Sb2 P4 O14'
_cell_volume   282.99211621
_cell_formula_units_Z   2
loop_
 _symmetry_equiv_pos_site_id
 _symmetry_equiv_pos_as_xyz
  1  'x, y, z'
loop_
 _atom_site_type_symbol
 _atom_site_label
 _atom_site_symmetry_multiplicity
 _atom_site_fract_x
 _atom_site_fract_y
 _atom_site_fract_z
 _atom_site_occupancy
  O  O0  1  0.01132058  0.92262458  0.71404467  1
  O  O1  1  0.04312104  0.37788145  0.15235946  1
  O  O2  1  0.29863544  0.22420051  0.75955541  1
  O  O3  1  0.22712007  0.35693519  0.46703044  1
  O  O4  1  0.33586545  0.06047817  0.12326272  1
  O  O5  1  0.41057110  0.58145110  0.77327861  1
  O  O6  1  0.40799952  0.78529346  0.46709282  1
  O  O7  1  0.59200048  0.21470654  0.53290718  1
  O  O8  1  0.58942890  0.41854890  0.22672139  1
  O  O9  1  0.66413455  0.93952183  0.87673728  1
  O  O10  1  0.77287993  0.64306481  0.53296956  1
  O  O11  1  0.70136456  0.77579949  0.24044459  1
  O  O12  1  0.95687896  0.62211855  0.84764054  1
  O  O13  1  0.98867942  0.07737542  0.28595533  1
  P  P14  1  0.13611129  0.22639908  0.24641004  1
  P  P15  1  0.38407531  0.34343946  0.64066256  1
  P  P16  1  0.61592469  0.65656054  0.35933744  1
  P  P17  1  0.86388871  0.77360092  0.75358996  1
  Sb  Sb18  1  0.32530635  0.91108302  0.77071714  1
  Sb  Sb19  1  0.67469365  0.08891698  0.22928286  1
