# generated using pymatgen
data_Mg5Al7O16
_symmetry_space_group_name_H-M   'P 1'
_cell_length_a   5.79904669
_cell_length_b   8.23641234
_cell_length_c   5.81892659
_cell_angle_alpha   89.11634770
_cell_angle_beta   90.00000000
_cell_angle_gamma   90.00000000
_symmetry_Int_Tables_number   1
_chemical_formula_structural   Mg5Al7O16
_chemical_formula_sum   'Mg5 Al7 O16'
_cell_volume   277.89831400
_cell_formula_units_Z   1
loop_
 _symmetry_equiv_pos_site_id
 _symmetry_equiv_pos_as_xyz
  1  'x, y, z'
loop_
 _atom_site_type_symbol
 _atom_site_label
 _atom_site_symmetry_multiplicity
 _atom_site_fract_x
 _atom_site_fract_y
 _atom_site_fract_z
 _atom_site_occupancy
  Mg  Mg0  1  0.25000000  0.75000000  0.25000000  1
  Mg  Mg1  1  0.25000000  0.12737486  0.00120049  1
  Mg  Mg2  1  0.75000000  0.62366282  0.50166476  1
  Mg  Mg3  1  0.75000000  0.87633718  0.99833524  1
  Mg  Mg4  1  0.25000000  0.37262514  0.49879951  1
  Al  Al5  1  0.75000000  0.25000000  0.75000000  1
  Al  Al6  1  0.25000000  0.75000000  0.75000000  1
  Al  Al7  1  0.75000000  0.25000000  0.25000000  1
  Al  Al8  1  0.50016865  0.49770331  0.99562235  1
  Al  Al9  1  0.99983135  0.00229669  0.50437765  1
  Al  Al10  1  0.99983135  0.49770331  0.99562235  1
  Al  Al11  1  0.50016865  0.00229669  0.50437765  1
  O  O12  1  0.75000000  0.48590242  0.22165528  1
  O  O13  1  0.25000000  0.98779108  0.72895574  1
  O  O14  1  0.75000000  0.48111584  0.77526337  1
  O  O15  1  0.25000000  -0.00004914  0.29002441  1
  O  O16  1  0.97066028  0.26235356  0.99991807  1
  O  O17  1  0.48256254  0.77050087  0.51728278  1
  O  O18  1  0.52933972  0.26235356  0.99991807  1
  O  O19  1  0.01743746  0.77050087  0.51728278  1
  O  O20  1  0.25000000  0.51220892  0.77104426  1
  O  O21  1  0.75000000  0.01409758  0.27834472  1
  O  O22  1  0.25000000  0.50004914  0.20997559  1
  O  O23  1  0.75000000  0.01888416  0.72473663  1
  O  O24  1  0.01743746  0.72949913  0.98271722  1
  O  O25  1  0.52933972  0.23764644  0.50008193  1
  O  O26  1  0.48256254  0.72949913  0.98271722  1
  O  O27  1  0.97066028  0.23764644  0.50008193  1
