# generated using pymatgen
data_Li2Ti2MnNiO8
_symmetry_space_group_name_H-M   'P 1'
_cell_length_a   5.96907304
_cell_length_b   5.96907304
_cell_length_c   5.90606547
_cell_angle_alpha   89.76631455
_cell_angle_beta   60.13935860
_cell_angle_gamma   120.22042079
_symmetry_Int_Tables_number   1
_chemical_formula_structural   Li2Ti2MnNiO8
_chemical_formula_sum   'Li2 Ti2 Mn1 Ni1 O8'
_cell_volume   148.30667055
_cell_formula_units_Z   1
loop_
 _symmetry_equiv_pos_site_id
 _symmetry_equiv_pos_as_xyz
  1  'x, y, z'
loop_
 _atom_site_type_symbol
 _atom_site_label
 _atom_site_symmetry_multiplicity
 _atom_site_fract_x
 _atom_site_fract_y
 _atom_site_fract_z
 _atom_site_occupancy
  Li  Li0  1  0.49090980  0.75102843  0.75806177  1
  Li  Li1  1  0.00909020  0.99897157  0.99193823  1
  Ti  Ti2  1  0.25000000  0.87500000  0.37500000  1
  Ti  Ti3  1  0.75000000  0.37500000  0.37500000  1
  Mn  Mn4  1  0.75000000  0.37500000  0.87500000  1
  Ni  Ni5  1  0.25000000  0.37500000  0.37500000  1
  O  O6  1  0.28563870  0.12709911  0.58726219  1
  O  O7  1  0.73045400  0.13881731  0.13072869  1
  O  O8  1  0.74110606  0.58563092  0.12510814  1
  O  O9  1  0.28926094  0.13378579  0.12510814  1
  O  O10  1  0.21436130  0.62290089  0.16273781  1
  O  O11  1  0.76954600  0.61118269  0.61927131  1
  O  O12  1  0.75889394  0.16436908  0.62489186  1
  O  O13  1  0.21073906  0.61621421  0.62489186  1
