# generated using pymatgen
data_Li2LuUS4
_symmetry_space_group_name_H-M   'P 1'
_cell_length_a   5.39158388
_cell_length_b   6.68495338
_cell_length_c   5.39158388
_cell_angle_alpha   113.78230089
_cell_angle_beta   90.00000000
_cell_angle_gamma   66.21769911
_symmetry_Int_Tables_number   1
_chemical_formula_structural   Li2LuUS4
_chemical_formula_sum   'Li2 Lu1 U1 S4'
_cell_volume   159.62661092
_cell_formula_units_Z   1
loop_
 _symmetry_equiv_pos_site_id
 _symmetry_equiv_pos_as_xyz
  1  'x, y, z'
loop_
 _atom_site_type_symbol
 _atom_site_label
 _atom_site_symmetry_multiplicity
 _atom_site_fract_x
 _atom_site_fract_y
 _atom_site_fract_z
 _atom_site_occupancy
  Li  Li0  1  0.50000000  -0.00000000  0.50000000  1
  Li  Li1  1  0.25000000  0.50000000  0.25000000  1
  Lu  Lu2  1  0.00000000  -0.00000000  -0.00000000  1
  U  U3  1  0.75000000  0.50000000  0.75000000  1
  S  S4  1  0.00075053  0.99849893  0.49924947  1
  S  S5  1  0.75601363  0.48797273  0.24398637  1
  S  S6  1  0.49924947  0.00150107  0.00075053  1
  S  S7  1  0.24398637  0.51202727  0.75601363  1
