# generated using pymatgen
data_La4Nb(CoO4)3
_symmetry_space_group_name_H-M   'P 1'
_cell_length_a   5.62924389
_cell_length_b   5.73785761
_cell_length_c   8.03154319
_cell_angle_alpha   90.05451157
_cell_angle_beta   89.92925453
_cell_angle_gamma   90.48768412
_symmetry_Int_Tables_number   1
_chemical_formula_structural   La4Nb(CoO4)3
_chemical_formula_sum   'La4 Nb1 Co3 O12'
_cell_volume   259.40752803
_cell_formula_units_Z   1
loop_
 _symmetry_equiv_pos_site_id
 _symmetry_equiv_pos_as_xyz
  1  'x, y, z'
loop_
 _atom_site_type_symbol
 _atom_site_label
 _atom_site_symmetry_multiplicity
 _atom_site_fract_x
 _atom_site_fract_y
 _atom_site_fract_z
 _atom_site_occupancy
  La  La0  1  0.00850421  0.04118662  0.26392756  1
  La  La1  1  0.51212926  0.44316445  0.73940307  1
  La  La2  1  0.99149579  0.95881338  0.73607244  1
  La  La3  1  0.48787074  0.55683555  0.26059693  1
  Nb  Nb4  1  0.00000000  0.50000000  0.00000000  1
  Co  Co5  1  0.00000000  0.50000000  0.50000000  1
  Co  Co6  1  0.50000000  -0.00000000  0.00000000  1
  Co  Co7  1  0.50000000  -0.00000000  0.50000000  1
  O  O8  1  0.90623570  0.47374145  0.24291036  1
  O  O9  1  0.40537288  0.03208912  0.75033582  1
  O  O10  1  0.09376430  0.52625855  0.75708964  1
  O  O11  1  0.59462712  0.96791088  0.24966418  1
  O  O12  1  0.20463851  0.79249491  0.45326544  1
  O  O13  1  0.71548894  0.69654987  0.94878128  1
  O  O14  1  0.79536149  0.20750509  0.54673456  1
  O  O15  1  0.28451106  0.30345013  0.05121872  1
  O  O16  1  0.30568154  0.28153193  0.45322054  1
  O  O17  1  0.80244503  0.21332499  0.94617885  1
  O  O18  1  0.69431846  0.71846807  0.54677946  1
  O  O19  1  0.19755497  0.78667501  0.05382115  1
