# generated using pymatgen
data_Li2UWO7
_symmetry_space_group_name_H-M   'P 1'
_cell_length_a   7.46241687
_cell_length_b   8.07776315
_cell_length_c   10.30838473
_cell_angle_alpha   89.92836001
_cell_angle_beta   89.84490509
_cell_angle_gamma   62.48950397
_symmetry_Int_Tables_number   1
_chemical_formula_structural   Li2UWO7
_chemical_formula_sum   'Li8 U4 W4 O28'
_cell_volume   551.12123870
_cell_formula_units_Z   4
loop_
 _symmetry_equiv_pos_site_id
 _symmetry_equiv_pos_as_xyz
  1  'x, y, z'
loop_
 _atom_site_type_symbol
 _atom_site_label
 _atom_site_symmetry_multiplicity
 _atom_site_fract_x
 _atom_site_fract_y
 _atom_site_fract_z
 _atom_site_occupancy
  Li  Li0  1  0.78891571  0.42679934  0.54718863  1
  Li  Li1  1  0.21571506  0.57320066  0.04718863  1
  Li  Li2  1  0.36741358  0.47040742  0.52946223  1
  Li  Li3  1  0.83782100  0.52959258  0.02946223  1
  Li  Li4  1  0.35957668  0.78174471  0.23031228  1
  Li  Li5  1  0.85950886  0.78394948  0.23331800  1
  Li  Li6  1  0.64345834  0.21605052  0.73331800  1
  Li  Li7  1  0.14132138  0.21825529  0.73031228  1
  U  U8  1  0.50861517  0.98471270  0.46835793  1
  U  U9  1  0.49332787  0.01528730  0.96835793  1
  U  U10  1  0.03305463  0.93421769  0.50028580  1
  U  U11  1  0.96727232  0.06578231  0.00028580  1
  W  W12  1  0.60302628  0.29809646  0.25879864  1
  W  W13  1  0.10148914  0.29477299  0.26375745  1
  W  W14  1  0.39626213  0.70522701  0.76375745  1
  W  W15  1  0.90112274  0.70190354  0.75879864  1
  O  O16  1  0.15269810  0.70494828  0.41528091  1
  O  O17  1  0.85764638  0.29505172  0.91528091  1
  O  O18  1  0.40501129  0.20008271  0.57387468  1
  O  O19  1  0.60509400  0.79991729  0.07387468  1
  O  O20  1  0.60572185  0.40164662  0.41242961  1
  O  O21  1  0.98350663  0.40280931  0.41111566  1
  O  O22  1  0.38631595  0.59719069  0.91111566  1
  O  O23  1  0.00736847  0.59835338  0.91242961  1
  O  O24  1  0.38156422  0.23774667  0.30334974  1
  O  O25  1  0.61931089  0.76225333  0.80334974  1
  O  O26  1  0.44428385  0.50986063  0.17379186  1
  O  O27  1  0.03860951  0.50766091  0.17002382  1
  O  O28  1  0.54627042  0.49233909  0.67002382  1
  O  O29  1  0.95414448  0.49013937  0.67379186  1
  O  O30  1  0.76661614  0.03115090  0.36199628  1
  O  O31  1  0.20119941  0.03364767  0.36008007  1
  O  O32  1  0.23484707  0.96635233  0.86008007  1
  O  O33  1  0.79776705  0.96884910  0.86199628  1
  O  O34  1  0.61068616  0.77781555  0.35920703  1
  O  O35  1  0.38850171  0.22218445  0.85920703  1
  O  O36  1  0.92375284  0.15062201  0.60361580  1
  O  O37  1  0.07437484  0.84937799  0.10361580  1
  O  O38  1  0.86586770  0.26945919  0.19665699  1
  O  O39  1  0.13532689  0.73054081  0.69665699  1
  O  O40  1  0.65464959  0.12721683  0.09637978  1
  O  O41  1  0.21877416  0.12554889  0.09429681  1
  O  O42  1  0.34432305  0.87445111  0.59429681  1
  O  O43  1  0.78186642  0.87278317  0.59637978  1
