# generated using pymatgen
data_La2ZnAs4
_symmetry_space_group_name_H-M   'P 1'
_cell_length_a   4.02889788
_cell_length_b   4.02889788
_cell_length_c   10.81065589
_cell_angle_alpha   79.26077653
_cell_angle_beta   79.26077653
_cell_angle_gamma   90.00000000
_symmetry_Int_Tables_number   1
_chemical_formula_structural   La2ZnAs4
_chemical_formula_sum   'La2 Zn1 As4'
_cell_volume   169.27611089
_cell_formula_units_Z   1
loop_
 _symmetry_equiv_pos_site_id
 _symmetry_equiv_pos_as_xyz
  1  'x, y, z'
loop_
 _atom_site_type_symbol
 _atom_site_label
 _atom_site_symmetry_multiplicity
 _atom_site_fract_x
 _atom_site_fract_y
 _atom_site_fract_z
 _atom_site_occupancy
  La  La0  1  0.12078808  0.12078808  0.75842384  1
  La  La1  1  0.87921192  0.87921192  0.24157616  1
  Zn  Zn2  1  0.75000000  0.25000000  0.50000000  1
  As  As3  1  0.50050538  0.00050538  0.99898925  1
  As  As4  1  0.99949462  0.49949462  0.00101075  1
  As  As5  1  0.32397263  0.32397263  0.35205474  1
  As  As6  1  0.67602737  0.67602737  0.64794526  1
