# generated using pymatgen
data_Na5Zr2F13
_symmetry_space_group_name_H-M   'P 1'
_cell_length_a   5.78645066
_cell_length_b   6.66829084
_cell_length_c   9.21790852
_cell_angle_alpha   93.66003081
_cell_angle_beta   90.00000000
_cell_angle_gamma   115.71393129
_symmetry_Int_Tables_number   1
_chemical_formula_structural   Na5Zr2F13
_chemical_formula_sum   'Na5 Zr2 F13'
_cell_volume   319.65199318
_cell_formula_units_Z   1
loop_
 _symmetry_equiv_pos_site_id
 _symmetry_equiv_pos_as_xyz
  1  'x, y, z'
loop_
 _atom_site_type_symbol
 _atom_site_label
 _atom_site_symmetry_multiplicity
 _atom_site_fract_x
 _atom_site_fract_y
 _atom_site_fract_z
 _atom_site_occupancy
  Na  Na0  1  0.19339024  0.38677949  0.89345758  1
  Na  Na1  1  0.33947652  0.67895304  0.42064350  1
  Na  Na2  1  0.00000000  0.00000000  0.50000000  1
  Na  Na3  1  0.66052348  0.32104696  0.57935650  1
  Na  Na4  1  0.80660976  0.61322051  0.10654242  1
  Zr  Zr5  1  0.91926841  0.83853581  0.77883953  1
  Zr  Zr6  1  0.08073159  0.16146419  0.22116047  1
  F  F7  1  0.35406395  0.28775414  0.39629325  1
  F  F8  1  0.72936238  0.89162579  0.26540109  1
  F  F9  1  0.00000000  0.00000000  0.00000000  1
  F  F10  1  0.94963564  0.35294153  0.11659200  1
  F  F11  1  0.59669411  0.64705847  0.88340800  1
  F  F12  1  0.05036436  0.64705847  0.88340800  1
  F  F13  1  0.40330589  0.35294153  0.11659200  1
  F  F14  1  0.93368919  0.28775414  0.39629325  1
  F  F15  1  0.27063762  0.10837421  0.73459891  1
  F  F16  1  0.06631081  0.71224586  0.60370675  1
  F  F17  1  0.64593605  0.71224586  0.60370675  1
  F  F18  1  0.16226241  0.89162579  0.26540109  1
  F  F19  1  0.83773759  0.10837421  0.73459891  1
