# generated using pymatgen
data_LaNdCo10
_symmetry_space_group_name_H-M   'P 1'
_cell_length_a   3.97810310
_cell_length_b   5.02112904
_cell_length_c   8.70554553
_cell_angle_alpha   90.00000185
_cell_angle_beta   90.00000000
_cell_angle_gamma   90.00000000
_symmetry_Int_Tables_number   1
_chemical_formula_structural   LaNdCo10
_chemical_formula_sum   'La1 Nd1 Co10'
_cell_volume   173.88951971
_cell_formula_units_Z   1
loop_
 _symmetry_equiv_pos_site_id
 _symmetry_equiv_pos_as_xyz
  1  'x, y, z'
loop_
 _atom_site_type_symbol
 _atom_site_label
 _atom_site_symmetry_multiplicity
 _atom_site_fract_x
 _atom_site_fract_y
 _atom_site_fract_z
 _atom_site_occupancy
  La  La0  1  0.00000000  0.00003614  0.00000000  1
  Nd  Nd1  1  -0.00000000  0.49994933  0.50000000  1
  Co  Co2  1  0.00000000  0.99996322  0.33295068  1
  Co  Co3  1  0.00000000  0.49994419  0.83306054  1
  Co  Co4  1  -0.00000000  0.49994419  0.16693946  1
  Co  Co5  1  -0.00000000  0.99996322  0.66704932  1
  Co  Co6  1  0.50000000  0.00001812  0.50000000  1
  Co  Co7  1  0.50000000  0.49999518  -0.00000000  1
  Co  Co8  1  0.50000000  0.25151251  0.25153926  1
  Co  Co9  1  0.50000000  0.74848069  0.74846814  1
  Co  Co10  1  0.50000000  0.74848069  0.25153186  1
  Co  Co11  1  0.50000000  0.25151251  0.74846074  1
