# generated using pymatgen
data_InPt2
_symmetry_space_group_name_H-M   'P 1'
_cell_length_a   4.14253056
_cell_length_b   5.75452013
_cell_length_c   17.33998962
_cell_angle_alpha   93.05162826
_cell_angle_beta   90.00000000
_cell_angle_gamma   90.00000000
_symmetry_Int_Tables_number   1
_chemical_formula_structural   InPt2
_chemical_formula_sum   'In8 Pt16'
_cell_volume   412.76929956
_cell_formula_units_Z   8
loop_
 _symmetry_equiv_pos_site_id
 _symmetry_equiv_pos_as_xyz
  1  'x, y, z'
loop_
 _atom_site_type_symbol
 _atom_site_label
 _atom_site_symmetry_multiplicity
 _atom_site_fract_x
 _atom_site_fract_y
 _atom_site_fract_z
 _atom_site_occupancy
  In  In0  1  0.50000000  0.27456766  0.23883470  1
  In  In1  1  0.50000000  0.27491581  0.57580060  1
  In  In2  1  0.50000000  0.25219670  0.91639194  1
  In  In3  1  0.50000000  0.74780330  0.08360806  1
  In  In4  1  0.50000000  0.72508419  0.42419940  1
  In  In5  1  0.50000000  0.72543234  0.76116530  1
  In  In6  1  -0.00000000  0.00101590  0.33124420  1
  In  In7  1  -0.00000000  0.99898410  0.66875580  1
  Pt  Pt8  1  -0.00000000  0.00145559  0.16758875  1
  Pt  Pt9  1  0.00000000  -0.00000000  0.50000000  1
  Pt  Pt10  1  0.00000000  0.99854441  0.83241125  1
  Pt  Pt11  1  0.00000000  0.50000000  0.00000000  1
  Pt  Pt12  1  0.00000000  0.49909274  0.33318603  1
  Pt  Pt13  1  0.00000000  0.50090726  0.66681397  1
  Pt  Pt14  1  -0.00000000  0.50773553  0.16524827  1
  Pt  Pt15  1  -0.00000000  0.50000000  0.50000000  1
  Pt  Pt16  1  0.00000000  0.49226447  0.83475173  1
  Pt  Pt17  1  0.50000000  0.76315962  0.25544307  1
  Pt  Pt18  1  0.50000000  0.76932551  0.58943525  1
  Pt  Pt19  1  0.50000000  0.75582828  0.92014111  1
  Pt  Pt20  1  0.50000000  0.24417172  0.07985889  1
  Pt  Pt21  1  0.50000000  0.23067449  0.41056475  1
  Pt  Pt22  1  0.50000000  0.23684038  0.74455693  1
  Pt  Pt23  1  0.00000000  -0.00000000  0.00000000  1
