# generated using pymatgen
data_LaMg11Al
_symmetry_space_group_name_H-M   'P 1'
_cell_length_a   6.01357057
_cell_length_b   7.81845872
_cell_length_c   7.68798735
_cell_angle_alpha   98.46058475
_cell_angle_beta   112.49330002
_cell_angle_gamma   67.38262966
_symmetry_Int_Tables_number   1
_chemical_formula_structural   LaMg11Al
_chemical_formula_sum   'La1 Mg11 Al1'
_cell_volume   308.28214365
_cell_formula_units_Z   1
loop_
 _symmetry_equiv_pos_site_id
 _symmetry_equiv_pos_as_xyz
  1  'x, y, z'
loop_
 _atom_site_type_symbol
 _atom_site_label
 _atom_site_symmetry_multiplicity
 _atom_site_fract_x
 _atom_site_fract_y
 _atom_site_fract_z
 _atom_site_occupancy
  La  La0  1  0.00000000  -0.00000000  -0.00000000  1
  Mg  Mg1  1  0.71327193  0.78755208  0.21767829  1
  Mg  Mg2  1  0.28672807  0.21244792  0.78232171  1
  Mg  Mg3  1  0.49917599  0.78755208  0.78232171  1
  Mg  Mg4  1  0.50082401  0.21244792  0.21767829  1
  Mg  Mg5  1  0.64954222  0.34625485  0.64762924  1
  Mg  Mg6  1  0.35045778  0.65374515  0.35237076  1
  Mg  Mg7  1  0.00420293  0.34625485  0.35237076  1
  Mg  Mg8  1  0.99579707  0.65374515  0.64762924  1
  Mg  Mg9  1  0.00000000  -0.00000000  0.50000000  1
  Mg  Mg10  1  0.50000000  0.50000000  -0.00000000  1
  Mg  Mg11  1  0.00000000  0.50000000  -0.00000000  1
  Al  Al12  1  0.50000000  -0.00000000  0.50000000  1
