# generated using pymatgen
data_La4Ti5(S6O)2
_symmetry_space_group_name_H-M   'P 1'
_cell_length_a   8.47558716
_cell_length_b   10.36340973
_cell_length_c   10.36571004
_cell_angle_alpha   90.05970074
_cell_angle_beta   90.00000000
_cell_angle_gamma   90.00000000
_symmetry_Int_Tables_number   1
_chemical_formula_structural   La4Ti5(S6O)2
_chemical_formula_sum   'La8 Ti10 S24 O4'
_cell_volume   910.48183026
_cell_formula_units_Z   2
loop_
 _symmetry_equiv_pos_site_id
 _symmetry_equiv_pos_as_xyz
  1  'x, y, z'
loop_
 _atom_site_type_symbol
 _atom_site_label
 _atom_site_symmetry_multiplicity
 _atom_site_fract_x
 _atom_site_fract_y
 _atom_site_fract_z
 _atom_site_occupancy
  La  La0  1  0.73666947  0.29080682  0.28823120  1
  La  La1  1  0.73736832  0.70966772  0.70804905  1
  La  La2  1  0.73448857  0.70658900  0.29158067  1
  La  La3  1  0.74047948  0.28847851  0.71531159  1
  La  La4  1  0.26263168  0.70966772  0.70804905  1
  La  La5  1  0.26333053  0.29080682  0.28823120  1
  La  La6  1  0.25952052  0.28847851  0.71531159  1
  La  La7  1  0.26551143  0.70658900  0.29158067  1
  Ti  Ti8  1  0.50000000  0.99822514  0.20291492  1
  Ti  Ti9  1  0.50000000  0.99820753  0.79316878  1
  Ti  Ti10  1  0.50000000  0.79518129  0.00033561  1
  Ti  Ti11  1  0.50000000  0.20537958  0.00155137  1
  Ti  Ti12  1  0.50000000  0.99968747  0.50172238  1
  Ti  Ti13  1  0.50000000  0.49476006  0.99979478  1
  Ti  Ti14  1  -0.00000000  0.51395536  0.48712976  1
  Ti  Ti15  1  -0.00000000  0.00100292  0.99699291  1
  Ti  Ti16  1  -0.00000000  0.02171576  0.39855774  1
  Ti  Ti17  1  -0.00000000  0.63567139  0.99815434  1
  S  S18  1  0.28038453  0.99612406  0.34693512  1
  S  S19  1  0.27730383  0.99847766  0.65958050  1
  S  S20  1  0.28431009  0.64963820  0.00091116  1
  S  S21  1  0.27791090  0.33958003  0.00243658  1
  S  S22  1  0.72269617  0.99847766  0.65958050  1
  S  S23  1  0.71961547  0.99612406  0.34693512  1
  S  S24  1  0.72208910  0.33958003  0.00243658  1
  S  S25  1  0.71568991  0.64963820  0.00091116  1
  S  S26  1  0.68339126  0.99601648  0.00335772  1
  S  S27  1  0.31660874  0.99601648  0.00335772  1
  S  S28  1  0.50000000  0.23519778  0.50120053  1
  S  S29  1  0.50000000  0.76101459  0.50092571  1
  S  S30  1  0.50000000  0.49825035  0.23899655  1
  S  S31  1  0.50000000  0.49772031  0.76361445  1
  S  S32  1  -0.00000000  0.76333400  0.49339687  1
  S  S33  1  -0.00000000  0.23770558  0.49940297  1
  S  S34  1  -0.00000000  0.50774579  0.76276439  1
  S  S35  1  -0.00000000  0.50091689  0.24044779  1
  S  S36  1  0.72786106  0.49655877  0.50261126  1
  S  S37  1  0.27213894  0.49655877  0.50261126  1
  S  S38  1  -0.00000000  0.13507902  0.19041687  1
  S  S39  1  -0.00000000  0.81819678  0.15411682  1
  S  S40  1  -0.00000000  0.15854581  0.84620946  1
  S  S41  1  -0.00000000  0.81998970  0.85060193  1
  O  O42  1  0.50000000  0.18854606  0.19125552  1
  O  O43  1  0.50000000  0.80886498  0.81038094  1
  O  O44  1  0.50000000  0.80739269  0.19190442  1
  O  O45  1  0.50000000  0.18783869  0.81203248  1
