# generated using pymatgen
data_KSr2Nb5O15
_symmetry_space_group_name_H-M   'P 1'
_cell_length_a   4.05802480
_cell_length_b   12.67923313
_cell_length_c   12.67923313
_cell_angle_alpha   89.83711066
_cell_angle_beta   90.00000000
_cell_angle_gamma   90.00000000
_symmetry_Int_Tables_number   1
_chemical_formula_structural   KSr2Nb5O15
_chemical_formula_sum   'K2 Sr4 Nb10 O30'
_cell_volume   652.37741283
_cell_formula_units_Z   2
loop_
 _symmetry_equiv_pos_site_id
 _symmetry_equiv_pos_as_xyz
  1  'x, y, z'
loop_
 _atom_site_type_symbol
 _atom_site_label
 _atom_site_symmetry_multiplicity
 _atom_site_fract_x
 _atom_site_fract_y
 _atom_site_fract_z
 _atom_site_occupancy
  K  K0  1  0.01555638  0.82827405  0.32827405  1
  K  K1  1  0.01555638  0.17172595  0.67172595  1
  Sr  Sr2  1  0.01737753  0.50000000  0.50000000  1
  Sr  Sr3  1  0.01737753  -0.00000000  -0.00000000  1
  Sr  Sr4  1  0.03299884  0.67337715  0.82662285  1
  Sr  Sr5  1  0.03299884  0.32662285  0.17337715  1
  Nb  Nb6  1  0.53036101  0.28777661  0.42348021  1
  Nb  Nb7  1  0.53036101  0.71222339  0.57651979  1
  Nb  Nb8  1  0.53168451  0.21106324  0.92377034  1
  Nb  Nb9  1  0.53168451  0.78893676  0.07622966  1
  Nb  Nb10  1  0.53168451  0.42377034  0.71106324  1
  Nb  Nb11  1  0.53168451  0.57622966  0.28893676  1
  Nb  Nb12  1  0.53036101  0.92348021  0.78777661  1
  Nb  Nb13  1  0.53036101  0.07651979  0.21222339  1
  Nb  Nb14  1  0.55095608  -0.00000000  0.50000000  1
  Nb  Nb15  1  0.54040726  0.50000000  -0.00000000  1
  O  O16  1  0.49470023  0.71285791  0.21285791  1
  O  O17  1  0.49470023  0.28714209  0.78714209  1
  O  O18  1  0.49807457  0.77204591  0.72795409  1
  O  O19  1  0.49807457  0.22795409  0.27204591  1
  O  O20  1  0.48488438  0.49078832  0.15754430  1
  O  O21  1  0.48488438  0.50921168  0.84245570  1
  O  O22  1  0.49319849  0.99918462  0.65710829  1
  O  O23  1  0.49319849  0.00081538  0.34289171  1
  O  O24  1  0.49319849  0.15710829  0.49918462  1
  O  O25  1  0.49319849  0.84289171  0.50081538  1
  O  O26  1  0.48488438  0.65754430  0.99078832  1
  O  O27  1  0.48488438  0.34245570  0.00921168  1
  O  O28  1  0.99539644  0.30023545  0.41364939  1
  O  O29  1  0.99539644  0.69976455  0.58635061  1
  O  O30  1  0.99446752  0.20049871  0.92400506  1
  O  O31  1  0.99446752  0.79950129  0.07599494  1
  O  O32  1  0.99446752  0.42400506  0.70049871  1
  O  O33  1  0.99446752  0.57599494  0.29950129  1
  O  O34  1  0.99539644  0.91364939  0.80023545  1
  O  O35  1  0.99539644  0.08635061  0.19976455  1
  O  O36  1  0.48850723  0.43631651  0.36252732  1
  O  O37  1  0.48850723  0.56368349  0.63747268  1
  O  O38  1  0.49296040  0.06289169  0.86341835  1
  O  O39  1  0.49296040  0.93710831  0.13658165  1
  O  O40  1  0.49296040  0.36341835  0.56289169  1
  O  O41  1  0.49296040  0.63658165  0.43710831  1
  O  O42  1  0.48850723  0.86252732  0.93631651  1
  O  O43  1  0.48850723  0.13747268  0.06368349  1
  O  O44  1  0.00202149  -0.00000000  0.50000000  1
  O  O45  1  0.99678016  0.50000000  -0.00000000  1
