# generated using pymatgen
data_HfNbB2
_symmetry_space_group_name_H-M   'P 1'
_cell_length_a   3.17881521
_cell_length_b   3.39993610
_cell_length_c   9.07488907
_cell_angle_alpha   90.00000000
_cell_angle_beta   90.00000000
_cell_angle_gamma   90.00000000
_symmetry_Int_Tables_number   1
_chemical_formula_structural   HfNbB2
_chemical_formula_sum   'Hf2 Nb2 B4'
_cell_volume   98.07930103
_cell_formula_units_Z   2
loop_
 _symmetry_equiv_pos_site_id
 _symmetry_equiv_pos_as_xyz
  1  'x, y, z'
loop_
 _atom_site_type_symbol
 _atom_site_label
 _atom_site_symmetry_multiplicity
 _atom_site_fract_x
 _atom_site_fract_y
 _atom_site_fract_z
 _atom_site_occupancy
  Hf  Hf0  1  0.25000000  0.00000000  0.14767524  1
  Hf  Hf1  1  0.25000000  0.50000000  0.64767524  1
  Nb  Nb2  1  0.75000000  0.50000000  0.35981290  1
  Nb  Nb3  1  0.75000000  -0.00000000  0.85981290  1
  B  B4  1  0.25000000  0.00000000  0.44196244  1
  B  B5  1  0.25000000  0.50000000  0.94196244  1
  B  B6  1  0.75000000  0.50000000  0.05054942  1
  B  B7  1  0.75000000  0.00000000  0.55054942  1
