# generated using pymatgen
data_HgPdF4
_symmetry_space_group_name_H-M   'P 1'
_cell_length_a   5.57267461
_cell_length_b   5.57428943
_cell_length_c   5.63743232
_cell_angle_alpha   89.46827726
_cell_angle_beta   90.00000000
_cell_angle_gamma   90.00000000
_symmetry_Int_Tables_number   1
_chemical_formula_structural   HgPdF4
_chemical_formula_sum   'Hg2 Pd2 F8'
_cell_volume   175.11197202
_cell_formula_units_Z   2
loop_
 _symmetry_equiv_pos_site_id
 _symmetry_equiv_pos_as_xyz
  1  'x, y, z'
loop_
 _atom_site_type_symbol
 _atom_site_label
 _atom_site_symmetry_multiplicity
 _atom_site_fract_x
 _atom_site_fract_y
 _atom_site_fract_z
 _atom_site_occupancy
  Hg  Hg0  1  0.50000000  -0.00000000  0.50000000  1
  Hg  Hg1  1  0.00000000  0.50000000  0.50000000  1
  Pd  Pd2  1  0.50000000  0.50000000  0.00000000  1
  Pd  Pd3  1  0.00000000  -0.00000000  0.00000000  1
  F  F4  1  0.82820689  0.32419109  0.15347015  1
  F  F5  1  0.32820689  0.17580891  0.84652985  1
  F  F6  1  0.15437040  0.85363719  0.32915566  1
  F  F7  1  0.65437040  0.64636281  0.67084434  1
  F  F8  1  0.17179311  0.67580891  0.84652985  1
  F  F9  1  0.67179311  0.82419109  0.15347015  1
  F  F10  1  0.84562960  0.14636281  0.67084434  1
  F  F11  1  0.34562960  0.35363719  0.32915566  1
