# generated using pymatgen
data_Hf2Ga3Ni
_symmetry_space_group_name_H-M   'P 1'
_cell_length_a   4.15484284
_cell_length_b   5.34473427
_cell_length_c   5.29614564
_cell_angle_alpha   92.18536451
_cell_angle_beta   113.09467114
_cell_angle_gamma   67.12725968
_symmetry_Int_Tables_number   1
_chemical_formula_structural   Hf2Ga3Ni
_chemical_formula_sum   'Hf2 Ga3 Ni1'
_cell_volume   98.76606998
_cell_formula_units_Z   1
loop_
 _symmetry_equiv_pos_site_id
 _symmetry_equiv_pos_as_xyz
  1  'x, y, z'
loop_
 _atom_site_type_symbol
 _atom_site_label
 _atom_site_symmetry_multiplicity
 _atom_site_fract_x
 _atom_site_fract_y
 _atom_site_fract_z
 _atom_site_occupancy
  Hf  Hf0  1  0.74332037  0.71837906  0.20501979  1
  Hf  Hf1  1  0.24619004  0.29751200  0.78989207  1
  Ga  Ga2  1  0.47358480  0.67231762  0.61948722  1
  Ga  Ga3  1  0.04028819  0.13709243  0.21766881  1
  Ga  Ga4  1  0.94393679  0.89534555  0.78321914  1
  Ni  Ni5  1  0.55267981  0.27935334  0.38471297  1
