# generated using pymatgen
data_In2CuSe3I
_symmetry_space_group_name_H-M   'P 1'
_cell_length_a   4.18820525
_cell_length_b   7.31607939
_cell_length_c   7.41376759
_cell_angle_alpha   99.64083381
_cell_angle_beta   106.40715940
_cell_angle_gamma   90.00000000
_symmetry_Int_Tables_number   1
_chemical_formula_structural   In2CuSe3I
_chemical_formula_sum   'In2 Cu1 Se3 I1'
_cell_volume   214.56994016
_cell_formula_units_Z   1
loop_
 _symmetry_equiv_pos_site_id
 _symmetry_equiv_pos_as_xyz
  1  'x, y, z'
loop_
 _atom_site_type_symbol
 _atom_site_label
 _atom_site_symmetry_multiplicity
 _atom_site_fract_x
 _atom_site_fract_y
 _atom_site_fract_z
 _atom_site_occupancy
  In  In0  1  0.43252987  0.81215541  0.86505975  1
  In  In1  1  0.18987104  0.06299775  0.37974208  1
  Cu  Cu2  1  0.69351111  0.56234070  0.38702223  1
  Se  Se3  1  0.99718651  0.01979412  0.99437302  1
  Se  Se4  1  0.75061750  0.26636333  0.50123500  1
  Se  Se5  1  0.24405876  0.72904310  0.48811752  1
  I  I6  1  0.50472520  0.48480560  0.00945040  1
