# generated using pymatgen
data_HoTiFe8Co3
_symmetry_space_group_name_H-M   'P 1'
_cell_length_a   4.72343667
_cell_length_b   6.41270674
_cell_length_c   6.41270674
_cell_angle_alpha   97.43020196
_cell_angle_beta   111.61003209
_cell_angle_gamma   68.38996791
_symmetry_Int_Tables_number   1
_chemical_formula_structural   HoTiFe8Co3
_chemical_formula_sum   'Ho1 Ti1 Fe8 Co3'
_cell_volume   167.89050832
_cell_formula_units_Z   1
loop_
 _symmetry_equiv_pos_site_id
 _symmetry_equiv_pos_as_xyz
  1  'x, y, z'
loop_
 _atom_site_type_symbol
 _atom_site_label
 _atom_site_symmetry_multiplicity
 _atom_site_fract_x
 _atom_site_fract_y
 _atom_site_fract_z
 _atom_site_occupancy
  Ho  Ho0  1  0.00523037  0.99476963  0.00523037  1
  Ti  Ti1  1  0.62563880  0.37436120  0.62563880  1
  Fe  Fe2  1  0.72944250  0.77055750  0.22944250  1
  Fe  Fe3  1  0.27893041  0.22106959  0.77893041  1
  Fe  Fe4  1  0.49963504  0.78075950  0.78002957  1
  Fe  Fe5  1  0.49963504  0.21997043  0.21924050  1
  Fe  Fe6  1  0.50201764  0.99698984  0.50010295  1
  Fe  Fe7  1  0.00109547  0.99698984  0.50010295  1
  Fe  Fe8  1  0.50201764  0.49989705  0.00301016  1
  Fe  Fe9  1  0.00109547  0.49989705  0.00301016  1
  Co  Co10  1  0.35061388  0.64938612  0.35061388  1
  Co  Co11  1  0.00232387  0.35654014  0.36118788  1
  Co  Co12  1  0.00232387  0.63881212  0.64345986  1
