# generated using pymatgen
data_BF2
_symmetry_space_group_name_H-M   'P 1'
_cell_length_a   4.93392330
_cell_length_b   5.58510468
_cell_length_c   6.66665576
_cell_angle_alpha   90.00000000
_cell_angle_beta   90.00000000
_cell_angle_gamma   102.52241160
_symmetry_Int_Tables_number   1
_chemical_formula_structural   BF2
_chemical_formula_sum   'B4 F8'
_cell_volume   179.33933668
_cell_formula_units_Z   4
loop_
 _symmetry_equiv_pos_site_id
 _symmetry_equiv_pos_as_xyz
  1  'x, y, z'
loop_
 _atom_site_type_symbol
 _atom_site_label
 _atom_site_symmetry_multiplicity
 _atom_site_fract_x
 _atom_site_fract_y
 _atom_site_fract_z
 _atom_site_occupancy
  B  B0  1  0.48943468  0.63099748  0.06450820  1
  B  B1  1  0.01056532  0.86900252  0.56450820  1
  B  B2  1  0.51056532  0.36900252  0.93549180  1
  B  B3  1  0.98943468  0.13099748  0.43549180  1
  F  F4  1  0.67996142  0.72827213  0.20187451  1
  F  F5  1  0.82003858  0.77172787  0.70187451  1
  F  F6  1  0.32003858  0.27172787  0.79812549  1
  F  F7  1  0.17996142  0.22827213  0.29812549  1
  F  F8  1  0.28560823  0.74868378  0.03317613  1
  F  F9  1  0.21439177  0.75131622  0.53317613  1
  F  F10  1  0.71439177  0.25131622  0.96682387  1
  F  F11  1  0.78560823  0.24868378  0.46682387  1
