# generated using pymatgen
data_GaGe3Rh4
_symmetry_space_group_name_H-M   'P 1'
_cell_length_a   4.91331155
_cell_length_b   4.91331155
_cell_length_c   4.91331155
_cell_angle_alpha   90.66745292
_cell_angle_beta   89.33254708
_cell_angle_gamma   90.66745292
_symmetry_Int_Tables_number   1
_chemical_formula_structural   GaGe3Rh4
_chemical_formula_sum   'Ga1 Ge3 Rh4'
_cell_volume   118.58648043
_cell_formula_units_Z   1
loop_
 _symmetry_equiv_pos_site_id
 _symmetry_equiv_pos_as_xyz
  1  'x, y, z'
loop_
 _atom_site_type_symbol
 _atom_site_label
 _atom_site_symmetry_multiplicity
 _atom_site_fract_x
 _atom_site_fract_y
 _atom_site_fract_z
 _atom_site_occupancy
  Ga  Ga0  1  0.15955085  0.34044915  0.65955085  1
  Ge  Ge1  1  0.33468688  0.65811759  0.16106010  1
  Ge  Ge2  1  0.66106010  0.16531312  0.34188241  1
  Ge  Ge3  1  0.84188241  0.83893990  0.83468688  1
  Rh  Rh4  1  0.86234396  0.63765604  0.36234396  1
  Rh  Rh5  1  0.63649412  0.36515390  0.86913557  1
  Rh  Rh6  1  0.36913557  0.86350588  0.63484610  1
  Rh  Rh7  1  0.13484610  0.13086443  0.13649412  1
