# generated using pymatgen
data_K2Na2Ca4Mg15(SiO3)24
_symmetry_space_group_name_H-M   'P 1'
_cell_length_a   10.16733719
_cell_length_b   12.32264060
_cell_length_c   12.32264060
_cell_angle_alpha   83.94377245
_cell_angle_beta   76.16741402
_cell_angle_gamma   103.83258598
_symmetry_Int_Tables_number   1
_chemical_formula_structural   K2Na2Ca4Mg15(SiO3)24
_chemical_formula_sum   'K2 Na2 Ca4 Mg15 Si24 O72'
_cell_volume   1433.80504564
_cell_formula_units_Z   1
loop_
 _symmetry_equiv_pos_site_id
 _symmetry_equiv_pos_as_xyz
  1  'x, y, z'
loop_
 _atom_site_type_symbol
 _atom_site_label
 _atom_site_symmetry_multiplicity
 _atom_site_fract_x
 _atom_site_fract_y
 _atom_site_fract_z
 _atom_site_occupancy
  K  K0  1  0.35347210  0.83945643  0.16054357  1
  K  K1  1  0.68670335  0.17247354  0.82752646  1
  Na  Na2  1  0.49962159  0.22383215  0.22365968  1
  Na  Na3  1  0.49962159  0.77634032  0.77616785  1
  Ca  Ca4  1  0.16766825  0.88681872  0.55386641  1
  Ca  Ca5  1  0.83241297  0.55438282  0.88686166  1
  Ca  Ca6  1  0.83241297  0.11313834  0.44561718  1
  Ca  Ca7  1  0.16766825  0.44613359  0.11318128  1
  Mg  Mg8  1  0.00020230  0.82132871  0.82141772  1
  Mg  Mg9  1  0.33507193  0.15601354  0.48361904  1
  Mg  Mg10  1  0.66506264  0.48380032  0.15611830  1
  Mg  Mg11  1  0.33507193  0.51638096  0.84398646  1
  Mg  Mg12  1  0.66506264  0.84388170  0.51619968  1
  Mg  Mg13  1  0.00020230  0.17858228  0.17867129  1
  Mg  Mg14  1  0.66805182  0.66684577  0.33315423  1
  Mg  Mg15  1  0.00049740  0.00046602  0.99953398  1
  Mg  Mg16  1  0.33232622  0.33341358  0.66658642  1
  Mg  Mg17  1  0.83305533  0.73866242  0.07425987  1
  Mg  Mg18  1  0.16671536  0.07418351  0.73885150  1
  Mg  Mg19  1  0.49996521  0.40502436  0.40486900  1
  Mg  Mg20  1  0.16671536  0.26114850  0.92581649  1
  Mg  Mg21  1  0.49996521  0.59513100  0.59497564  1
  Mg  Mg22  1  0.83305533  0.92574013  0.26133758  1
  Si  Si23  1  0.94843766  0.58827467  0.24351171  1
  Si  Si24  1  0.28161928  0.92363940  0.90621699  1
  Si  Si25  1  0.61426155  0.25669774  0.57360757  1
  Si  Si26  1  0.61426155  0.42639243  0.74330226  1
  Si  Si27  1  0.94843766  0.75648829  0.41172533  1
  Si  Si28  1  0.28161928  0.09378301  0.07636060  1
  Si  Si29  1  0.05194739  0.41186998  0.75652317  1
  Si  Si30  1  0.38553153  0.74326200  0.42620458  1
  Si  Si31  1  0.71843225  0.07641468  0.09372878  1
  Si  Si32  1  0.38553153  0.57379542  0.25673800  1
  Si  Si33  1  0.71843225  0.90627122  0.92358532  1
  Si  Si34  1  0.05194739  0.24347683  0.58813002  1
  Si  Si35  1  0.12483675  0.66869396  0.99016197  1
  Si  Si36  1  0.45706458  0.00139980  0.65508866  1
  Si  Si37  1  0.79233708  0.33494773  0.32225316  1
  Si  Si38  1  0.79233708  0.67774684  0.66505227  1
  Si  Si39  1  0.12483675  0.00983803  0.33130604  1
  Si  Si40  1  0.45706458  0.34491134  0.99860020  1
  Si  Si41  1  0.87548120  0.33162638  0.01024424  1
  Si  Si42  1  0.20768898  0.66512828  0.67755671  1
  Si  Si43  1  0.54319140  0.99893891  0.34529271  1
  Si  Si44  1  0.20768898  0.32244329  0.33487172  1
  Si  Si45  1  0.54319140  0.65470729  0.00106109  1
  Si  Si46  1  0.87548120  0.98975576  0.66837362  1
  O  O47  1  0.61687799  0.53221042  0.46778958  1
  O  O48  1  0.95265532  0.86567959  0.13432041  1
  O  O49  1  0.28571224  0.19886508  0.80113492  1
  O  O50  1  0.04649148  0.13458829  0.86541171  1
  O  O51  1  0.38281647  0.46791999  0.53208001  1
  O  O52  1  0.71298889  0.80115857  0.19884143  1
  O  O53  1  0.17626616  0.56377376  0.94553498  1
  O  O54  1  0.50775399  0.89927752  0.60505704  1
  O  O55  1  0.84349700  0.22954593  0.27726889  1
  O  O56  1  0.84349700  0.72273111  0.77045407  1
  O  O57  1  0.17626616  0.05446502  0.43622624  1
  O  O58  1  0.50775399  0.39494296  0.10072248  1
  O  O59  1  0.82382609  0.43645204  0.05430180  1
  O  O60  1  0.15646206  0.77047215  0.72249021  1
  O  O61  1  0.49267582  0.10115183  0.39455727  1
  O  O62  1  0.15646206  0.27750979  0.22952785  1
  O  O63  1  0.49267582  0.60544273  0.89884817  1
  O  O64  1  0.82382609  0.94569820  0.56354796  1
  O  O65  1  0.81121127  0.61248538  0.21193785  1
  O  O66  1  0.14278262  0.94636353  0.87701717  1
  O  O67  1  0.47610588  0.27995426  0.54454380  1
  O  O68  1  0.47610588  0.45545620  0.72004574  1
  O  O69  1  0.81121127  0.78806215  0.38751462  1
  O  O70  1  0.14278262  0.12298283  0.05363647  1
  O  O71  1  0.18899775  0.38761651  0.78788975  1
  O  O72  1  0.52370373  0.72002172  0.45533681  1
  O  O73  1  0.85734072  0.05368630  0.12265613  1
  O  O74  1  0.52370373  0.54466319  0.27997828  1
  O  O75  1  0.85734072  0.87734387  0.94631370  1
  O  O76  1  0.18899775  0.21211025  0.61238349  1
  O  O77  1  0.98704922  0.69430454  0.95822868  1
  O  O78  1  0.31938021  0.02950012  0.62456756  1
  O  O79  1  0.65705595  0.36530431  0.29316678  1
  O  O80  1  0.31938021  0.37543244  0.97049988  1
  O  O81  1  0.65705595  0.70683322  0.63469569  1
  O  O82  1  0.98704922  0.04177132  0.30569546  1
  O  O83  1  0.01325726  0.30602884  0.04192254  1
  O  O84  1  0.34289182  0.63471164  0.70671507  1
  O  O85  1  0.68098874  0.97074643  0.37540116  1
  O  O86  1  0.68098874  0.62459884  0.02925357  1
  O  O87  1  0.01325726  0.95807746  0.69397116  1
  O  O88  1  0.34289182  0.29328493  0.36528836  1
  O  O89  1  0.08953832  0.63213837  0.13289824  1
  O  O90  1  0.42195021  0.96875786  0.79756809  1
  O  O91  1  0.75515056  0.29521063  0.46486634  1
  O  O92  1  0.75515056  0.53513366  0.70478937  1
  O  O93  1  0.08953832  0.86710176  0.36786163  1
  O  O94  1  0.42195021  0.20243191  0.03124214  1
  O  O95  1  0.91052543  0.36725833  0.86712913  1
  O  O96  1  0.24468206  0.70469068  0.53500591  1
  O  O97  1  0.57802491  0.03056050  0.20231000  1
  O  O98  1  0.24468206  0.46499409  0.29530932  1
  O  O99  1  0.57802491  0.79769000  0.96943950  1
  O  O100  1  0.91052543  0.13287087  0.63274167  1
  O  O101  1  0.93034704  0.45158899  0.28020874  1
  O  O102  1  0.25743365  0.78823091  0.95495698  1
  O  O103  1  0.59336535  0.12072162  0.61954685  1
  O  O104  1  0.59336535  0.38045315  0.87927838  1
  O  O105  1  0.93034704  0.71979126  0.54841101  1
  O  O106  1  0.25743365  0.04504302  0.21176909  1
  O  O107  1  0.06959987  0.54828841  0.71965407  1
  O  O108  1  0.40714341  0.87943304  0.38040469  1
  O  O109  1  0.74315093  0.21189015  0.04485099  1
  O  O110  1  0.40714341  0.61959531  0.12056696  1
  O  O111  1  0.74315093  0.95514901  0.78810985  1
  O  O112  1  0.06959987  0.28034593  0.45171159  1
  O  O113  1  0.65142390  0.32366586  0.67633414  1
  O  O114  1  0.98607485  0.65488710  0.34511290  1
  O  O115  1  0.31903724  0.99113638  0.00886362  1
  O  O116  1  0.01269082  0.34419101  0.65580899  1
  O  O117  1  0.34865258  0.67698416  0.32301584  1
  O  O118  1  0.68000087  0.00885879  0.99114121  1
