# generated using pymatgen
data_Er10Ga5Co
_symmetry_space_group_name_H-M   'P 1'
_cell_length_a   7.51408021
_cell_length_b   7.51408021
_cell_length_c   8.74884098
_cell_angle_alpha   63.99269339
_cell_angle_beta   63.99269339
_cell_angle_gamma   88.79205076
_symmetry_Int_Tables_number   1
_chemical_formula_structural   Er10Ga5Co
_chemical_formula_sum   'Er10 Ga5 Co1'
_cell_volume   389.93204137
_cell_formula_units_Z   1
loop_
 _symmetry_equiv_pos_site_id
 _symmetry_equiv_pos_as_xyz
  1  'x, y, z'
loop_
 _atom_site_type_symbol
 _atom_site_label
 _atom_site_symmetry_multiplicity
 _atom_site_fract_x
 _atom_site_fract_y
 _atom_site_fract_z
 _atom_site_occupancy
  Er  Er0  1  0.31550849  0.81550849  0.70436532  1
  Er  Er1  1  0.97010200  0.47010200  0.71120033  1
  Er  Er2  1  0.48586937  0.31045828  0.71026837  1
  Er  Er3  1  0.81045828  0.98586937  0.71026837  1
  Er  Er4  1  0.68130234  0.18130234  0.28879967  1
  Er  Er5  1  0.01987381  0.51987381  0.29563468  1
  Er  Er6  1  0.52072665  0.69613774  0.28973163  1
  Er  Er7  1  0.19613774  0.02072665  0.28973163  1
  Er  Er8  1  0.50517962  0.48788289  0.00000000  1
  Er  Er9  1  0.98788289  0.00517962  0.00000000  1
  Ga  Ga10  1  0.75142764  0.75142764  0.50000000  1
  Ga  Ga11  1  0.25142764  0.25142764  0.50000000  1
  Ga  Ga12  1  0.37781745  0.87781745  1.00000000  1
  Ga  Ga13  1  0.87686841  0.62694029  1.00000000  1
  Ga  Ga14  1  0.12694029  0.37686841  1.00000000  1
  Co  Co15  1  0.62247739  0.12247739  0.00000000  1
