# generated using pymatgen
data_HfCrCuSe4
_symmetry_space_group_name_H-M   'P 1'
_cell_length_a   7.58106259
_cell_length_b   7.64752277
_cell_length_c   7.58106259
_cell_angle_alpha   59.70957684
_cell_angle_beta   120.44628640
_cell_angle_gamma   120.29042316
_symmetry_Int_Tables_number   1
_chemical_formula_structural   HfCrCuSe4
_chemical_formula_sum   'Hf2 Cr2 Cu2 Se8'
_cell_volume   308.37002386
_cell_formula_units_Z   2
loop_
 _symmetry_equiv_pos_site_id
 _symmetry_equiv_pos_as_xyz
  1  'x, y, z'
loop_
 _atom_site_type_symbol
 _atom_site_label
 _atom_site_symmetry_multiplicity
 _atom_site_fract_x
 _atom_site_fract_y
 _atom_site_fract_z
 _atom_site_occupancy
  Hf  Hf0  1  0.50000000  -0.00000000  0.50000000  1
  Hf  Hf1  1  0.00000000  -0.00000000  0.00000000  1
  Cr  Cr2  1  0.50000000  0.50000000  0.00000000  1
  Cr  Cr3  1  0.50000000  -0.00000000  0.00000000  1
  Cu  Cu4  1  0.12297204  0.37297204  0.37702796  1
  Cu  Cu5  1  0.87702796  0.62702796  0.62297204  1
  Se  Se6  1  0.25895490  0.76089317  0.24104510  1
  Se  Se7  1  0.25895490  0.25701662  0.24104510  1
  Se  Se8  1  0.26838670  0.24959529  0.76919611  1
  Se  Se9  1  0.73080389  0.24959529  0.23161330  1
  Se  Se10  1  0.74104510  0.23910683  0.75895490  1
  Se  Se11  1  0.74104510  0.74298338  0.75895490  1
  Se  Se12  1  0.73161330  0.75040471  0.23080389  1
  Se  Se13  1  0.26919611  0.75040471  0.76838670  1
