# generated using pymatgen
data_Er3Th
_symmetry_space_group_name_H-M   'P 1'
_cell_length_a   3.53216907
_cell_length_b   3.53292251
_cell_length_c   11.54073127
_cell_angle_alpha   90.00000000
_cell_angle_beta   90.00000000
_cell_angle_gamma   59.99293341
_symmetry_Int_Tables_number   1
_chemical_formula_structural   Er3Th
_chemical_formula_sum   'Er3 Th1'
_cell_volume   124.71210956
_cell_formula_units_Z   1
loop_
 _symmetry_equiv_pos_site_id
 _symmetry_equiv_pos_as_xyz
  1  'x, y, z'
loop_
 _atom_site_type_symbol
 _atom_site_label
 _atom_site_symmetry_multiplicity
 _atom_site_fract_x
 _atom_site_fract_y
 _atom_site_fract_z
 _atom_site_occupancy
  Er  Er0  1  0.33329657  0.33335171  0.87500000  1
  Er  Er1  1  0.66668294  0.66665853  0.12202323  1
  Er  Er2  1  0.66668294  0.66665853  0.62797677  1
  Th  Th3  1  0.33333755  0.33333123  0.37500000  1
