# generated using pymatgen
data_Hf4(Ru4C)3
_symmetry_space_group_name_H-M   'P 1'
_cell_length_a   4.08195229
_cell_length_b   4.08195229
_cell_length_c   15.97956279
_cell_angle_alpha   90.00000000
_cell_angle_beta   90.00000000
_cell_angle_gamma   90.00000000
_symmetry_Int_Tables_number   1
_chemical_formula_structural   Hf4(Ru4C)3
_chemical_formula_sum   'Hf4 Ru12 C3'
_cell_volume   266.25682034
_cell_formula_units_Z   1
loop_
 _symmetry_equiv_pos_site_id
 _symmetry_equiv_pos_as_xyz
  1  'x, y, z'
loop_
 _atom_site_type_symbol
 _atom_site_label
 _atom_site_symmetry_multiplicity
 _atom_site_fract_x
 _atom_site_fract_y
 _atom_site_fract_z
 _atom_site_occupancy
  Hf  Hf0  1  -0.00000000  0.00000000  0.00726083  1
  Hf  Hf1  1  -0.00000000  -0.00000000  0.24273917  1
  Hf  Hf2  1  -0.00000000  -0.00000000  0.49801140  1
  Hf  Hf3  1  -0.00000000  0.00000000  0.75198860  1
  Ru  Ru4  1  0.50000000  0.50000000  0.00907182  1
  Ru  Ru5  1  0.50000000  0.50000000  0.24092818  1
  Ru  Ru6  1  0.50000000  0.50000000  0.49785031  1
  Ru  Ru7  1  0.50000000  0.50000000  0.75214969  1
  Ru  Ru8  1  0.50000000  0.00000000  0.12500000  1
  Ru  Ru9  1  0.50000000  0.00000000  0.37402945  1
  Ru  Ru10  1  0.50000000  0.00000000  0.62500000  1
  Ru  Ru11  1  0.50000000  -0.00000000  0.87597055  1
  Ru  Ru12  1  0.00000000  0.50000000  0.12500000  1
  Ru  Ru13  1  0.00000000  0.50000000  0.37402945  1
  Ru  Ru14  1  -0.00000000  0.50000000  0.62500000  1
  Ru  Ru15  1  -0.00000000  0.50000000  0.87597055  1
  C  C16  1  0.50000000  0.50000000  0.36411562  1
  C  C17  1  0.50000000  0.50000000  0.62500000  1
  C  C18  1  0.50000000  0.50000000  0.88588438  1
