# generated using pymatgen
data_Er2In3Cu
_symmetry_space_group_name_H-M   'P 1'
_cell_length_a   4.71991432
_cell_length_b   4.71991432
_cell_length_c   7.39423588
_cell_angle_alpha   89.99210324
_cell_angle_beta   90.00789676
_cell_angle_gamma   119.99499139
_symmetry_Int_Tables_number   1
_chemical_formula_structural   Er2In3Cu
_chemical_formula_sum   'Er2 In3 Cu1'
_cell_volume   142.66389412
_cell_formula_units_Z   1
loop_
 _symmetry_equiv_pos_site_id
 _symmetry_equiv_pos_as_xyz
  1  'x, y, z'
loop_
 _atom_site_type_symbol
 _atom_site_label
 _atom_site_symmetry_multiplicity
 _atom_site_fract_x
 _atom_site_fract_y
 _atom_site_fract_z
 _atom_site_occupancy
  Er  Er0  1  0.00000203  0.99999797  0.72398529  1
  Er  Er1  1  0.99997735  0.00002265  0.26395405  1
  In  In2  1  0.33332797  0.66667203  0.48241862  1
  In  In3  1  0.33333439  0.66666561  0.05221427  1
  In  In4  1  0.66663048  0.33336952  0.93530506  1
  Cu  Cu5  1  0.66672778  0.33327222  0.54212270  1
