# generated using pymatgen
data_CeGaAg
_symmetry_space_group_name_H-M   'P 1'
_cell_length_a   4.67449706
_cell_length_b   5.94700827
_cell_length_c   5.75581950
_cell_angle_alpha   95.83618623
_cell_angle_beta   113.95801003
_cell_angle_gamma   66.85792430
_symmetry_Int_Tables_number   1
_chemical_formula_structural   CeGaAg
_chemical_formula_sum   'Ce2 Ga2 Ag2'
_cell_volume   134.13624512
_cell_formula_units_Z   2
loop_
 _symmetry_equiv_pos_site_id
 _symmetry_equiv_pos_as_xyz
  1  'x, y, z'
loop_
 _atom_site_type_symbol
 _atom_site_label
 _atom_site_symmetry_multiplicity
 _atom_site_fract_x
 _atom_site_fract_y
 _atom_site_fract_z
 _atom_site_occupancy
  Ce  Ce0  1  0.75857521  0.70947651  0.22662693  1
  Ce  Ce1  1  0.24142479  0.29052349  0.77337307  1
  Ga  Ga2  1  0.04711598  0.11163378  0.20586573  1
  Ga  Ga3  1  0.95288402  0.88836622  0.79413427  1
  Ag  Ag4  1  0.55158080  0.27611688  0.37927847  1
  Ag  Ag5  1  0.44841920  0.72388312  0.62072153  1
