# generated using pymatgen
data_CrGa(BiO3)2
_symmetry_space_group_name_H-M   'P 1'
_cell_length_a   5.58816848
_cell_length_b   5.58816848
_cell_length_c   5.62062073
_cell_angle_alpha   90.00000170
_cell_angle_beta   119.80918681
_cell_angle_gamma   59.99999692
_symmetry_Int_Tables_number   1
_chemical_formula_structural   CrGa(BiO3)2
_chemical_formula_sum   'Cr1 Ga1 Bi2 O6'
_cell_volume   124.46717025
_cell_formula_units_Z   1
loop_
 _symmetry_equiv_pos_site_id
 _symmetry_equiv_pos_as_xyz
  1  'x, y, z'
loop_
 _atom_site_type_symbol
 _atom_site_label
 _atom_site_symmetry_multiplicity
 _atom_site_fract_x
 _atom_site_fract_y
 _atom_site_fract_z
 _atom_site_occupancy
  Cr  Cr0  1  0.44190196  0.77904902  0.66285293  1
  Ga  Ga1  1  0.44982152  0.27508924  0.17473229  1
  Bi  Bi2  1  0.00034070  0.49982965  0.50051105  1
  Bi  Bi3  1  0.99668416  0.00165792  0.99502624  1
  O  O4  1  0.48018561  0.96403275  0.37819843  1
  O  O5  1  0.34223118  0.55578164  0.37819843  1
  O  O6  1  0.93398007  0.10198718  0.37819843  1
  O  O7  1  0.48047854  0.05938335  0.87892740  1
  O  O8  1  0.93831076  0.46013811  0.87892740  1
  O  O9  1  0.33906551  0.60155113  0.87892740  1
