# generated using pymatgen
data_CeYMg4
_symmetry_space_group_name_H-M   'P 1'
_cell_length_a   6.02974878
_cell_length_b   6.02974878
_cell_length_c   6.02974878
_cell_angle_alpha   90.00000000
_cell_angle_beta   60.00000000
_cell_angle_gamma   120.00000000
_symmetry_Int_Tables_number   1
_chemical_formula_structural   CeYMg4
_chemical_formula_sum   'Ce1 Y1 Mg4'
_cell_volume   155.01818823
_cell_formula_units_Z   1
loop_
 _symmetry_equiv_pos_site_id
 _symmetry_equiv_pos_as_xyz
  1  'x, y, z'
loop_
 _atom_site_type_symbol
 _atom_site_label
 _atom_site_symmetry_multiplicity
 _atom_site_fract_x
 _atom_site_fract_y
 _atom_site_fract_z
 _atom_site_occupancy
  Ce  Ce0  1  0.75000000  0.87500000  0.87500000  1
  Y  Y1  1  0.25000000  0.12500000  0.12500000  1
  Mg  Mg2  1  0.50003236  0.00004854  0.49998382  1
  Mg  Mg3  1  0.50003236  0.49998382  0.49998382  1
  Mg  Mg4  1  0.99996764  0.49998382  0.00004854  1
  Mg  Mg5  1  0.99996764  0.49998382  0.49998382  1
