# generated using pymatgen
data_CsBa2Zn2F9
_symmetry_space_group_name_H-M   'P 1'
_cell_length_a   6.00334372
_cell_length_b   6.00334372
_cell_length_c   7.96196490
_cell_angle_alpha   67.85193208
_cell_angle_beta   67.85193208
_cell_angle_gamma   60.00000710
_symmetry_Int_Tables_number   1
_chemical_formula_structural   CsBa2Zn2F9
_chemical_formula_sum   'Cs1 Ba2 Zn2 F9'
_cell_volume   223.72371899
_cell_formula_units_Z   1
loop_
 _symmetry_equiv_pos_site_id
 _symmetry_equiv_pos_as_xyz
  1  'x, y, z'
loop_
 _atom_site_type_symbol
 _atom_site_label
 _atom_site_symmetry_multiplicity
 _atom_site_fract_x
 _atom_site_fract_y
 _atom_site_fract_z
 _atom_site_occupancy
  Cs  Cs0  1  0.21464734  0.21464734  0.35605797  1
  Ba  Ba1  1  0.99926205  0.99926205  0.00221385  1
  Ba  Ba2  1  0.79235082  0.79235082  0.62294753  1
  Zn  Zn3  1  0.39070334  0.39070334  0.82788997  1
  Zn  Zn4  1  0.60423212  0.60423212  0.18730363  1
  F  F5  1  0.77230678  0.26534034  0.69701253  1
  F  F6  1  0.26534034  0.26534034  0.69701253  1
  F  F7  1  0.26534034  0.77230678  0.69701253  1
  F  F8  1  0.21802140  0.73455194  0.31287472  1
  F  F9  1  0.73455194  0.73455194  0.31287472  1
  F  F10  1  0.73455194  0.21802140  0.31287472  1
  F  F11  1  0.51021430  0.51021430  0.99130844  1
  F  F12  1  0.51021430  0.98826296  0.99130844  1
  F  F13  1  0.98826296  0.51021430  0.99130844  1
