# generated using pymatgen
data_Cu2Bi8Pb3Se3S13
_symmetry_space_group_name_H-M   'P 1'
_cell_length_a   4.24519400
_cell_length_b   13.63977061
_cell_length_c   13.96505888
_cell_angle_alpha   77.02087182
_cell_angle_beta   81.25753437
_cell_angle_gamma   98.95265349
_symmetry_Int_Tables_number   1
_chemical_formula_structural   Cu2Bi8Pb3Se3S13
_chemical_formula_sum   'Cu2 Bi8 Pb3 Se3 S13'
_cell_volume   763.54658142
_cell_formula_units_Z   1
loop_
 _symmetry_equiv_pos_site_id
 _symmetry_equiv_pos_as_xyz
  1  'x, y, z'
loop_
 _atom_site_type_symbol
 _atom_site_label
 _atom_site_symmetry_multiplicity
 _atom_site_fract_x
 _atom_site_fract_y
 _atom_site_fract_z
 _atom_site_occupancy
  Cu  Cu0  1  0.43792516  0.39148745  0.51563712  1
  Cu  Cu1  1  0.56033537  0.60712653  0.48645578  1
  Bi  Bi2  1  0.17077386  0.85816151  0.51661378  1
  Bi  Bi3  1  0.82907169  0.14256685  0.48442346  1
  Bi  Bi4  1  0.58080247  0.93116571  0.76956077  1
  Bi  Bi5  1  0.42046095  0.07034763  0.22942574  1
  Bi  Bi6  1  0.19829728  0.37754251  0.98094796  1
  Bi  Bi7  1  0.80171466  0.62325172  0.01982239  1
  Bi  Bi8  1  0.91086850  0.55214896  0.73041196  1
  Bi  Bi9  1  0.08754396  0.44603890  0.27095098  1
  Pb  Pb10  1  0.00651354  0.00649214  0.99346506  1
  Pb  Pb11  1  0.24816560  0.21926343  0.72293223  1
  Pb  Pb12  1  0.74828603  0.77772987  0.28115781  1
  Se  Se13  1  0.37912318  0.89771821  0.13947186  1
  Se  Se14  1  0.56209198  0.77289973  0.64871578  1
  Se  Se15  1  0.43783924  0.22759941  0.35192092  1
  S  S16  1  0.87228592  0.30311950  0.55854766  1
  S  S17  1  0.12496136  0.69541428  0.44549155  1
  S  S18  1  0.42495989  0.48877124  0.63885145  1
  S  S19  1  0.57314191  0.50927259  0.36298877  1
  S  S20  1  0.20985832  0.05105873  0.63134208  1
  S  S21  1  0.79036927  0.94872337  0.36798483  1
  S  S22  1  0.75733478  0.36434609  0.84967653  1
  S  S23  1  0.24111831  0.63376104  0.15152443  1
  S  S24  1  0.97964314  0.84254971  0.88326343  1
  S  S25  1  0.02171886  0.16122086  0.11778314  1
  S  S26  1  0.34451964  0.57973512  0.89069584  1
  S  S27  1  0.65603702  0.42129079  0.10921676  1
  S  S28  1  0.62423809  0.09919612  0.85071993  1
