# generated using pymatgen
data_Ca2Nd2Nb3FeO14
_symmetry_space_group_name_H-M   'P 1'
_cell_length_a   7.49279028
_cell_length_b   7.37254766
_cell_length_c   7.54407660
_cell_angle_alpha   90.00000000
_cell_angle_beta   59.77331781
_cell_angle_gamma   120.15079630
_symmetry_Int_Tables_number   1
_chemical_formula_structural   Ca2Nd2Nb3FeO14
_chemical_formula_sum   'Ca2 Nd2 Nb3 Fe1 O14'
_cell_volume   292.99159863
_cell_formula_units_Z   1
loop_
 _symmetry_equiv_pos_site_id
 _symmetry_equiv_pos_as_xyz
  1  'x, y, z'
loop_
 _atom_site_type_symbol
 _atom_site_label
 _atom_site_symmetry_multiplicity
 _atom_site_fract_x
 _atom_site_fract_y
 _atom_site_fract_z
 _atom_site_occupancy
  Ca  Ca0  1  0.50000000  -0.00000000  0.50000000  1
  Ca  Ca1  1  0.50000000  0.50000000  0.50000000  1
  Nd  Nd2  1  -0.00000000  0.50000000  0.00000000  1
  Nd  Nd3  1  -0.00000000  0.50000000  0.50000000  1
  Nb  Nb4  1  0.50000000  -0.00000000  0.00000000  1
  Nb  Nb5  1  -0.00000000  -0.00000000  0.50000000  1
  Nb  Nb6  1  -0.00000000  -0.00000000  0.00000000  1
  Fe  Fe7  1  0.50000000  0.50000000  0.00000000  1
  O  O8  1  0.86106347  0.93055648  0.31946827  1
  O  O9  1  0.65404547  0.32468041  0.92297727  1
  O  O10  1  0.24925459  0.92517068  0.92978942  1
  O  O11  1  0.24438889  0.32250143  0.32545191  1
  O  O12  1  0.24438889  0.32250143  0.93015920  1
  O  O13  1  0.24925459  0.92517068  0.32095599  1
  O  O14  1  0.13893653  0.06944352  0.68053173  1
  O  O15  1  0.34595453  0.67531959  0.07702273  1
  O  O16  1  0.75074541  0.07482932  0.07021058  1
  O  O17  1  0.75561111  0.67749857  0.67454809  1
  O  O18  1  0.75561111  0.67749857  0.06984080  1
  O  O19  1  0.75074541  0.07482932  0.67904401  1
  O  O20  1  0.74962773  0.37417028  0.37518613  1
  O  O21  1  0.25037227  0.62582972  0.62481387  1
