# generated using pymatgen
data_CaLa2BeO5
_symmetry_space_group_name_H-M   'P 1'
_cell_length_a   6.62669314
_cell_length_b   7.29408439
_cell_length_c   9.65728345
_cell_angle_alpha   90.00000000
_cell_angle_beta   90.00000000
_cell_angle_gamma   90.00000000
_symmetry_Int_Tables_number   1
_chemical_formula_structural   CaLa2BeO5
_chemical_formula_sum   'Ca4 La8 Be4 O20'
_cell_volume   466.79115961
_cell_formula_units_Z   4
loop_
 _symmetry_equiv_pos_site_id
 _symmetry_equiv_pos_as_xyz
  1  'x, y, z'
loop_
 _atom_site_type_symbol
 _atom_site_label
 _atom_site_symmetry_multiplicity
 _atom_site_fract_x
 _atom_site_fract_y
 _atom_site_fract_z
 _atom_site_occupancy
  Ca  Ca0  1  0.57667836  0.97820208  0.67449442  1
  Ca  Ca1  1  0.42332164  0.47820208  0.32550558  1
  Ca  Ca2  1  0.07667836  0.47820208  0.82550558  1
  Ca  Ca3  1  0.92332164  0.97820208  0.17449442  1
  La  La4  1  0.09675898  0.74581739  0.52368880  1
  La  La5  1  0.40324102  0.74581739  0.02368880  1
  La  La6  1  0.90324102  0.24581739  0.47631120  1
  La  La7  1  0.59675898  0.24581739  0.97631120  1
  La  La8  1  0.92628198  0.52746854  0.17239499  1
  La  La9  1  0.07371802  0.02746854  0.82760501  1
  La  La10  1  0.42628198  0.02746854  0.32760501  1
  La  La11  1  0.57371802  0.52746854  0.67239499  1
  Be  Be12  1  0.69405327  0.74898556  0.39535937  1
  Be  Be13  1  0.80594673  0.74898556  0.89535937  1
  Be  Be14  1  0.30594673  0.24898556  0.60464063  1
  Be  Be15  1  0.19405327  0.24898556  0.10464063  1
  O  O16  1  0.01676766  0.74988026  0.98569453  1
  O  O17  1  0.48323234  0.74988026  0.48569453  1
  O  O18  1  0.98323234  0.24988026  0.01430547  1
  O  O19  1  0.51676766  0.24988026  0.51430547  1
  O  O20  1  0.64126553  0.75040811  0.22453967  1
  O  O21  1  0.85873447  0.75040811  0.72453967  1
  O  O22  1  0.35873447  0.25040811  0.77546033  1
  O  O23  1  0.14126553  0.25040811  0.27546033  1
  O  O24  1  0.16202046  0.74899140  0.27290168  1
  O  O25  1  0.33797954  0.74899140  0.77290168  1
  O  O26  1  0.83797954  0.24899140  0.72709832  1
  O  O27  1  0.66202046  0.24899140  0.22709832  1
  O  O28  1  0.31101963  0.05854414  0.07160882  1
  O  O29  1  0.19203840  0.44170253  0.57315241  1
  O  O30  1  0.68898037  0.55854414  0.92839118  1
  O  O31  1  0.80796160  0.94170253  0.42684759  1
  O  O32  1  0.69203840  0.94170253  0.92684759  1
  O  O33  1  0.81101963  0.55854414  0.42839118  1
  O  O34  1  0.30796160  0.44170253  0.07315241  1
  O  O35  1  0.18898037  0.05854414  0.57160882  1
