# generated using pymatgen
data_NaFeS2
_symmetry_space_group_name_H-M   'P 1'
_cell_length_a   5.45809613
_cell_length_b   6.84078591
_cell_length_c   7.09010389
_cell_angle_alpha   118.84343757
_cell_angle_beta   112.63811971
_cell_angle_gamma   89.99999997
_symmetry_Int_Tables_number   1
_chemical_formula_structural   NaFeS2
_chemical_formula_sum   'Na2 Fe2 S4'
_cell_volume   208.29861548
_cell_formula_units_Z   2
loop_
 _symmetry_equiv_pos_site_id
 _symmetry_equiv_pos_as_xyz
  1  'x, y, z'
loop_
 _atom_site_type_symbol
 _atom_site_label
 _atom_site_symmetry_multiplicity
 _atom_site_fract_x
 _atom_site_fract_y
 _atom_site_fract_z
 _atom_site_occupancy
  Na  Na0  1  0.29943880  0.29943880  0.59887760  1
  Na  Na1  1  0.70056120  0.70056120  0.40112240  1
  S  S2  1  0.84850053  0.28391222  0.21030706  1
  S  S3  1  0.36180653  0.92639484  0.21030706  1
  S  S4  1  0.63819347  0.71608778  0.78969294  1
  S  S5  1  0.15149947  0.07360516  0.78969294  1
  Fe  Fe6  1  0.00000000  0.00000000  0.00000000  1
  Fe  Fe7  1  0.50000000  0.00000000  0.00000000  1
