# generated using pymatgen
data_CaMnSe2
_symmetry_space_group_name_H-M   'P 1'
_cell_length_a   4.04453103
_cell_length_b   4.04453103
_cell_length_c   6.93336736
_cell_angle_alpha   73.04194840
_cell_angle_beta   90.00000000
_cell_angle_gamma   120.00000000
_symmetry_Int_Tables_number   1
_chemical_formula_structural   CaMnSe2
_chemical_formula_sum   'Ca1 Mn1 Se2'
_cell_volume   92.48425104
_cell_formula_units_Z   1
loop_
 _symmetry_equiv_pos_site_id
 _symmetry_equiv_pos_as_xyz
  1  'x, y, z'
loop_
 _atom_site_type_symbol
 _atom_site_label
 _atom_site_symmetry_multiplicity
 _atom_site_fract_x
 _atom_site_fract_y
 _atom_site_fract_z
 _atom_site_occupancy
  Ca  Ca0  1  0.00000000  0.00000000  -0.00000000  1
  Mn  Mn1  1  0.50000000  -0.00000000  0.50000000  1
  Se  Se2  1  0.24188878  0.48377757  0.27433365  1
  Se  Se3  1  0.75811122  0.51622243  0.72566635  1
