# generated using pymatgen
data_Ca8Fe5(WO8)3
_symmetry_space_group_name_H-M   'P 1'
_cell_length_a   7.86490000
_cell_length_b   7.85529140
_cell_length_c   9.53015849
_cell_angle_alpha   113.65210394
_cell_angle_beta   113.82727382
_cell_angle_gamma   91.55048098
_symmetry_Int_Tables_number   1
_chemical_formula_structural   Ca8Fe5(WO8)3
_chemical_formula_sum   'Ca8 Fe5 W3 O24'
_cell_volume   480.62544171
_cell_formula_units_Z   1
loop_
 _symmetry_equiv_pos_site_id
 _symmetry_equiv_pos_as_xyz
  1  'x, y, z'
loop_
 _atom_site_type_symbol
 _atom_site_label
 _atom_site_symmetry_multiplicity
 _atom_site_fract_x
 _atom_site_fract_y
 _atom_site_fract_z
 _atom_site_occupancy
  Ca  Ca0  1  0.63849337  0.09153243  0.26147058  1
  Ca  Ca1  1  0.15960077  0.61431426  0.26185510  1
  Ca  Ca2  1  0.35166977  0.38431924  0.74680775  1
  Ca  Ca3  1  0.82764019  0.89920280  0.73923116  1
  Ca  Ca4  1  0.84039923  0.38568574  0.73814490  1
  Ca  Ca5  1  0.36150663  0.90846757  0.73852942  1
  Ca  Ca6  1  0.17235981  0.10079720  0.26076884  1
  Ca  Ca7  1  0.64833023  0.61568076  0.25319225  1
  Fe  Fe8  1  0.75081246  0.25194318  0.00054285  1
  Fe  Fe9  1  0.24918754  0.74805682  0.99945715  1
  Fe  Fe10  1  0.50000000  0.50000000  0.50000000  1
  Fe  Fe11  1  0.00000000  0.00000000  0.50000000  1
  Fe  Fe12  1  0.50000000  0.00000000  0.50000000  1
  W  W13  1  0.00000000  0.50000000  0.50000000  1
  W  W14  1  0.75270940  0.75207031  0.00015122  1
  W  W15  1  0.24729060  0.24792969  0.99984878  1
  O  O16  1  0.97542958  0.27983649  0.54387772  1
  O  O17  1  0.47710031  0.76309354  0.54142850  1
  O  O18  1  0.53060272  0.72300902  0.04072927  1
  O  O19  1  0.03387577  0.22616549  0.04972145  1
  O  O20  1  0.52289969  0.23690646  0.45857150  1
  O  O21  1  0.02457042  0.72016351  0.45612228  1
  O  O22  1  0.96612423  0.77383451  0.95027855  1
  O  O23  1  0.46939728  0.27699098  0.95927073  1
  O  O24  1  0.90352518  0.93247724  0.24302388  1
  O  O25  1  0.40146905  0.43033454  0.24324369  1
  O  O26  1  0.67893521  0.15479985  0.75282905  1
  O  O27  1  0.18276703  0.65057454  0.74114081  1
  O  O28  1  0.59853095  0.56966546  0.75675631  1
  O  O29  1  0.09647482  0.06752276  0.75697612  1
  O  O30  1  0.81723297  0.34942546  0.25885919  1
  O  O31  1  0.32106479  0.84520015  0.24717095  1
  O  O32  1  0.21405578  0.42841920  0.45135258  1
  O  O33  1  0.73325338  0.93440677  0.45417151  1
  O  O34  1  0.67815720  0.96510786  0.95302691  1
  O  O35  1  0.17462809  0.45908515  0.94578982  1
  O  O36  1  0.26674662  0.06559323  0.54582849  1
  O  O37  1  0.78594422  0.57158080  0.54864742  1
  O  O38  1  0.82537191  0.54091485  0.05421018  1
  O  O39  1  0.32184280  0.03489214  0.04697309  1
