# generated using pymatgen
data_Be(GaO2)2
_symmetry_space_group_name_H-M   'P 1'
_cell_length_a   3.03395375
_cell_length_b   7.91995026
_cell_length_c   7.85704835
_cell_angle_alpha   59.12786309
_cell_angle_beta   90.00000000
_cell_angle_gamma   90.00000000
_symmetry_Int_Tables_number   1
_chemical_formula_structural   Be(GaO2)2
_chemical_formula_sum   'Be2 Ga4 O8'
_cell_volume   162.04562335
_cell_formula_units_Z   2
loop_
 _symmetry_equiv_pos_site_id
 _symmetry_equiv_pos_as_xyz
  1  'x, y, z'
loop_
 _atom_site_type_symbol
 _atom_site_label
 _atom_site_symmetry_multiplicity
 _atom_site_fract_x
 _atom_site_fract_y
 _atom_site_fract_z
 _atom_site_occupancy
  Be  Be0  1  0.75000000  0.17516046  0.59404233  1
  Be  Be1  1  0.25000000  0.82483954  0.40595767  1
  Ga  Ga2  1  0.75000000  0.20923893  0.19430496  1
  Ga  Ga3  1  0.75000000  0.59041091  0.24956136  1
  Ga  Ga4  1  0.25000000  0.79076107  0.80569504  1
  Ga  Ga5  1  0.25000000  0.40958909  0.75043864  1
  O  O6  1  0.75000000  0.32240329  0.35015108  1
  O  O7  1  0.25000000  0.67759671  0.64984892  1
  O  O8  1  0.75000000  0.69906714  0.97075210  1
  O  O9  1  0.75000000  0.32387666  0.68596094  1
  O  O10  1  0.75000000  0.94157667  0.34214367  1
  O  O11  1  0.25000000  0.30093286  0.02924790  1
  O  O12  1  0.25000000  0.67612334  0.31403906  1
  O  O13  1  0.25000000  0.05842333  0.65785633  1
