# generated using pymatgen
data_BaYCoCuO5
_symmetry_space_group_name_H-M   'P 1'
_cell_length_a   5.51076179
_cell_length_b   5.51076179
_cell_length_c   7.63810925
_cell_angle_alpha   90.00000000
_cell_angle_beta   90.00000000
_cell_angle_gamma   90.00000000
_symmetry_Int_Tables_number   1
_chemical_formula_structural   BaYCoCuO5
_chemical_formula_sum   'Ba2 Y2 Co2 Cu2 O10'
_cell_volume   231.95788629
_cell_formula_units_Z   2
loop_
 _symmetry_equiv_pos_site_id
 _symmetry_equiv_pos_as_xyz
  1  'x, y, z'
loop_
 _atom_site_type_symbol
 _atom_site_label
 _atom_site_symmetry_multiplicity
 _atom_site_fract_x
 _atom_site_fract_y
 _atom_site_fract_z
 _atom_site_occupancy
  Ba  Ba0  1  0.00000000  -0.00000000  -0.00000000  1
  Ba  Ba1  1  0.50000000  0.50000000  -0.00000000  1
  Y  Y2  1  0.00000000  -0.00000000  0.50000000  1
  Y  Y3  1  0.50000000  0.50000000  0.50000000  1
  Co  Co4  1  0.00000000  0.50000000  0.74941031  1
  Co  Co5  1  0.50000000  -0.00000000  0.25058969  1
  Cu  Cu6  1  0.50000000  -0.00000000  0.71345054  1
  Cu  Cu7  1  0.00000000  0.50000000  0.28654946  1
  O  O8  1  0.24757829  0.25242171  0.68669199  1
  O  O9  1  0.75242171  0.74757829  0.68669199  1
  O  O10  1  0.24757829  0.74757829  0.68669199  1
  O  O11  1  0.75242171  0.25242171  0.68669199  1
  O  O12  1  0.25242171  0.24757829  0.31330801  1
  O  O13  1  0.74757829  0.75242171  0.31330801  1
  O  O14  1  0.25242171  0.75242171  0.31330801  1
  O  O15  1  0.74757829  0.24757829  0.31330801  1
  O  O16  1  0.50000000  -0.00000000  0.01541541  1
  O  O17  1  0.00000000  0.50000000  0.98458459  1
