# generated using pymatgen
data_MgFeBiO5
_symmetry_space_group_name_H-M   'P 1'
_cell_length_a   5.20688268
_cell_length_b   9.84667551
_cell_length_c   15.21207897
_cell_angle_alpha   90.00000000
_cell_angle_beta   90.00000000
_cell_angle_gamma   90.00000000
_symmetry_Int_Tables_number   1
_chemical_formula_structural   MgFeBiO5
_chemical_formula_sum   'Mg8 Fe8 Bi8 O40'
_cell_volume   779.93065400
_cell_formula_units_Z   8
loop_
 _symmetry_equiv_pos_site_id
 _symmetry_equiv_pos_as_xyz
  1  'x, y, z'
loop_
 _atom_site_type_symbol
 _atom_site_label
 _atom_site_symmetry_multiplicity
 _atom_site_fract_x
 _atom_site_fract_y
 _atom_site_fract_z
 _atom_site_occupancy
  Mg  Mg0  1  0.54507302  0.37615122  0.43499236  1
  Mg  Mg1  1  0.04507302  0.12384878  0.43499236  1
  Mg  Mg2  1  0.04507302  0.62384878  0.06500764  1
  Mg  Mg3  1  0.95492698  0.37615122  0.93499236  1
  Mg  Mg4  1  0.45492698  0.12384878  0.93499236  1
  Mg  Mg5  1  0.95492698  0.87615122  0.56500764  1
  Mg  Mg6  1  0.45492698  0.62384878  0.56500764  1
  Mg  Mg7  1  0.54507302  0.87615122  0.06500764  1
  Fe  Fe8  1  0.02718962  0.37643617  0.56312048  1
  Fe  Fe9  1  0.47281038  0.87643617  0.43687952  1
  Fe  Fe10  1  0.97281038  0.62356383  0.43687952  1
  Fe  Fe11  1  0.52718962  0.12356383  0.56312048  1
  Fe  Fe12  1  0.97281038  0.12356383  0.06312048  1
  Fe  Fe13  1  0.02718962  0.87643617  0.93687952  1
  Fe  Fe14  1  0.47281038  0.37643617  0.06312048  1
  Fe  Fe15  1  0.52718962  0.62356383  0.93687952  1
  Bi  Bi16  1  0.00864539  0.86131181  0.24835312  1
  Bi  Bi17  1  0.99135461  0.13868819  0.75164688  1
  Bi  Bi18  1  0.49135461  0.36131181  0.75164688  1
  Bi  Bi19  1  0.99135461  0.63868819  0.74835312  1
  Bi  Bi20  1  0.50864539  0.13868819  0.25164688  1
  Bi  Bi21  1  0.50864539  0.63868819  0.24835312  1
  Bi  Bi22  1  0.49135461  0.86131181  0.74835312  1
  Bi  Bi23  1  0.00864539  0.36131181  0.25164688  1
  O  O24  1  0.83465721  0.31356038  0.67459921  1
  O  O25  1  0.23609925  0.99802531  0.02384836  1
  O  O26  1  0.26390075  0.49802531  0.97615164  1
  O  O27  1  0.32925083  0.79979128  0.16869625  1
  O  O28  1  0.17074917  0.29979128  0.83130375  1
  O  O29  1  0.83465721  0.81356038  0.82540079  1
  O  O30  1  0.17074917  0.79979128  0.66869625  1
  O  O31  1  0.66534279  0.81356038  0.32540079  1
  O  O32  1  0.23609925  0.49802531  0.47615164  1
  O  O33  1  0.16534279  0.68643962  0.32540079  1
  O  O34  1  0.66534279  0.31356038  0.17459921  1
  O  O35  1  0.79420674  0.24354111  0.50885595  1
  O  O36  1  0.73609925  0.00197469  0.47615164  1
  O  O37  1  0.67074917  0.70020872  0.66869625  1
  O  O38  1  0.23659405  0.99431168  0.84333140  1
  O  O39  1  0.73609925  0.50197469  0.02384836  1
  O  O40  1  0.16534279  0.18643962  0.17459921  1
  O  O41  1  0.82925083  0.20020872  0.33130375  1
  O  O42  1  0.29420674  0.75645889  0.99114405  1
  O  O43  1  0.26390075  0.99802531  0.52384836  1
  O  O44  1  0.20579326  0.75645889  0.49114405  1
  O  O45  1  0.76340595  0.00568832  0.15666860  1
  O  O46  1  0.67074917  0.20020872  0.83130375  1
  O  O47  1  0.73659405  0.00568832  0.65666860  1
  O  O48  1  0.20579326  0.25645889  0.00885595  1
  O  O49  1  0.29420674  0.25645889  0.50885595  1
  O  O50  1  0.76390075  0.50197469  0.52384836  1
  O  O51  1  0.76390075  0.00197469  0.97615164  1
  O  O52  1  0.73659405  0.50568832  0.84333140  1
  O  O53  1  0.70579326  0.74354111  0.49114405  1
  O  O54  1  0.70579326  0.24354111  0.00885595  1
  O  O55  1  0.79420674  0.74354111  0.99114405  1
  O  O56  1  0.76340595  0.50568832  0.34333140  1
  O  O57  1  0.82925083  0.70020872  0.16869625  1
  O  O58  1  0.32925083  0.29979128  0.33130375  1
  O  O59  1  0.23659405  0.49431168  0.65666860  1
  O  O60  1  0.26340595  0.49431168  0.15666860  1
  O  O61  1  0.33465721  0.18643962  0.67459921  1
  O  O62  1  0.26340595  0.99431168  0.34333140  1
  O  O63  1  0.33465721  0.68643962  0.82540079  1
