# generated using pymatgen
data_Ca15Ni(IrO6)4
_symmetry_space_group_name_H-M   'P 1'
_cell_length_a   6.58562152
_cell_length_b   6.58562152
_cell_length_c   13.13473770
_cell_angle_alpha   90.95045910
_cell_angle_beta   90.95045910
_cell_angle_gamma   90.89284655
_symmetry_Int_Tables_number   1
_chemical_formula_structural   Ca15Ni(IrO6)4
_chemical_formula_sum   'Ca15 Ni1 Ir4 O24'
_cell_volume   569.43057516
_cell_formula_units_Z   1
loop_
 _symmetry_equiv_pos_site_id
 _symmetry_equiv_pos_as_xyz
  1  'x, y, z'
loop_
 _atom_site_type_symbol
 _atom_site_label
 _atom_site_symmetry_multiplicity
 _atom_site_fract_x
 _atom_site_fract_y
 _atom_site_fract_z
 _atom_site_occupancy
  Ca  Ca0  1  0.60448309  0.89551691  0.12500000  1
  Ca  Ca1  1  0.61136633  0.88863367  0.62500000  1
  Ca  Ca2  1  0.89797695  0.25243551  0.30233020  1
  Ca  Ca3  1  0.88642900  0.24825911  0.80498722  1
  Ca  Ca4  1  0.25174089  0.61357100  0.44501278  1
  Ca  Ca5  1  0.24756449  0.60202305  0.94766980  1
  Ca  Ca6  1  0.11350499  0.74877397  0.19195237  1
  Ca  Ca7  1  0.11205082  0.75000694  0.69536153  1
  Ca  Ca8  1  0.75122603  0.38649501  0.05804763  1
  Ca  Ca9  1  0.74999306  0.38794918  0.55463847  1
  Ca  Ca10  1  0.38500806  0.11150617  0.37024935  1
  Ca  Ca11  1  0.38849383  0.11499194  0.87975065  1
  Ca  Ca12  1  0.25009079  0.24990921  0.62500000  1
  Ca  Ca13  1  0.74911807  0.74934613  0.37478776  1
  Ca  Ca14  1  0.75065387  0.75088193  0.87521224  1
  Ni  Ni15  1  0.24986770  0.25013230  0.12500000  1
  Ir  Ir16  1  0.49871422  0.49801004  0.24833838  1
  Ir  Ir17  1  0.49962299  0.50032218  0.75074038  1
  Ir  Ir18  1  0.00198996  0.00128578  0.00166162  1
  Ir  Ir19  1  0.99967782  0.00037701  0.49925962  1
  O  O20  1  0.53908196  0.20317845  0.20673827  1
  O  O21  1  0.55556020  0.20373063  0.71427043  1
  O  O22  1  0.20375655  0.41512510  0.26622531  1
  O  O23  1  0.20208554  0.42543205  0.78052109  1
  O  O24  1  0.41816680  0.54232914  0.10137297  1
  O  O25  1  0.42612557  0.55586554  0.60205189  1
  O  O26  1  0.05522827  0.92524231  0.35155134  1
  O  O27  1  0.05615612  0.92984565  0.85267461  1
  O  O28  1  0.92698919  0.70352264  0.02723643  1
  O  O29  1  0.92843816  0.70365219  0.52818358  1
  O  O30  1  0.70299751  0.05581337  0.46351645  1
  O  O31  1  0.70455283  0.05497460  0.96400002  1
  O  O32  1  0.44502540  0.79544717  0.28599998  1
  O  O33  1  0.44418663  0.79700249  0.78648355  1
  O  O34  1  0.79647736  0.57301081  0.22276357  1
  O  O35  1  0.79634781  0.57156184  0.72181642  1
  O  O36  1  0.57015435  0.44384388  0.39732539  1
  O  O37  1  0.57475769  0.44477173  0.89844866  1
  O  O38  1  0.95767086  0.08183320  0.14862703  1
  O  O39  1  0.94413446  0.07387443  0.64794811  1
  O  O40  1  0.07456795  0.29791446  0.46947891  1
  O  O41  1  0.08487490  0.29624345  0.98377469  1
  O  O42  1  0.29682155  0.96091804  0.04326173  1
  O  O43  1  0.29626937  0.94443980  0.53572957  1
