# generated using pymatgen
data_Ca15Ni(IrO6)4
_symmetry_space_group_name_H-M   'P 1'
_cell_length_a   6.57803991
_cell_length_b   9.22314924
_cell_length_c   9.38590620
_cell_angle_alpha   89.99999939
_cell_angle_beta   90.00000080
_cell_angle_gamma   91.32656224
_symmetry_Int_Tables_number   1
_chemical_formula_structural   Ca15Ni(IrO6)4
_chemical_formula_sum   'Ca15 Ni1 Ir4 O24'
_cell_volume   569.29259687
_cell_formula_units_Z   1
loop_
 _symmetry_equiv_pos_site_id
 _symmetry_equiv_pos_as_xyz
  1  'x, y, z'
loop_
 _atom_site_type_symbol
 _atom_site_label
 _atom_site_symmetry_multiplicity
 _atom_site_fract_x
 _atom_site_fract_y
 _atom_site_fract_z
 _atom_site_occupancy
  Ca  Ca0  1  0.61258303  0.57056867  0.68006960  1
  Ca  Ca1  1  0.60345801  0.07174155  0.17721961  1
  Ca  Ca2  1  0.89654199  0.42825845  0.17721961  1
  Ca  Ca3  1  0.88741697  0.92943133  0.68006960  1
  Ca  Ca4  1  0.25000000  0.75000000  0.13892971  1
  Ca  Ca5  1  0.25000000  0.25000000  0.64593555  1
  Ca  Ca6  1  0.11111257  0.56328797  0.82068332  1
  Ca  Ca7  1  0.11475236  0.07370491  0.31692463  1
  Ca  Ca8  1  0.75000000  0.25000000  0.86463699  1
  Ca  Ca9  1  0.75000000  0.75000000  0.35947342  1
  Ca  Ca10  1  0.38524764  0.42629509  0.31692463  1
  Ca  Ca11  1  0.38888743  0.93671203  0.82068332  1
  Ca  Ca12  1  0.25000000  0.75000000  0.50034796  1
  Ca  Ca13  1  0.75000000  0.75000000  0.99917662  1
  Ca  Ca14  1  0.75000000  0.25000000  0.49981499  1
  Ni  Ni15  1  0.25000000  0.25000000  0.99979742  1
  Ir  Ir16  1  0.49771463  0.49759658  0.00057675  1
  Ir  Ir17  1  0.50019398  0.00014346  0.49972245  1
  Ir  Ir18  1  0.00228537  0.00240342  0.00057675  1
  Ir  Ir19  1  0.99980602  0.49985654  0.49972245  1
  O  O20  1  0.53838994  0.30981746  0.10797352  1
  O  O21  1  0.55593094  0.81545430  0.61204464  1
  O  O22  1  0.20212333  0.47534113  0.05837663  1
  O  O23  1  0.20308333  0.99290715  0.56741195  1
  O  O24  1  0.41872081  0.36801563  0.83490428  1
  O  O25  1  0.42401172  0.88105989  0.32131687  1
  O  O26  1  0.05635719  0.81687527  0.88849787  1
  O  O27  1  0.05422909  0.31567596  0.38725315  1
  O  O28  1  0.92463949  0.37999953  0.67587101  1
  O  O29  1  0.93094142  0.87943789  0.17499313  1
  O  O30  1  0.70294447  0.49256432  0.43538364  1
  O  O31  1  0.70481953  0.99127531  0.93672064  1
  O  O32  1  0.44364281  0.68312473  0.88849787  1
  O  O33  1  0.44577091  0.18432404  0.38725315  1
  O  O34  1  0.79518047  0.50872469  0.93672064  1
  O  O35  1  0.79705553  0.00743568  0.43538364  1
  O  O36  1  0.56905858  0.62056211  0.17499313  1
  O  O37  1  0.57536051  0.12000047  0.67587101  1
  O  O38  1  0.96161006  0.19018254  0.10797352  1
  O  O39  1  0.94406906  0.68454570  0.61204464  1
  O  O40  1  0.07598828  0.61894011  0.32131687  1
  O  O41  1  0.08127919  0.13198437  0.83490428  1
  O  O42  1  0.29691667  0.50709285  0.56741195  1
  O  O43  1  0.29787667  0.02465887  0.05837663  1
