# generated using pymatgen
data_BaLa4(CoO3)5
_symmetry_space_group_name_H-M   'P 1'
_cell_length_a   5.57221398
_cell_length_b   9.57793435
_cell_length_c   12.45285692
_cell_angle_alpha   74.25362356
_cell_angle_beta   102.92834721
_cell_angle_gamma   106.91113191
_symmetry_Int_Tables_number   1
_chemical_formula_structural   BaLa4(CoO3)5
_chemical_formula_sum   'Ba2 La8 Co10 O30'
_cell_volume   604.39735796
_cell_formula_units_Z   2
loop_
 _symmetry_equiv_pos_site_id
 _symmetry_equiv_pos_as_xyz
  1  'x, y, z'
loop_
 _atom_site_type_symbol
 _atom_site_label
 _atom_site_symmetry_multiplicity
 _atom_site_fract_x
 _atom_site_fract_y
 _atom_site_fract_z
 _atom_site_occupancy
  Ba  Ba0  1  0.29915073  0.65000000  0.95000000  1
  Ba  Ba1  1  0.30084927  0.15000000  0.45000000  1
  La  La2  1  0.09254421  0.04828257  0.14687995  1
  La  La3  1  0.90210217  0.45503031  0.34945173  1
  La  La4  1  0.69762013  0.84496969  0.55054827  1
  La  La5  1  0.49738170  0.25171743  0.75312005  1
  La  La6  1  0.50745579  0.75171743  0.25312005  1
  La  La7  1  0.10261830  0.54828257  0.64687995  1
  La  La8  1  0.90237987  0.95503031  0.84945173  1
  La  La9  1  0.69789783  0.34496969  0.05054827  1
  Co  Co10  1  0.09682554  0.29953919  0.89957065  1
  Co  Co11  1  0.90041746  0.70248362  0.10004986  1
  Co  Co12  1  0.69958254  0.09751638  0.29995014  1
  Co  Co13  1  0.50317446  0.50046081  0.50042935  1
  Co  Co14  1  0.30000000  0.90000000  0.70000000  1
  Co  Co15  1  0.69788398  0.59751638  0.79995014  1
  Co  Co16  1  0.49771570  0.00046081  0.00042935  1
  Co  Co17  1  0.30000000  0.40000000  0.20000000  1
  Co  Co18  1  0.10228430  0.79953919  0.39957065  1
  Co  Co19  1  0.90211602  0.20248362  0.60004986  1
  O  O20  1  0.58807721  0.02983745  0.64513027  1
  O  O21  1  0.37693570  0.43679987  0.82602041  1
  O  O22  1  0.17268640  0.84863366  0.04199214  1
  O  O23  1  0.96923328  0.23496646  0.22886018  1
  O  O24  1  0.78283220  0.64005526  0.42877356  1
  O  O25  1  0.10540663  0.06503354  0.67113982  1
  O  O26  1  0.88206059  0.45136634  0.85800786  1
  O  O27  1  0.71411542  0.86320013  0.07397959  1
  O  O28  1  0.51310949  0.27016255  0.25486973  1
  O  O29  1  0.31400338  0.65994474  0.47122644  1
  O  O30  1  0.01192279  0.77016255  0.75486973  1
  O  O31  1  0.81716780  0.15994474  0.97122644  1
  O  O32  1  0.63076672  0.56503354  0.17113982  1
  O  O33  1  0.42731360  0.95136634  0.35800786  1
  O  O34  1  0.22306430  0.36320013  0.57397959  1
  O  O35  1  0.49459337  0.73496646  0.72886018  1
  O  O36  1  0.28599662  0.14005526  0.92877356  1
  O  O37  1  0.08689051  0.52983745  0.14513027  1
  O  O38  1  0.88588458  0.93679987  0.32602041  1
  O  O39  1  0.71793941  0.34863366  0.54199214  1
  O  O40  1  0.25603387  0.33856923  0.04685126  1
  O  O41  1  0.06681565  0.74674239  0.25658981  1
  O  O42  1  0.82902616  0.15000000  0.45000000  1
  O  O43  1  0.66348345  0.55325761  0.64341019  1
  O  O44  1  0.47061337  0.96143077  0.85314874  1
  O  O45  1  0.53318435  0.05325761  0.14341019  1
  O  O46  1  0.34396613  0.46143077  0.35314874  1
  O  O47  1  0.12938663  0.83856923  0.54685126  1
  O  O48  1  0.93651655  0.24674239  0.75658981  1
  O  O49  1  0.77097384  0.65000000  0.95000000  1
