# generated using pymatgen
data_BaNaSr3(SbO4)3
_symmetry_space_group_name_H-M   'P 1'
_cell_length_a   8.28602580
_cell_length_b   8.28602580
_cell_length_c   8.23033960
_cell_angle_alpha   90.00000000
_cell_angle_beta   90.00000000
_cell_angle_gamma   90.82759513
_symmetry_Int_Tables_number   1
_chemical_formula_structural   BaNaSr3(SbO4)3
_chemical_formula_sum   'Ba2 Na2 Sr6 Sb6 O24'
_cell_volume   565.02154901
_cell_formula_units_Z   2
loop_
 _symmetry_equiv_pos_site_id
 _symmetry_equiv_pos_as_xyz
  1  'x, y, z'
loop_
 _atom_site_type_symbol
 _atom_site_label
 _atom_site_symmetry_multiplicity
 _atom_site_fract_x
 _atom_site_fract_y
 _atom_site_fract_z
 _atom_site_occupancy
  Ba  Ba0  1  0.75216552  0.74783448  0.25000000  1
  Ba  Ba1  1  0.74783448  0.75216552  0.75000000  1
  Na  Na2  1  0.50038938  0.50038938  0.50000000  1
  Na  Na3  1  0.99961062  0.99961062  0.00000000  1
  Sr  Sr4  1  0.24381339  0.25618661  0.75000000  1
  Sr  Sr5  1  0.25618661  0.24381339  0.25000000  1
  Sr  Sr6  1  0.25402955  0.75164255  0.24474476  1
  Sr  Sr7  1  0.75164255  0.25402955  0.75525524  1
  Sr  Sr8  1  0.24597045  0.74835745  0.74474476  1
  Sr  Sr9  1  0.74835745  0.24597045  0.25525524  1
  Sb  Sb10  1  0.00391111  0.49665435  0.49969846  1
  Sb  Sb11  1  0.49665435  0.00391111  0.50030154  1
  Sb  Sb12  1  0.00334565  0.49608889  0.00030154  1
  Sb  Sb13  1  0.49608889  0.00334565  -0.00030154  1
  Sb  Sb14  1  0.00252519  0.00252519  0.50000000  1
  Sb  Sb15  1  0.49747481  0.49747481  0.00000000  1
  O  O16  1  0.03736316  0.46263684  0.25000000  1
  O  O17  1  0.46263684  0.03736316  0.75000000  1
  O  O18  1  0.97365574  0.52634426  0.75000000  1
  O  O19  1  0.52634426  0.97365574  0.25000000  1
  O  O20  1  0.77444716  0.48764985  0.47244670  1
  O  O21  1  0.48764985  0.77444716  0.52755330  1
  O  O22  1  0.99784005  0.26742757  0.96709712  1
  O  O23  1  0.26742757  0.99784005  0.03290288  1
  O  O24  1  0.23257243  0.50215995  0.53290288  1
  O  O25  1  0.50215995  0.23257243  0.46709712  1
  O  O26  1  0.01235015  0.72555284  0.02755330  1
  O  O27  1  0.72555284  0.01235015  0.97244670  1
  O  O28  1  0.46600454  0.52879596  0.22809312  1
  O  O29  1  0.52879596  0.46600454  0.77190688  1
  O  O30  1  0.03399546  0.97120404  0.72809312  1
  O  O31  1  0.97120404  0.03399546  0.27190688  1
  O  O32  1  0.75093102  0.49359411  0.03211687  1
  O  O33  1  0.49359411  0.75093102  0.96788313  1
  O  O34  1  0.00585975  0.24920461  0.54150081  1
  O  O35  1  0.24920461  0.00585975  0.45849919  1
  O  O36  1  0.25079539  0.49414025  0.95849919  1
  O  O37  1  0.49414025  0.25079539  0.04150081  1
  O  O38  1  0.00640589  0.74906898  0.46788313  1
  O  O39  1  0.74906898  0.00640589  0.53211687  1
