# generated using pymatgen
data_Ca12FeCo7O24
_symmetry_space_group_name_H-M   'P 1'
_cell_length_a   6.37158452
_cell_length_b   8.78316092
_cell_length_c   9.23235804
_cell_angle_alpha   90.00000165
_cell_angle_beta   89.99999771
_cell_angle_gamma   93.56860442
_symmetry_Int_Tables_number   1
_chemical_formula_structural   Ca12FeCo7O24
_chemical_formula_sum   'Ca12 Fe1 Co7 O24'
_cell_volume   515.66541616
_cell_formula_units_Z   1
loop_
 _symmetry_equiv_pos_site_id
 _symmetry_equiv_pos_as_xyz
  1  'x, y, z'
loop_
 _atom_site_type_symbol
 _atom_site_label
 _atom_site_symmetry_multiplicity
 _atom_site_fract_x
 _atom_site_fract_y
 _atom_site_fract_z
 _atom_site_occupancy
  Ca  Ca0  1  0.61799506  0.56452845  0.68627716  1
  Ca  Ca1  1  0.62067363  0.06563207  0.18167145  1
  Ca  Ca2  1  0.87932637  0.43436793  0.18167145  1
  Ca  Ca3  1  0.88200494  0.93547155  0.68627716  1
  Ca  Ca4  1  0.25000000  0.75000000  0.12977668  1
  Ca  Ca5  1  0.25000000  0.25000000  0.63338358  1
  Ca  Ca6  1  0.11946606  0.56683540  0.81826012  1
  Ca  Ca7  1  0.11789509  0.06404452  0.31447560  1
  Ca  Ca8  1  0.75000000  0.25000000  0.86975368  1
  Ca  Ca9  1  0.75000000  0.75000000  0.36597181  1
  Ca  Ca10  1  0.38210491  0.43595548  0.31447560  1
  Ca  Ca11  1  0.38053394  0.93316460  0.81826012  1
  Fe  Fe12  1  0.25000000  0.25000000  0.00006408  1
  Co  Co13  1  0.49989199  0.50002569  0.99991100  1
  Co  Co14  1  0.50003308  0.99982383  0.49996214  1
  Co  Co15  1  0.00010801  -0.00002569  0.99991100  1
  Co  Co16  1  -0.00003308  0.50017617  0.49996214  1
  Co  Co17  1  0.25000000  0.75000000  0.49776076  1
  Co  Co18  1  0.75000000  0.75000000  0.00000474  1
  Co  Co19  1  0.75000000  0.25000000  0.50246349  1
  O  O20  1  0.53813555  0.30896176  0.09909278  1
  O  O21  1  0.53799172  0.80486870  0.60032706  1
  O  O22  1  0.20927478  0.47310474  0.06465975  1
  O  O23  1  0.20231994  0.97025775  0.56841541  1
  O  O24  1  0.40659988  0.37447592  0.83654462  1
  O  O25  1  0.40359304  0.86772114  0.33117701  1
  O  O26  1  0.03695449  0.80853725  0.90200802  1
  O  O27  1  0.03800315  0.30498715  0.39988550  1
  O  O28  1  0.90343088  0.36816038  0.66907904  1
  O  O29  1  0.90502517  0.87391055  0.16217416  1
  O  O30  1  0.70247906  0.47053099  0.43135979  1
  O  O31  1  0.71041225  0.97135468  0.93512996  1
  O  O32  1  0.46304551  0.69146275  0.90200802  1
  O  O33  1  0.46199685  0.19501285  0.39988550  1
  O  O34  1  0.78958775  0.52864532  0.93512996  1
  O  O35  1  0.79752094  0.02946901  0.43135979  1
  O  O36  1  0.59497483  0.62608945  0.16217416  1
  O  O37  1  0.59656912  0.13183962  0.66907904  1
  O  O38  1  0.96186445  0.19103824  0.09909278  1
  O  O39  1  0.96200828  0.69513130  0.60032706  1
  O  O40  1  0.09640696  0.63227886  0.33117701  1
  O  O41  1  0.09340012  0.12552408  0.83654462  1
  O  O42  1  0.29768006  0.52974225  0.56841541  1
  O  O43  1  0.29072522  0.02689526  0.06465975  1
