# generated using pymatgen
data_Bi4I3Br
_symmetry_space_group_name_H-M   'P 1'
_cell_length_a   4.39438279
_cell_length_b   8.03896329
_cell_length_c   20.85113433
_cell_angle_alpha   90.00000000
_cell_angle_beta   90.00000000
_cell_angle_gamma   74.13821160
_symmetry_Int_Tables_number   1
_chemical_formula_structural   Bi4I3Br
_chemical_formula_sum   'Bi8 I6 Br2'
_cell_volume   708.54638875
_cell_formula_units_Z   2
loop_
 _symmetry_equiv_pos_site_id
 _symmetry_equiv_pos_as_xyz
  1  'x, y, z'
loop_
 _atom_site_type_symbol
 _atom_site_label
 _atom_site_symmetry_multiplicity
 _atom_site_fract_x
 _atom_site_fract_y
 _atom_site_fract_z
 _atom_site_occupancy
  Bi  Bi0  1  0.25791454  0.48417091  0.86875710  1
  Bi  Bi1  1  0.74208546  0.51582909  0.36875710  1
  Bi  Bi2  1  0.06492286  0.87015427  0.50458376  1
  Bi  Bi3  1  0.93507714  0.12984573  0.00458376  1
  Bi  Bi4  1  0.29816929  0.40366142  0.01423239  1
  Bi  Bi5  1  0.70183071  0.59633858  0.51423239  1
  Bi  Bi6  1  0.02842835  0.94314331  0.65056087  1
  Bi  Bi7  1  0.97157165  0.05685669  0.15056087  1
  I  I8  1  0.38834035  0.22331930  0.62639944  1
  I  I9  1  0.61165965  0.77668070  0.12639944  1
  I  I10  1  0.11220773  0.77558455  0.32242366  1
  I  I11  1  0.88779227  0.22441545  0.82242366  1
  I  I12  1  0.37949655  0.24100691  0.40143347  1
  I  I13  1  0.62050345  0.75899309  0.90143347  1
  Br  Br14  1  0.35283821  0.29432358  0.18650930  1
  Br  Br15  1  0.64716179  0.70567642  0.68650930  1
