# generated using pymatgen
data_Cd2Cu10Sb4S13
_symmetry_space_group_name_H-M   'P 1'
_cell_length_a   9.13279453
_cell_length_b   9.13279453
_cell_length_c   9.13279453
_cell_angle_alpha   73.62056928
_cell_angle_beta   68.96111395
_cell_angle_gamma   111.03888605
_symmetry_Int_Tables_number   1
_chemical_formula_structural   Cd2Cu10Sb4S13
_chemical_formula_sum   'Cd2 Cu10 Sb4 S13'
_cell_volume   585.12169753
_cell_formula_units_Z   1
loop_
 _symmetry_equiv_pos_site_id
 _symmetry_equiv_pos_as_xyz
  1  'x, y, z'
loop_
 _atom_site_type_symbol
 _atom_site_label
 _atom_site_symmetry_multiplicity
 _atom_site_fract_x
 _atom_site_fract_y
 _atom_site_fract_z
 _atom_site_occupancy
  Cd  Cd0  1  -0.00000000  0.76656050  0.23343950  1
  Cd  Cd1  1  -0.00000000  0.23343950  0.76656050  1
  Cu  Cu2  1  0.26063746  0.76063746  0.50000000  1
  Cu  Cu3  1  0.73936254  0.50000000  0.76063746  1
  Cu  Cu4  1  0.50000000  0.25000000  0.25000000  1
  Cu  Cu5  1  0.26063746  0.50000000  0.23936254  1
  Cu  Cu6  1  0.73936254  0.23936254  0.50000000  1
  Cu  Cu7  1  0.50000000  0.75000000  0.75000000  1
  Cu  Cu8  1  0.77381270  0.77381270  -0.00000000  1
  Cu  Cu9  1  0.77381270  0.00000000  0.22618730  1
  Cu  Cu10  1  0.22618730  0.22618730  0.00000000  1
  Cu  Cu11  1  0.22618730  -0.00000000  0.77381270  1
  Sb  Sb12  1  0.45559094  0.47058592  0.52941408  1
  Sb  Sb13  1  0.54440906  0.01499498  0.98500502  1
  Sb  Sb14  1  0.00000000  0.52941408  0.01499498  1
  Sb  Sb15  1  -0.00000000  0.98500502  0.47058592  1
  S  S16  1  -0.00000000  -0.00000000  0.00000000  1
  S  S17  1  0.74083906  0.48784002  0.51215998  1
  S  S18  1  0.52517571  0.51715600  0.22812024  1
  S  S19  1  0.52517571  0.77187976  0.48284400  1
  S  S20  1  0.25916094  0.74700096  0.25299904  1
  S  S21  1  0.47482429  0.24670405  0.00801970  1
  S  S22  1  0.47482429  0.99198030  0.75329595  1
  S  S23  1  -0.00000000  0.51215998  0.74700096  1
  S  S24  1  0.25472376  0.48284400  0.99198030  1
  S  S25  1  0.74527624  0.22812024  0.24670405  1
  S  S26  1  -0.00000000  0.25299904  0.48784002  1
  S  S27  1  0.74527624  0.75329595  0.77187976  1
  S  S28  1  0.25472376  0.00801970  0.51715600  1
