# generated using pymatgen
data_Ca2LaGa(FeO4)2
_symmetry_space_group_name_H-M   'P 1'
_cell_length_a   5.53362766
_cell_length_b   5.62764021
_cell_length_c   11.32209186
_cell_angle_alpha   90.00000000
_cell_angle_beta   90.00000000
_cell_angle_gamma   89.91381857
_symmetry_Int_Tables_number   1
_chemical_formula_structural   Ca2LaGa(FeO4)2
_chemical_formula_sum   'Ca4 La2 Ga2 Fe4 O16'
_cell_volume   352.58386986
_cell_formula_units_Z   2
loop_
 _symmetry_equiv_pos_site_id
 _symmetry_equiv_pos_as_xyz
  1  'x, y, z'
loop_
 _atom_site_type_symbol
 _atom_site_label
 _atom_site_symmetry_multiplicity
 _atom_site_fract_x
 _atom_site_fract_y
 _atom_site_fract_z
 _atom_site_occupancy
  Ca  Ca0  1  0.24538307  0.27235689  0.68616103  1
  Ca  Ca1  1  0.24538307  0.27235689  0.31383897  1
  Ca  Ca2  1  0.74572492  0.72769884  0.31417419  1
  Ca  Ca3  1  0.74572492  0.72769884  0.68582581  1
  La  La4  1  0.19605888  0.25568911  -0.00000000  1
  La  La5  1  0.69742702  0.74312043  -0.00000000  1
  Ga  Ga6  1  0.71676969  0.24191427  0.82508407  1
  Ga  Ga7  1  0.71676969  0.24191427  0.17491593  1
  Fe  Fe8  1  0.21747527  0.76017452  0.17577446  1
  Fe  Fe9  1  0.21747527  0.76017452  0.82422554  1
  Fe  Fe10  1  0.76831865  0.18656217  0.50000000  1
  Fe  Fe11  1  0.26850351  0.81403135  0.50000000  1
  O  O12  1  0.11829124  0.12677393  0.50000000  1
  O  O13  1  0.61795831  0.87337563  0.50000000  1
  O  O14  1  0.68321722  0.33015866  0.64362980  1
  O  O15  1  0.68321722  0.33015866  0.35637020  1
  O  O16  1  0.18191626  0.66925166  0.35694734  1
  O  O17  1  0.18191626  0.66925166  0.64305266  1
  O  O18  1  0.94378264  0.51759607  0.85351191  1
  O  O19  1  0.94378264  0.51759607  0.14648809  1
  O  O20  1  0.44680846  0.47823123  0.14668797  1
  O  O21  1  0.44680846  0.47823123  0.85331203  1
  O  O22  1  0.72450548  0.16981285  -0.00000000  1
  O  O23  1  0.22439891  0.82704350  -0.00000000  1
  O  O24  1  0.98906685  0.02784339  0.79857493  1
  O  O25  1  0.98906685  0.02784339  0.20142507  1
  O  O26  1  0.49212462  0.97656997  0.20137968  1
  O  O27  1  0.49212462  0.97656997  0.79862032  1
