# generated using pymatgen
data_Ba10Pr5Nb2(SnO10)3
_symmetry_space_group_name_H-M   'P 1'
_cell_length_a   8.78374550
_cell_length_b   10.70081978
_cell_length_c   10.76178525
_cell_angle_alpha   80.85116645
_cell_angle_beta   113.84511056
_cell_angle_gamma   113.73844382
_symmetry_Int_Tables_number   1
_chemical_formula_structural   Ba10Pr5Nb2(SnO10)3
_chemical_formula_sum   'Ba10 Pr5 Nb2 Sn3 O30'
_cell_volume   846.90597699
_cell_formula_units_Z   1
loop_
 _symmetry_equiv_pos_site_id
 _symmetry_equiv_pos_as_xyz
  1  'x, y, z'
loop_
 _atom_site_type_symbol
 _atom_site_label
 _atom_site_symmetry_multiplicity
 _atom_site_fract_x
 _atom_site_fract_y
 _atom_site_fract_z
 _atom_site_occupancy
  Ba  Ba0  1  0.65062243  0.09989379  0.69891301  1
  Ba  Ba1  1  0.44974706  0.30040860  0.09982492  1
  Ba  Ba2  1  0.85274053  0.89799371  0.29862691  1
  Ba  Ba3  1  0.24785124  0.49634182  0.49914671  1
  Ba  Ba4  1  0.05094378  0.69667887  0.90024901  1
  Ba  Ba5  1  0.75025294  0.49959140  0.50017508  1
  Ba  Ba6  1  0.54937757  0.70010621  0.90108699  1
  Ba  Ba7  1  0.95214876  0.30365818  0.10085329  1
  Ba  Ba8  1  0.34725947  0.90200629  0.30137309  1
  Ba  Ba9  1  0.14905622  0.10332113  0.69975099  1
  Pr  Pr10  1  0.79810889  0.19834942  0.39861674  1
  Pr  Pr11  1  0.60000000  0.40000000  0.80000000  1
  Pr  Pr12  1  0.99925967  0.00013309  0.99848566  1
  Pr  Pr13  1  0.40189111  0.60165058  0.20138326  1
  Pr  Pr14  1  0.20074033  0.79986691  0.60151434  1
  Nb  Nb15  1  0.70013610  0.79954802  0.60042140  1
  Nb  Nb16  1  0.49986390  0.00045198  -0.00042140  1
  Sn  Sn17  1  0.90017517  0.60036873  0.20000756  1
  Sn  Sn18  1  0.29982483  0.19963127  0.39999244  1
  Sn  Sn19  1  0.10000000  0.40000000  0.80000000  1
  O  O20  1  0.98537282  0.79981064  0.12663516  1
  O  O21  1  0.38422037  0.39863588  0.32536416  1
  O  O22  1  0.78350461  0.99393663  0.52948409  1
  O  O23  1  0.18536155  0.59912115  0.72660858  1
  O  O24  1  0.58405460  0.19385749  0.92938874  1
  O  O25  1  0.65595841  0.61186730  0.17158972  1
  O  O26  1  0.05536480  0.21026810  0.37247742  1
  O  O27  1  0.46334931  0.81228393  0.57317971  1
  O  O28  1  0.85555859  0.41142511  0.77156418  1
  O  O29  1  0.26052355  0.00937928  0.97040931  1
  O  O30  1  0.01356222  0.67711596  0.39809053  1
  O  O31  1  0.41211367  0.27444921  0.59856456  1
  O  O32  1  0.80667940  0.87308472  0.79291842  1
  O  O33  1  0.21357343  0.47694353  0.99783829  1
  O  O34  1  0.60604384  0.07176461  0.19231085  1
  O  O35  1  0.81577963  0.40136412  0.27463584  1
  O  O36  1  0.21462718  0.00018936  0.47336484  1
  O  O37  1  0.61594540  0.60614251  0.67061126  1
  O  O38  1  0.01463845  0.20087885  0.87339142  1
  O  O39  1  0.41649539  0.80606337  0.07051591  1
  O  O40  1  0.14463520  0.58973190  0.22752258  1
  O  O41  1  0.54404159  0.18813270  0.42841028  1
  O  O42  1  0.93947645  0.79062072  0.62959069  1
  O  O43  1  0.34444141  0.38857489  0.82843582  1
  O  O44  1  0.73665069  0.98771607  0.02682029  1
  O  O45  1  0.78788633  0.52555079  0.00143544  1
  O  O46  1  0.18643778  0.12288404  0.20190947  1
  O  O47  1  0.59395616  0.72823539  0.40768915  1
  O  O48  1  0.98642657  0.32305647  0.60216171  1
  O  O49  1  0.39332060  0.92691528  0.80708158  1
