# generated using pymatgen
data_Al9Fe2(SiO6)4
_symmetry_space_group_name_H-M   'P 1'
_cell_length_a   5.71036462
_cell_length_b   7.89009241
_cell_length_c   9.27066229
_cell_angle_alpha   64.81509302
_cell_angle_beta   89.69804458
_cell_angle_gamma   89.29040493
_symmetry_Int_Tables_number   1
_chemical_formula_structural   Al9Fe2(SiO6)4
_chemical_formula_sum   'Al9 Fe2 Si4 O24'
_cell_volume   377.95733225
_cell_formula_units_Z   1
loop_
 _symmetry_equiv_pos_site_id
 _symmetry_equiv_pos_as_xyz
  1  'x, y, z'
loop_
 _atom_site_type_symbol
 _atom_site_label
 _atom_site_symmetry_multiplicity
 _atom_site_fract_x
 _atom_site_fract_y
 _atom_site_fract_z
 _atom_site_occupancy
  Al  Al0  1  0.50000000  0.67534141  0.64931718  1
  Al  Al1  1  -0.00000000  0.67625662  0.64748676  1
  Al  Al2  1  0.50000000  0.32465859  0.35068282  1
  Al  Al3  1  -0.00000000  0.32374338  0.35251324  1
  Al  Al4  1  0.50000000  -0.00000000  -0.00000000  1
  Al  Al5  1  0.76278511  0.32514732  0.82601235  1
  Al  Al6  1  0.23721489  0.84884033  0.82601235  1
  Al  Al7  1  0.23721489  0.67485268  0.17398765  1
  Al  Al8  1  0.76278511  0.15115967  0.17398765  1
  Fe  Fe9  1  0.23966117  0.38200541  0.00000000  1
  Fe  Fe10  1  0.76033883  0.61799459  -0.00000000  1
  Si  Si11  1  0.25756123  0.29868972  0.66997107  1
  Si  Si12  1  0.74243877  0.03133921  0.66997107  1
  Si  Si13  1  0.74243877  0.70131028  0.33002893  1
  Si  Si14  1  0.25756123  0.96866079  0.33002893  1
  O  O15  1  0.26967588  0.08847530  0.82233913  1
  O  O16  1  0.73032412  0.08918558  0.82233913  1
  O  O17  1  0.73032412  0.91152470  0.17766087  1
  O  O18  1  0.26967588  0.91081442  0.17766087  1
  O  O19  1  0.25119702  0.62304134  0.79863971  1
  O  O20  1  0.74880298  0.57831895  0.79863971  1
  O  O21  1  0.74880298  0.37695866  0.20136029  1
  O  O22  1  0.25119702  0.42168105  0.20136029  1
  O  O23  1  0.53357575  0.23222317  -0.00000000  1
  O  O24  1  0.46642425  0.76777683  0.00000000  1
  O  O25  1  0.96255173  0.25695832  -0.00000000  1
  O  O26  1  0.03744827  0.74304168  0.00000000  1
  O  O27  1  0.48768027  0.41899512  0.67744428  1
  O  O28  1  0.51231973  0.90356060  0.67744428  1
  O  O29  1  0.01879396  0.41432864  0.67847584  1
  O  O30  1  0.98120604  0.90719553  0.67847584  1
  O  O31  1  0.51231973  0.58100488  0.32255572  1
  O  O32  1  0.48768027  0.09643940  0.32255572  1
  O  O33  1  0.98120604  0.58567136  0.32152416  1
  O  O34  1  0.01879396  0.09280447  0.32152416  1
  O  O35  1  0.25054332  0.27198056  0.50187192  1
  O  O36  1  0.74945668  0.22614752  0.50187192  1
  O  O37  1  0.74945668  0.72801944  0.49812808  1
  O  O38  1  0.25054332  0.77385248  0.49812808  1
