# generated using pymatgen
data_Ba7Li3(RuO5)4
_symmetry_space_group_name_H-M   'P 1'
_cell_length_a   5.84971174
_cell_length_b   5.83127878
_cell_length_c   17.45355078
_cell_angle_alpha   90.02889903
_cell_angle_beta   99.64711062
_cell_angle_gamma   59.89537478
_symmetry_Int_Tables_number   1
_chemical_formula_structural   Ba7Li3(RuO5)4
_chemical_formula_sum   'Ba7 Li3 Ru4 O20'
_cell_volume   505.32935128
_cell_formula_units_Z   1
loop_
 _symmetry_equiv_pos_site_id
 _symmetry_equiv_pos_as_xyz
  1  'x, y, z'
loop_
 _atom_site_type_symbol
 _atom_site_label
 _atom_site_symmetry_multiplicity
 _atom_site_fract_x
 _atom_site_fract_y
 _atom_site_fract_z
 _atom_site_occupancy
  Ba  Ba0  1  0.14046496  0.42923240  0.70952826  1
  Ba  Ba1  1  0.86016909  0.57076760  0.29047174  1
  Ba  Ba2  1  0.94468228  1.00000000  0.00000000  1
  Ba  Ba3  1  0.61746026  0.19108458  0.42558265  1
  Ba  Ba4  1  0.38296219  0.80891542  0.57441735  1
  Ba  Ba5  1  0.43163478  0.28797926  0.15503541  1
  Ba  Ba6  1  0.56457862  0.71202074  0.84496459  1
  Li  Li7  1  0.26091341  0.37925093  0.90872328  1
  Li  Li8  1  0.73144106  0.62074907  0.09127672  1
  Li  Li9  1  0.99980546  0.50000000  0.50000000  1
  Ru  Ru10  1  0.75283240  0.12360806  0.62939389  1
  Ru  Ru11  1  0.24704657  0.87639194  0.37060611  1
  Ru  Ru12  1  0.86398699  0.06846745  0.79345293  1
  Ru  Ru13  1  0.13900151  0.93153255  0.20654707  1
  O  O14  1  0.06776394  0.20114364  0.85152977  1
  O  O15  1  0.06094592  0.72764645  0.84809679  1
  O  O16  1  0.58011191  0.20586654  0.84987741  1
  O  O17  1  0.93610104  0.79413346  0.15012259  1
  O  O18  1  0.94049558  0.27235355  0.15190321  1
  O  O19  1  0.41737781  0.79885636  0.14847023  1
  O  O20  1  0.65836246  0.39821179  0.71170150  1
  O  O21  1  0.10649479  0.94680164  0.71040163  1
  O  O22  1  0.65863748  0.94594808  0.71081938  1
  O  O23  1  0.34487276  0.60178821  0.28829850  1
  O  O24  1  0.89376618  0.05405192  0.28918062  1
  O  O25  1  0.34289480  0.05319836  0.28959837  1
  O  O26  1  0.87472170  0.30281800  0.57287847  1
  O  O27  1  0.87510983  0.82224612  0.57268148  1
  O  O28  1  0.39444045  0.30328766  0.57338987  1
  O  O29  1  0.12433823  0.69671234  0.42661013  1
  O  O30  1  0.12467446  0.17775388  0.42731852  1
  O  O31  1  0.60466123  0.69718200  0.42712153  1
  O  O32  1  0.79961599  0.60345400  0.98833611  1
  O  O33  1  0.41473388  0.39654600  0.01166389  1
