# generated using pymatgen
data_AlGaCu2(SeS)2
_symmetry_space_group_name_H-M   'P 1'
_cell_length_a   5.50918750
_cell_length_b   5.49824451
_cell_length_c   6.70623004
_cell_angle_alpha   65.76827823
_cell_angle_beta   65.71706618
_cell_angle_gamma   89.93131618
_symmetry_Int_Tables_number   1
_chemical_formula_structural   AlGaCu2(SeS)2
_chemical_formula_sum   'Al1 Ga1 Cu2 Se2 S2'
_cell_volume   165.38327636
_cell_formula_units_Z   1
loop_
 _symmetry_equiv_pos_site_id
 _symmetry_equiv_pos_as_xyz
  1  'x, y, z'
loop_
 _atom_site_type_symbol
 _atom_site_label
 _atom_site_symmetry_multiplicity
 _atom_site_fract_x
 _atom_site_fract_y
 _atom_site_fract_z
 _atom_site_occupancy
  Al  Al0  1  0.50683301  0.50683301  0.98633399  1
  Ga  Ga1  1  0.24544037  0.74544037  0.50911926  1
  Cu  Cu2  1  0.73705162  0.23705162  0.52589676  1
  Cu  Cu3  1  0.01102135  0.01102135  0.97795731  1
  Se  Se4  1  0.12118960  0.12943715  0.24766613  1
  Se  Se5  1  0.63114426  0.62289671  0.24766613  1
  S  S6  1  0.37571432  0.86888203  0.75268021  1
  S  S7  1  0.87160548  0.37843776  0.75268021  1
