# generated using pymatgen
data_BaFe12O19
_symmetry_space_group_name_H-M   'P 1'
_cell_length_a   6.01077588
_cell_length_b   6.01072850
_cell_length_c   23.54887028
_cell_angle_alpha   90.00000000
_cell_angle_beta   90.00000000
_cell_angle_gamma   60.00026077
_symmetry_Int_Tables_number   1
_chemical_formula_structural   BaFe12O19
_chemical_formula_sum   'Ba2 Fe24 O38'
_cell_volume   736.81676204
_cell_formula_units_Z   2
loop_
 _symmetry_equiv_pos_site_id
 _symmetry_equiv_pos_as_xyz
  1  'x, y, z'
loop_
 _atom_site_type_symbol
 _atom_site_label
 _atom_site_symmetry_multiplicity
 _atom_site_fract_x
 _atom_site_fract_y
 _atom_site_fract_z
 _atom_site_occupancy
  Ba  Ba0  1  0.66665500  0.66667250  0.74909742  1
  Ba  Ba1  1  0.33334500  0.33332750  0.24909742  1
  Fe  Fe2  1  0.16875593  0.66248340  0.39161278  1
  Fe  Fe3  1  0.66249071  0.16875465  0.39161214  1
  Fe  Fe4  1  0.16875593  0.16876067  0.39161278  1
  Fe  Fe5  1  0.83254330  0.33491684  0.60918211  1
  Fe  Fe6  1  0.33490972  0.83254514  0.60918145  1
  Fe  Fe7  1  0.83254330  0.83253986  0.60918211  1
  Fe  Fe8  1  0.83124407  0.33751660  0.89161278  1
  Fe  Fe9  1  0.33750929  0.83124535  0.89161214  1
  Fe  Fe10  1  0.83124407  0.83123933  0.89161278  1
  Fe  Fe11  1  0.16745670  0.66508316  0.10918211  1
  Fe  Fe12  1  0.66509028  0.16745486  0.10918145  1
  Fe  Fe13  1  0.16745670  0.16746014  0.10918211  1
  Fe  Fe14  1  0.33333945  0.33333027  0.69082778  1
  Fe  Fe15  1  0.66666325  0.66666837  0.30918635  1
  Fe  Fe16  1  0.66666055  0.66666973  0.19082778  1
  Fe  Fe17  1  0.33333675  0.33333163  0.80918635  1
  Fe  Fe18  1  0.33335015  0.33332493  0.52793783  1
  Fe  Fe19  1  0.66665032  0.66667484  0.47285921  1
  Fe  Fe20  1  0.66664985  0.66667507  0.02793783  1
  Fe  Fe21  1  0.33334968  0.33332516  0.97285921  1
  Fe  Fe22  1  0.99999914  0.00000043  0.50016606  1
  Fe  Fe23  1  0.00000086  0.99999957  0.00016606  1
  Fe  Fe24  1  0.00000067  -0.00000034  0.75679497  1
  Fe  Fe25  1  -0.00000067  0.00000034  0.25679497  1
  O  O26  1  0.99999851  0.00000074  0.65127936  1
  O  O27  1  0.00000116  0.99999942  0.34828128  1
  O  O28  1  0.00000149  0.99999926  0.15127936  1
  O  O29  1  0.99999884  0.00000058  0.84828128  1
  O  O30  1  0.50274952  0.99450236  0.64985624  1
  O  O31  1  0.99450934  0.50274533  0.64985588  1
  O  O32  1  0.50274952  0.50274813  0.64985624  1
  O  O33  1  0.49663958  0.00671778  0.35041980  1
  O  O34  1  0.00671228  0.49664386  0.35042030  1
  O  O35  1  0.49663958  0.49664265  0.35041980  1
  O  O36  1  0.49725048  0.00549764  0.14985624  1
  O  O37  1  0.00549066  0.49725467  0.14985588  1
  O  O38  1  0.49725048  0.49725187  0.14985624  1
  O  O39  1  0.50336042  0.99328222  0.85041980  1
  O  O40  1  0.99328772  0.50335614  0.85042030  1
  O  O41  1  0.50336042  0.50335735  0.85041980  1
  O  O42  1  0.15536987  0.68925414  0.55254450  1
  O  O43  1  0.68926915  0.15536542  0.55254632  1
  O  O44  1  0.15536987  0.15537599  0.55254450  1
  O  O45  1  0.84473337  0.31053973  0.44727915  1
  O  O46  1  0.31052565  0.84473717  0.44727750  1
  O  O47  1  0.84473337  0.84472690  0.44727915  1
  O  O48  1  0.84463013  0.31074586  0.05254450  1
  O  O49  1  0.31073085  0.84463458  0.05254632  1
  O  O50  1  0.84463013  0.84462401  0.05254450  1
  O  O51  1  0.15526663  0.68946027  0.94727915  1
  O  O52  1  0.68947435  0.15526283  0.94727750  1
  O  O53  1  0.15526663  0.15527310  0.94727915  1
  O  O54  1  0.18239518  0.63521868  0.75055195  1
  O  O55  1  0.63522225  0.18238887  0.75055183  1
  O  O56  1  0.18239518  0.18238614  0.75055195  1
  O  O57  1  0.81760482  0.36478132  0.25055195  1
  O  O58  1  0.36477775  0.81761113  0.25055183  1
  O  O59  1  0.81760482  0.81761386  0.25055195  1
  O  O60  1  0.33334933  0.33332534  0.44467287  1
  O  O61  1  0.66664732  0.66667634  0.55555839  1
  O  O62  1  0.66665067  0.66667466  0.94467287  1
  O  O63  1  0.33335268  0.33332366  0.05555839  1
