# generated using pymatgen
data_Ca(C2N3)2
_symmetry_space_group_name_H-M   'P 1'
_cell_length_a   6.25343952
_cell_length_b   7.10565018
_cell_length_c   7.94326602
_cell_angle_alpha   95.49527479
_cell_angle_beta   90.00000000
_cell_angle_gamma   116.10597943
_symmetry_Int_Tables_number   1
_chemical_formula_structural   Ca(C2N3)2
_chemical_formula_sum   'Ca2 C8 N12'
_cell_volume   315.14152533
_cell_formula_units_Z   2
loop_
 _symmetry_equiv_pos_site_id
 _symmetry_equiv_pos_as_xyz
  1  'x, y, z'
loop_
 _atom_site_type_symbol
 _atom_site_label
 _atom_site_symmetry_multiplicity
 _atom_site_fract_x
 _atom_site_fract_y
 _atom_site_fract_z
 _atom_site_occupancy
  C  C0  1  0.71238675  0.16937548  0.90873341  1
  C  C1  1  0.54301127  0.83062452  0.59126659  1
  C  C2  1  0.74325044  0.45733742  0.30676914  1
  C  C3  1  0.28591303  0.54266258  0.19323086  1
  C  C4  1  0.25674956  0.54266258  0.69323086  1
  C  C5  1  0.71408697  0.45733742  0.80676914  1
  C  C6  1  0.45698873  0.16937548  0.40873341  1
  C  C7  1  0.28761325  0.83062452  0.09126659  1
  N  N8  1  0.72869903  0.93073355  0.53311504  1
  N  N9  1  0.79796547  0.06926645  0.96688496  1
  N  N10  1  0.66073315  0.26213940  0.34139228  1
  N  N11  1  0.39859375  0.73786060  0.15860772  1
  N  N12  1  0.33926685  0.73786060  0.65860772  1
  N  N13  1  0.60140625  0.26213940  0.84139228  1
  N  N14  1  0.82950416  0.63122182  0.27044448  1
  N  N15  1  0.19828235  0.36877818  0.22955552  1
  N  N16  1  0.17049584  0.36877818  0.72955552  1
  N  N17  1  0.80171765  0.63122182  0.77044448  1
  N  N18  1  0.27130097  0.06926645  0.46688496  1
  N  N19  1  0.20203453  0.93073355  0.03311504  1
  Ca  Ca20  1  0.08658521  0.00000000  0.75000000  1
  Ca  Ca21  1  0.91341479  0.00000000  0.25000000  1
