# generated using pymatgen
data_Ba2La3Nd(CuO5)2
_symmetry_space_group_name_H-M   'P 1'
_cell_length_a   5.91848876
_cell_length_b   6.85205439
_cell_length_c   6.85205439
_cell_angle_alpha   89.91547501
_cell_angle_beta   90.00000000
_cell_angle_gamma   90.00000000
_symmetry_Int_Tables_number   1
_chemical_formula_structural   Ba2La3Nd(CuO5)2
_chemical_formula_sum   'Ba2 La3 Nd1 Cu2 O10'
_cell_volume   277.87658848
_cell_formula_units_Z   1
loop_
 _symmetry_equiv_pos_site_id
 _symmetry_equiv_pos_as_xyz
  1  'x, y, z'
loop_
 _atom_site_type_symbol
 _atom_site_label
 _atom_site_symmetry_multiplicity
 _atom_site_fract_x
 _atom_site_fract_y
 _atom_site_fract_z
 _atom_site_occupancy
  Ba  Ba0  1  0.50000000  0.00093102  0.99721628  1
  Ba  Ba1  1  0.50000000  0.49721628  0.50093102  1
  La  La2  1  -0.00000000  0.82400204  0.32400204  1
  La  La3  1  -0.00000000  0.32347713  0.17429517  1
  La  La4  1  -0.00000000  0.67429517  0.82347713  1
  Nd  Nd5  1  -0.00000000  0.17401927  0.67401927  1
  Cu  Cu6  1  0.50000000  0.49850809  0.99850809  1
  Cu  Cu7  1  0.50000000  0.00107077  0.50107077  1
  O  O8  1  0.73950678  0.35714249  0.85714249  1
  O  O9  1  0.73848840  0.64016355  0.14016355  1
  O  O10  1  0.74051647  0.14141349  0.36413741  1
  O  O11  1  0.74051647  0.86413741  0.64141349  1
  O  O12  1  0.26151160  0.64016355  0.14016355  1
  O  O13  1  0.26049322  0.35714249  0.85714249  1
  O  O14  1  0.25948353  0.86413741  0.64141349  1
  O  O15  1  0.25948353  0.14141349  0.36413741  1
  O  O16  1  -0.00000000  0.49846251  0.50230387  1
  O  O17  1  -0.00000000  0.00230387  0.99846251  1
