# generated using pymatgen
data_Ba2NaSr2(SbO4)3
_symmetry_space_group_name_H-M   'P 1'
_cell_length_a   8.27558374
_cell_length_b   8.33626919
_cell_length_c   8.33626919
_cell_angle_alpha   89.50895977
_cell_angle_beta   90.00000000
_cell_angle_gamma   90.00000000
_symmetry_Int_Tables_number   1
_chemical_formula_structural   Ba2NaSr2(SbO4)3
_chemical_formula_sum   'Ba4 Na2 Sr4 Sb6 O24'
_cell_volume   575.07719864
_cell_formula_units_Z   2
loop_
 _symmetry_equiv_pos_site_id
 _symmetry_equiv_pos_as_xyz
  1  'x, y, z'
loop_
 _atom_site_type_symbol
 _atom_site_label
 _atom_site_symmetry_multiplicity
 _atom_site_fract_x
 _atom_site_fract_y
 _atom_site_fract_z
 _atom_site_occupancy
  Ba  Ba0  1  0.24587092  0.25012046  0.74987954  1
  Ba  Ba1  1  0.75412908  0.74987954  0.25012046  1
  Ba  Ba2  1  0.74587092  0.24987954  0.75012046  1
  Ba  Ba3  1  0.25412908  0.75012046  0.24987954  1
  Na  Na4  1  0.50000000  0.50000000  0.50000000  1
  Na  Na5  1  -0.00000000  0.00000000  0.00000000  1
  Sr  Sr6  1  0.25000000  0.75289875  0.74710125  1
  Sr  Sr7  1  0.75000000  0.74710125  0.75289875  1
  Sr  Sr8  1  0.75000000  0.24710125  0.25289875  1
  Sr  Sr9  1  0.25000000  0.25289875  0.24710125  1
  Sb  Sb10  1  0.50000000  0.00000000  0.50000000  1
  Sb  Sb11  1  0.50000000  0.50000000  0.00000000  1
  Sb  Sb12  1  0.00000000  0.00000000  0.50000000  1
  Sb  Sb13  1  0.00000000  0.50000000  0.00000000  1
  Sb  Sb14  1  0.50000000  0.00000000  0.00000000  1
  Sb  Sb15  1  0.00000000  0.50000000  0.50000000  1
  O  O16  1  0.25000000  0.03082990  0.46917010  1
  O  O17  1  0.75000000  0.46917010  0.03082990  1
  O  O18  1  0.75000000  0.96917010  0.53082990  1
  O  O19  1  0.25000000  0.53082990  0.96917010  1
  O  O20  1  0.22936943  0.48268590  0.51731410  1
  O  O21  1  0.77063057  0.51731410  0.48268590  1
  O  O22  1  0.72936943  0.01731410  0.98268590  1
  O  O23  1  0.27063057  0.98268590  0.01731410  1
  O  O24  1  0.47491835  0.77168122  0.50577713  1
  O  O25  1  0.52508165  0.50577713  0.77168122  1
  O  O26  1  0.97491835  0.00577713  0.27168122  1
  O  O27  1  0.02508165  0.27168122  0.00577713  1
  O  O28  1  0.52508165  0.22831878  0.49422287  1
  O  O29  1  0.47491835  0.49422287  0.22831878  1
  O  O30  1  0.02508165  0.99422287  0.72831878  1
  O  O31  1  0.97491835  0.72831878  0.99422287  1
  O  O32  1  0.02565894  0.75021767  0.50328479  1
  O  O33  1  0.97434106  0.50328479  0.75021767  1
  O  O34  1  0.52565894  0.00328479  0.25021767  1
  O  O35  1  0.47434106  0.25021767  0.00328479  1
  O  O36  1  0.97434106  0.24978233  0.49671521  1
  O  O37  1  0.02565894  0.49671521  0.24978233  1
  O  O38  1  0.47434106  0.99671521  0.74978233  1
  O  O39  1  0.52565894  0.74978233  0.99671521  1
