# generated using pymatgen
data_Al2CrB2Mo
_symmetry_space_group_name_H-M   'P 1'
_cell_length_a   3.05892332
_cell_length_b   3.13809474
_cell_length_c   7.11104383
_cell_angle_alpha   77.25282328
_cell_angle_beta   90.00000000
_cell_angle_gamma   90.00000000
_symmetry_Int_Tables_number   1
_chemical_formula_structural   Al2CrB2Mo
_chemical_formula_sum   'Al2 Cr1 B2 Mo1'
_cell_volume   66.57787158
_cell_formula_units_Z   1
loop_
 _symmetry_equiv_pos_site_id
 _symmetry_equiv_pos_as_xyz
  1  'x, y, z'
loop_
 _atom_site_type_symbol
 _atom_site_label
 _atom_site_symmetry_multiplicity
 _atom_site_fract_x
 _atom_site_fract_y
 _atom_site_fract_z
 _atom_site_occupancy
  Al  Al0  1  0.25000000  0.69302172  0.61395657  1
  Al  Al1  1  0.75000000  0.30041706  0.39916588  1
  Cr  Cr2  1  0.75000000  0.08690543  0.82618913  1
  B  B3  1  0.25000000  0.53606835  0.92786330  1
  B  B4  1  0.75000000  0.47105731  0.05788537  1
  Mo  Mo5  1  0.25000000  0.91253013  0.17493975  1
