# generated using pymatgen
data_AsRu
_symmetry_space_group_name_H-M   'P 1'
_cell_length_a   3.35268267
_cell_length_b   5.76623381
_cell_length_c   6.42637002
_cell_angle_alpha   90.00000000
_cell_angle_beta   90.00000000
_cell_angle_gamma   90.00000000
_symmetry_Int_Tables_number   1
_chemical_formula_structural   AsRu
_chemical_formula_sum   'As4 Ru4'
_cell_volume   124.23684838
_cell_formula_units_Z   4
loop_
 _symmetry_equiv_pos_site_id
 _symmetry_equiv_pos_as_xyz
  1  'x, y, z'
loop_
 _atom_site_type_symbol
 _atom_site_label
 _atom_site_symmetry_multiplicity
 _atom_site_fract_x
 _atom_site_fract_y
 _atom_site_fract_z
 _atom_site_occupancy
  As  As0  1  0.25000000  0.69644678  0.93182763  1
  As  As1  1  0.75000000  0.30355322  0.06817237  1
  As  As2  1  0.25000000  0.19644678  0.56817237  1
  As  As3  1  0.75000000  0.80355322  0.43182763  1
  Ru  Ru4  1  0.25000000  0.50166452  0.29625999  1
  Ru  Ru5  1  0.75000000  0.49833548  0.70374001  1
  Ru  Ru6  1  0.25000000  0.00166452  0.20374001  1
  Ru  Ru7  1  0.75000000  0.99833548  0.79625999  1
