# generated using pymatgen
data_Cs2GaFeS4
_symmetry_space_group_name_H-M   'P 1'
_cell_length_a   5.78344742
_cell_length_b   7.28830244
_cell_length_c   7.28830244
_cell_angle_alpha   117.39047399
_cell_angle_beta   101.21310531
_cell_angle_gamma   101.21310531
_symmetry_Int_Tables_number   1
_chemical_formula_structural   Cs2GaFeS4
_chemical_formula_sum   'Cs2 Ga1 Fe1 S4'
_cell_volume   252.94854455
_cell_formula_units_Z   1
loop_
 _symmetry_equiv_pos_site_id
 _symmetry_equiv_pos_as_xyz
  1  'x, y, z'
loop_
 _atom_site_type_symbol
 _atom_site_label
 _atom_site_symmetry_multiplicity
 _atom_site_fract_x
 _atom_site_fract_y
 _atom_site_fract_z
 _atom_site_occupancy
  Cs  Cs0  1  0.25000000  0.14512923  0.85487077  1
  Cs  Cs1  1  0.75000000  0.85476980  0.14523020  1
  Ga  Ga2  1  0.25000000  0.50301819  0.49698181  1
  Fe  Fe3  1  0.75000000  0.49704809  0.50295191  1
  S  S4  1  0.40701453  0.21835355  0.41856562  1
  S  S5  1  0.09298547  0.58143438  0.78164645  1
  S  S6  1  0.59536872  0.78199375  0.58174700  1
  S  S7  1  0.90463128  0.41825300  0.21800625  1
