# generated using pymatgen
data_Na2Eu2Ti3O10
_symmetry_space_group_name_H-M   'P 1'
_cell_length_a   3.86187966
_cell_length_b   3.86187966
_cell_length_c   14.56303739
_cell_angle_alpha   97.61939021
_cell_angle_beta   97.61939017
_cell_angle_gamma   90.00000002
_symmetry_Int_Tables_number   1
_chemical_formula_structural   Na2Eu2Ti3O10
_chemical_formula_sum   'Na2 Eu2 Ti3 O10'
_cell_volume   213.34222485
_cell_formula_units_Z   1
loop_
 _symmetry_equiv_pos_site_id
 _symmetry_equiv_pos_as_xyz
  1  'x, y, z'
loop_
 _atom_site_type_symbol
 _atom_site_label
 _atom_site_symmetry_multiplicity
 _atom_site_fract_x
 _atom_site_fract_y
 _atom_site_fract_z
 _atom_site_occupancy
  O  O0  1  0.86743716  0.36743716  0.73487431  1
  O  O1  1  0.36743716  0.86743716  0.73487431  1
  O  O2  1  0.13256284  0.63256284  0.26512569  1
  O  O3  1  0.63256284  0.13256284  0.26512569  1
  O  O4  1  0.79176801  0.79176801  0.58353603  1
  O  O5  1  0.20823199  0.20823199  0.41646397  1
  O  O6  1  0.93240565  0.93240565  0.86481130  1
  O  O7  1  0.50000000  0.00000000  0.00000000  1
  O  O8  1  0.00000000  0.50000000  0.00000000  1
  O  O9  1  0.06759435  0.06759435  0.13518870  1
  Na  Na10  1  0.28865474  0.28865474  0.57730948  1
  Na  Na11  1  0.71134526  0.71134526  0.42269052  1
  Ti  Ti12  1  0.14661427  0.14661427  0.29322854  1
  Ti  Ti13  1  0.85338573  0.85338573  0.70677146  1
  Ti  Ti14  1  0.00000000  0.00000000  0.00000000  1
  Eu  Eu15  1  0.42446250  0.42446250  0.84892500  1
  Eu  Eu16  1  0.57553750  0.57553750  0.15107500  1
