# generated using pymatgen
data_Y6Mn23
_symmetry_space_group_name_H-M   'P 1'
_cell_length_a   8.54772474
_cell_length_b   8.54772474
_cell_length_c   8.54772474
_cell_angle_alpha   60.00000000
_cell_angle_beta   60.00000000
_cell_angle_gamma   60.00000000
_symmetry_Int_Tables_number   1
_chemical_formula_structural   Y6Mn23
_chemical_formula_sum   'Y6 Mn23'
_cell_volume   441.60764938
_cell_formula_units_Z   1
loop_
 _symmetry_equiv_pos_site_id
 _symmetry_equiv_pos_as_xyz
  1  'x, y, z'
loop_
 _atom_site_type_symbol
 _atom_site_label
 _atom_site_symmetry_multiplicity
 _atom_site_fract_x
 _atom_site_fract_y
 _atom_site_fract_z
 _atom_site_occupancy
  Y  Y0  1  0.79479938  0.20520062  0.20520062  1
  Y  Y1  1  0.79479938  0.20520062  0.79479938  1
  Y  Y2  1  0.79479938  0.79479938  0.20520062  1
  Y  Y3  1  0.20520062  0.79479938  0.79479938  1
  Y  Y4  1  0.20520062  0.79479938  0.20520062  1
  Y  Y5  1  0.20520062  0.20520062  0.79479938  1
  Mn  Mn6  1  0.50000000  0.50000000  0.50000000  1
  Mn  Mn7  1  0.50000000  -0.00000000  -0.00000000  1
  Mn  Mn8  1  0.50000000  -0.00000000  0.50000000  1
  Mn  Mn9  1  0.50000000  0.50000000  -0.00000000  1
  Mn  Mn10  1  0.00000000  0.50000000  0.50000000  1
  Mn  Mn11  1  0.00000000  0.50000000  -0.00000000  1
  Mn  Mn12  1  0.00000000  -0.00000000  0.50000000  1
  Mn  Mn13  1  0.46643019  0.17785660  0.17785660  1
  Mn  Mn14  1  0.17785660  0.46643019  0.17785660  1
  Mn  Mn15  1  0.17785660  0.17785660  0.46643019  1
  Mn  Mn16  1  0.17785660  0.17785660  0.17785660  1
  Mn  Mn17  1  0.53356981  0.82214340  0.82214340  1
  Mn  Mn18  1  0.82214340  0.53356981  0.82214340  1
  Mn  Mn19  1  0.82214340  0.82214340  0.53356981  1
  Mn  Mn20  1  0.82214340  0.82214340  0.82214340  1
  Mn  Mn21  1  0.86617094  0.37794302  0.37794302  1
  Mn  Mn22  1  0.37794302  0.86617094  0.37794302  1
  Mn  Mn23  1  0.37794302  0.37794302  0.86617094  1
  Mn  Mn24  1  0.37794302  0.37794302  0.37794302  1
  Mn  Mn25  1  0.13382906  0.62205698  0.62205698  1
  Mn  Mn26  1  0.62205698  0.13382906  0.62205698  1
  Mn  Mn27  1  0.62205698  0.62205698  0.13382906  1
  Mn  Mn28  1  0.62205698  0.62205698  0.62205698  1
