# generated using pymatgen
data_Ba15Nb3N14
_symmetry_space_group_name_H-M   'P 1'
_cell_length_a   8.37473753
_cell_length_b   8.41508889
_cell_length_c   24.35629594
_cell_angle_alpha   94.26943792
_cell_angle_beta   93.97586021
_cell_angle_gamma   83.37108746
_symmetry_Int_Tables_number   1
_chemical_formula_structural   Ba15Nb3N14
_chemical_formula_sum   'Ba30 Nb6 N28'
_cell_volume   1697.08294228
_cell_formula_units_Z   2
loop_
 _symmetry_equiv_pos_site_id
 _symmetry_equiv_pos_as_xyz
  1  'x, y, z'
loop_
 _atom_site_type_symbol
 _atom_site_label
 _atom_site_symmetry_multiplicity
 _atom_site_fract_x
 _atom_site_fract_y
 _atom_site_fract_z
 _atom_site_occupancy
  Ba  Ba0  1  0.03006742  0.02966112  0.13455638  1
  Ba  Ba1  1  0.37951172  0.34109752  0.46719825  1
  Ba  Ba2  1  0.71538248  0.67705059  0.80253019  1
  Ba  Ba3  1  0.30975110  0.30460217  0.19721076  1
  Ba  Ba4  1  0.63900064  0.63765795  0.53162813  1
  Ba  Ba5  1  0.97210558  0.97581762  0.87056781  1
  Ba  Ba6  1  0.53477115  0.00396725  0.08797085  1
  Ba  Ba7  1  0.85048792  0.32330398  0.41869656  1
  Ba  Ba8  1  0.18284610  0.65674832  0.75338515  1
  Ba  Ba9  1  0.00488209  0.53485034  0.08840127  1
  Ba  Ba10  1  0.35453715  0.88598027  0.41936162  1
  Ba  Ba11  1  0.68863194  0.21989153  0.75377114  1
  Ba  Ba12  1  0.79400820  0.32305958  0.23727689  1
  Ba  Ba13  1  0.13154544  0.65697355  0.57992762  1
  Ba  Ba14  1  0.45981351  0.99087011  0.91354971  1
  Ba  Ba15  1  0.32422446  0.79017410  0.23734965  1
  Ba  Ba16  1  0.66171396  0.12114923  0.57233941  1
  Ba  Ba17  1  0.99370619  0.45416712  0.90843812  1
  Ba  Ba18  1  0.51890992  0.52063121  0.08195581  1
  Ba  Ba19  1  0.82648062  0.87958789  0.40930126  1
  Ba  Ba20  1  0.15869096  0.21363602  0.74447533  1
  Ba  Ba21  1  0.81937552  0.81109672  0.26751638  1
  Ba  Ba22  1  0.15223751  0.14494136  0.60098348  1
  Ba  Ba23  1  0.48305419  0.48262580  0.93449103  1
  Ba  Ba24  1  0.50878516  0.15773367  0.33572471  1
  Ba  Ba25  1  0.84032466  0.49088905  0.67081689  1
  Ba  Ba26  1  0.18693460  0.81514248  0.01375870  1
  Ba  Ba27  1  0.15650379  0.51135157  0.33655726  1
  Ba  Ba28  1  0.49224929  0.84546488  0.67179585  1
  Ba  Ba29  1  0.81675154  0.18926108  0.01423338  1
  Nb  Nb30  1  0.25918641  0.26061681  0.00757835  1
  Nb  Nb31  1  0.59149923  0.59288863  0.34069520  1
  Nb  Nb32  1  0.92428994  0.92663494  0.67485047  1
  Nb  Nb33  1  0.07518051  0.07419065  0.32231489  1
  Nb  Nb34  1  0.41004731  0.40640152  0.65592495  1
  Nb  Nb35  1  0.74381442  0.74062770  0.98783414  1
  N  N36  1  0.21601859  0.48966310  0.99386274  1
  N  N37  1  0.55485409  0.82475679  0.32912191  1
  N  N38  1  0.88937303  0.15767197  0.66254048  1
  N  N39  1  0.48985060  0.21278881  0.99410913  1
  N  N40  1  0.82379433  0.54514641  0.33100191  1
  N  N41  1  0.15681303  0.87281224  0.66450995  1
  N  N42  1  0.12147879  0.84168962  0.33049789  1
  N  N43  1  0.45687356  0.17397513  0.66346209  1
  N  N44  1  0.78412516  0.50668449  0.99230509  1
  N  N45  1  0.83867518  0.11111891  0.32836625  1
  N  N46  1  0.17318744  0.44689223  0.66172263  1
  N  N47  1  0.50865517  0.78524987  0.99291403  1
  N  N48  1  0.85347937  0.85082701  0.05154554  1
  N  N49  1  0.18319409  0.19593822  0.38425263  1
  N  N50  1  0.51735604  0.52839417  0.71744782  1
  N  N51  1  0.46777103  0.47147582  0.28195555  1
  N  N52  1  0.80079543  0.80573290  0.61597901  1
  N  N53  1  0.13785502  0.13759413  0.94907941  1
  N  N54  1  0.21986224  0.22306994  0.08526550  1
  N  N55  1  0.53913765  0.55621082  0.41767593  1
  N  N56  1  0.87140550  0.89056649  0.75116620  1
  N  N57  1  0.13228048  0.13037304  0.24835470  1
  N  N58  1  0.46373546  0.46342415  0.58158728  1
  N  N59  1  0.79635872  0.79453576  0.91254084  1
  N  N60  1  0.28409030  0.76484714  0.12141054  1
  N  N61  1  0.60789430  0.10870588  0.45111224  1
  N  N62  1  0.94143267  0.44086584  0.78197963  1
  N  N63  1  0.76301709  0.28291180  0.12193249  1
