# generated using pymatgen
data_Cu8SiS6
_symmetry_space_group_name_H-M   'P 1'
_cell_length_a   6.89228363
_cell_length_b   7.00637327
_cell_length_c   9.67039345
_cell_angle_alpha   90.00000000
_cell_angle_beta   90.00000000
_cell_angle_gamma   90.00000000
_symmetry_Int_Tables_number   1
_chemical_formula_structural   Cu8SiS6
_chemical_formula_sum   'Si2 Cu16 S12'
_cell_volume   466.98244672
_cell_formula_units_Z   2
loop_
 _symmetry_equiv_pos_site_id
 _symmetry_equiv_pos_as_xyz
  1  'x, y, z'
loop_
 _atom_site_type_symbol
 _atom_site_label
 _atom_site_symmetry_multiplicity
 _atom_site_fract_x
 _atom_site_fract_y
 _atom_site_fract_z
 _atom_site_occupancy
  Si  Si0  1  0.74886699  0.00000000  0.48925775  1
  Si  Si1  1  0.25113301  0.50000000  0.98925775  1
  S  S2  1  0.78715714  0.50000000  0.25531617  1
  S  S3  1  0.21284286  0.00000000  0.75531617  1
  S  S4  1  0.49437961  0.50000000  0.85617217  1
  S  S5  1  0.50562039  0.00000000  0.35617217  1
  S  S6  1  0.00438555  0.50000000  0.85434207  1
  S  S7  1  0.99561445  0.00000000  0.35434207  1
  S  S8  1  0.24564878  0.24538534  0.10813108  1
  S  S9  1  0.75435122  0.25461466  0.60813108  1
  S  S10  1  0.75435122  0.74538534  0.60813108  1
  S  S11  1  0.24564878  0.75461466  0.10813108  1
  S  S12  1  0.72892291  0.00000000  0.99971174  1
  S  S13  1  0.27107709  0.50000000  0.49971174  1
  Cu  Cu14  1  0.27334454  0.00000000  0.52274861  1
  Cu  Cu15  1  0.72665546  0.50000000  0.02274861  1
  Cu  Cu16  1  0.60416145  0.50000000  0.46825952  1
  Cu  Cu17  1  0.39583855  0.00000000  0.96825952  1
  Cu  Cu18  1  0.84566739  0.20914233  0.84743938  1
  Cu  Cu19  1  0.15433261  0.29085767  0.34743938  1
  Cu  Cu20  1  0.15433261  0.70914233  0.34743938  1
  Cu  Cu21  1  0.84566739  0.79085767  0.84743938  1
  Cu  Cu22  1  0.88845612  0.20736545  0.14573240  1
  Cu  Cu23  1  0.11154388  0.29263455  0.64573240  1
  Cu  Cu24  1  0.11154388  0.70736545  0.64573240  1
  Cu  Cu25  1  0.88845612  0.79263455  0.14573240  1
  Cu  Cu26  1  0.47522523  0.20266550  0.74024313  1
  Cu  Cu27  1  0.52477477  0.29733450  0.24024313  1
  Cu  Cu28  1  0.52477477  0.70266550  0.24024313  1
  Cu  Cu29  1  0.47522523  0.79733450  0.74024313  1
