# generated using pymatgen
data_Cr3(PO4)4
_symmetry_space_group_name_H-M   'P 1'
_cell_length_a   7.58466835
_cell_length_b   7.75733708
_cell_length_c   10.20620675
_cell_angle_alpha   90.00000000
_cell_angle_beta   94.70040786
_cell_angle_gamma   90.00000000
_symmetry_Int_Tables_number   1
_chemical_formula_structural   Cr3(PO4)4
_chemical_formula_sum   'Cr6 P8 O32'
_cell_volume   598.48123939
_cell_formula_units_Z   2
loop_
 _symmetry_equiv_pos_site_id
 _symmetry_equiv_pos_as_xyz
  1  'x, y, z'
loop_
 _atom_site_type_symbol
 _atom_site_label
 _atom_site_symmetry_multiplicity
 _atom_site_fract_x
 _atom_site_fract_y
 _atom_site_fract_z
 _atom_site_occupancy
  O  O0  1  0.60615223  0.29616967  0.90607784  1
  O  O1  1  0.95934388  0.84789910  0.08642219  1
  O  O2  1  0.93669977  0.85839414  0.59936850  1
  O  O3  1  0.88762122  0.80691062  0.35052882  1
  O  O4  1  0.85855161  0.44121070  0.29088204  1
  O  O5  1  0.89384793  0.79617020  0.84392251  1
  O  O6  1  0.07626374  0.13490409  0.91217809  1
  O  O7  1  0.05104322  0.12321391  0.40771927  1
  O  O8  1  0.11431545  0.20053214  0.64568739  1
  O  O9  1  0.12828629  0.58178616  0.71227538  1
  O  O10  1  0.11304615  0.18252550  0.15428477  1
  O  O11  1  0.15877254  0.55077571  0.21544693  1
  O  O12  1  0.23963645  0.88831684  0.75333224  1
  O  O13  1  0.26036427  0.38831630  0.99666752  1
  O  O14  1  0.26509689  0.36658022  0.47134769  1
  O  O15  1  0.23490307  0.86658076  0.27865236  1
  O  O16  1  0.34122742  0.05077648  0.53455313  1
  O  O17  1  0.38695381  0.68252604  0.59571528  1
  O  O18  1  0.42373699  0.63490462  0.83782266  1
  O  O19  1  0.72532074  0.62448186  0.00942127  1
  O  O20  1  0.38568452  0.70053268  0.10431267  1
  O  O21  1  0.44895674  0.62321313  0.34228079  1
  O  O22  1  0.54065683  0.34789856  0.66357754  1
  O  O23  1  0.82995309  0.44216505  0.78222186  1
  O  O24  1  0.56330094  0.35839360  0.15063124  1
  O  O25  1  0.67004575  0.94216558  0.96777742  1
  O  O26  1  0.61237818  0.30691139  0.39947084  1
  O  O27  1  0.64144780  0.94121123  0.45911861  1
  O  O28  1  0.77467866  0.12448132  0.74057839  1
  O  O29  1  0.74603705  0.63184261  0.53861005  1
  O  O30  1  0.75396366  0.13184208  0.21138968  1
  O  O31  1  0.37171498  0.08178563  0.03772475  1
  P  P32  1  0.19845819  0.20491279  0.02532474  1
  P  P33  1  0.30154177  0.70491332  0.72467531  1
  P  P34  1  0.30505589  0.68997087  0.24016744  1
  P  P35  1  0.68983393  0.29730691  0.76435892  1
  P  P36  1  0.70456044  0.32073879  0.27208104  1
  P  P37  1  0.81016623  0.79730744  0.98564144  1
  P  P38  1  0.19494407  0.18997164  0.50983262  1
  P  P39  1  0.79543896  0.82073802  0.47791961  1
  Cr  Cr40  1  0.90033433  0.64086079  0.70082835  1
  Cr  Cr41  1  0.59966638  0.14086025  0.04917139  1
  Cr  Cr42  1  0.48424879  0.52173625  0.00262370  1
  Cr  Cr43  1  0.49023245  0.48830841  0.50236259  1
  Cr  Cr44  1  0.00976751  0.98830895  0.24763747  1
  Cr  Cr45  1  0.01575117  0.02173703  0.74737636  1
