# generated using pymatgen
data_Na2ZrNi(P2O7)2
_symmetry_space_group_name_H-M   'P 1'
_cell_length_a   6.59123554
_cell_length_b   7.01394427
_cell_length_c   6.61207696
_cell_angle_alpha   65.94545806
_cell_angle_beta   81.85118943
_cell_angle_gamma   85.47961181
_symmetry_Int_Tables_number   1
_chemical_formula_structural   Na2ZrNi(P2O7)2
_chemical_formula_sum   'Na2 Zr1 Ni1 P4 O14'
_cell_volume   276.24091688
_cell_formula_units_Z   1
loop_
 _symmetry_equiv_pos_site_id
 _symmetry_equiv_pos_as_xyz
  1  'x, y, z'
loop_
 _atom_site_type_symbol
 _atom_site_label
 _atom_site_symmetry_multiplicity
 _atom_site_fract_x
 _atom_site_fract_y
 _atom_site_fract_z
 _atom_site_occupancy
  O  O0  1  0.95551384  0.02795789  0.32843996  1
  O  O1  1  0.25179489  0.58288550  0.51081982  1
  O  O2  1  0.62020856  0.51956404  0.18544409  1
  O  O3  1  0.70326197  0.64654845  0.47699101  1
  O  O4  1  0.23749306  0.23647666  0.35619072  1
  O  O5  1  0.86113503  0.31298955  0.47029254  1
  O  O6  1  0.97404891  0.65656113  0.15878579  1
  O  O7  1  0.44165975  0.26456678  0.74727379  1
  O  O8  1  0.31301226  0.91750914  0.04925467  1
  O  O9  1  0.67101014  0.03306414  0.02380976  1
  O  O10  1  0.03000883  0.98845798  0.70730838  1
  O  O11  1  0.06752415  0.31030002  0.86826588  1
  O  O12  1  0.57939813  0.93096983  0.71936715  1
  O  O13  1  0.33155571  0.54701424  0.89115290  1
  Na  Na14  1  0.74266865  0.60311800  0.81761808  1
  Na  Na15  1  0.45886044  0.91072585  0.42335581  1
  P  P16  1  0.77752774  0.54391330  0.32124253  1
  P  P17  1  0.02986247  0.14028621  0.46111911  1
  P  P18  1  0.50425073  0.02615317  0.88052239  1
  P  P19  1  0.26652083  0.44009816  0.75394962  1
  Ni  Ni20  1  0.30244630  0.54581383  0.20755129  1
  Zr  Zr21  1  0.98773762  0.99552613  0.02764470  1
