# generated using pymatgen
data_TlV4O10
_symmetry_space_group_name_H-M   'P 1'
_cell_length_a   3.71376945
_cell_length_b   6.15421074
_cell_length_c   10.04939336
_cell_angle_alpha   100.10322151
_cell_angle_beta   90.00000000
_cell_angle_gamma   107.56129377
_symmetry_Int_Tables_number   1
_chemical_formula_structural   TlV4O10
_chemical_formula_sum   'Tl1 V4 O10'
_cell_volume   215.23903775
_cell_formula_units_Z   1
loop_
 _symmetry_equiv_pos_site_id
 _symmetry_equiv_pos_as_xyz
  1  'x, y, z'
loop_
 _atom_site_type_symbol
 _atom_site_label
 _atom_site_symmetry_multiplicity
 _atom_site_fract_x
 _atom_site_fract_y
 _atom_site_fract_z
 _atom_site_occupancy
  O  O0  1  0.84076623  0.68153422  0.32507553  1
  O  O1  1  0.15923255  0.31846511  0.67492440  1
  O  O2  1  0.74186142  0.48372460  0.88122272  1
  O  O3  1  0.25813736  0.51627472  0.11877720  1
  O  O4  1  0.93477779  0.86955734  0.09520929  1
  O  O5  1  0.37880735  0.75761471  0.87024861  1
  O  O6  1  0.62119143  0.24238461  0.12975132  1
  O  O7  1  0.06522099  0.13044199  0.90479064  1
  O  O8  1  0.90165522  0.80331219  0.67948798  1
  O  O9  1  0.09834357  0.19668713  0.32051194  1
  V  V10  1  0.91105793  0.82211761  0.84403319  1
  V  V11  1  0.08894086  0.17788172  0.15596674  1
  V  V12  1  0.20581534  0.41163068  0.83868753  1
  V  V13  1  0.79418433  0.58837040  0.16131258  1
  Tl  Tl14  1  0.49999888  0.99999950  0.50000042  1
