# generated using pymatgen
data_Nb3Cr3C
_symmetry_space_group_name_H-M   'P 1'
_cell_length_a   8.17759960
_cell_length_b   8.17759961
_cell_length_c   8.17759960
_cell_angle_alpha   60.00000003
_cell_angle_beta   60.00000002
_cell_angle_gamma   60.00000000
_symmetry_Int_Tables_number   1
_chemical_formula_structural   Nb3Cr3C
_chemical_formula_sum   'Nb12 Cr12 C4'
_cell_volume   386.68963389
_cell_formula_units_Z   4
loop_
 _symmetry_equiv_pos_site_id
 _symmetry_equiv_pos_as_xyz
  1  'x, y, z'
loop_
 _atom_site_type_symbol
 _atom_site_label
 _atom_site_symmetry_multiplicity
 _atom_site_fract_x
 _atom_site_fract_y
 _atom_site_fract_z
 _atom_site_occupancy
  C  C0  1  0.00000000  0.50000000  0.00000000  1
  C  C1  1  0.00000000  0.00000000  0.50000000  1
  C  C2  1  0.50000000  0.00000000  0.00000000  1
  C  C3  1  0.00000000  0.00000000  0.00000000  1
  Cr  Cr4  1  0.50000000  0.00000000  0.50000000  1
  Cr  Cr5  1  0.29652493  0.29652493  0.61042522  1
  Cr  Cr6  1  0.61042522  0.29652493  0.29652493  1
  Cr  Cr7  1  0.70347507  0.70347507  0.70347507  1
  Cr  Cr8  1  0.38957478  0.70347507  0.70347507  1
  Cr  Cr9  1  0.70347507  0.38957478  0.70347507  1
  Cr  Cr10  1  0.70347507  0.70347507  0.38957478  1
  Cr  Cr11  1  0.29652493  0.29652493  0.29652493  1
  Cr  Cr12  1  0.00000000  0.50000000  0.50000000  1
  Cr  Cr13  1  0.50000000  0.50000000  0.00000000  1
  Cr  Cr14  1  0.50000000  0.50000000  0.50000000  1
  Cr  Cr15  1  0.29652493  0.61042522  0.29652493  1
  Nb  Nb16  1  0.93263445  0.31736555  0.93263445  1
  Nb  Nb17  1  0.31736555  0.93263445  0.31736555  1
  Nb  Nb18  1  0.06736555  0.68263445  0.06736555  1
  Nb  Nb19  1  0.06736555  0.06736555  0.68263445  1
  Nb  Nb20  1  0.68263445  0.68263445  0.06736555  1
  Nb  Nb21  1  0.68263445  0.06736555  0.68263445  1
  Nb  Nb22  1  0.31736555  0.93263445  0.93263445  1
  Nb  Nb23  1  0.06736555  0.68263445  0.68263445  1
  Nb  Nb24  1  0.93263445  0.31736555  0.31736555  1
  Nb  Nb25  1  0.93263445  0.93263445  0.31736555  1
  Nb  Nb26  1  0.68263445  0.06736555  0.06736555  1
  Nb  Nb27  1  0.31736555  0.31736555  0.93263445  1
