# generated using pymatgen
data_BaHo2CuO5
_symmetry_space_group_name_H-M   'P 1'
_cell_length_a   5.68849879
_cell_length_b   7.20474738
_cell_length_c   12.21924394
_cell_angle_alpha   90.00000000
_cell_angle_beta   90.00000000
_cell_angle_gamma   90.00000000
_symmetry_Int_Tables_number   1
_chemical_formula_structural   BaHo2CuO5
_chemical_formula_sum   'Ba4 Ho8 Cu4 O20'
_cell_volume   500.79589781
_cell_formula_units_Z   4
loop_
 _symmetry_equiv_pos_site_id
 _symmetry_equiv_pos_as_xyz
  1  'x, y, z'
loop_
 _atom_site_type_symbol
 _atom_site_label
 _atom_site_symmetry_multiplicity
 _atom_site_fract_x
 _atom_site_fract_y
 _atom_site_fract_z
 _atom_site_occupancy
  O  O0  1  0.25000000  0.41464046  0.60018274  1
  O  O1  1  0.75000000  0.58535954  0.39981726  1
  O  O2  1  0.75000000  0.91464046  0.89981726  1
  O  O3  1  0.25000000  0.08535954  0.10018274  1
  O  O4  1  0.00311921  0.85641134  0.27191307  1
  O  O5  1  0.50311921  0.14358866  0.72808693  1
  O  O6  1  0.99688079  0.35641134  0.22808693  1
  O  O7  1  0.49688079  0.64358866  0.77191307  1
  O  O8  1  0.99688079  0.14358866  0.72808693  1
  O  O9  1  0.49688079  0.85641134  0.27191307  1
  O  O10  1  0.00311921  0.64358866  0.77191307  1
  O  O11  1  0.50311921  0.35641134  0.22808693  1
  O  O12  1  0.49492649  0.66091182  0.06805742  1
  O  O13  1  0.99492649  0.33908818  0.93194258  1
  O  O14  1  0.50507351  0.16091182  0.43194258  1
  O  O15  1  0.00507351  0.83908818  0.56805742  1
  O  O16  1  0.99492649  0.16091182  0.43194258  1
  O  O17  1  0.49492649  0.83908818  0.56805742  1
  O  O18  1  0.00507351  0.66091182  0.06805742  1
  O  O19  1  0.50507351  0.33908818  0.93194258  1
  Cu  Cu20  1  0.25000000  0.78226449  0.16063583  1
  Cu  Cu21  1  0.75000000  0.21773551  0.83936417  1
  Cu  Cu22  1  0.75000000  0.28226449  0.33936417  1
  Cu  Cu23  1  0.25000000  0.71773551  0.66063583  1
  Ba  Ba24  1  0.75000000  0.06888870  0.09578183  1
  Ba  Ba25  1  0.75000000  0.43111130  0.59578183  1
  Ba  Ba26  1  0.25000000  0.56888870  0.40421817  1
  Ba  Ba27  1  0.25000000  0.93111130  0.90421817  1
  Ho  Ho28  1  0.25000000  0.39691672  0.07390224  1
  Ho  Ho29  1  0.75000000  0.61347925  0.21299123  1
  Ho  Ho30  1  0.75000000  0.88652075  0.71299123  1
  Ho  Ho31  1  0.25000000  0.11347925  0.28700877  1
  Ho  Ho32  1  0.75000000  0.60308328  0.92609776  1
  Ho  Ho33  1  0.75000000  0.89691672  0.42609776  1
  Ho  Ho34  1  0.25000000  0.10308328  0.57390224  1
  Ho  Ho35  1  0.25000000  0.38652075  0.78700877  1
