# generated using pymatgen
data_V2Zn2O7
_symmetry_space_group_name_H-M   'P 1'
_cell_length_a   5.09547411
_cell_length_b   5.51410608
_cell_length_c   5.51410608
_cell_angle_alpha   101.14455017
_cell_angle_beta   101.47366219
_cell_angle_gamma   101.47366214
_symmetry_Int_Tables_number   1
_chemical_formula_structural   V2Zn2O7
_chemical_formula_sum   'V2 Zn2 O7'
_cell_volume   144.36001508
_cell_formula_units_Z   1
loop_
 _symmetry_equiv_pos_site_id
 _symmetry_equiv_pos_as_xyz
  1  'x, y, z'
loop_
 _atom_site_type_symbol
 _atom_site_label
 _atom_site_symmetry_multiplicity
 _atom_site_fract_x
 _atom_site_fract_y
 _atom_site_fract_z
 _atom_site_occupancy
  O  O0  1  0.22497138  0.41906574  0.41906632  1
  O  O1  1  0.77502668  0.58093357  0.58093268  1
  O  O2  1  0.29046538  0.95255452  0.61915127  1
  O  O3  1  0.70953500  0.38084890  0.04744563  1
  O  O4  1  0.00000000  0.00000000  0.00000000  1
  O  O5  1  0.70953521  0.04744671  0.38084856  1
  O  O6  1  0.29046507  0.61915042  0.95255373  1
  V  V7  1  0.90335246  0.22334345  0.22334350  1
  V  V8  1  0.09664761  0.77665587  0.77665586  1
  Zn  Zn9  1  0.50000011  0.31608040  0.68391946  1
  Zn  Zn10  1  0.50000047  0.68392083  0.31608037  1
