# generated using pymatgen
data_NpCuSe2
_symmetry_space_group_name_H-M   'P 1'
_cell_length_a   6.60133522
_cell_length_b   7.09411902
_cell_length_c   7.35572918
_cell_angle_alpha   90.00000000
_cell_angle_beta   90.00000000
_cell_angle_gamma   97.17491266
_symmetry_Int_Tables_number   1
_chemical_formula_structural   NpCuSe2
_chemical_formula_sum   'Np4 Cu4 Se8'
_cell_volume   341.77622945
_cell_formula_units_Z   4
loop_
 _symmetry_equiv_pos_site_id
 _symmetry_equiv_pos_as_xyz
  1  'x, y, z'
loop_
 _atom_site_type_symbol
 _atom_site_label
 _atom_site_symmetry_multiplicity
 _atom_site_fract_x
 _atom_site_fract_y
 _atom_site_fract_z
 _atom_site_occupancy
  Cu  Cu0  1  0.93595491  0.96156968  0.33750544  1
  Cu  Cu1  1  0.06404509  0.53843032  0.83750544  1
  Cu  Cu2  1  0.06404509  0.03843032  0.66249456  1
  Cu  Cu3  1  0.93595491  0.46156968  0.16249456  1
  Se  Se4  1  0.41672711  0.49821132  0.77066696  1
  Se  Se5  1  0.89797418  0.71188360  0.60947054  1
  Se  Se6  1  0.58327289  0.00178868  0.27066696  1
  Se  Se7  1  0.58327289  0.50178868  0.22933304  1
  Se  Se8  1  0.10202582  0.28811640  0.39052946  1
  Se  Se9  1  0.10202582  0.78811640  0.10947054  1
  Se  Se10  1  0.89797418  0.21188360  0.89052946  1
  Se  Se11  1  0.41672711  0.99821132  0.72933304  1
  Np  Np12  1  0.69262523  0.79639932  0.95110604  1
  Np  Np13  1  0.69262523  0.29639932  0.54889396  1
  Np  Np14  1  0.30737477  0.20360068  0.04889396  1
  Np  Np15  1  0.30737477  0.70360068  0.45110604  1
