# generated using pymatgen
data_Sm2O3
_symmetry_space_group_name_H-M   'P 1'
_cell_length_a   3.63012904
_cell_length_b   7.42279066
_cell_length_c   8.91731010
_cell_angle_alpha   99.94113865
_cell_angle_beta   90.00000000
_cell_angle_gamma   104.15381726
_symmetry_Int_Tables_number   1
_chemical_formula_structural   Sm2O3
_chemical_formula_sum   'Sm6 O9'
_cell_volume   229.26627217
_cell_formula_units_Z   3
loop_
 _symmetry_equiv_pos_site_id
 _symmetry_equiv_pos_as_xyz
  1  'x, y, z'
loop_
 _atom_site_type_symbol
 _atom_site_label
 _atom_site_symmetry_multiplicity
 _atom_site_fract_x
 _atom_site_fract_y
 _atom_site_fract_z
 _atom_site_occupancy
  O  O0  1  0.50000000  0.00000000  0.00000000  1
  O  O1  1  0.52747866  0.05495732  0.65633647  1
  O  O2  1  0.47252134  0.94504268  0.34366353  1
  O  O3  1  0.20429814  0.40859627  0.62442840  1
  O  O4  1  0.79570186  0.59140373  0.37557160  1
  O  O5  1  0.17513619  0.35027238  0.97155213  1
  O  O6  1  0.12862085  0.25724171  0.28354757  1
  O  O7  1  0.87137915  0.74275829  0.71645243  1
  O  O8  1  0.82486381  0.64972762  0.02844787  1
  Sm  Sm9  1  0.03264608  0.06529216  0.81279379  1
  Sm  Sm10  1  0.96735392  0.93470784  0.18720621  1
  Sm  Sm11  1  0.30883162  0.61766324  0.86226954  1
  Sm  Sm12  1  0.69116838  0.38233676  0.13773046  1
  Sm  Sm13  1  0.36533221  0.73066443  0.51119824  1
  Sm  Sm14  1  0.63466779  0.26933557  0.48880176  1
