# generated using pymatgen
data_Fe3(PO4)4
_symmetry_space_group_name_H-M   'P 1'
_cell_length_a   7.73965015
_cell_length_b   7.75725386
_cell_length_c   10.43944215
_cell_angle_alpha   90.00000000
_cell_angle_beta   94.25342492
_cell_angle_gamma   90.00000000
_symmetry_Int_Tables_number   1
_chemical_formula_structural   Fe3(PO4)4
_chemical_formula_sum   'Fe6 P8 O32'
_cell_volume   625.04145413
_cell_formula_units_Z   2
loop_
 _symmetry_equiv_pos_site_id
 _symmetry_equiv_pos_as_xyz
  1  'x, y, z'
loop_
 _atom_site_type_symbol
 _atom_site_label
 _atom_site_symmetry_multiplicity
 _atom_site_fract_x
 _atom_site_fract_y
 _atom_site_fract_z
 _atom_site_occupancy
  O  O0  1  0.58705167  0.30045530  0.89658620  1
  O  O1  1  0.95533501  0.83437407  0.09509473  1
  O  O2  1  0.91829396  0.86432178  0.60316594  1
  O  O3  1  0.87543521  0.81415382  0.35740152  1
  O  O4  1  0.86448657  0.42860281  0.29462748  1
  O  O5  1  0.91294799  0.80045648  0.85341433  1
  O  O6  1  0.09042666  0.15555236  0.90186924  1
  O  O7  1  0.06000125  0.12111468  0.40267943  1
  O  O8  1  0.08316620  0.21283351  0.63329827  1
  O  O9  1  0.14152954  0.58297390  0.70572556  1
  O  O10  1  0.08768713  0.17966389  0.14125920  1
  O  O11  1  0.17257542  0.55245480  0.20541709  1
  O  O12  1  0.23999581  0.89473675  0.73238833  1
  O  O13  1  0.26000391  0.39473687  0.01761230  1
  O  O14  1  0.22834495  0.85739012  0.27824142  1
  O  O15  1  0.27165510  0.35739024  0.47175883  1
  O  O16  1  0.32742463  0.05245361  0.54458316  1
  O  O17  1  0.41231292  0.67966377  0.60874105  1
  O  O18  1  0.40957307  0.65555224  0.84813139  1
  O  O19  1  0.75502819  0.12406070  0.21602255  1
  O  O20  1  0.41683385  0.71283339  0.11670198  1
  O  O21  1  0.43999880  0.62111457  0.34732082  1
  O  O22  1  0.54466500  0.33437419  0.65490443  1
  O  O23  1  0.81660700  0.44053848  0.77716284  1
  O  O24  1  0.58170603  0.36432190  0.14683420  1
  O  O25  1  0.68339267  0.94053967  0.97283768  1
  O  O26  1  0.62456478  0.31415394  0.39259862  1
  O  O27  1  0.63551342  0.92860269  0.45537267  1
  O  O28  1  0.74497180  0.62406059  0.53397760  1
  O  O29  1  0.76791650  0.12188203  0.75032128  1
  O  O30  1  0.73208349  0.62188192  -0.00032113  1
  O  O31  1  0.35847051  0.08297401  0.04427469  1
  P  P32  1  0.19795358  0.20276428  0.02635502  1
  P  P33  1  0.30204647  0.70276416  0.72364522  1
  P  P34  1  0.31800228  0.69243105  0.23790408  1
  P  P35  1  0.68022999  0.29614789  0.76608875  1
  P  P36  1  0.70813783  0.30959381  0.26384189  1
  P  P37  1  0.81976968  0.79614778  0.98391178  1
  P  P38  1  0.18199777  0.19242986  0.51209616  1
  P  P39  1  0.79186216  0.80959369  0.48615826  1
  Fe  Fe40  1  0.90617223  0.63633613  0.70700511  1
  Fe  Fe41  1  0.59382776  0.13633625  0.04299503  1
  Fe  Fe42  1  0.49327338  0.48562098  0.50659729  1
  Fe  Fe43  1  0.49255115  0.53344461  0.99936336  1
  Fe  Fe44  1  0.00672667  0.98562086  0.24340295  1
  Fe  Fe45  1  0.00744890  0.03344473  0.75063689  1
