# generated using pymatgen
data_Ca3Al2(HO)12
_symmetry_space_group_name_H-M   'P 1'
_cell_length_a   11.01068991
_cell_length_b   11.01068991
_cell_length_c   11.01068990
_cell_angle_alpha   109.47122064
_cell_angle_beta   109.47122064
_cell_angle_gamma   109.47122064
_symmetry_Int_Tables_number   1
_chemical_formula_structural   Ca3Al2(HO)12
_chemical_formula_sum   'Ca12 Al8 H48 O48'
_cell_volume   1027.59434202
_cell_formula_units_Z   4
loop_
 _symmetry_equiv_pos_site_id
 _symmetry_equiv_pos_as_xyz
  1  'x, y, z'
loop_
 _atom_site_type_symbol
 _atom_site_label
 _atom_site_symmetry_multiplicity
 _atom_site_fract_x
 _atom_site_fract_y
 _atom_site_fract_z
 _atom_site_occupancy
  H  H0  1  0.11036436  0.56007772  0.34966297  1
  H  H1  1  0.93992228  0.05028664  0.78958525  1
  H  H2  1  0.15033703  0.71041475  0.76070139  1
  H  H3  1  0.38963564  0.73929861  0.44971336  1
  H  H4  1  0.38963564  0.15033703  0.93992228  1
  H  H5  1  0.73929861  0.44971336  0.38963564  1
  H  H6  1  0.71041475  0.44971336  0.56007772  1
  H  H7  1  0.44971336  0.38963564  0.73929861  1
  H  H8  1  0.78958525  0.34966297  0.73929861  1
  H  H9  1  0.05028664  0.76070139  0.11036436  1
  H  H10  1  0.76070139  0.11036436  0.05028664  1
  H  H11  1  0.93992228  0.38963564  0.15033703  1
  H  H12  1  0.44971336  0.56007772  0.71041475  1
  H  H13  1  0.73929861  0.78958525  0.34966297  1
  H  H14  1  0.15033703  0.93992228  0.38963564  1
  H  H15  1  0.56007772  0.71041475  0.44971336  1
  H  H16  1  0.34966297  0.73929861  0.78958525  1
  H  H17  1  0.78958525  0.93992228  0.05028664  1
  H  H18  1  0.71041475  0.76070139  0.15033703  1
  H  H19  1  0.76070139  0.15033703  0.71041475  1
  H  H20  1  0.05028664  0.78958525  0.93992228  1
  H  H21  1  0.11036436  0.05028664  0.76070139  1
  H  H22  1  0.88963564  0.43992228  0.65033703  1
  H  H23  1  0.06007772  0.94971336  0.21041475  1
  H  H24  1  0.84966297  0.28958525  0.23929861  1
  H  H25  1  0.61036436  0.26070139  0.55028664  1
  H  H26  1  0.61036436  0.84966297  0.06007772  1
  H  H27  1  0.26070139  0.55028664  0.61036436  1
  H  H28  1  0.28958525  0.55028664  0.43992228  1
  H  H29  1  0.55028664  0.61036436  0.26070139  1
  H  H30  1  0.21041475  0.65033703  0.26070139  1
  H  H31  1  0.94971336  0.23929861  0.88963564  1
  H  H32  1  0.23929861  0.88963564  0.94971336  1
  H  H33  1  0.06007772  0.61036436  0.84966297  1
  H  H34  1  0.55028664  0.43992228  0.28958525  1
  H  H35  1  0.26070139  0.21041475  0.65033703  1
  H  H36  1  0.84966297  0.06007772  0.61036436  1
  H  H37  1  0.43992228  0.28958525  0.55028664  1
  H  H38  1  0.65033703  0.26070139  0.21041475  1
  H  H39  1  0.21041475  0.06007772  0.94971336  1
  H  H40  1  0.28958525  0.23929861  0.84966297  1
  H  H41  1  0.23929861  0.84966297  0.28958525  1
  H  H42  1  0.43992228  0.65033703  0.88963564  1
  H  H43  1  0.65033703  0.88963564  0.43992228  1
  H  H44  1  0.94971336  0.21041475  0.06007772  1
  H  H45  1  0.88963564  0.94971336  0.23929861  1
  H  H46  1  0.56007772  0.34966297  0.11036436  1
  H  H47  1  0.34966297  0.11036436  0.56007772  1
  O  O48  1  0.92130271  0.11308774  0.58801609  1
  O  O49  1  0.58801609  0.92130271  0.11308774  1
  O  O50  1  0.91198391  0.02507165  0.33328661  1
  O  O51  1  0.38691226  0.57869729  0.91198391  1
  O  O52  1  0.47492835  0.58801609  0.16671339  1
  O  O53  1  0.11308774  0.02507165  0.19178503  1
  O  O54  1  0.57869729  0.91198391  0.38691226  1
  O  O55  1  0.16671339  0.47492835  0.58801609  1
  O  O56  1  0.02507165  0.19178503  0.11308774  1
  O  O57  1  0.92130271  0.30821497  0.33328661  1
  O  O58  1  0.38691226  0.30821497  0.47492835  1
  O  O59  1  0.91198391  0.38691226  0.57869729  1
  O  O60  1  0.16671339  0.19178503  0.57869729  1
  O  O61  1  0.58801609  0.16671339  0.47492835  1
  O  O62  1  0.57869729  0.16671339  0.19178503  1
  O  O63  1  0.19178503  0.11308774  0.02507165  1
  O  O64  1  0.19178503  0.57869729  0.16671339  1
  O  O65  1  0.11308774  0.58801609  0.92130271  1
  O  O66  1  0.02507165  0.33328661  0.91198391  1
  O  O67  1  0.30821497  0.47492835  0.38691226  1
  O  O68  1  0.33328661  0.91198391  0.02507165  1
  O  O69  1  0.30821497  0.33328661  0.92130271  1
  O  O70  1  0.69178503  0.52507165  0.61308774  1
  O  O71  1  0.97492835  0.66671339  0.08801609  1
  O  O72  1  0.88691226  0.41198391  0.07869729  1
  O  O73  1  0.80821497  0.42130271  0.83328661  1
  O  O74  1  0.80821497  0.88691226  0.97492835  1
  O  O75  1  0.42130271  0.83328661  0.80821497  1
  O  O76  1  0.41198391  0.83328661  0.52507165  1
  O  O77  1  0.83328661  0.80821497  0.42130271  1
  O  O78  1  0.08801609  0.61308774  0.42130271  1
  O  O79  1  0.66671339  0.07869729  0.69178503  1
  O  O80  1  0.07869729  0.69178503  0.66671339  1
  O  O81  1  0.97492835  0.80821497  0.88691226  1
  O  O82  1  0.83328661  0.52507165  0.41198391  1
  O  O83  1  0.42130271  0.08801609  0.61308774  1
  O  O84  1  0.88691226  0.97492835  0.80821497  1
  O  O85  1  0.52507165  0.41198391  0.83328661  1
  O  O86  1  0.61308774  0.42130271  0.08801609  1
  O  O87  1  0.08801609  0.97492835  0.66671339  1
  O  O88  1  0.41198391  0.07869729  0.88691226  1
  O  O89  1  0.07869729  0.88691226  0.41198391  1
  O  O90  1  0.52507165  0.61308774  0.69178503  1
  O  O91  1  0.61308774  0.69178503  0.52507165  1
  O  O92  1  0.66671339  0.08801609  0.97492835  1
  O  O93  1  0.69178503  0.66671339  0.07869729  1
  O  O94  1  0.47492835  0.38691226  0.30821497  1
  O  O95  1  0.33328661  0.92130271  0.30821497  1
  Al  Al96  1  0.00000000  0.00000000  0.00000000  1
  Al  Al97  1  0.00000000  0.50000000  0.00000000  1
  Al  Al98  1  0.00000000  0.00000000  0.50000000  1
  Al  Al99  1  0.50000000  0.00000000  0.00000000  1
  Al  Al100  1  0.00000000  0.50000000  0.50000000  1
  Al  Al101  1  0.50000000  0.00000000  0.50000000  1
  Al  Al102  1  0.50000000  0.50000000  0.00000000  1
  Al  Al103  1  0.50000000  0.50000000  0.50000000  1
  Ca  Ca104  1  0.37500000  0.75000000  0.12500000  1
  Ca  Ca105  1  0.12500000  0.25000000  0.37500000  1
  Ca  Ca106  1  0.37500000  0.12500000  0.25000000  1
  Ca  Ca107  1  0.25000000  0.37500000  0.12500000  1
  Ca  Ca108  1  0.12500000  0.37500000  0.75000000  1
  Ca  Ca109  1  0.75000000  0.12500000  0.37500000  1
  Ca  Ca110  1  0.75000000  0.62500000  0.87500000  1
  Ca  Ca111  1  0.62500000  0.25000000  0.87500000  1
  Ca  Ca112  1  0.87500000  0.75000000  0.62500000  1
  Ca  Ca113  1  0.62500000  0.87500000  0.75000000  1
  Ca  Ca114  1  0.87500000  0.62500000  0.25000000  1
  Ca  Ca115  1  0.25000000  0.87500000  0.62500000  1
