# generated using pymatgen
data_VSb2O5
_symmetry_space_group_name_H-M   'P 1'
_cell_length_a   5.15180266
_cell_length_b   5.58459242
_cell_length_c   9.44031688
_cell_angle_alpha   94.57791245
_cell_angle_beta   105.83462848
_cell_angle_gamma   90.00000003
_symmetry_Int_Tables_number   1
_chemical_formula_structural   VSb2O5
_chemical_formula_sum   'V2 Sb4 O10'
_cell_volume   260.39739357
_cell_formula_units_Z   2
loop_
 _symmetry_equiv_pos_site_id
 _symmetry_equiv_pos_as_xyz
  1  'x, y, z'
loop_
 _atom_site_type_symbol
 _atom_site_label
 _atom_site_symmetry_multiplicity
 _atom_site_fract_x
 _atom_site_fract_y
 _atom_site_fract_z
 _atom_site_occupancy
  O  O0  1  0.38821416  0.14938930  0.58715107  1
  O  O1  1  0.80106309  0.35061070  0.41284893  1
  O  O2  1  0.61178584  0.85061070  0.41284893  1
  O  O3  1  0.19893691  0.64938930  0.58715107  1
  O  O4  1  0.42923050  0.47843840  0.85809635  1
  O  O5  1  0.57113416  0.02156160  0.14190365  1
  O  O6  1  0.05314302  0.75000000  0.00000000  1
  O  O7  1  0.94685698  0.25000000  0.00000000  1
  O  O8  1  0.42886584  0.97843840  0.85809635  1
  O  O9  1  0.57076950  0.52156160  0.14190365  1
  V  V10  1  0.62907954  0.25000000  0.00000000  1
  V  V11  1  0.37092046  0.75000000  0.00000000  1
  Sb  Sb12  1  0.13178615  0.34494691  0.67672216  1
  Sb  Sb13  1  0.45506400  0.15505309  0.32327784  1
  Sb  Sb14  1  0.86821385  0.65505309  0.32327784  1
  Sb  Sb15  1  0.54493600  0.84494691  0.67672216  1
