# generated using pymatgen
data_Dy(Fe2Ge)2
_symmetry_space_group_name_H-M   'P 1'
_cell_length_a   3.86435262
_cell_length_b   7.26243031
_cell_length_c   7.26243031
_cell_angle_alpha   90.00000000
_cell_angle_beta   90.00000000
_cell_angle_gamma   90.00000000
_symmetry_Int_Tables_number   1
_chemical_formula_structural   Dy(Fe2Ge)2
_chemical_formula_sum   'Dy2 Fe8 Ge4'
_cell_volume   203.81714064
_cell_formula_units_Z   2
loop_
 _symmetry_equiv_pos_site_id
 _symmetry_equiv_pos_as_xyz
  1  'x, y, z'
loop_
 _atom_site_type_symbol
 _atom_site_label
 _atom_site_symmetry_multiplicity
 _atom_site_fract_x
 _atom_site_fract_y
 _atom_site_fract_z
 _atom_site_occupancy
  Fe  Fe0  1  0.50000000  0.40882229  0.85610926  1
  Fe  Fe1  1  0.00000000  0.64389074  0.90882229  1
  Fe  Fe2  1  0.00000000  0.09117771  0.35610926  1
  Fe  Fe3  1  0.50000000  0.14389074  0.59117771  1
  Fe  Fe4  1  0.50000000  0.85610926  0.40882229  1
  Fe  Fe5  1  0.00000000  0.35610926  0.09117771  1
  Fe  Fe6  1  0.50000000  0.59117771  0.14389074  1
  Fe  Fe7  1  0.00000000  0.90882229  0.64389074  1
  Ge  Ge8  1  0.50000000  0.71497958  0.71497958  1
  Ge  Ge9  1  0.50000000  0.28502042  0.28502042  1
  Ge  Ge10  1  0.00000000  0.21497958  0.78502042  1
  Ge  Ge11  1  0.00000000  0.78502042  0.21497958  1
  Dy  Dy12  1  0.00000000  0.50000000  0.50000000  1
  Dy  Dy13  1  0.50000000  0.00000000  0.00000000  1
