# generated using pymatgen
data_Pr7O12
_symmetry_space_group_name_H-M   'P 1'
_cell_length_a   6.96394483
_cell_length_b   6.96394484
_cell_length_c   6.96394483
_cell_angle_alpha   99.52174804
_cell_angle_beta   99.52174799
_cell_angle_gamma   99.52174802
_symmetry_Int_Tables_number   1
_chemical_formula_structural   Pr7O12
_chemical_formula_sum   'Pr7 O12'
_cell_volume   321.96812405
_cell_formula_units_Z   1
loop_
 _symmetry_equiv_pos_site_id
 _symmetry_equiv_pos_as_xyz
  1  'x, y, z'
loop_
 _atom_site_type_symbol
 _atom_site_label
 _atom_site_symmetry_multiplicity
 _atom_site_fract_x
 _atom_site_fract_y
 _atom_site_fract_z
 _atom_site_occupancy
  O  O0  1  0.93951181  0.06622688  0.67442698  1
  O  O1  1  0.67442698  0.93951181  0.06622688  1
  O  O2  1  0.06622688  0.67442698  0.93951181  1
  O  O3  1  0.06048819  0.93377312  0.32557302  1
  O  O4  1  0.32557302  0.06048819  0.93377312  1
  O  O5  1  0.93377312  0.32557302  0.06048819  1
  O  O6  1  0.56173607  0.41911723  0.82100483  1
  O  O7  1  0.82100483  0.56173607  0.41911723  1
  O  O8  1  0.41911723  0.82100483  0.56173607  1
  O  O9  1  0.43826393  0.58088277  0.17899517  1
  O  O10  1  0.17899517  0.43826393  0.58088277  1
  O  O11  1  0.58088277  0.17899517  0.43826393  1
  Pr  Pr12  1  0.00000000  0.00000000  0.00000000  1
  Pr  Pr13  1  0.30093235  0.13880966  0.60808982  1
  Pr  Pr14  1  0.60808982  0.30093235  0.13880966  1
  Pr  Pr15  1  0.13880966  0.60808982  0.30093235  1
  Pr  Pr16  1  0.69906765  0.86119034  0.39191018  1
  Pr  Pr17  1  0.39191018  0.69906765  0.86119034  1
  Pr  Pr18  1  0.86119034  0.39191018  0.69906765  1
