# generated using pymatgen
data_BaInCo4O7
_symmetry_space_group_name_H-M   'P 1'
_cell_length_a   6.29251114
_cell_length_b   6.29251114
_cell_length_c   10.31067510
_cell_angle_alpha   90.00000000
_cell_angle_beta   90.00000000
_cell_angle_gamma   120.00000000
_symmetry_Int_Tables_number   1
_chemical_formula_structural   BaInCo4O7
_chemical_formula_sum   'Ba2 In2 Co8 O14'
_cell_volume   353.56211225
_cell_formula_units_Z   2
loop_
 _symmetry_equiv_pos_site_id
 _symmetry_equiv_pos_as_xyz
  1  'x, y, z'
loop_
 _atom_site_type_symbol
 _atom_site_label
 _atom_site_symmetry_multiplicity
 _atom_site_fract_x
 _atom_site_fract_y
 _atom_site_fract_z
 _atom_site_occupancy
  O  O0  1  0.83196634  0.16803342  0.99913777  1
  O  O1  1  0.66393382  0.83196666  0.49913798  1
  O  O2  1  0.16803342  0.33606683  0.49913798  1
  O  O3  1  0.83196737  0.66393324  0.99913777  1
  O  O4  1  0.33606696  0.16803342  0.99913777  1
  O  O5  1  0.16803284  0.83196666  0.49913798  1
  O  O6  1  0.00000000  0.00000000  0.74824234  1
  O  O7  1  0.00000000  0.00000000  0.24824156  1
  O  O8  1  0.49938333  0.50061659  0.25414815  1
  O  O9  1  0.99876752  0.49938349  0.75414892  1
  O  O10  1  0.50061729  0.00123310  0.75414892  1
  O  O11  1  0.49938349  0.99876698  0.25414815  1
  O  O12  1  0.50061585  0.49938349  0.75414892  1
  O  O13  1  0.00123326  0.50061659  0.25414815  1
  Co  Co14  1  0.82980248  0.17019811  0.18639313  1
  Co  Co15  1  0.65960367  0.82980197  0.68639292  1
  Co  Co16  1  0.17019811  0.34039622  0.68639292  1
  Co  Co17  1  0.82980267  0.65960386  0.18639313  1
  Co  Co18  1  0.34039712  0.17019811  0.18639313  1
  Co  Co19  1  0.17019830  0.82980197  0.68639292  1
  Co  Co20  1  0.00000000  0.00000000  0.43896188  1
  Co  Co21  1  0.00000000  0.00000000  0.93896167  1
  In  In22  1  0.66666742  0.33333336  0.87512547  1
  In  In23  1  0.33333336  0.66666672  0.37512568  1
  Ba  Ba24  1  0.66666742  0.33333336  0.49533475  1
  Ba  Ba25  1  0.33333336  0.66666672  0.99533454  1
