# generated using pymatgen
data_MnPO4F
_symmetry_space_group_name_H-M   'P 1'
_cell_length_a   5.15105367
_cell_length_b   5.18814134
_cell_length_c   7.22814557
_cell_angle_alpha   109.28011997
_cell_angle_beta   106.98411313
_cell_angle_gamma   96.64113958
_symmetry_Int_Tables_number   1
_chemical_formula_structural   MnPO4F
_chemical_formula_sum   'Mn2 P2 O8 F2'
_cell_volume   169.50037811
_cell_formula_units_Z   2
loop_
 _symmetry_equiv_pos_site_id
 _symmetry_equiv_pos_as_xyz
  1  'x, y, z'
loop_
 _atom_site_type_symbol
 _atom_site_label
 _atom_site_symmetry_multiplicity
 _atom_site_fract_x
 _atom_site_fract_y
 _atom_site_fract_z
 _atom_site_occupancy
  O  O0  1  0.24381540  0.80166214  0.12103035  1
  O  O1  1  0.71421796  0.84516863  0.07757428  1
  O  O2  1  0.66373641  0.19304698  0.40272199  1
  O  O3  1  0.64465562  0.67875644  0.34425874  1
  O  O4  1  0.28578204  0.15483137  0.92242572  1
  O  O5  1  0.33626359  0.80695302  0.59727801  1
  O  O6  1  0.35534438  0.32124356  0.65574126  1
  O  O7  1  0.75618460  0.19833786  0.87896965  1
  F  F8  1  0.14912011  0.31950020  0.26500941  1
  F  F9  1  0.85087989  0.68049980  0.73499059  1
  P  P10  1  0.43551483  0.11229822  0.76163386  1
  P  P11  1  0.56448517  0.88770178  0.23836614  1
  Mn  Mn12  1  0.00000000  0.00000000  0.00000000  1
  Mn  Mn13  1  0.50000000  0.50000000  0.50000000  1
