# generated using pymatgen
data_LiCu2P3O10
_symmetry_space_group_name_H-M   'P 1'
_cell_length_a   4.69800284
_cell_length_b   8.32659272
_cell_length_c   9.33459026
_cell_angle_alpha   90.00000000
_cell_angle_beta   103.06506485
_cell_angle_gamma   90.00000000
_symmetry_Int_Tables_number   1
_chemical_formula_structural   LiCu2P3O10
_chemical_formula_sum   'Li2 Cu4 P6 O20'
_cell_volume   355.70144864
_cell_formula_units_Z   2
loop_
 _symmetry_equiv_pos_site_id
 _symmetry_equiv_pos_as_xyz
  1  'x, y, z'
loop_
 _atom_site_type_symbol
 _atom_site_label
 _atom_site_symmetry_multiplicity
 _atom_site_fract_x
 _atom_site_fract_y
 _atom_site_fract_z
 _atom_site_occupancy
  Li  Li0  1  0.00000000  -0.00000000  0.00000000  1
  Li  Li1  1  0.00000000  0.50000000  0.00000000  1
  Cu  Cu2  1  0.95871331  0.56423251  0.66772547  1
  Cu  Cu3  1  0.04128669  0.06423251  0.33227453  1
  Cu  Cu4  1  0.95871331  0.93576749  0.66772547  1
  Cu  Cu5  1  0.04128669  0.43576749  0.33227453  1
  P  P6  1  0.40606300  0.75000000  0.45390734  1
  P  P7  1  0.66321489  0.75000000  0.17824360  1
  P  P8  1  0.52574076  0.75000000  0.86109612  1
  P  P9  1  0.59393700  0.25000000  0.54609266  1
  P  P10  1  0.33678511  0.25000000  0.82175640  1
  P  P11  1  0.47425924  0.25000000  0.13890388  1
  O  O12  1  0.30679336  0.09708330  0.14756892  1
  O  O13  1  0.42957039  0.75000000  0.02340847  1
  O  O14  1  0.23855817  0.59680096  0.47085927  1
  O  O15  1  0.16158676  0.40384069  0.81234528  1
  O  O16  1  0.23855817  0.90319904  0.47085927  1
  O  O17  1  0.30679336  0.40291670  0.14756892  1
  O  O18  1  0.57042961  0.25000000  0.97659153  1
  O  O19  1  0.69320664  0.90291670  0.85243208  1
  O  O20  1  0.71282642  0.75000000  0.55867024  1
  O  O21  1  0.83841324  0.59615931  0.18765472  1
  O  O22  1  0.76144183  0.40319904  0.52914073  1
  O  O23  1  0.16158676  0.09615931  0.81234528  1
  O  O24  1  0.21640514  0.75000000  0.75527794  1
  O  O25  1  0.78359486  0.25000000  0.24472206  1
  O  O26  1  0.76144183  0.09680096  0.52914073  1
  O  O27  1  0.28717358  0.25000000  0.44132976  1
  O  O28  1  0.83841324  0.90384069  0.18765472  1
  O  O29  1  0.55084496  0.25000000  0.71332993  1
  O  O30  1  0.44915504  0.75000000  0.28667007  1
  O  O31  1  0.69320664  0.59708330  0.85243208  1
