# generated using pymatgen
data_V2Pb3O8
_symmetry_space_group_name_H-M   'P 1'
_cell_length_a   7.54609010
_cell_length_b   7.54609010
_cell_length_c   7.54609010
_cell_angle_alpha   45.30973166
_cell_angle_beta   45.30973169
_cell_angle_gamma   45.30973170
_symmetry_Int_Tables_number   1
_chemical_formula_structural   V2Pb3O8
_chemical_formula_sum   'V2 Pb3 O8'
_cell_volume   197.79662263
_cell_formula_units_Z   1
loop_
 _symmetry_equiv_pos_site_id
 _symmetry_equiv_pos_as_xyz
  1  'x, y, z'
loop_
 _atom_site_type_symbol
 _atom_site_label
 _atom_site_symmetry_multiplicity
 _atom_site_fract_x
 _atom_site_fract_y
 _atom_site_fract_z
 _atom_site_occupancy
  O  O0  1  0.68040911  0.68040911  0.68040911  1
  O  O1  1  0.31959089  0.31959089  0.31959089  1
  O  O2  1  0.73188768  0.73188768  0.23782771  1
  O  O3  1  0.73188768  0.23782771  0.73188768  1
  O  O4  1  0.23782771  0.73188768  0.73188768  1
  O  O5  1  0.26811232  0.76217229  0.26811232  1
  O  O6  1  0.26811232  0.26811232  0.76217229  1
  O  O7  1  0.76217229  0.26811232  0.26811232  1
  V  V8  1  0.59552279  0.59552279  0.59552279  1
  V  V9  1  0.40447721  0.40447721  0.40447721  1
  Pb  Pb10  1  0.79910777  0.79910777  0.79910777  1
  Pb  Pb11  1  0.20089223  0.20089223  0.20089223  1
  Pb  Pb12  1  0.00000000  0.00000000  0.00000000  1
