# generated using pymatgen
data_MgH10SO9
_symmetry_space_group_name_H-M   'P 1'
_cell_length_a   6.26574952
_cell_length_b   6.46333103
_cell_length_c   10.67594400
_cell_angle_alpha   71.14987317
_cell_angle_beta   85.59282637
_cell_angle_gamma   75.76008789
_symmetry_Int_Tables_number   1
_chemical_formula_structural   MgH10SO9
_chemical_formula_sum   'Mg2 H20 S2 O18'
_cell_volume   396.58854306
_cell_formula_units_Z   2
loop_
 _symmetry_equiv_pos_site_id
 _symmetry_equiv_pos_as_xyz
  1  'x, y, z'
loop_
 _atom_site_type_symbol
 _atom_site_label
 _atom_site_symmetry_multiplicity
 _atom_site_fract_x
 _atom_site_fract_y
 _atom_site_fract_z
 _atom_site_occupancy
  Mg  Mg0  1  0.00000000  0.00000000  0.00000000  1
  Mg  Mg1  1  0.00000000  0.50000000  0.50000000  1
  H  H2  1  0.68312077  0.56412572  0.21475941  1
  H  H3  1  0.31687923  0.43587428  0.78524059  1
  H  H4  1  0.69597245  0.38261206  0.14348861  1
  H  H5  1  0.30402755  0.61738794  0.85651139  1
  H  H6  1  0.00026515  0.26505503  0.34164684  1
  H  H7  1  0.99973485  0.73494497  0.65835316  1
  H  H8  1  0.30457482  0.79142661  0.39608396  1
  H  H9  1  0.69542518  0.20857339  0.60391604  1
  H  H10  1  0.04770553  0.88433215  0.39792965  1
  H  H11  1  0.95229447  0.11566785  0.60207035  1
  H  H12  1  0.34811263  0.64767502  0.12024351  1
  H  H13  1  0.65188737  0.35232498  0.87975649  1
  H  H14  1  0.13733541  0.59090008  0.20028039  1
  H  H15  1  0.86266459  0.40909992  0.79971961  1
  H  H16  1  0.23057320  0.29270929  0.00154582  1
  H  H17  1  0.76942680  0.70729071  0.99845418  1
  H  H18  1  0.27289209  0.11235003  0.14303011  1
  H  H19  1  0.72710791  0.88764997  0.85696989  1
  H  H20  1  0.74405198  0.77041450  0.65349308  1
  H  H21  1  0.25594802  0.22958550  0.34650692  1
  S  S22  1  0.31153815  0.04683053  0.71499915  1
  S  S23  1  0.68846185  0.95316947  0.28500085  1
  O  O24  1  0.36053923  0.45732539  0.86603979  1
  O  O25  1  0.63946077  0.54267461  0.13396021  1
  O  O26  1  0.16680345  0.74446873  0.42619175  1
  O  O27  1  0.83319655  0.25553127  0.57380825  1
  O  O28  1  0.18566580  0.69947251  0.12228712  1
  O  O29  1  0.81433420  0.30052749  0.87771288  1
  O  O30  1  0.16295026  0.18447110  0.07138593  1
  O  O31  1  0.83704974  0.81552890  0.92861407  1
  O  O32  1  0.44346783  0.02038005  0.29751849  1
  O  O33  1  0.55653217  0.97961995  0.70248151  1
  O  O34  1  0.79697842  0.06595680  0.35465390  1
  O  O35  1  0.20302158  0.93404320  0.64534610  1
  O  O36  1  0.75936848  0.70176783  0.34679357  1
  O  O37  1  0.24063152  0.29823217  0.65320643  1
  O  O38  1  0.74526321  0.01954165  0.14237991  1
  O  O39  1  0.25473679  0.98045835  0.85762009  1
  O  O40  1  0.88484150  0.66192741  0.64709270  1
  O  O41  1  0.11515850  0.33807259  0.35290730  1
