# generated using pymatgen
data_Li4(CuO2)3
_symmetry_space_group_name_H-M   'P 1'
_cell_length_a   15.73351517
_cell_length_b   6.55128079
_cell_length_c   7.35346219
_cell_angle_alpha   110.70234121
_cell_angle_beta   116.20588946
_cell_angle_gamma   24.12007412
_symmetry_Int_Tables_number   1
_chemical_formula_structural   Li4(CuO2)3
_chemical_formula_sum   'Li8 Cu6 O12'
_cell_volume   275.35431507
_cell_formula_units_Z   2
loop_
 _symmetry_equiv_pos_site_id
 _symmetry_equiv_pos_as_xyz
  1  'x, y, z'
loop_
 _atom_site_type_symbol
 _atom_site_label
 _atom_site_symmetry_multiplicity
 _atom_site_fract_x
 _atom_site_fract_y
 _atom_site_fract_z
 _atom_site_occupancy
  Li  Li0  1  0.97740021  0.34574269  0.86723760  1
  Li  Li1  1  0.69945688  0.62368602  0.13276240  1
  Li  Li2  1  0.63716810  0.36283190  0.85917953  1
  Li  Li3  1  0.31466248  0.05601256  0.50000000  1
  Li  Li4  1  0.30054312  0.37631398  0.86723760  1
  Li  Li5  1  0.36283190  0.63716810  0.14082047  1
  Li  Li6  1  0.02259979  0.65425731  0.13276240  1
  Li  Li7  1  0.68533752  0.94398744  0.50000000  1
  O  O8  1  0.59293986  0.74358785  0.82547664  1
  O  O9  1  0.56597527  0.43402473  0.34200309  1
  O  O10  1  0.72657804  0.27342196  0.15375102  1
  O  O11  1  0.76102312  0.58742979  0.66432463  1
  O  O12  1  0.89052397  0.45792894  0.33567537  1
  O  O13  1  0.92946757  0.73400473  0.82547664  1
  O  O14  1  0.07053243  0.26599527  0.17452336  1
  O  O15  1  0.10947603  0.54207106  0.66432463  1
  O  O16  1  0.23897688  0.41257021  0.33567537  1
  O  O17  1  0.27342196  0.72657804  0.84624898  1
  O  O18  1  0.40706014  0.25641215  0.17452336  1
  O  O19  1  0.43402473  0.56597527  0.65799691  1
  Cu  Cu20  1  0.81796391  0.85248970  0.25721447  1
  Cu  Cu21  1  0.84520421  0.15479579  0.73088867  1
  Cu  Cu22  1  0.48841752  0.84112887  0.25721447  1
  Cu  Cu23  1  0.51158248  0.15887113  0.74278553  1
  Cu  Cu24  1  0.15479579  0.84520421  0.26911133  1
  Cu  Cu25  1  0.18203609  0.14751030  0.74278553  1
