# generated using pymatgen
data_Pb2WO5
_symmetry_space_group_name_H-M   'P 1'
_cell_length_a   5.96195495
_cell_length_b   7.54236833
_cell_length_c   7.80230443
_cell_angle_alpha   110.03897539
_cell_angle_beta   112.46157305
_cell_angle_gamma   90.00000003
_symmetry_Int_Tables_number   1
_chemical_formula_structural   Pb2WO5
_chemical_formula_sum   'Pb4 W2 O10'
_cell_volume   301.11936895
_cell_formula_units_Z   2
loop_
 _symmetry_equiv_pos_site_id
 _symmetry_equiv_pos_as_xyz
  1  'x, y, z'
loop_
 _atom_site_type_symbol
 _atom_site_label
 _atom_site_symmetry_multiplicity
 _atom_site_fract_x
 _atom_site_fract_y
 _atom_site_fract_z
 _atom_site_occupancy
  O  O0  1  0.74732771  0.00000000  0.00000000  1
  O  O1  1  0.25267229  1.00000000  1.00000000  1
  O  O2  1  0.69516964  0.30361696  0.39033927  1
  O  O3  1  0.30483036  0.69638304  0.60966073  1
  O  O4  1  0.90473310  0.78065535  0.29524168  1
  O  O5  1  0.60949142  0.21934465  0.70475832  1
  O  O6  1  0.90437093  0.59441634  0.80874187  1
  O  O7  1  0.09562907  0.40558366  0.19125813  1
  O  O8  1  0.39050858  0.78065535  0.29524168  1
  O  O9  1  0.09526690  0.21934465  0.70475832  1
  W  W10  1  0.82688632  0.33880047  0.65377263  1
  W  W11  1  0.17311368  0.66119953  0.34622737  1
  Pb  Pb12  1  0.50616979  0.24513406  0.01233958  1
  Pb  Pb13  1  0.49383021  0.75486594  0.98766042  1
  Pb  Pb14  1  0.13417698  0.11196435  0.26835396  1
  Pb  Pb15  1  0.86582302  0.88803565  0.73164604  1
