# generated using pymatgen
data_MnO2
_symmetry_space_group_name_H-M   'P 1'
_cell_length_a   5.83298072
_cell_length_b   5.82541069
_cell_length_c   5.83707497
_cell_angle_alpha   60.01961923
_cell_angle_beta   59.89097521
_cell_angle_gamma   60.08940557
_symmetry_Int_Tables_number   1
_chemical_formula_structural   MnO2
_chemical_formula_sum   'Mn4 O8'
_cell_volume   140.24735636
_cell_formula_units_Z   4
loop_
 _symmetry_equiv_pos_site_id
 _symmetry_equiv_pos_as_xyz
  1  'x, y, z'
loop_
 _atom_site_type_symbol
 _atom_site_label
 _atom_site_symmetry_multiplicity
 _atom_site_fract_x
 _atom_site_fract_y
 _atom_site_fract_z
 _atom_site_occupancy
  O  O0  1  0.29504580  0.73425510  0.73592575  1
  O  O1  1  0.73477185  0.73592710  0.73425405  1
  O  O2  1  0.73425519  0.29504669  0.73477234  1
  O  O3  1  0.73592611  0.73477221  0.29504679  1
  O  O4  1  0.26522691  0.26407461  0.26574460  1
  O  O5  1  0.70495367  0.26574448  0.26407362  1
  O  O6  1  0.26407335  0.26522739  0.70495431  1
  O  O7  1  0.26574426  0.70495291  0.26522875  1
  Mn  Mn8  1  0.50000074  0.49999979  0.49999918  1
  Mn  Mn9  1  0.99999963  0.50000089  0.49999932  1
  Mn  Mn10  1  0.49999993  0.50000097  0.00000014  1
  Mn  Mn11  1  0.49999920  0.99999986  0.50000092  1
