# generated using pymatgen
data_LiSb(PO3)4
_symmetry_space_group_name_H-M   'P 1'
_cell_length_a   7.93179478
_cell_length_b   7.93179478
_cell_length_c   17.41370324
_cell_angle_alpha   90.00000000
_cell_angle_beta   90.00000000
_cell_angle_gamma   97.81820255
_symmetry_Int_Tables_number   1
_chemical_formula_structural   LiSb(PO3)4
_chemical_formula_sum   'Li4 Sb4 P16 O48'
_cell_volume   1085.37118994
_cell_formula_units_Z   4
loop_
 _symmetry_equiv_pos_site_id
 _symmetry_equiv_pos_as_xyz
  1  'x, y, z'
loop_
 _atom_site_type_symbol
 _atom_site_label
 _atom_site_symmetry_multiplicity
 _atom_site_fract_x
 _atom_site_fract_y
 _atom_site_fract_z
 _atom_site_occupancy
  Li  Li0  1  0.10547999  0.17819147  0.10642266  1
  Li  Li1  1  0.82180853  0.89452001  0.89357734  1
  Li  Li2  1  0.89452001  0.82180853  0.60642266  1
  Li  Li3  1  0.17819147  0.10547999  0.39357734  1
  O  O4  1  0.10278706  0.92985226  0.10212208  1
  O  O5  1  0.07014774  0.89721294  0.89787792  1
  O  O6  1  0.05853505  0.64628023  0.02165749  1
  O  O7  1  0.35371977  0.94146495  0.97834251  1
  O  O8  1  0.14054117  0.68380725  0.76701124  1
  O  O9  1  0.31619275  0.85945883  0.23298876  1
  O  O10  1  0.35470949  0.89922937  0.69323296  1
  O  O11  1  0.10077063  0.64529051  0.30676704  1
  O  O12  1  0.36462879  0.89161003  0.83795622  1
  O  O13  1  0.10838997  0.63537121  0.16204378  1
  O  O14  1  0.19534721  0.61035664  0.45717751  1
  O  O15  1  0.38964336  0.80465279  0.54282249  1
  O  O16  1  0.21403013  0.45964903  0.89601117  1
  O  O17  1  0.54035097  0.78596987  0.10398883  1
  O  O18  1  0.35121769  0.54795152  0.23493803  1
  O  O19  1  0.45204848  0.64878231  0.76506197  1
  O  O20  1  0.51010362  0.61825355  0.43959567  1
  O  O21  1  0.38174645  0.48989638  0.56040433  1
  O  O22  1  0.16308002  0.27466071  0.61870570  1
  O  O23  1  0.72533929  0.83691998  0.38129430  1
  O  O24  1  0.72907507  0.78118494  0.98287129  1
  O  O25  1  0.21881506  0.27092493  0.01712871  1
  O  O26  1  0.70452957  0.75152915  0.67810642  1
  O  O27  1  0.24847085  0.29547043  0.32189358  1
  O  O28  1  0.29547043  0.24847085  0.17810642  1
  O  O29  1  0.75152915  0.70452957  0.82189358  1
  O  O30  1  0.27092493  0.21881506  0.48287129  1
  O  O31  1  0.78118494  0.72907507  0.51712871  1
  O  O32  1  0.83691998  0.72533929  0.11870570  1
  O  O33  1  0.27466071  0.16308002  0.88129430  1
  O  O34  1  0.48989638  0.38174645  0.93959567  1
  O  O35  1  0.61825355  0.51010362  0.06040433  1
  O  O36  1  0.54795152  0.35121769  0.26506197  1
  O  O37  1  0.64878231  0.45204848  0.73493803  1
  O  O38  1  0.45964903  0.21403013  0.60398883  1
  O  O39  1  0.78596987  0.54035097  0.39601117  1
  O  O40  1  0.80465279  0.38964336  0.95717751  1
  O  O41  1  0.61035664  0.19534721  0.04282249  1
  O  O42  1  0.63537121  0.10838997  0.33795622  1
  O  O43  1  0.89161003  0.36462879  0.66204378  1
  O  O44  1  0.64529051  0.10077063  0.19323296  1
  O  O45  1  0.89922937  0.35470949  0.80676704  1
  O  O46  1  0.68380725  0.14054117  0.73298876  1
  O  O47  1  0.85945883  0.31619275  0.26701124  1
  O  O48  1  0.64628023  0.05853505  0.47834251  1
  O  O49  1  0.94146495  0.35371977  0.52165749  1
  O  O50  1  0.89721294  0.07014774  0.60212208  1
  O  O51  1  0.92985226  0.10278706  0.39787792  1
  P  P52  1  0.03626359  0.74357056  0.09325838  1
  P  P53  1  0.25642944  0.96373641  0.90674162  1
  P  P54  1  0.21806238  0.68470635  0.23819014  1
  P  P55  1  0.31529365  0.78193762  0.76180986  1
  P  P56  1  0.36129456  0.63870544  0.50000000  1
  P  P57  1  0.67990560  0.71338691  0.06025651  1
  P  P58  1  0.28661309  0.32009440  0.93974349  1
  P  P59  1  0.34794922  0.34794922  0.25000000  1
  P  P60  1  0.65205078  0.65205078  0.75000000  1
  P  P61  1  0.32009440  0.28661309  0.56025651  1
  P  P62  1  0.71338691  0.67990560  0.43974349  1
  P  P63  1  0.63870544  0.36129456  0.00000000  1
  P  P64  1  0.68470635  0.21806238  0.26180986  1
  P  P65  1  0.78193762  0.31529365  0.73819014  1
  P  P66  1  0.74357056  0.03626359  0.40674162  1
  P  P67  1  0.96373641  0.25642944  0.59325838  1
  Sb  Sb68  1  0.01541729  0.43346301  0.38516707  1
  Sb  Sb69  1  0.56653699  0.98458271  0.61483293  1
  Sb  Sb70  1  0.43346301  0.01541729  0.11483293  1
  Sb  Sb71  1  0.98458271  0.56653699  0.88516707  1
