# generated using pymatgen
data_Li2CoP2O7
_symmetry_space_group_name_H-M   'P 1'
_cell_length_a   12.89454077
_cell_length_b   5.11960419
_cell_length_c   8.49606663
_cell_angle_alpha   90.00000000
_cell_angle_beta   100.08018179
_cell_angle_gamma   90.00000000
_symmetry_Int_Tables_number   1
_chemical_formula_structural   Li2CoP2O7
_chemical_formula_sum   'Li8 Co4 P8 O28'
_cell_volume   552.20969790
_cell_formula_units_Z   4
loop_
 _symmetry_equiv_pos_site_id
 _symmetry_equiv_pos_as_xyz
  1  'x, y, z'
loop_
 _atom_site_type_symbol
 _atom_site_label
 _atom_site_symmetry_multiplicity
 _atom_site_fract_x
 _atom_site_fract_y
 _atom_site_fract_z
 _atom_site_occupancy
  Li  Li0  1  0.07576834  0.29638191  0.57588283  1
  Li  Li1  1  0.92423173  0.70361832  0.42411635  1
  Li  Li2  1  0.83106352  0.21824132  0.87779598  1
  Li  Li3  1  0.66893656  0.71824143  0.62220455  1
  Li  Li4  1  0.57576866  0.20361821  0.07588309  1
  Li  Li5  1  0.16893653  0.78175891  0.12220438  1
  Li  Li6  1  0.33106350  0.28175879  0.37779580  1
  Li  Li7  1  0.42423139  0.79638202  0.92411727  1
  O  O8  1  0.24198157  0.24963492  0.90784464  1
  O  O9  1  0.93235109  0.31845141  0.43067644  1
  O  O10  1  0.90321478  0.42333532  0.07076705  1
  O  O11  1  0.93924767  0.85455265  0.22200386  1
  O  O12  1  0.06075238  0.14544758  0.77799650  1
  O  O13  1  0.09678527  0.57666491  0.92923331  1
  O  O14  1  0.06764898  0.68154882  0.56932274  1
  O  O15  1  0.13412828  0.07454910  0.42847146  1
  O  O16  1  0.15028810  0.60942825  0.32230353  1
  O  O17  1  0.34971193  0.10942814  0.17769665  1
  O  O18  1  0.10889151  0.14041238  0.08289965  1
  O  O19  1  0.25801816  0.74963308  0.59215546  1
  O  O20  1  0.43235077  0.18154870  0.93067618  1
  O  O21  1  0.84971195  0.39057198  0.67769683  1
  O  O22  1  0.39110852  0.64041249  0.41710053  1
  O  O23  1  0.43924735  0.64544770  0.72200360  1
  O  O24  1  0.86587178  0.92545113  0.57152889  1
  O  O25  1  0.36587175  0.57454921  0.07152872  1
  O  O26  1  0.63412832  0.42545102  0.92847047  1
  O  O27  1  0.65028814  0.89057209  0.82230253  1
  O  O28  1  0.56075270  0.35455253  0.27799675  1
  O  O29  1  0.60889155  0.35958774  0.58289865  1
  O  O30  1  0.59678481  0.92333543  0.42923333  1
  O  O31  1  0.56764930  0.81845152  0.06932300  1
  O  O32  1  0.74198189  0.25036520  0.40784489  1
  O  O33  1  0.89110855  0.85958785  0.91710071  1
  O  O34  1  0.75801850  0.75036531  0.09215455  1
  O  O35  1  0.40321525  0.07666480  0.57076702  1
  P  P36  1  0.35198674  0.28167809  0.03214458  1
  P  P37  1  0.64801331  0.71832214  0.96785578  1
  P  P38  1  0.61963803  0.21795271  0.42763060  1
  P  P39  1  0.85198679  0.21832203  0.53214358  1
  P  P40  1  0.11963771  0.28204741  0.92763034  1
  P  P41  1  0.14801328  0.78167820  0.46785560  1
  P  P42  1  0.38036203  0.78204752  0.57236976  1
  P  P43  1  0.88036156  0.71795282  0.07236978  1
  Co  Co44  1  0.98776847  0.77939026  0.75783574  1
  Co  Co45  1  0.48776844  0.72061009  0.25783556  1
  Co  Co46  1  0.51223162  0.27939014  0.74216479  1
  Co  Co47  1  0.01223159  0.22060997  0.24216461  1
