# generated using pymatgen
data_Li4Co5(P3O11)2
_symmetry_space_group_name_H-M   'P 1'
_cell_length_a   12.65879088
_cell_length_b   6.55471546
_cell_length_c   10.58757684
_cell_angle_alpha   90.00000000
_cell_angle_beta   103.59768514
_cell_angle_gamma   90.00000000
_symmetry_Int_Tables_number   1
_chemical_formula_structural   Li4Co5(P3O11)2
_chemical_formula_sum   'Li8 Co10 P12 O44'
_cell_volume   853.87781215
_cell_formula_units_Z   2
loop_
 _symmetry_equiv_pos_site_id
 _symmetry_equiv_pos_as_xyz
  1  'x, y, z'
loop_
 _atom_site_type_symbol
 _atom_site_label
 _atom_site_symmetry_multiplicity
 _atom_site_fract_x
 _atom_site_fract_y
 _atom_site_fract_z
 _atom_site_occupancy
  Li  Li0  1  0.18653285  0.13171520  0.56190397  1
  Li  Li1  1  0.81346703  0.86828548  0.43809577  1
  Li  Li2  1  0.66250104  0.46521176  0.11959206  1
  Li  Li3  1  0.81346715  0.63171478  0.93809620  1
  Li  Li4  1  0.66250116  0.03478782  0.61959249  1
  Li  Li5  1  0.33749872  0.96521133  0.38040725  1
  Li  Li6  1  0.18653354  0.36828437  0.06190471  1
  Li  Li7  1  0.33749884  0.53478893  0.88040768  1
  O  O8  1  0.27178499  0.79581349  0.94337141  1
  O  O9  1  0.83944071  0.58210009  0.74537168  1
  O  O10  1  0.82219540  0.56620501  0.44942283  1
  O  O11  1  0.72821489  0.20418567  0.05662832  1
  O  O12  1  0.83944141  0.91790017  0.24537242  1
  O  O13  1  0.83878630  0.55216543  0.16478005  1
  O  O14  1  0.99672149  0.80341333  0.85386778  1
  O  O15  1  0.99180934  0.72166336  0.63224035  1
  O  O16  1  0.99672137  0.69658693  0.35386735  1
  O  O17  1  0.99180923  0.77833537  0.13223992  1
  O  O18  1  0.00819066  0.22166378  0.86775981  1
  O  O19  1  0.00327851  0.30341223  0.64613239  1
  O  O20  1  0.00819054  0.27833579  0.36776033  1
  O  O21  1  0.00327920  0.19658735  0.14613313  1
  O  O22  1  0.16121358  0.44783372  0.83522064  1
  O  O23  1  0.16055929  0.08209898  0.75462849  1
  O  O24  1  0.17780448  0.43379568  0.55057691  1
  O  O25  1  0.83878642  0.94783330  0.66477953  1
  O  O26  1  0.16121346  0.05216586  0.33522021  1
  O  O27  1  0.16055917  0.41790060  0.25462806  1
  O  O28  1  0.25359298  0.75027078  0.67794519  1
  O  O29  1  0.17780436  0.06620543  0.05057648  1
  O  O30  1  0.27178487  0.70418677  0.44337193  1
  O  O31  1  0.38805030  0.23010424  0.92945639  1
  O  O32  1  0.25359286  0.74972795  0.17794571  1
  O  O33  1  0.35323994  0.10818552  0.62926042  1
  O  O34  1  0.38201776  0.49283152  0.62775601  1
  O  O35  1  0.45885829  0.76354521  0.86114785  1
  O  O36  1  0.38805018  0.26989534  0.42945690  1
  O  O37  1  0.35323982  0.39181559  0.12925999  1
  O  O38  1  0.38201845  0.00716874  0.12775675  1
  O  O39  1  0.45885898  0.73645505  0.36114765  1
  O  O40  1  0.54114171  0.26354563  0.63885231  1
  O  O41  1  0.61798224  0.99283041  0.87224415  1
  O  O42  1  0.64676006  0.60818509  0.87073974  1
  O  O43  1  0.61194970  0.73010381  0.57054378  1
  O  O44  1  0.54114159  0.23645394  0.13885189  1
  O  O45  1  0.61798213  0.50716916  0.37224373  1
  O  O46  1  0.74640690  0.24972837  0.32205455  1
  O  O47  1  0.74640702  0.25027120  0.82205498  1
  O  O48  1  0.61194958  0.76989645  0.07054335  1
  O  O49  1  0.72821501  0.29581391  0.55662875  1
  O  O50  1  0.82219552  0.93379525  0.94942325  1
  O  O51  1  0.64675994  0.89181517  0.37073932  1
  P  P52  1  0.26438777  0.59798347  0.57131067  1
  P  P53  1  0.26438765  0.90201679  0.07131024  1
  P  P54  1  0.41968053  0.27318517  0.57963325  1
  P  P55  1  0.08806471  0.23556260  0.27815131  1
  P  P56  1  0.58031947  0.77318627  0.92036692  1
  P  P57  1  0.41968123  0.22681441  0.07963304  1
  P  P58  1  0.58031935  0.72681399  0.42036743  1
  P  P59  1  0.73561223  0.09798389  0.92868950  1
  P  P60  1  0.73561211  0.40201721  0.42869002  1
  P  P61  1  0.91193598  0.76443655  0.72184865  1
  P  P62  1  0.08806402  0.26443698  0.77815152  1
  P  P63  1  0.91193586  0.73556371  0.22184916  1
  Co  Co64  1  0.86657034  0.24257713  0.21692405  1
  Co  Co65  1  0.86656964  0.25742245  0.71692425  1
  Co  Co66  1  0.65855163  0.01194394  0.19491072  1
  Co  Co67  1  0.65855094  0.48805563  0.69490998  1
  Co  Co68  1  0.34144894  0.51194352  0.30508975  1
  Co  Co69  1  0.34144906  0.98805674  0.80509018  1
  Co  Co70  1  0.13343024  0.74257823  0.28307548  1
  Co  Co71  1  0.00000000  0.00000000  0.00000000  1
  Co  Co72  1  0.13343036  0.75742203  0.78307591  1
  Co  Co73  1  0.00000012  0.49999958  0.50000043  1
