# generated using pymatgen
data_B7H10
_symmetry_space_group_name_H-M   'P 1'
_cell_length_a   9.17887537
_cell_length_b   10.27809497
_cell_length_c   13.54942297
_cell_angle_alpha   90.00000000
_cell_angle_beta   90.00000000
_cell_angle_gamma   90.00000000
_symmetry_Int_Tables_number   1
_chemical_formula_structural   B7H10
_chemical_formula_sum   'B56 H80'
_cell_volume   1278.27089225
_cell_formula_units_Z   8
loop_
 _symmetry_equiv_pos_site_id
 _symmetry_equiv_pos_as_xyz
  1  'x, y, z'
loop_
 _atom_site_type_symbol
 _atom_site_label
 _atom_site_symmetry_multiplicity
 _atom_site_fract_x
 _atom_site_fract_y
 _atom_site_fract_z
 _atom_site_occupancy
  H  H0  1  0.06889971  0.81397141  0.24669211  1
  H  H1  1  0.56889971  0.18602859  0.25330789  1
  H  H2  1  0.43110029  0.31397141  0.75330789  1
  H  H3  1  0.93110029  0.68602859  0.74669211  1
  H  H4  1  0.23403962  0.70242220  0.21413262  1
  H  H5  1  0.73403962  0.29757780  0.28586738  1
  H  H6  1  0.26596038  0.20242220  0.78586738  1
  H  H7  1  0.76596038  0.79757780  0.71413262  1
  H  H8  1  0.21797724  0.67685034  0.07238161  1
  H  H9  1  0.71797724  0.32314966  0.42761839  1
  H  H10  1  0.28202276  0.17685034  0.92761839  1
  H  H11  1  0.78202276  0.82314966  0.57238161  1
  H  H12  1  0.05835798  0.56164377  0.09324648  1
  H  H13  1  0.55835798  0.43835623  0.40675352  1
  H  H14  1  0.44164202  0.06164377  0.90675352  1
  H  H15  1  0.94164202  0.93835623  0.59324648  1
  H  H16  1  0.01817428  0.55595255  0.23445479  1
  H  H17  1  0.51817428  0.44404745  0.26554521  1
  H  H18  1  0.48182572  0.05595255  0.76554521  1
  H  H19  1  0.98182572  0.94404745  0.73445479  1
  H  H20  1  0.90111554  0.71149632  0.25800485  1
  H  H21  1  0.40111554  0.28850368  0.24199515  1
  H  H22  1  0.59888446  0.21149632  0.74199515  1
  H  H23  1  0.09888446  0.78850368  0.75800485  1
  H  H24  1  0.26962902  0.85179661  0.30920551  1
  H  H25  1  0.76962902  0.14820339  0.19079449  1
  H  H26  1  0.23037098  0.35179661  0.69079449  1
  H  H27  1  0.73037098  0.64820339  0.80920551  1
  H  H28  1  0.02352706  0.00624946  0.23714439  1
  H  H29  1  0.52352706  0.99375054  0.26285561  1
  H  H30  1  0.47647294  0.50624946  0.76285561  1
  H  H31  1  0.97647294  0.49375054  0.73714439  1
  H  H32  1  0.80696180  0.94482530  0.09642520  1
  H  H33  1  0.25404570  0.78151857  0.95004403  1
  H  H34  1  0.30696180  0.05517470  0.40357480  1
  H  H35  1  0.19303820  0.55517470  0.59642520  1
  H  H36  1  0.69569786  0.76956879  0.23226948  1
  H  H37  1  0.19569786  0.23043121  0.26773052  1
  H  H38  1  0.80430214  0.26956879  0.76773052  1
  H  H39  1  0.30430214  0.73043121  0.73226948  1
  H  H40  1  0.83963447  0.53904645  0.32185209  1
  H  H41  1  0.33963447  0.46095355  0.17814791  1
  H  H42  1  0.66036553  0.03904645  0.67814791  1
  H  H43  1  0.16036553  0.96095355  0.82185209  1
  H  H44  1  -0.00071541  0.38687559  0.15758781  1
  H  H45  1  0.49928459  0.61312441  0.34241219  1
  H  H46  1  0.50071541  0.88687559  0.84241219  1
  H  H47  1  1.00071541  0.11312441  0.65758781  1
  H  H48  1  0.94795278  0.51613706  0.96826425  1
  H  H49  1  0.44795278  0.48386294  0.53173575  1
  H  H50  1  0.55204722  0.01613706  0.03173575  1
  H  H51  1  0.05204722  0.98386294  0.46826425  1
  H  H52  1  0.95526688  0.78331752  0.91958975  1
  H  H53  1  0.45526688  0.21668248  0.58041025  1
  H  H54  1  0.54473312  0.28331752  0.08041025  1
  H  H55  1  0.04473312  0.71668248  0.41958975  1
  H  H56  1  0.69651137  0.50091474  0.60819712  1
  H  H57  1  0.19651137  0.49908526  0.89180288  1
  H  H58  1  0.80348863  1.00091474  0.39180288  1
  H  H59  1  0.30348863  -0.00091474  0.10819712  1
  H  H60  1  0.95722461  0.50174607  0.50601046  1
  H  H61  1  0.45722461  0.49825393  0.99398954  1
  H  H62  1  0.54277539  1.00174607  0.49398954  1
  H  H63  1  0.04277539  -0.00174607  0.00601046  1
  H  H64  1  0.28418998  0.76781715  0.50885735  1
  H  H65  1  0.78418998  0.23218285  0.99114265  1
  H  H66  1  0.21581002  0.26781715  0.49114265  1
  H  H67  1  0.71581002  0.73218285  0.00885735  1
  H  H68  1  0.30860707  -0.00484243  0.61730733  1
  H  H69  1  0.80860707  1.00484243  0.88269267  1
  H  H70  1  0.19139293  0.49515757  0.38269267  1
  H  H71  1  0.69139293  0.50484243  0.11730733  1
  H  H72  1  0.58052537  0.78212698  0.63198554  1
  H  H73  1  0.08052537  0.21787302  0.86801446  1
  H  H74  1  0.91947463  0.28212698  0.36801446  1
  H  H75  1  0.41947463  0.71787302  0.13198554  1
  H  H76  1  0.74595430  0.71848143  0.45004403  1
  H  H77  1  0.24595430  0.28151857  0.04995597  1
  H  H78  1  0.75404570  0.21848143  0.54995597  1
  H  H79  1  0.69303820  0.44482530  0.90357480  1
  B  B80  1  0.21124170  0.82966695  0.23277802  1
  B  B81  1  0.71124170  0.17033305  0.26722198  1
  B  B82  1  0.28875830  0.32966695  0.76722198  1
  B  B83  1  0.78875830  0.67033305  0.73277802  1
  B  B84  1  0.05409479  0.91514975  0.18676147  1
  B  B85  1  0.55409479  0.08485025  0.31323853  1
  B  B86  1  0.44590521  0.41514975  0.81323853  1
  B  B87  1  0.94590521  0.58485025  0.68676147  1
  B  B88  1  0.89111569  0.85799904  0.11042755  1
  B  B89  1  0.39111569  0.14200096  0.38957245  1
  B  B90  1  0.60888431  0.35799904  0.88957245  1
  B  B91  1  0.10888431  0.64200096  0.61042755  1
  B  B92  1  0.79944372  0.72773118  0.18977876  1
  B  B93  1  0.29944372  0.27226882  0.31022124  1
  B  B94  1  0.70055628  0.22773118  0.81022124  1
  B  B95  1  0.20055628  0.77226882  0.68977876  1
  B  B96  1  0.87602894  0.58506348  0.24516697  1
  B  B97  1  0.37602894  0.41493652  0.25483303  1
  B  B98  1  0.62397106  0.08506348  0.75483303  1
  B  B99  1  0.12397106  0.91493652  0.74516697  1
  B  B100  1  0.96637289  0.49859650  0.15201699  1
  B  B101  1  0.46637289  0.50140350  0.34798301  1
  B  B102  1  0.53362711  0.99859650  0.84798301  1
  B  B103  1  0.03362711  0.00140350  0.65201699  1
  B  B104  1  0.94179634  0.58614312  0.03821918  1
  B  B105  1  0.44179634  0.41385688  0.46178082  1
  B  B106  1  0.55820366  0.08614312  0.96178082  1
  B  B107  1  0.05820366  0.91385688  0.53821918  1
  B  B108  1  0.98222490  0.76287541  0.00493161  1
  B  B109  1  0.48222490  0.23712459  0.49506839  1
  B  B110  1  0.51777510  0.26287541  0.99506839  1
  B  B111  1  0.01777510  0.73712459  0.50493161  1
  B  B112  1  0.18710532  0.78601544  0.02546571  1
  B  B113  1  0.68710532  0.21398456  0.47453429  1
  B  B114  1  0.31289468  0.28601544  0.97453429  1
  B  B115  1  0.81289468  0.71398456  0.52546571  1
  B  B116  1  0.29588538  0.75274892  0.13257985  1
  B  B117  1  0.79588538  0.24725108  0.36742015  1
  B  B118  1  0.20411462  0.25274892  0.86742015  1
  B  B119  1  0.70411462  0.74725108  0.63257985  1
  B  B120  1  0.79787911  0.56922187  0.12979023  1
  B  B121  1  0.29787911  0.43077813  0.37020977  1
  B  B122  1  0.70212089  0.06922187  0.87020977  1
  B  B123  1  0.20212089  0.93077813  0.62979023  1
  B  B124  1  0.81888859  0.71387939  0.06115158  1
  B  B125  1  0.31888859  0.28612061  0.43884842  1
  B  B126  1  0.68111141  0.21387939  0.93884842  1
  B  B127  1  0.18111141  0.78612061  0.56115158  1
  B  B128  1  0.05718239  0.90429167  0.05736991  1
  B  B129  1  0.55718239  0.09570833  0.44263009  1
  B  B130  1  0.44281761  0.40429167  0.94263009  1
  B  B131  1  0.94281761  0.59570833  0.55736991  1
  B  B132  1  0.22542478  0.90780959  0.11963857  1
  B  B133  1  0.72542478  0.09219041  0.38036143  1
  B  B134  1  0.27457522  0.40780959  0.88036143  1
  B  B135  1  0.77457522  0.59219041  0.61963857  1
