# generated using pymatgen
data_TlBiS2
_symmetry_space_group_name_H-M   'P 1'
_cell_length_a   8.42471426
_cell_length_b   11.24744871
_cell_length_c   7.45179789
_cell_angle_alpha   29.04492701
_cell_angle_beta   55.57821091
_cell_angle_gamma   41.49327957
_symmetry_Int_Tables_number   1
_chemical_formula_structural   TlBiS2
_chemical_formula_sum   'Tl2 Bi2 S4'
_cell_volume   218.14337823
_cell_formula_units_Z   2
loop_
 _symmetry_equiv_pos_site_id
 _symmetry_equiv_pos_as_xyz
  1  'x, y, z'
loop_
 _atom_site_type_symbol
 _atom_site_label
 _atom_site_symmetry_multiplicity
 _atom_site_fract_x
 _atom_site_fract_y
 _atom_site_fract_z
 _atom_site_occupancy
  Tl  Tl0  1  0.00000000  0.00000000  0.00000000  1
  Tl  Tl1  1  0.75000000  0.50000000  0.00000000  1
  Bi  Bi2  1  0.25000000  0.50000000  0.00000000  1
  Bi  Bi3  1  0.50000000  0.00000000  0.00000000  1
  S  S4  1  0.27222731  0.00000000  0.45554537  1
  S  S5  1  0.72777269  1.00000000  0.54445463  1
  S  S6  1  0.47777269  0.50000000  0.54445463  1
  S  S7  1  0.02222731  0.50000000  0.45554537  1
