# generated using pymatgen
data_TmMn2
_symmetry_space_group_name_H-M   'P 1'
_cell_length_a   5.29972100
_cell_length_b   5.29972100
_cell_length_c   8.01122580
_cell_angle_alpha   90.00000000
_cell_angle_beta   90.00000000
_cell_angle_gamma   119.99999999
_symmetry_Int_Tables_number   1
_chemical_formula_structural   TmMn2
_chemical_formula_sum   'Tm4 Mn8'
_cell_volume   194.86579725
_cell_formula_units_Z   4
loop_
 _symmetry_equiv_pos_site_id
 _symmetry_equiv_pos_as_xyz
  1  'x, y, z'
loop_
 _atom_site_type_symbol
 _atom_site_label
 _atom_site_symmetry_multiplicity
 _atom_site_fract_x
 _atom_site_fract_y
 _atom_site_fract_z
 _atom_site_occupancy
  Mn  Mn0  1  0.00000000  0.00000000  0.00000000  1
  Mn  Mn1  1  0.00000000  0.00000000  0.50000000  1
  Mn  Mn2  1  0.83173309  0.66346618  0.25000000  1
  Mn  Mn3  1  0.16826691  0.83173309  0.75000000  1
  Mn  Mn4  1  0.66346618  0.83173309  0.75000000  1
  Mn  Mn5  1  0.33653382  0.16826691  0.25000000  1
  Mn  Mn6  1  0.83173309  0.16826691  0.25000000  1
  Mn  Mn7  1  0.16826691  0.33653382  0.75000000  1
  Tm  Tm8  1  0.33333333  0.66666667  0.06002736  1
  Tm  Tm9  1  0.66666667  0.33333333  0.56002736  1
  Tm  Tm10  1  0.66666667  0.33333333  0.93997264  1
  Tm  Tm11  1  0.33333333  0.66666667  0.43997264  1
