# generated using pymatgen
data_LiCrP2O7
_symmetry_space_group_name_H-M   'P 1'
_cell_length_a   6.77719414
_cell_length_b   8.12999137
_cell_length_c   9.38898105
_cell_angle_alpha   90.00000000
_cell_angle_beta   107.66193808
_cell_angle_gamma   90.00000000
_symmetry_Int_Tables_number   1
_chemical_formula_structural   LiCrP2O7
_chemical_formula_sum   'Li4 Cr4 P8 O28'
_cell_volume   492.93430963
_cell_formula_units_Z   4
loop_
 _symmetry_equiv_pos_site_id
 _symmetry_equiv_pos_as_xyz
  1  'x, y, z'
loop_
 _atom_site_type_symbol
 _atom_site_label
 _atom_site_symmetry_multiplicity
 _atom_site_fract_x
 _atom_site_fract_y
 _atom_site_fract_z
 _atom_site_occupancy
  Li  Li0  1  0.21746250  0.88658430  0.54598207  1
  Li  Li1  1  0.78253734  0.11341601  0.45401830  1
  Li  Li2  1  0.78253780  0.38658353  0.95401822  1
  Li  Li3  1  0.21746204  0.61341678  0.04598214  1
  O  O4  1  0.39619359  0.08571312  0.63352623  1
  O  O5  1  0.92882351  0.68010270  0.39501064  1
  O  O6  1  0.85034040  0.94577411  0.15264263  1
  O  O7  1  0.90825011  0.58963455  0.12777880  1
  O  O8  1  0.09174973  0.41036452  0.87222157  1
  O  O9  1  0.14965945  0.05422620  0.84735667  1
  O  O10  1  0.07117633  0.31989761  0.60498866  1
  O  O11  1  0.22642466  0.60479085  0.70959688  1
  O  O12  1  0.09174927  0.08963501  0.37222164  1
  O  O13  1  0.14965899  0.44577334  0.34735674  1
  O  O14  1  0.07117587  0.18010192  0.10498873  1
  O  O15  1  0.39619469  0.41428642  0.13352665  1
  O  O16  1  0.51128743  0.23350367  0.89121516  1
  O  O17  1  0.22642420  0.89520900  0.20959695  1
  O  O18  1  0.52453586  0.91794039  0.86492990  1
  O  O19  1  0.90825057  0.91036530  0.62777872  1
  O  O20  1  0.48871287  0.73350320  0.60878513  1
  O  O21  1  0.60380671  0.58571265  0.86647299  1
  O  O22  1  0.77357518  0.39520946  0.29040348  1
  O  O23  1  0.51128697  0.26649587  0.39121524  1
  O  O24  1  0.52453540  0.58205945  0.36492890  1
  O  O25  1  0.47546399  0.08205868  0.13507047  1
  O  O26  1  0.77357564  0.10479007  0.79040341  1
  O  O27  1  0.48871397  0.76649664  0.10878554  1
  O  O28  1  0.60380625  0.91428719  0.36647306  1
  O  O29  1  0.92882397  0.81989715  0.89501057  1
  O  O30  1  0.85034085  0.55422697  0.65264362  1
  O  O31  1  0.47546445  0.41794086  0.63507039  1
  P  P32  1  0.53712440  0.08477121  0.79662699  1
  P  P33  1  0.46287544  0.91522910  0.20337338  1
  P  P34  1  0.53712394  0.41522833  0.29662706  1
  P  P35  1  0.94607492  0.96302220  0.79298000  1
  P  P36  1  0.05392538  0.46302143  0.70702029  1
  P  P37  1  0.05392492  0.03697811  0.20702036  1
  P  P38  1  0.46287590  0.58477074  0.70337330  1
  P  P39  1  0.94607446  0.53697888  0.29298007  1
  Cr  Cr40  1  0.71926809  0.77426824  0.00482074  1
  Cr  Cr41  1  0.71926700  0.72573284  0.50482033  1
  Cr  Cr42  1  0.28073284  0.27426747  0.49518004  1
  Cr  Cr43  1  0.28073331  0.22573207  0.99517996  1
