# generated using pymatgen
data_Nb21S8
_symmetry_space_group_name_H-M   'P 1'
_cell_length_a   3.37937993
_cell_length_b   12.09464996
_cell_length_c   12.09464996
_cell_angle_alpha   88.88165021
_cell_angle_beta   81.96919074
_cell_angle_gamma   81.96919077
_symmetry_Int_Tables_number   1
_chemical_formula_structural   Nb21S8
_chemical_formula_sum   'Nb21 S8'
_cell_volume   484.68927536
_cell_formula_units_Z   1
loop_
 _symmetry_equiv_pos_site_id
 _symmetry_equiv_pos_as_xyz
  1  'x, y, z'
loop_
 _atom_site_type_symbol
 _atom_site_label
 _atom_site_symmetry_multiplicity
 _atom_site_fract_x
 _atom_site_fract_y
 _atom_site_fract_z
 _atom_site_occupancy
  S  S0  1  0.78709999  0.84851644  0.57728358  1
  S  S1  1  0.36438357  0.42271642  0.84851644  1
  S  S2  1  0.63561643  0.57728358  0.15148356  1
  S  S3  1  0.21290001  0.15148356  0.42271642  1
  S  S4  1  0.86257981  0.07349532  0.20134506  1
  S  S5  1  0.06392487  0.79865494  0.07349532  1
  S  S6  1  0.93607513  0.20134506  0.92650468  1
  S  S7  1  0.13742019  0.92650468  0.79865494  1
  Nb  Nb8  1  0.72192696  0.25818708  0.29795900  1
  Nb  Nb9  1  0.38405053  0.80135740  0.43054155  1
  Nb  Nb10  1  0.81459207  0.56945845  0.80135740  1
  Nb  Nb11  1  0.18540793  0.43054155  0.19864260  1
  Nb  Nb12  1  0.61594947  0.19864260  0.56945845  1
  Nb  Nb13  1  0.19184016  0.00590474  0.61041493  1
  Nb  Nb14  1  0.80225510  0.38958507  0.00590474  1
  Nb  Nb15  1  0.19774490  0.61041493  0.99409526  1
  Nb  Nb16  1  0.80815984  0.99409526  0.38958507  1
  Nb  Nb17  1  0.45130449  0.91363733  0.18375369  1
  Nb  Nb18  1  0.63505818  0.81624631  0.91363733  1
  Nb  Nb19  1  0.36494182  0.18375369  0.08636267  1
  Nb  Nb20  1  0.54869551  0.08636267  0.81624631  1
  Nb  Nb21  1  0.01988596  0.70204100  0.25818708  1
  Nb  Nb22  1  0.98011404  0.29795900  0.74181292  1
  Nb  Nb23  1  0.27807304  0.74181292  0.70204100  1
  Nb  Nb24  1  0.91884668  0.63092045  0.53138620  1
  Nb  Nb25  1  0.45023287  0.46861380  0.63092045  1
  Nb  Nb26  1  0.54976713  0.53138620  0.36907955  1
  Nb  Nb27  1  0.08115332  0.36907955  0.46861380  1
  Nb  Nb28  1  0.00000000  0.00000000  0.00000000  1
