# generated using pymatgen
data_B5H8
_symmetry_space_group_name_H-M   'P 1'
_cell_length_a   6.06112658
_cell_length_b   11.41239209
_cell_length_c   15.18370510
_cell_angle_alpha   90.00000000
_cell_angle_beta   90.00000000
_cell_angle_gamma   90.00000000
_symmetry_Int_Tables_number   1
_chemical_formula_structural   B5H8
_chemical_formula_sum   'B40 H64'
_cell_volume   1050.28653612
_cell_formula_units_Z   8
loop_
 _symmetry_equiv_pos_site_id
 _symmetry_equiv_pos_as_xyz
  1  'x, y, z'
loop_
 _atom_site_type_symbol
 _atom_site_label
 _atom_site_symmetry_multiplicity
 _atom_site_fract_x
 _atom_site_fract_y
 _atom_site_fract_z
 _atom_site_occupancy
  H  H0  1  0.98565486  0.04518484  0.91496264  1
  H  H1  1  0.01434514  0.95481516  0.41496264  1
  H  H2  1  0.51434514  0.54518484  0.91496264  1
  H  H3  1  0.48565486  0.45481516  0.41496264  1
  H  H4  1  0.07202339  0.11616574  0.80590932  1
  H  H5  1  0.92797661  0.88383426  0.30590932  1
  H  H6  1  0.42797661  0.61616574  0.80590932  1
  H  H7  1  0.57202339  0.38383426  0.30590932  1
  H  H8  1  0.13497994  0.00729012  0.03261653  1
  H  H9  1  0.86502006  0.99270988  0.53261653  1
  H  H10  1  0.36502006  0.50729012  0.03261653  1
  H  H11  1  0.63497994  0.49270988  0.53261653  1
  H  H12  1  0.91210025  0.21874666  0.89610186  1
  H  H13  1  0.08789975  0.78125334  0.39610186  1
  H  H14  1  0.58789975  0.71874666  0.89610186  1
  H  H15  1  0.41210025  0.28125334  0.39610186  1
  H  H16  1  0.57473056  0.97452898  0.89047523  1
  H  H17  1  0.42526944  0.02547102  0.39047523  1
  H  H18  1  0.92526944  0.47452898  0.89047523  1
  H  H19  1  0.07473056  0.52547102  0.39047523  1
  H  H20  1  0.42421189  0.23162317  0.96587962  1
  H  H21  1  0.57578811  0.76837683  0.46587962  1
  H  H22  1  0.07578811  0.73162317  0.96587962  1
  H  H23  1  0.92421189  0.26837683  0.46587962  1
  H  H24  1  0.61716821  0.39703476  0.77196778  1
  H  H25  1  0.33165037  0.02056189  0.80380592  1
  H  H26  1  0.38283179  0.60296524  0.27196778  1
  H  H27  1  0.11716821  0.10296524  0.27196778  1
  H  H28  1  0.10706232  0.37433166  0.67135254  1
  H  H29  1  0.89293768  0.62566834  0.17135254  1
  H  H30  1  0.39293768  0.87433166  0.67135254  1
  H  H31  1  0.60706232  0.12566834  0.17135254  1
  H  H32  1  0.26986234  0.11391935  0.57364816  1
  H  H33  1  0.73013766  0.88608065  0.07364816  1
  H  H34  1  0.23013766  0.61391935  0.57364816  1
  H  H35  1  0.76986234  0.38608065  0.07364816  1
  H  H36  1  0.77914758  0.13753562  0.67414672  1
  H  H37  1  0.22085242  0.86246438  0.17414672  1
  H  H38  1  0.72085242  0.63753562  0.67414672  1
  H  H39  1  0.27914758  0.36246438  0.17414672  1
  H  H40  1  0.06530210  0.29933381  0.08097679  1
  H  H41  1  0.93469790  0.70066619  0.58097679  1
  H  H42  1  0.43469790  0.79933381  0.08097679  1
  H  H43  1  0.56530210  0.20066619  0.58097679  1
  H  H44  1  0.93863861  0.09682279  0.15704269  1
  H  H45  1  0.06136139  0.90317721  0.65704269  1
  H  H46  1  0.56136139  0.59682279  0.15704269  1
  H  H47  1  0.43863861  0.40317721  0.65704269  1
  H  H48  1  0.74442636  0.55034987  0.41269538  1
  H  H49  1  0.25557364  0.44965013  0.91269538  1
  H  H50  1  0.75557364  0.05034987  0.41269538  1
  H  H51  1  0.24442636  0.94965013  0.91269538  1
  H  H52  1  0.80148181  0.20759782  0.07977337  1
  H  H53  1  0.19851819  0.79240218  0.57977337  1
  H  H54  1  0.69851819  0.70759782  0.07977337  1
  H  H55  1  0.30148181  0.29240218  0.57977337  1
  H  H56  1  0.20116399  0.18889411  0.15828551  1
  H  H57  1  0.79883601  0.81110589  0.65828551  1
  H  H58  1  0.29883601  0.68889411  0.15828551  1
  H  H59  1  0.70116399  0.31110589  0.65828551  1
  H  H60  1  0.83165037  0.47943811  0.30380592  1
  H  H61  1  0.16834963  0.52056189  0.80380592  1
  H  H62  1  0.66834963  0.97943811  0.30380592  1
  H  H63  1  0.88283179  0.89703476  0.77196778  1
  B  B64  1  0.06224115  0.15183040  0.88957497  1
  B  B65  1  0.93775885  0.84816960  0.38957497  1
  B  B66  1  0.43775885  0.65183040  0.88957497  1
  B  B67  1  0.56224115  0.34816960  0.38957497  1
  B  B68  1  0.17606867  0.04208564  0.96041789  1
  B  B69  1  0.82393133  0.95791436  0.46041789  1
  B  B70  1  0.32393133  0.54208564  0.96041789  1
  B  B71  1  0.67606867  0.45791436  0.46041789  1
  B  B72  1  0.40377942  0.02587503  0.88676366  1
  B  B73  1  0.59622058  0.97412497  0.38676366  1
  B  B74  1  0.09622058  0.52587503  0.88676366  1
  B  B75  1  0.90377942  0.47412497  0.38676366  1
  B  B76  1  0.29342559  0.13801396  0.81508971  1
  B  B77  1  0.70657441  0.86198604  0.31508971  1
  B  B78  1  0.20657441  0.63801396  0.81508971  1
  B  B79  1  0.79342559  0.36198604  0.31508971  1
  B  B80  1  0.32621939  0.15863525  0.92563855  1
  B  B81  1  0.67378061  0.84136475  0.42563855  1
  B  B82  1  0.17378061  0.65863525  0.92563855  1
  B  B83  1  0.82621939  0.34136475  0.42563855  1
  B  B84  1  0.54042288  0.33467117  0.71700628  1
  B  B85  1  0.45957712  0.66532883  0.21700628  1
  B  B86  1  0.95957712  0.83467117  0.71700628  1
  B  B87  1  0.04042288  0.16532883  0.21700628  1
  B  B88  1  0.27670058  0.32222573  0.66537665  1
  B  B89  1  0.72329942  0.67777427  0.16537665  1
  B  B90  1  0.22329942  0.82222573  0.66537665  1
  B  B91  1  0.77670058  0.17777427  0.16537665  1
  B  B92  1  0.36090848  0.18833341  0.61488892  1
  B  B93  1  0.63909152  0.81166659  0.11488892  1
  B  B94  1  0.13909152  0.68833341  0.61488892  1
  B  B95  1  0.86090848  0.31166659  0.11488892  1
  B  B96  1  0.62339712  0.20045731  0.66701930  1
  B  B97  1  0.37660288  0.79954269  0.16701930  1
  B  B98  1  0.87660288  0.70045731  0.66701930  1
  B  B99  1  0.12339712  0.29954269  0.16701930  1
  B  B100  1  0.38502171  0.21057918  0.72568399  1
  B  B101  1  0.61497829  0.78942082  0.22568399  1
  B  B102  1  0.11497829  0.71057918  0.72568399  1
  B  B103  1  0.88502171  0.28942082  0.22568399  1
