# generated using pymatgen
data_Cr4(PO4)3
_symmetry_space_group_name_H-M   'P 1'
_cell_length_a   8.85273958
_cell_length_b   8.85273933
_cell_length_c   6.80955924
_cell_angle_alpha   71.48046562
_cell_angle_beta   108.51953387
_cell_angle_gamma   89.12516539
_symmetry_Int_Tables_number   1
_chemical_formula_structural   Cr4(PO4)3
_chemical_formula_sum   'Cr8 P6 O24'
_cell_volume   475.81009570
_cell_formula_units_Z   2
loop_
 _symmetry_equiv_pos_site_id
 _symmetry_equiv_pos_as_xyz
  1  'x, y, z'
loop_
 _atom_site_type_symbol
 _atom_site_label
 _atom_site_symmetry_multiplicity
 _atom_site_fract_x
 _atom_site_fract_y
 _atom_site_fract_z
 _atom_site_occupancy
  Cr  Cr0  1  0.06308274  0.62130866  0.63184497  1
  Cr  Cr1  1  0.93691726  0.37869134  0.36815503  1
  Cr  Cr2  1  0.49679906  0.49679906  0.75000000  1
  Cr  Cr3  1  0.25398814  0.25398814  0.25000000  1
  Cr  Cr4  1  0.37869134  0.93691726  0.13184497  1
  Cr  Cr5  1  0.50320094  0.50320094  0.25000000  1
  Cr  Cr6  1  0.62130866  0.06308274  0.86815503  1
  Cr  Cr7  1  0.74601186  0.74601186  0.75000000  1
  P  P8  1  0.87272896  0.35215433  0.87494075  1
  P  P9  1  0.28005143  0.28005143  0.75000000  1
  P  P10  1  0.12727104  0.64784567  0.12505925  1
  P  P11  1  0.71994857  0.71994857  0.25000000  1
  P  P12  1  0.35215433  0.87272896  0.62505925  1
  P  P13  1  0.64784567  0.12727104  0.37494075  1
  O  O14  1  0.20207539  0.79897096  0.13353598  1
  O  O15  1  0.67172877  0.00171320  0.60616066  1
  O  O16  1  0.45993358  0.26828779  0.75100451  1
  O  O17  1  0.16689667  0.25914273  0.54043376  1
  O  O18  1  0.26828779  0.45993358  0.74899549  1
  O  O19  1  0.95463770  0.41104489  0.69499975  1
  O  O20  1  0.26287407  0.50689140  0.17547295  1
  O  O21  1  0.99828680  0.32827123  0.10616066  1
  O  O22  1  0.73171221  0.54006642  0.25100451  1
  O  O23  1  0.32827123  0.99828680  0.39383934  1
  O  O24  1  0.79897096  0.20207539  0.36646402  1
  O  O25  1  0.50689140  0.26287407  0.32452705  1
  O  O26  1  0.79792461  0.20102904  0.86646402  1
  O  O27  1  0.74085727  0.83310333  0.04043376  1
  O  O28  1  0.20102904  0.79792461  0.63353598  1
  O  O29  1  0.54006642  0.73171221  0.24899549  1
  O  O30  1  0.25914273  0.16689667  0.95956624  1
  O  O31  1  0.83310333  0.74085727  0.45956624  1
  O  O32  1  0.49310860  0.73712593  0.67547295  1
  O  O33  1  0.41104489  0.95463770  0.80500025  1
  O  O34  1  0.00171320  0.67172877  0.89383934  1
  O  O35  1  0.73712593  0.49310860  0.82452705  1
  O  O36  1  0.04536230  0.58895411  0.30500025  1
  O  O37  1  0.58895411  0.04536230  0.19499975  1
