# generated using pymatgen
data_Li2MnP2O7
_symmetry_space_group_name_H-M   'P 1'
_cell_length_a   6.69601711
_cell_length_b   10.46932064
_cell_length_c   9.40467689
_cell_angle_alpha   66.45797895
_cell_angle_beta   107.23069885
_cell_angle_gamma   91.57569203
_symmetry_Int_Tables_number   1
_chemical_formula_structural   Li2MnP2O7
_chemical_formula_sum   'Li8 Mn4 P8 O28'
_cell_volume   574.17895128
_cell_formula_units_Z   4
loop_
 _symmetry_equiv_pos_site_id
 _symmetry_equiv_pos_as_xyz
  1  'x, y, z'
loop_
 _atom_site_type_symbol
 _atom_site_label
 _atom_site_symmetry_multiplicity
 _atom_site_fract_x
 _atom_site_fract_y
 _atom_site_fract_z
 _atom_site_occupancy
  Li  Li0  1  0.03982583  0.47498169  0.23989116  1
  Li  Li1  1  0.63825272  0.37999804  0.07578437  1
  Li  Li2  1  0.21500028  0.83063804  0.12352209  1
  Li  Li3  1  0.59506158  0.03428683  0.49690801  1
  Li  Li4  1  0.17204312  0.97150698  0.47761902  1
  Li  Li5  1  0.88179351  0.08560949  0.90450161  1
  Li  Li6  1  0.34556536  0.61812736  0.92763436  1
  Li  Li7  1  0.91804719  0.49702977  0.85914501  1
  O  O8  1  0.62544285  0.53198635  0.14982825  1
  O  O9  1  0.45170360  0.79942932  0.90202631  1
  O  O10  1  0.72491528  0.83967691  0.66683275  1
  O  O11  1  0.03488698  0.65980132  0.88904302  1
  O  O12  1  0.09060890  0.15626262  0.05234564  1
  O  O13  1  0.56095546  0.20060027  0.08250493  1
  O  O14  1  0.27156066  0.17459050  0.32309498  1
  O  O15  1  0.95939419  0.35653693  0.09986022  1
  O  O16  1  0.02409494  0.31483131  0.44878020  1
  O  O17  1  0.92049963  0.86980403  0.92784863  1
  O  O18  1  0.92237972  0.09821974  0.27680152  1
  O  O19  1  0.03809017  0.70404621  0.26470921  1
  O  O20  1  0.35383900  0.46330896  0.30453834  1
  O  O21  1  0.38693597  0.03803127  0.65726808  1
  O  O22  1  0.52944728  0.69068193  0.26773522  1
  O  O23  1  0.68999593  0.20777690  0.51067333  1
  O  O24  1  0.95202293  0.72080441  0.50664082  1
  O  O25  1  0.24619860  0.55058091  0.54575286  1
  O  O26  1  0.73920658  0.46025424  0.45889952  1
  O  O27  1  0.28482223  0.81132035  0.44190308  1
  O  O28  1  0.28554466  0.00495187  0.91553246  1
  O  O29  1  0.44803581  0.32190914  0.71617879  1
  O  O30  1  0.61491528  0.96679869  0.32622582  1
  O  O31  1  0.96278579  0.26642481  0.72145808  1
  O  O32  1  0.63424143  0.54602915  0.69477326  1
  O  O33  1  0.08974461  0.90763196  0.70767764  1
  O  O34  1  0.37496113  0.46777331  0.85708159  1
  O  O35  1  0.73673587  0.98935526  0.08244118  1
  P  P36  1  0.93040664  0.81088775  0.80292158  1
  P  P37  1  0.31875193  0.94162351  0.80216186  1
  P  P38  1  0.43711871  0.47168843  0.71029272  1
  P  P39  1  0.86356621  0.30145898  0.53939133  1
  P  P40  1  0.07120010  0.20617206  0.18013216  1
  P  P41  1  0.69344679  0.05940175  0.18714287  1
  P  P42  1  0.12090063  0.70555976  0.43663074  1
  P  P43  1  0.55167750  0.53566194  0.28931219  1
  Mn  Mn44  1  0.36306597  0.26191165  0.50748829  1
  Mn  Mn45  1  0.72950397  0.78437441  0.09448989  1
  Mn  Mn46  1  0.27861211  0.21624269  0.89359208  1
  Mn  Mn47  1  0.63104494  0.74865550  0.48879568  1
