# generated using pymatgen
data_Li2PS3
_symmetry_space_group_name_H-M   'P 1'
_cell_length_a   6.16365275
_cell_length_b   12.31863328
_cell_length_c   6.43985521
_cell_angle_alpha   90.00000000
_cell_angle_beta   90.00000000
_cell_angle_gamma   120.02329061
_symmetry_Int_Tables_number   1
_chemical_formula_structural   Li2PS3
_chemical_formula_sum   'Li8 P4 S12'
_cell_volume   423.35573914
_cell_formula_units_Z   4
loop_
 _symmetry_equiv_pos_site_id
 _symmetry_equiv_pos_as_xyz
  1  'x, y, z'
loop_
 _atom_site_type_symbol
 _atom_site_label
 _atom_site_symmetry_multiplicity
 _atom_site_fract_x
 _atom_site_fract_y
 _atom_site_fract_z
 _atom_site_occupancy
  Li  Li0  1  0.33945718  0.83325602  0.99973747  1
  Li  Li1  1  0.32705487  0.83325602  0.49973747  1
  Li  Li2  1  0.67294513  0.66674398  0.50026153  1
  Li  Li3  1  0.32705487  0.33325602  0.00026253  1
  Li  Li4  1  0.66054282  0.66674398  0.00026253  1
  Li  Li5  1  0.33945718  0.33325602  0.50026153  1
  Li  Li6  1  0.66054282  0.16674398  0.49973747  1
  Li  Li7  1  0.67294513  0.16674398  0.99973747  1
  P  P8  1  0.00005977  0.50000000  0.79614022  1
  P  P9  1  0.99994023  0.00000000  0.20385978  1
  P  P10  1  0.00005977  0.00000000  0.70385978  1
  P  P11  1  0.99994023  0.50000000  0.29614022  1
  S  S12  1  0.00008431  0.66409237  0.25021264  1
  S  S13  1  0.32810043  0.66409237  0.75021264  1
  S  S14  1  0.99991569  0.33590763  0.75021264  1
  S  S15  1  0.32825961  0.50000000  0.25497378  1
  S  S16  1  0.67189957  0.83590763  0.24978736  1
  S  S17  1  0.00008431  0.16409237  0.24978736  1
  S  S18  1  0.32810043  0.16409237  0.74978736  1
  S  S19  1  0.99991569  0.83590763  0.74978736  1
  S  S20  1  0.67174039  0.50000000  0.75497378  1
  S  S21  1  0.32825961  0.00000000  0.24502622  1
  S  S22  1  0.67189957  0.33590763  0.25021264  1
  S  S23  1  0.67174039  0.00000000  0.74502622  1
