# generated using pymatgen
data_LiMoP2O7
_symmetry_space_group_name_H-M   'P 1'
_cell_length_a   7.18458242
_cell_length_b   8.55482278
_cell_length_c   9.10474710
_cell_angle_alpha   90.00000000
_cell_angle_beta   112.57351611
_cell_angle_gamma   90.00000000
_symmetry_Int_Tables_number   1
_chemical_formula_structural   LiMoP2O7
_chemical_formula_sum   'Li4 Mo4 P8 O28'
_cell_volume   516.73103346
_cell_formula_units_Z   4
loop_
 _symmetry_equiv_pos_site_id
 _symmetry_equiv_pos_as_xyz
  1  'x, y, z'
loop_
 _atom_site_type_symbol
 _atom_site_label
 _atom_site_symmetry_multiplicity
 _atom_site_fract_x
 _atom_site_fract_y
 _atom_site_fract_z
 _atom_site_occupancy
  Li  Li0  1  0.11974525  0.95617380  0.83609951  1
  Li  Li1  1  0.38025427  0.45617463  0.66390052  1
  Li  Li2  1  0.61974506  0.54382606  0.33609936  1
  Li  Li3  1  0.88025407  0.04382572  0.16390037  1
  O  O4  1  0.07824366  0.87863913  0.19400517  1
  O  O5  1  0.83616970  0.11344952  0.41246824  1
  O  O6  1  0.66033879  0.23331979  0.04829349  1
  O  O7  1  0.83966034  0.73332014  0.45170624  1
  O  O8  1  0.14278282  0.59683391  0.65640327  1
  O  O9  1  0.16383114  0.88655118  0.58753210  1
  O  O10  1  0.33966053  0.76667973  0.95170639  1
  O  O11  1  0.16033899  0.26668056  0.54829364  1
  O  O12  1  0.33616839  0.38655083  0.91246793  1
  O  O13  1  0.14942229  0.65719037  0.39927839  1
  O  O14  1  0.35721821  0.09683356  0.84359721  1
  O  O15  1  0.85721801  0.40316679  0.34359707  1
  O  O16  1  0.08090398  0.23167274  0.19556520  1
  O  O17  1  0.10575857  0.59135021  0.12414747  1
  O  O18  1  0.64942346  0.84280949  0.89927934  1
  O  O19  1  0.39424109  0.09135104  0.37585192  1
  O  O20  1  0.57824332  0.62136074  0.69400456  1
  O  O21  1  0.58090515  0.26832761  0.69556615  1
  O  O22  1  0.66383094  0.61344869  0.08753195  1
  O  O23  1  0.42175752  0.37863878  0.30599578  1
  O  O24  1  0.60575823  0.90864965  0.62414796  1
  O  O25  1  0.35057737  0.15719003  0.10072100  1
  O  O26  1  0.89424075  0.40864931  0.87585241  1
  O  O27  1  0.91909534  0.76832678  0.80443468  1
  O  O28  1  0.92175718  0.12136039  0.80599517  1
  O  O29  1  0.64278262  0.90316714  0.15640312  1
  O  O30  1  0.85057704  0.34280915  0.60072149  1
  O  O31  1  0.41909568  0.73167309  0.30443419  1
  P  P32  1  0.92874418  0.27366958  0.47012343  1
  P  P33  1  0.57125645  0.77366875  0.02987676  1
  P  P34  1  0.81265771  0.27147944  0.75145327  1
  P  P35  1  0.68734279  0.77147979  0.74854646  1
  P  P36  1  0.07125514  0.72633112  0.52987645  1
  P  P37  1  0.42874438  0.22633077  0.97012358  1
  P  P38  1  0.31265805  0.22852091  0.25145388  1
  P  P39  1  0.18734161  0.72852126  0.24854661  1
  Mo  Mo40  1  0.12843968  0.57964117  0.88723017  1
  Mo  Mo41  1  0.37155984  0.07964082  0.61276986  1
  Mo  Mo42  1  0.62843948  0.92035870  0.38723002  1
  Mo  Mo43  1  0.87156115  0.42035835  0.11277017  1
