# generated using pymatgen
data_Fe5(P3O11)2
_symmetry_space_group_name_H-M   'P 1'
_cell_length_a   12.59204475
_cell_length_b   6.81870408
_cell_length_c   10.59689109
_cell_angle_alpha   90.00000000
_cell_angle_beta   105.44309475
_cell_angle_gamma   90.00000000
_symmetry_Int_Tables_number   1
_chemical_formula_structural   Fe5(P3O11)2
_chemical_formula_sum   'Fe10 P12 O44'
_cell_volume   877.01390238
_cell_formula_units_Z   2
loop_
 _symmetry_equiv_pos_site_id
 _symmetry_equiv_pos_as_xyz
  1  'x, y, z'
loop_
 _atom_site_type_symbol
 _atom_site_label
 _atom_site_symmetry_multiplicity
 _atom_site_fract_x
 _atom_site_fract_y
 _atom_site_fract_z
 _atom_site_occupancy
  O  O0  1  0.84710504  0.56359441  0.17207621  1
  O  O1  1  1.00091467  0.21519744  0.13894018  1
  O  O2  1  0.99711924  0.79902344  0.14153967  1
  O  O3  1  1.00091520  0.28480268  0.63893995  1
  O  O4  1  0.99711978  0.70097693  0.64154038  1
  O  O5  1  0.83619198  0.92519493  0.22644436  1
  O  O6  1  0.83872903  0.51368568  0.44223674  1
  O  O7  1  0.72981452  0.21357671  0.04910464  1
  O  O8  1  0.84710556  0.93640596  0.67207598  1
  O  O9  1  0.83619251  0.57480544  0.72644413  1
  O  O10  1  -0.00091500  0.78480281  0.86105980  1
  O  O11  1  0.00288043  0.20097681  0.85846031  1
  O  O12  1  -0.00091470  0.71519756  0.36105935  1
  O  O13  1  0.00288072  0.29902332  0.35845986  1
  O  O14  1  0.15289464  0.43640584  0.82792377  1
  O  O15  1  0.16380769  0.07480531  0.77355562  1
  O  O16  1  0.16127064  0.48631457  0.55776324  1
  O  O17  1  0.27018598  0.78642354  0.95089560  1
  O  O18  1  0.15289494  0.06359428  0.32792426  1
  O  O19  1  0.16380799  0.42519481  0.27355517  1
  O  O20  1  0.24741100  0.78279446  0.68225981  1
  O  O21  1  0.16127094  0.01368555  0.05776280  1
  O  O22  1  0.27018545  0.71357683  0.45089490  1
  O  O23  1  0.37798645  0.18690902  0.94795672  1
  O  O24  1  0.24741047  0.71720591  0.18226004  1
  O  O25  1  0.36923921  0.51483880  0.64732400  1
  O  O26  1  0.36935138  0.14591946  0.65811735  1
  O  O27  1  0.75258950  0.21720579  0.31774042  1
  O  O28  1  0.37798592  0.31309110  0.44795695  1
  O  O29  1  0.36923869  0.98516133  0.14732424  1
  O  O30  1  0.36935169  0.35408066  0.15811783  1
  O  O31  1  0.45856881  0.66512068  0.34886399  1
  O  O32  1  0.54143169  0.33487957  0.65113625  1
  O  O33  1  0.63064799  0.64591959  0.84188215  1
  O  O34  1  0.63076098  0.01483892  0.85267574  1
  O  O35  1  0.62201375  0.68690914  0.55204303  1
  O  O36  1  0.54143116  0.16512056  0.15113554  1
  O  O37  1  0.63064829  0.85408078  0.34188263  1
  O  O38  1  0.63076128  0.48516145  0.35267530  1
  O  O39  1  0.75258920  0.28279433  0.81773994  1
  O  O40  1  0.62201405  0.81309123  0.05204258  1
  O  O41  1  0.72981421  0.28642342  0.54910415  1
  O  O42  1  0.83872956  0.98631323  0.94223744  1
  O  O43  1  0.45856852  0.83487969  0.84886444  1
  P  P44  1  0.25824472  0.62759198  0.58018135  1
  P  P45  1  0.25824418  0.87240839  0.08018065  1
  P  P46  1  0.41763103  0.31588214  0.59766662  1
  P  P47  1  0.58236917  0.81588226  0.90233313  1
  P  P48  1  0.41763050  0.18411799  0.09766685  1
  P  P49  1  0.08810243  0.24823340  0.27687925  1
  P  P50  1  0.58236948  0.68411811  0.40233362  1
  P  P51  1  0.74175549  0.12759185  0.91981933  1
  P  P52  1  0.74175578  0.37240827  0.41981888  1
  P  P53  1  0.91189725  0.75176685  0.72312073  1
  P  P54  1  0.08810212  0.25176673  0.77687876  1
  P  P55  1  0.91189755  0.74823352  0.22312122  1
  Fe  Fe56  1  0.85943324  0.27878172  0.20227330  1
  Fe  Fe57  1  0.85943294  0.22121840  0.70227281  1
  Fe  Fe58  1  0.66845230  0.98973405  0.20096963  1
  Fe  Fe59  1  0.66845201  0.51026632  0.70097008  1
  Fe  Fe60  1  0.33154766  0.48973393  0.29902990  1
  Fe  Fe61  1  0.33154820  0.01026619  0.79903061  1
  Fe  Fe62  1  0.14056674  0.77878184  0.29772717  1
  Fe  Fe63  1  0.00000000  0.00000000  0.00000000  1
  Fe  Fe64  1  0.14056643  0.72121853  0.79772668  1
  Fe  Fe65  1  0.99999970  0.50000012  0.49999951  1
