# generated using pymatgen
data_LiVPO5
_symmetry_space_group_name_H-M   'P 1'
_cell_length_a   6.36600474
_cell_length_b   6.36649577
_cell_length_c   9.11196497
_cell_angle_alpha   90.00000000
_cell_angle_beta   90.00000000
_cell_angle_gamma   90.00000000
_symmetry_Int_Tables_number   1
_chemical_formula_structural   LiVPO5
_chemical_formula_sum   'Li4 V4 P4 O20'
_cell_volume   369.30012444
_cell_formula_units_Z   4
loop_
 _symmetry_equiv_pos_site_id
 _symmetry_equiv_pos_as_xyz
  1  'x, y, z'
loop_
 _atom_site_type_symbol
 _atom_site_label
 _atom_site_symmetry_multiplicity
 _atom_site_fract_x
 _atom_site_fract_y
 _atom_site_fract_z
 _atom_site_occupancy
  Li  Li0  1  0.48403301  0.01320289  0.49180436  1
  Li  Li1  1  0.48403301  0.48679762  0.99180379  1
  Li  Li2  1  0.98403262  0.51320341  0.50819558  1
  Li  Li3  1  0.98403262  0.98679656  0.00819615  1
  O  O4  1  0.26050530  0.94913430  0.65122509  1
  O  O5  1  0.05178778  0.76233788  0.85124386  1
  O  O6  1  0.23327761  0.55634256  0.64824796  1
  O  O7  1  0.23327761  0.94365741  0.14824853  1
  O  O8  1  0.25578126  0.24014905  0.39059413  1
  O  O9  1  0.25578126  0.25984988  0.89059356  1
  O  O10  1  0.26050530  0.55086567  0.15122457  1
  O  O11  1  0.05178778  0.73766209  0.35124443  1
  O  O12  1  0.44461616  0.73511279  0.84943335  1
  O  O13  1  0.44461616  0.76488718  0.34943283  1
  O  O14  1  0.55178740  0.23766158  0.64875551  1
  O  O15  1  0.55178740  0.26233736  0.14875608  1
  O  O16  1  0.94461735  0.26488667  0.65056712  1
  O  O17  1  0.73327880  0.44365689  0.85175251  1
  O  O18  1  0.75578245  0.74014957  0.60940581  1
  O  O19  1  0.75578245  0.75985040  0.10940638  1
  O  O20  1  0.76050491  0.05086673  0.84877537  1
  O  O21  1  0.76050491  0.44913379  0.34877486  1
  O  O22  1  0.94461735  0.23511227  0.15056769  1
  O  O23  1  0.73327880  0.05634362  0.35175199  1
  P  P24  1  0.24749344  0.74859404  0.25003559  1
  P  P25  1  0.24749344  0.75140593  0.75003502  1
  P  P26  1  0.74749305  0.24859352  0.74996436  1
  P  P27  1  0.74749305  0.25140541  0.24996493  1
  V  V28  1  0.24850333  0.24666103  0.20992995  1
  V  V29  1  0.24850333  0.25333949  0.70993047  1
  V  V30  1  0.74850294  0.74666154  0.79007000  1
  V  V31  1  0.74850294  0.75334001  0.29006948  1
