# generated using pymatgen
data_CrBrO
_symmetry_space_group_name_H-M   'P 1'
_cell_length_a   3.35035017
_cell_length_b   3.94272092
_cell_length_c   8.88536241
_cell_angle_alpha   90.00000000
_cell_angle_beta   90.00000000
_cell_angle_gamma   90.00000000
_symmetry_Int_Tables_number   1
_chemical_formula_structural   CrBrO
_chemical_formula_sum   'Cr2 Br2 O2'
_cell_volume   117.37115659
_cell_formula_units_Z   2
loop_
 _symmetry_equiv_pos_site_id
 _symmetry_equiv_pos_as_xyz
  1  'x, y, z'
loop_
 _atom_site_type_symbol
 _atom_site_label
 _atom_site_symmetry_multiplicity
 _atom_site_fract_x
 _atom_site_fract_y
 _atom_site_fract_z
 _atom_site_occupancy
  O  O0  1  0.75000145  0.24999983  0.95504626  1
  O  O1  1  0.25000149  0.74999949  0.04495334  1
  Cr  Cr2  1  0.25000149  0.24999983  0.09500637  1
  Cr  Cr3  1  0.75000145  0.74999949  0.90499323  1
  Br  Br4  1  0.25000149  0.74999949  0.69406443  1
  Br  Br5  1  0.75000145  0.24999983  0.30593630  1
