# generated using pymatgen
data_CrPO4
_symmetry_space_group_name_H-M   'P 1'
_cell_length_a   9.92786665
_cell_length_b   5.74392595
_cell_length_c   4.78424354
_cell_angle_alpha   90.00000000
_cell_angle_beta   90.00000000
_cell_angle_gamma   90.00000000
_symmetry_Int_Tables_number   1
_chemical_formula_structural   CrPO4
_chemical_formula_sum   'Cr4 P4 O16'
_cell_volume   272.82115718
_cell_formula_units_Z   4
loop_
 _symmetry_equiv_pos_site_id
 _symmetry_equiv_pos_as_xyz
  1  'x, y, z'
loop_
 _atom_site_type_symbol
 _atom_site_label
 _atom_site_symmetry_multiplicity
 _atom_site_fract_x
 _atom_site_fract_y
 _atom_site_fract_z
 _atom_site_occupancy
  O  O0  1  0.55871515  0.74999973  0.82675936  1
  O  O1  1  0.88724713  0.74999973  0.28794290  1
  O  O2  1  0.83260391  0.95807579  0.75483952  1
  O  O3  1  0.83260391  0.54192367  0.75483952  1
  O  O4  1  0.05871492  0.74999973  0.67324045  1
  O  O5  1  0.11275332  0.25000049  0.71205557  1
  O  O6  1  0.16739552  0.04192443  0.24516106  1
  O  O7  1  0.16739552  0.45807480  0.24516106  1
  O  O8  1  0.33260369  0.54192367  0.74516029  1
  O  O9  1  0.66739574  0.45807480  0.25483818  1
  O  O10  1  0.38724691  0.74999973  0.21205634  1
  O  O11  1  0.44128530  0.25000049  0.17324121  1
  O  O12  1  0.94128552  0.25000049  0.32675802  1
  O  O13  1  0.61275354  0.25000049  0.78794424  1
  O  O14  1  0.66739574  0.04192443  0.25483818  1
  O  O15  1  0.33260369  0.95807579  0.74516029  1
  P  P16  1  0.09040007  0.25000049  0.39773945  1
  P  P17  1  0.40959914  0.74999973  0.89773868  1
  P  P18  1  0.59040029  0.25000049  0.10226189  1
  P  P19  1  0.90959936  0.74999973  0.60226113  1
  Cr  Cr20  1  0.77060723  0.25000049  0.54271229  1
  Cr  Cr21  1  0.72939242  0.74999973  0.04271306  1
  Cr  Cr22  1  0.27060701  0.25000049  0.95728752  1
  Cr  Cr23  1  0.22939321  0.74999973  0.45728828  1
