# generated using pymatgen
data_Li3Cr2(PO4)3
_symmetry_space_group_name_H-M   'P 1'
_cell_length_a   9.78440106
_cell_length_b   9.78440106
_cell_length_c   9.71739403
_cell_angle_alpha   86.15263882
_cell_angle_beta   93.84736118
_cell_angle_gamma   93.97972820
_symmetry_Int_Tables_number   1
_chemical_formula_structural   Li3Cr2(PO4)3
_chemical_formula_sum   'Li12 Cr8 P12 O48'
_cell_volume   924.13128869
_cell_formula_units_Z   4
loop_
 _symmetry_equiv_pos_site_id
 _symmetry_equiv_pos_as_xyz
  1  'x, y, z'
loop_
 _atom_site_type_symbol
 _atom_site_label
 _atom_site_symmetry_multiplicity
 _atom_site_fract_x
 _atom_site_fract_y
 _atom_site_fract_z
 _atom_site_occupancy
  Li  Li0  1  0.23764832  0.96251967  0.60553685  1
  Li  Li1  1  0.96251993  0.23764888  0.39446397  1
  Li  Li2  1  0.73062590  0.21575438  0.82700613  1
  Li  Li3  1  0.50227589  0.02462893  0.72609282  1
  Li  Li4  1  0.75322337  0.37795105  0.16842548  1
  Li  Li5  1  0.57022686  0.23337289  0.52602625  1
  Li  Li6  1  0.90933158  0.66942064  0.02241141  1
  Li  Li7  1  0.66942025  0.90933156  0.97758838  1
  Li  Li8  1  0.23337246  0.57022742  0.47397349  1
  Li  Li9  1  0.21575437  0.73062583  0.17299368  1
  Li  Li10  1  0.02462858  0.50227617  0.27390695  1
  Li  Li11  1  0.37795082  0.75322332  0.83157431  1
  O  O12  1  0.09041513  0.59765112  0.05866495  1
  O  O13  1  0.61702379  0.09218550  0.20653982  1
  O  O14  1  0.69731222  0.10271938  0.65709644  1
  O  O15  1  0.90922619  0.19919510  0.94293625  1
  O  O16  1  0.91323534  0.28136327  0.19036672  1
  O  O17  1  0.81853952  0.08458251  0.43497604  1
  O  O18  1  0.96115205  0.11659418  0.65140668  1
  O  O19  1  0.88282572  0.02672533  0.14166762  1
  O  O20  1  0.02672618  0.88282626  0.85833221  1
  O  O21  1  0.11659357  0.96115200  0.34859412  1
  O  O22  1  0.08458269  0.81853884  0.56502486  1
  O  O23  1  0.28136382  0.91323531  0.80963417  1
  O  O24  1  0.19919453  0.90922650  0.05706453  1
  O  O25  1  0.10271885  0.69731215  0.34290333  1
  O  O26  1  0.09218553  0.61702437  0.79346098  1
  O  O27  1  0.41073130  0.91839315  0.54898190  1
  O  O28  1  0.37807428  0.89120341  0.28494705  1
  O  O29  1  0.91839390  0.41073135  0.45101796  1
  O  O30  1  0.31102096  0.58904295  0.93625924  1
  O  O31  1  0.12239741  0.38969038  0.92297432  1
  O  O32  1  0.57471080  0.79564187  0.84273178  1
  O  O33  1  0.41183520  0.68621478  0.44083978  1
  O  O34  1  0.61153839  0.87445196  0.41430583  1
  O  O35  1  0.20784641  0.42285144  0.34568298  1
  O  O36  1  0.18719361  0.30790501  0.66584623  1
  O  O37  1  0.38975588  0.46761349  0.62794935  1
  O  O38  1  0.82622502  0.88951793  0.62858526  1
  O  O39  1  0.62297296  0.66819340  0.63754295  1
  O  O40  1  0.69360650  0.80700890  0.15792321  1
  O  O41  1  0.37644750  0.33346076  0.86193525  1
  O  O42  1  0.16203492  0.11236413  0.87525697  1
  O  O43  1  0.59594047  0.53489187  0.86337826  1
  O  O44  1  0.53489232  0.59594037  0.13662159  1
  O  O45  1  0.11236450  0.16203494  0.12474287  1
  O  O46  1  0.33346058  0.37644769  0.13806453  1
  O  O47  1  0.80700840  0.69360637  0.84207658  1
  O  O48  1  0.66819289  0.62297229  0.36245687  1
  O  O49  1  0.88951823  0.82622456  0.37141563  1
  O  O50  1  0.46761432  0.38975605  0.37205051  1
  O  O51  1  0.30790428  0.18719291  0.33415358  1
  O  O52  1  0.89120348  0.37807456  0.71505275  1
  O  O53  1  0.87445199  0.61153810  0.58569503  1
  O  O54  1  0.68621520  0.41183538  0.55916005  1
  O  O55  1  0.79564193  0.57471064  0.15726908  1
  O  O56  1  0.38968958  0.12239722  0.07702544  1
  O  O57  1  0.58904280  0.31102154  0.06374052  1
  O  O58  1  0.59765155  0.09041528  0.94133488  1
  O  O59  1  0.42285140  0.20784655  0.65431682  1
  P  P60  1  0.44869417  0.84470535  0.42594730  1
  P  P61  1  0.65015348  0.67411864  0.80085976  1
  P  P62  1  0.34404941  0.32516458  0.69732827  1
  P  P63  1  0.32516389  0.34405008  0.30267144  1
  P  P64  1  0.67411846  0.65015302  0.19914007  1
  P  P65  1  0.84470444  0.44869418  0.57405245  1
  P  P66  1  0.55131978  0.15263151  0.07010231  1
  P  P67  1  0.82286374  0.05155353  0.59492815  1
  P  P68  1  0.16937850  0.94996816  0.90083463  1
  P  P69  1  0.05155308  0.82286322  0.40507270  1
  P  P70  1  0.15263146  0.55131898  0.92989755  1
  P  P71  1  0.94996801  0.16937795  0.09916521  1
  Cr  Cr72  1  0.25306405  0.03207351  0.21719134  1
  Cr  Cr73  1  0.96395888  0.75221056  0.72039887  1
  Cr  Cr74  1  0.46677211  0.46677189  0.00000002  1
  Cr  Cr75  1  0.25012564  0.25012535  0.00000002  1
  Cr  Cr76  1  0.74953687  0.74953691  0.50000042  1
  Cr  Cr77  1  0.53195594  0.53195562  0.50000044  1
  Cr  Cr78  1  0.75221092  0.96395866  0.27960098  1
  Cr  Cr79  1  0.03207438  0.25306372  0.78280856  1
