# generated using pymatgen
data_Li3V2(PO4)3
_symmetry_space_group_name_H-M   'P 1'
_cell_length_a   8.78825475
_cell_length_b   8.78825476
_cell_length_c   8.62573346
_cell_angle_alpha   58.66171868
_cell_angle_beta   121.33828136
_cell_angle_gamma   119.18487890
_symmetry_Int_Tables_number   1
_chemical_formula_structural   Li3V2(PO4)3
_chemical_formula_sum   'Li6 V4 P6 O24'
_cell_volume   463.96627733
_cell_formula_units_Z   2
loop_
 _symmetry_equiv_pos_site_id
 _symmetry_equiv_pos_as_xyz
  1  'x, y, z'
loop_
 _atom_site_type_symbol
 _atom_site_label
 _atom_site_symmetry_multiplicity
 _atom_site_fract_x
 _atom_site_fract_y
 _atom_site_fract_z
 _atom_site_occupancy
  Li  Li0  1  0.23714365  0.83814793  0.75931563  1
  Li  Li1  1  0.16185134  0.76285711  0.25931492  1
  Li  Li2  1  0.00000069  0.50000040  0.00000027  1
  Li  Li3  1  0.83814822  0.23714301  0.74068459  1
  Li  Li4  1  0.50000063  0.00000035  0.49999994  1
  Li  Li5  1  0.76285724  0.16185218  0.24068461  1
  O  O6  1  0.25011897  0.59490867  0.22555068  1
  O  O7  1  0.01651941  0.87635106  0.43570023  1
  O  O8  1  0.09862762  0.56159917  0.76778206  1
  O  O9  1  0.40509103  0.74988082  0.72555054  1
  O  O10  1  0.18572926  0.54609036  0.53235627  1
  O  O11  1  0.31943761  0.38895742  0.89760046  1
  O  O12  1  0.77225391  0.94509216  0.74636830  1
  O  O13  1  0.43840082  0.90137219  0.26778225  1
  O  O14  1  0.12364984  0.98348045  0.93570069  1
  O  O15  1  0.45390909  0.81427032  0.03235629  1
  O  O16  1  0.61104210  0.68056180  0.39760062  1
  O  O17  1  0.05490782  0.22774501  0.24636896  1
  O  O18  1  0.94509131  0.77225371  0.75363107  1
  O  O19  1  0.38895745  0.31943832  0.60240006  1
  O  O20  1  0.87635105  0.01651966  0.06429954  1
  O  O21  1  0.74988059  0.40509145  0.77444883  1
  O  O22  1  0.56159965  0.09862651  0.73221851  1
  O  O23  1  0.22774564  0.05490796  0.25363121  1
  O  O24  1  0.68056195  0.61104270  0.10239905  1
  O  O25  1  0.81427030  0.45390976  0.46764325  1
  O  O26  1  0.59490852  0.25011930  0.27444897  1
  O  O27  1  0.90137327  0.43840093  0.23221817  1
  O  O28  1  0.98348014  0.12364906  0.56430045  1
  O  O29  1  0.54609046  0.18572980  0.96764322  1
  P  P30  1  0.25429719  0.55559176  0.73370341  1
  P  P31  1  0.95672256  0.95672227  0.75000060  1
  P  P32  1  0.44440762  0.74570318  0.23370297  1
  P  P33  1  0.55559193  0.25429694  0.76629654  1
  P  P34  1  0.04327834  0.04327783  0.25000081  1
  P  P35  1  0.74570236  0.44440836  0.26629611  1
  V  V36  1  0.63532270  0.85467634  0.92720339  1
  V  V37  1  0.14532331  0.36467695  0.42720348  1
  V  V38  1  0.85467624  0.63532317  0.57279604  1
  V  V39  1  0.36467685  0.14532378  0.07279613  1
