# generated using pymatgen
data_Na3(WO3)4
_symmetry_space_group_name_H-M   'P 1'
_cell_length_a   7.87581219
_cell_length_b   7.87581219
_cell_length_c   6.82065342
_cell_angle_alpha   54.73561032
_cell_angle_beta   54.73561032
_cell_angle_gamma   90.00000000
_symmetry_Int_Tables_number   1
_chemical_formula_structural   Na3(WO3)4
_chemical_formula_sum   'Na3 W4 O12'
_cell_volume   244.26208363
_cell_formula_units_Z   1
loop_
 _symmetry_equiv_pos_site_id
 _symmetry_equiv_pos_as_xyz
  1  'x, y, z'
loop_
 _atom_site_type_symbol
 _atom_site_label
 _atom_site_symmetry_multiplicity
 _atom_site_fract_x
 _atom_site_fract_y
 _atom_site_fract_z
 _atom_site_occupancy
  Na  Na0  1  0.00000000  0.50000000  0.00000000  1
  Na  Na1  1  0.50000000  0.00000000  0.00000000  1
  Na  Na2  1  0.50000000  0.50000000  0.00000000  1
  O  O3  1  0.25302886  0.74697114  0.00000000  1
  O  O4  1  0.25302886  0.25302886  0.00000000  1
  O  O5  1  0.00000000  0.25302886  0.49394228  1
  O  O6  1  0.00000000  0.74697114  0.50605772  1
  O  O7  1  0.25302886  0.00000000  0.49394228  1
  O  O8  1  0.25302886  0.50605772  0.49394228  1
  O  O9  1  0.74697114  0.25302886  0.00000000  1
  O  O10  1  0.74697114  0.74697114  0.00000000  1
  O  O11  1  0.50605772  0.25302886  0.49394228  1
  O  O12  1  0.49394228  0.74697114  0.50605772  1
  O  O13  1  0.74697114  0.49394228  0.50605772  1
  O  O14  1  0.74697114  0.00000000  0.50605772  1
  W  W15  1  0.00000000  0.00000000  0.50000000  1
  W  W16  1  0.00000000  0.50000000  0.50000000  1
  W  W17  1  0.50000000  0.00000000  0.50000000  1
  W  W18  1  0.50000000  0.50000000  0.50000000  1
