# generated using pymatgen
data_Al(HO)3
_symmetry_space_group_name_H-M   'P 1'
_cell_length_a   5.06575669
_cell_length_b   5.07027168
_cell_length_c   5.25734545
_cell_angle_alpha   106.88478300
_cell_angle_beta   96.29368116
_cell_angle_gamma   118.06661320
_symmetry_Int_Tables_number   1
_chemical_formula_structural   Al(HO)3
_chemical_formula_sum   'Al2 H6 O6'
_cell_volume   109.05945095
_cell_formula_units_Z   2
loop_
 _symmetry_equiv_pos_site_id
 _symmetry_equiv_pos_as_xyz
  1  'x, y, z'
loop_
 _atom_site_type_symbol
 _atom_site_label
 _atom_site_symmetry_multiplicity
 _atom_site_fract_x
 _atom_site_fract_y
 _atom_site_fract_z
 _atom_site_occupancy
  Al  Al0  1  0.16891603  0.32941090  0.00371096  1
  Al  Al1  1  0.83108397  0.67058910  0.99628904  1
  H  H2  1  0.06379086  0.63353671  0.41054216  1
  H  H3  1  0.93620914  0.36646329  0.58945784  1
  H  H4  1  0.54256144  0.91207320  0.20942927  1
  H  H5  1  0.28489873  0.17096804  0.40900581  1
  H  H6  1  0.71510127  0.82903196  0.59099419  1
  H  H7  1  0.45743856  0.08792680  0.79057073  1
  O  O8  1  0.05298302  0.51850464  0.78081036  1
  O  O9  1  0.19972223  0.08810877  0.20558678  1
  O  O10  1  0.56585136  0.73313287  0.21751325  1
  O  O11  1  0.43414864  0.26686713  0.78248675  1
  O  O12  1  0.80027777  0.91189123  0.79441322  1
  O  O13  1  0.94701698  0.48149536  0.21918964  1
