# generated using pymatgen
data_Ti3Fe7O15
_symmetry_space_group_name_H-M   'P 1'
_cell_length_a   5.51583885
_cell_length_b   5.51583853
_cell_length_c   27.82691511
_cell_angle_alpha   55.64433946
_cell_angle_beta   55.64434091
_cell_angle_gamma   55.72734709
_symmetry_Int_Tables_number   1
_chemical_formula_structural   Ti3Fe7O15
_chemical_formula_sum   'Ti6 Fe14 O30'
_cell_volume   538.53702290
_cell_formula_units_Z   2
loop_
 _symmetry_equiv_pos_site_id
 _symmetry_equiv_pos_as_xyz
  1  'x, y, z'
loop_
 _atom_site_type_symbol
 _atom_site_label
 _atom_site_symmetry_multiplicity
 _atom_site_fract_x
 _atom_site_fract_y
 _atom_site_fract_z
 _atom_site_occupancy
  Fe  Fe0  1  0.35433118  0.35338600  0.07095389  1
  Fe  Fe1  1  0.14925872  0.14973105  0.22853184  1
  Fe  Fe2  1  0.35895406  0.35998679  0.27214405  1
  Fe  Fe3  1  0.14723773  0.15067989  0.42926689  1
  Fe  Fe4  1  0.85370361  0.86643538  0.16974807  1
  Fe  Fe5  1  0.36322860  0.35773030  0.47237929  1
  Fe  Fe6  1  0.85061178  0.85256728  0.36933324  1
  Fe  Fe7  1  0.36643538  0.35370361  0.66974807  1
  Fe  Fe8  1  0.85338600  0.85433118  0.57095389  1
  Fe  Fe9  1  0.35256728  0.35061178  0.86933324  1
  Fe  Fe10  1  0.64973105  0.64925872  0.72853184  1
  Fe  Fe11  1  0.85998679  0.85895406  0.77214405  1
  Fe  Fe12  1  0.65067989  0.64723773  0.92926689  1
  Fe  Fe13  1  0.85773030  0.86322860  0.97237929  1
  O  O14  1  0.07110706  0.77186410  0.08122611  1
  O  O15  1  0.43273045  0.05017932  0.15063827  1
  O  O16  1  0.76981967  0.42647844  0.01165419  1
  O  O17  1  0.28087889  0.53672781  0.18522324  1
  O  O18  1  0.53221833  0.93644536  0.05820534  1
  O  O19  1  0.02809192  0.77228315  0.28860968  1
  O  O20  1  0.92978684  0.28727173  0.10786381  1
  O  O21  1  0.44266482  0.02773196  0.35603634  1
  O  O22  1  0.77568831  0.44699363  0.20459610  1
  O  O23  1  0.25780067  0.55897952  0.38517651  1
  O  O24  1  0.53595333  0.92557775  0.25720166  1
  O  O25  1  0.02135916  0.77852445  0.49061332  1
  O  O26  1  0.91187063  0.26846971  0.31220676  1
  O  O27  1  0.43644536  0.03221833  0.55820534  1
  O  O28  1  0.76989331  0.44169270  0.40739163  1
  O  O29  1  0.27186410  0.57110706  0.58122611  1
  O  O30  1  0.55912668  0.92095829  0.45275339  1
  O  O31  1  0.03672781  0.78087889  0.68522324  1
  O  O32  1  0.92647844  0.26981967  0.51165419  1
  O  O33  1  0.42557775  0.03595333  0.75720166  1
  O  O34  1  0.78727173  0.42978684  0.60786381  1
  O  O35  1  0.27228315  0.52809192  0.78860968  1
  O  O36  1  0.55017932  0.93273045  0.65063827  1
  O  O37  1  0.05897952  0.75780067  0.88517651  1
  O  O38  1  0.94699363  0.27568831  0.70459610  1
  O  O39  1  0.42095829  0.05912668  0.95275339  1
  O  O40  1  0.76846971  0.41187063  0.81220676  1
  O  O41  1  0.27852445  0.52135916  0.99061332  1
  O  O42  1  0.52773196  0.94266482  0.85603634  1
  O  O43  1  0.94169270  0.26989331  0.90739163  1
  Ti  Ti44  1  0.15592868  0.14688258  0.02620541  1
  Ti  Ti45  1  0.63191792  0.64273454  0.13364862  1
  Ti  Ti46  1  0.63601209  0.64951382  0.32839235  1
  Ti  Ti47  1  0.14273454  0.13191792  0.63364862  1
  Ti  Ti48  1  0.64688258  0.65592868  0.52620541  1
  Ti  Ti49  1  0.14951382  0.13601209  0.82839235  1
