# generated using pymatgen
data_Zr7(NO2)4
_symmetry_space_group_name_H-M   'P 1'
_cell_length_a   6.28890735
_cell_length_b   6.48686720
_cell_length_c   6.23137739
_cell_angle_alpha   99.86744544
_cell_angle_beta   99.13372314
_cell_angle_gamma   100.48192180
_symmetry_Int_Tables_number   1
_chemical_formula_structural   Zr7(NO2)4
_chemical_formula_sum   'Zr7 N4 O8'
_cell_volume   241.49234520
_cell_formula_units_Z   1
loop_
 _symmetry_equiv_pos_site_id
 _symmetry_equiv_pos_as_xyz
  1  'x, y, z'
loop_
 _atom_site_type_symbol
 _atom_site_label
 _atom_site_symmetry_multiplicity
 _atom_site_fract_x
 _atom_site_fract_y
 _atom_site_fract_z
 _atom_site_occupancy
  N  N0  1  0.07527752  0.68271763  0.93113650  1
  N  N1  1  0.40609107  0.81827248  0.56557534  1
  N  N2  1  0.59390893  0.18172752  0.43442466  1
  N  N3  1  0.92472248  0.31728237  0.06886350  1
  O  O4  1  0.08244960  0.95237108  0.32322644  1
  O  O5  1  0.16903983  0.40706076  0.57765489  1
  O  O6  1  0.32805236  0.10820597  0.94397974  1
  O  O7  1  0.42875135  0.56952064  0.18420233  1
  O  O8  1  0.57124865  0.43047936  0.81579767  1
  O  O9  1  0.67194764  0.89179403  0.05602026  1
  O  O10  1  0.83096017  0.59293924  0.42234511  1
  O  O11  1  0.91755040  0.04762892  0.67677356  1
  Zr  Zr12  1  0.12684465  0.61928630  0.27887372  1
  Zr  Zr13  1  0.00000000  0.00000000  0.00000000  1
  Zr  Zr14  1  0.38500346  0.67823745  0.84079858  1
  Zr  Zr15  1  0.32447895  0.13437706  0.60453752  1
  Zr  Zr16  1  0.67552105  0.86562294  0.39546248  1
  Zr  Zr17  1  0.61499654  0.32176255  0.15920142  1
  Zr  Zr18  1  0.87315535  0.38071370  0.72112628  1
