# generated using pymatgen
data_NbO2F
_symmetry_space_group_name_H-M   'P 1'
_cell_length_a   5.62498196
_cell_length_b   11.10750687
_cell_length_c   9.64707317
_cell_angle_alpha   29.71308470
_cell_angle_beta   52.69119829
_cell_angle_gamma   58.23623830
_symmetry_Int_Tables_number   1
_chemical_formula_structural   NbO2F
_chemical_formula_sum   'Nb4 O8 F4'
_cell_volume   237.62352717
_cell_formula_units_Z   4
loop_
 _symmetry_equiv_pos_site_id
 _symmetry_equiv_pos_as_xyz
  1  'x, y, z'
loop_
 _atom_site_type_symbol
 _atom_site_label
 _atom_site_symmetry_multiplicity
 _atom_site_fract_x
 _atom_site_fract_y
 _atom_site_fract_z
 _atom_site_occupancy
  F  F0  1  0.65543418  0.29480110  0.25487719  1
  F  F1  1  0.15543418  0.70519890  0.34447938  1
  F  F2  1  0.84456582  0.29480110  0.65552062  1
  F  F3  1  0.34456582  0.70519890  0.74512281  1
  Nb  Nb4  1  0.00000000  0.00000000  0.00000000  1
  Nb  Nb5  1  0.00000000  0.50000000  0.00000000  1
  Nb  Nb6  1  0.50000000  0.00000000  0.50000000  1
  Nb  Nb7  1  0.50000000  0.50000000  0.50000000  1
  O  O8  1  0.18984781  0.21960072  0.31032129  1
  O  O9  1  0.75000000  0.06799830  0.18200170  1
  O  O10  1  0.31015219  0.21960072  0.75047728  1
  O  O11  1  0.75000000  0.56793404  0.18206596  1
  O  O12  1  0.25000000  0.43206596  0.81793404  1
  O  O13  1  0.68984781  0.78039928  0.24952272  1
  O  O14  1  0.25000000  0.93200170  0.81799830  1
  O  O15  1  0.81015219  0.78039928  0.68967871  1
