# generated using pymatgen
data_Ca(Sm2Se3)4
_symmetry_space_group_name_H-M   'P 1'
_cell_length_a   23.00980530
_cell_length_b   8.86197159
_cell_length_c   8.86197217
_cell_angle_alpha   90.09520252
_cell_angle_beta   54.76429562
_cell_angle_gamma   54.76429595
_symmetry_Int_Tables_number   1
_chemical_formula_structural   Ca(Sm2Se3)4
_chemical_formula_sum   'Ca2 Sm16 Se24'
_cell_volume   1043.05091386
_cell_formula_units_Z   2
loop_
 _symmetry_equiv_pos_site_id
 _symmetry_equiv_pos_as_xyz
  1  'x, y, z'
loop_
 _atom_site_type_symbol
 _atom_site_label
 _atom_site_symmetry_multiplicity
 _atom_site_fract_x
 _atom_site_fract_y
 _atom_site_fract_z
 _atom_site_occupancy
  Ca  Ca0  1  0.16664102  0.25011745  0.62512862  1
  Ca  Ca1  1  0.66664102  0.12512862  0.75011745  1
  Sm  Sm2  1  0.99930458  0.37694728  0.24995038  1
  Sm  Sm3  1  0.00126298  0.12230898  0.74805856  1
  Sm  Sm4  1  0.08272222  0.62470231  0.37646456  1
  Sm  Sm5  1  0.24997646  0.87432905  0.12712506  1
  Sm  Sm6  1  0.33339264  0.37707796  0.25049814  1
  Sm  Sm7  1  0.16670062  0.75040065  0.87177380  1
  Sm  Sm8  1  0.33278434  0.12638186  0.74956901  1
  Sm  Sm9  1  0.41635664  0.62559367  0.37479240  1
  Sm  Sm10  1  0.50126298  0.24805856  0.62230898  1
  Sm  Sm11  1  0.66670062  0.37177380  0.25040065  1
  Sm  Sm12  1  0.58272222  0.87646456  0.12470231  1
  Sm  Sm13  1  0.49930458  0.74995038  0.87694728  1
  Sm  Sm14  1  0.74997646  0.62712506  0.37432905  1
  Sm  Sm15  1  0.83278434  0.24956901  0.62638186  1
  Sm  Sm16  1  0.91635664  0.87479240  0.12559367  1
  Sm  Sm17  1  0.83339264  0.75049814  0.87707796  1
  Se  Se18  1  0.04955247  0.99928597  0.35079532  1
  Se  Se19  1  0.11756336  0.50094990  0.00336725  1
  Se  Se20  1  0.04850821  0.35269666  0.49721067  1
  Se  Se21  1  0.28538177  0.14718887  0.14278962  1
  Se  Se22  1  0.28350193  0.50159243  0.00033452  1
  Se  Se23  1  0.11630905  0.65047513  0.65028042  1
  Se  Se24  1  0.38367134  -0.00080928  0.35040959  1
  Se  Se25  1  0.21621565  0.85064794  0.50022363  1
  Se  Se26  1  0.44945173  0.50088981  0.00060402  1
  Se  Se27  1  0.38294036  0.35117243  0.50099727  1
  Se  Se28  1  0.21675414  0.99728354  0.85474755  1
  Se  Se29  1  0.61630905  0.15028042  0.15047513  1
  Se  Se30  1  0.61756336  0.50336725  0.00094990  1
  Se  Se31  1  0.45100847  0.64841375  0.64723323  1
  Se  Se32  1  0.71621565  0.00022363  0.35064794  1
  Se  Se33  1  0.54955247  0.85079532  0.49928597  1
  Se  Se34  1  0.78350193  0.50033452  0.00159243  1
  Se  Se35  1  0.71675414  0.35474755  0.49728354  1
  Se  Se36  1  0.54850821  0.99721067  0.85269666  1
  Se  Se37  1  0.95100847  0.14723323  0.14841375  1
  Se  Se38  1  0.94945173  0.50060402  0.00088981  1
  Se  Se39  1  0.78538177  0.64278962  0.64718887  1
  Se  Se40  1  0.88367134  0.85040959  0.49919072  1
  Se  Se41  1  0.88294036  0.00099727  0.85117243  1
