# generated using pymatgen
data_Sr(CeS2)2
_symmetry_space_group_name_H-M   'P 1'
_cell_length_a   7.52804784
_cell_length_b   7.52804818
_cell_length_c   7.52804862
_cell_angle_alpha   109.49661922
_cell_angle_beta   109.42043766
_cell_angle_gamma   109.49662014
_symmetry_Int_Tables_number   1
_chemical_formula_structural   Sr(CeS2)2
_chemical_formula_sum   'Sr2 Ce4 S8'
_cell_volume   328.41653282
_cell_formula_units_Z   2
loop_
 _symmetry_equiv_pos_site_id
 _symmetry_equiv_pos_as_xyz
  1  'x, y, z'
loop_
 _atom_site_type_symbol
 _atom_site_label
 _atom_site_symmetry_multiplicity
 _atom_site_fract_x
 _atom_site_fract_y
 _atom_site_fract_z
 _atom_site_occupancy
  Ce  Ce0  1  0.25000000  0.62583972  0.37583972  1
  Ce  Ce1  1  0.62416028  0.37416028  0.25000000  1
  Ce  Ce2  1  0.75000000  0.87416028  0.12416028  1
  Ce  Ce3  1  0.87583972  0.12583972  0.75000000  1
  S  S4  1  0.98942778  0.84645693  0.49065505  1
  S  S5  1  0.99065505  0.34645693  0.48942778  1
  S  S6  1  0.50934495  0.99877273  0.35580189  1
  S  S7  1  0.14297085  0.15354307  0.14419811  1
  S  S8  1  0.35702915  0.50122727  0.01057222  1
  S  S9  1  0.51057222  0.00122727  0.85702915  1
  S  S10  1  0.64419811  0.65354307  0.64297085  1
  S  S11  1  0.85580189  0.49877273  0.00934495  1
  Sr  Sr12  1  0.12500000  0.75000000  0.87500000  1
  Sr  Sr13  1  0.37500000  0.25000000  0.62500000  1
