# generated using pymatgen
data_V(PO3)4
_symmetry_space_group_name_H-M   'P 1'
_cell_length_a   7.27312312
_cell_length_b   7.27286984
_cell_length_c   9.91138267
_cell_angle_alpha   83.63738654
_cell_angle_beta   68.42161882
_cell_angle_gamma   110.35048257
_symmetry_Int_Tables_number   1
_chemical_formula_structural   V(PO3)4
_chemical_formula_sum   'V2 P8 O24'
_cell_volume   439.63565760
_cell_formula_units_Z   2
loop_
 _symmetry_equiv_pos_site_id
 _symmetry_equiv_pos_as_xyz
  1  'x, y, z'
loop_
 _atom_site_type_symbol
 _atom_site_label
 _atom_site_symmetry_multiplicity
 _atom_site_fract_x
 _atom_site_fract_y
 _atom_site_fract_z
 _atom_site_occupancy
  O  O0  1  0.05429341  0.65882621  0.14649539  1
  O  O1  1  0.12483623  0.33350788  0.05504543  1
  O  O2  1  0.11144415  0.82008425  0.55502801  1
  O  O3  1  0.19090421  0.65233273  0.34549204  1
  O  O4  1  0.01869138  0.13592803  0.66163934  1
  O  O5  1  0.21379873  0.52137951  0.58053300  1
  O  O6  1  0.39799954  0.20565888  0.08054980  1
  O  O7  1  0.49785856  0.53642959  0.15450985  1
  O  O8  1  0.30528170  0.20084521  0.35351372  1
  O  O9  1  0.51011070  0.85933619  0.40208226  1
  O  O10  1  0.29764000  0.68039828  0.83839047  1
  O  O11  1  0.76151855  0.91218769  0.09793807  1
  O  O12  1  0.23848170  0.08781186  0.90206244  1
  O  O13  1  0.70236025  0.31960128  0.16161004  1
  O  O14  1  0.48989022  0.14066488  0.59791693  1
  O  O15  1  0.69471705  0.79915432  0.64648619  1
  O  O16  1  0.50214087  0.46357146  0.84548974  1
  O  O17  1  0.94570683  0.34117333  0.85350412  1
  O  O18  1  0.78620151  0.47862003  0.41946651  1
  O  O19  1  0.98130887  0.86407152  0.33836118  1
  O  O20  1  0.80909603  0.34766681  0.65450747  1
  O  O21  1  0.88855528  0.17991681  0.44497158  1
  O  O22  1  0.87516401  0.66649166  0.94495408  1
  O  O23  1  0.60200138  0.79434220  0.91945040  1
  P  P24  1  0.00395056  0.67237805  0.30543533  1
  P  P25  1  0.27665710  0.73527273  0.46862227  1
  P  P26  1  0.70398206  0.74529767  0.03137548  1
  P  P27  1  0.47778536  0.30939926  0.19454583  1
  P  P28  1  0.52221487  0.69060028  0.80545368  1
  P  P29  1  0.99605036  0.32762302  0.69456386  1
  P  P30  1  0.72334166  0.26472682  0.53137865  1
  P  P31  1  0.29601669  0.25470185  0.96862443  1
  V  V32  1  0.99999916  0.49999927  0.99999992  1
  V  V33  1  0.00000104  0.00000071  0.49999993  1
