# generated using pymatgen
data_SrLaTiMnO6
_symmetry_space_group_name_H-M   'P 1'
_cell_length_a   5.64068981
_cell_length_b   5.68758737
_cell_length_c   7.69493883
_cell_angle_alpha   90.63601815
_cell_angle_beta   90.00000000
_cell_angle_gamma   90.00000000
_symmetry_Int_Tables_number   1
_chemical_formula_structural   SrLaTiMnO6
_chemical_formula_sum   'Sr2 La2 Ti2 Mn2 O12'
_cell_volume   246.85317232
_cell_formula_units_Z   2
loop_
 _symmetry_equiv_pos_site_id
 _symmetry_equiv_pos_as_xyz
  1  'x, y, z'
loop_
 _atom_site_type_symbol
 _atom_site_label
 _atom_site_symmetry_multiplicity
 _atom_site_fract_x
 _atom_site_fract_y
 _atom_site_fract_z
 _atom_site_occupancy
  Sr  Sr0  1  0.00718203  0.99911805  0.25025281  1
  Sr  Sr1  1  0.49281797  0.49911805  0.75025281  1
  La  La2  1  0.51275959  0.50983072  0.25022309  1
  La  La3  1  0.98724041  0.00983072  0.75022309  1
  Ti  Ti4  1  0.49806870  0.00124756  0.50166114  1
  Ti  Ti5  1  0.00193130  0.50124756  0.00166114  1
  Mn  Mn6  1  0.49920157  0.00267394  0.00000045  1
  Mn  Mn7  1  0.00079843  0.50267394  0.50000045  1
  O  O8  1  0.00404233  0.57829989  0.74567236  1
  O  O9  1  0.24247492  0.22636154  0.53810400  1
  O  O10  1  0.22823426  0.24350382  0.96095416  1
  O  O11  1  0.27176574  0.74350382  0.46095416  1
  O  O12  1  0.25752508  0.72636154  0.03810400  1
  O  O13  1  0.49595767  0.07829989  0.24567236  1
  O  O14  1  0.50689638  0.93768793  0.75405190  1
  O  O15  1  0.74036073  0.24202043  0.53635587  1
  O  O16  1  0.75450397  0.25925611  0.96272423  1
  O  O17  1  0.75963927  0.74202043  0.03635587  1
  O  O18  1  0.74549603  0.75925611  0.46272423  1
  O  O19  1  0.99310362  0.43768793  0.25405190  1
