# generated using pymatgen
data_K2SnH2OF6
_symmetry_space_group_name_H-M   'P 1'
_cell_length_a   9.27133300
_cell_length_b   9.27133339
_cell_length_c   10.61499120
_cell_angle_alpha   111.46093474
_cell_angle_beta   111.46093819
_cell_angle_gamma   94.27708136
_symmetry_Int_Tables_number   1
_chemical_formula_structural   K2SnH2OF6
_chemical_formula_sum   'K8 Sn4 H8 O4 F24'
_cell_volume   767.07586332
_cell_formula_units_Z   4
loop_
 _symmetry_equiv_pos_site_id
 _symmetry_equiv_pos_as_xyz
  1  'x, y, z'
loop_
 _atom_site_type_symbol
 _atom_site_label
 _atom_site_symmetry_multiplicity
 _atom_site_fract_x
 _atom_site_fract_y
 _atom_site_fract_z
 _atom_site_occupancy
  F  F0  1  0.16538241  -0.00245316  0.47211933  1
  F  F1  1  0.09795438  0.69585179  0.26406243  1
  F  F2  1  0.20873179  0.52979513  0.52854494  1
  F  F3  1  0.35209779  0.44700195  0.77007472  1
  F  F4  1  0.89155768  0.86891800  0.72830349  1
  F  F5  1  0.47020487  0.79126821  0.97145506  1
  F  F6  1  0.86891800  0.89155768  0.22830349  1
  F  F7  1  0.55299805  0.64790221  0.72992528  1
  F  F8  1  1.00245316  0.83461759  0.02788067  1
  F  F9  1  0.66447771  0.14360929  0.27532077  1
  F  F10  1  0.30414821  0.90204562  0.23593757  1
  F  F11  1  0.14360929  0.66447771  0.77532077  1
  F  F12  1  0.85639071  0.33552229  0.22467923  1
  F  F13  1  0.69585179  0.09795438  0.76406243  1
  F  F14  1  0.33552229  0.85639071  0.72467923  1
  F  F15  1  -0.00245316  0.16538241  0.97211933  1
  F  F16  1  0.44700195  0.35209779  0.27007472  1
  F  F17  1  0.13108200  0.10844232  0.77169651  1
  F  F18  1  0.52979513  0.20873179  0.02854494  1
  F  F19  1  0.10844232  0.13108200  0.27169651  1
  F  F20  1  0.64790221  0.55299805  0.22992528  1
  F  F21  1  0.79126821  0.47020487  0.47145506  1
  F  F22  1  0.90204562  0.30414821  0.73593757  1
  F  F23  1  0.83461759  1.00245316  0.52788067  1
  H  H24  1  0.25847534  0.62390806  0.09782566  1
  H  H25  1  0.37609194  0.74152466  0.40217434  1
  H  H26  1  0.50988298  0.37276771  0.59464386  1
  H  H27  1  0.37276771  0.50988298  0.09464386  1
  H  H28  1  0.62723229  0.49011702  0.90535614  1
  H  H29  1  0.49011702  0.62723229  0.40535614  1
  H  H30  1  0.62390806  0.25847534  0.59782566  1
  H  H31  1  0.74152466  0.37609194  0.90217434  1
  K  K32  1  0.14679984  0.40215968  0.23335282  1
  K  K33  1  0.74470035  0.99561854  0.99850873  1
  K  K34  1  0.00438146  0.25529965  0.50149127  1
  K  K35  1  0.40215968  0.14679984  0.73335282  1
  K  K36  1  0.59784032  0.85320016  0.26664718  1
  K  K37  1  0.99561854  0.74470035  0.49850873  1
  K  K38  1  0.25529965  0.00438146  0.00149127  1
  K  K39  1  0.85320016  0.59784032  0.76664718  1
  O  O40  1  0.26096102  0.51191201  0.06976508  1
  O  O41  1  0.48808799  0.73903898  0.43023492  1
  O  O42  1  0.51191201  0.26096102  0.56976508  1
  O  O43  1  0.73903898  0.48808799  0.93023492  1
  Sn  Sn44  1  0.09430951  0.90569049  0.25000000  1
  Sn  Sn45  1  0.34720015  0.65279985  0.75000000  1
  Sn  Sn46  1  0.65279985  0.34720015  0.25000000  1
  Sn  Sn47  1  0.90569049  0.09430951  0.75000000  1
