# generated using pymatgen
data_AsSClOF8
_symmetry_space_group_name_H-M   'P 1'
_cell_length_a   8.49197734
_cell_length_b   9.09052752
_cell_length_c   9.87135503
_cell_angle_alpha   90.00000000
_cell_angle_beta   95.86161976
_cell_angle_gamma   90.00000000
_symmetry_Int_Tables_number   1
_chemical_formula_structural   AsSClOF8
_chemical_formula_sum   'As4 S4 Cl4 O4 F32'
_cell_volume   758.05025404
_cell_formula_units_Z   4
loop_
 _symmetry_equiv_pos_site_id
 _symmetry_equiv_pos_as_xyz
  1  'x, y, z'
loop_
 _atom_site_type_symbol
 _atom_site_label
 _atom_site_symmetry_multiplicity
 _atom_site_fract_x
 _atom_site_fract_y
 _atom_site_fract_z
 _atom_site_occupancy
  As  As0  1  0.24582302  0.18641293  0.44061328  1
  As  As1  1  0.25417698  0.68641293  0.05938672  1
  As  As2  1  0.74582302  0.31358707  0.94061328  1
  As  As3  1  0.75417698  0.81358707  0.55938672  1
  Cl  Cl4  1  0.21198548  0.20417986  0.06391966  1
  Cl  Cl5  1  0.28801452  0.70417986  0.43608034  1
  Cl  Cl6  1  0.71198548  0.29582014  0.56391966  1
  Cl  Cl7  1  0.78801452  0.79582014  0.93608034  1
  F  F8  1  0.10577193  0.09188562  0.81155379  1
  F  F9  1  0.07854485  0.23192217  0.52703491  1
  F  F10  1  0.12732518  0.55578652  0.62254662  1
  F  F11  1  0.16064744  0.85182240  0.99671346  1
  F  F12  1  0.08786866  0.64936422  0.14896484  1
  F  F13  1  0.16902422  0.58921373  0.91573372  1
  F  F14  1  0.15095170  0.02569535  0.37376581  1
  F  F15  1  0.15761112  0.28672626  0.29509441  1
  F  F16  1  0.33097578  0.08921373  0.58426628  1
  F  F17  1  0.33935256  0.35182240  0.50328654  1
  F  F18  1  0.37267482  0.05578652  0.87745338  1
  F  F19  1  0.34238888  0.78672626  0.20490559  1
  F  F20  1  0.42145515  0.73192217  0.97296509  1
  F  F21  1  0.34904830  0.52569535  0.12623419  1
  F  F22  1  0.39422807  0.59188562  0.68844621  1
  F  F23  1  0.41213134  0.14936422  0.35103516  1
  F  F24  1  0.58786866  0.85063578  0.64896484  1
  F  F25  1  0.60577193  0.40811438  0.31155379  1
  F  F26  1  0.65095170  0.47430465  0.87376581  1
  F  F27  1  0.57854485  0.26807783  0.02703491  1
  F  F28  1  0.65761112  0.21327374  0.79509441  1
  F  F29  1  0.62732518  0.94421348  0.12254662  1
  F  F30  1  0.66064744  0.64817760  0.49671346  1
  F  F31  1  0.66902422  0.91078627  0.41573372  1
  F  F32  1  0.84238888  0.71327374  0.70490559  1
  F  F33  1  0.84904830  0.97430465  0.62623419  1
  F  F34  1  0.83097578  0.41078627  0.08426628  1
  F  F35  1  0.91213134  0.35063578  0.85103516  1
  F  F36  1  0.83935256  0.14817760  0.00328654  1
  F  F37  1  0.87267482  0.44421348  0.37745338  1
  F  F38  1  0.92145515  0.76807783  0.47296509  1
  F  F39  1  0.89422807  0.90811438  0.18844621  1
  O  O40  1  0.21572706  0.80308787  0.69648332  1
  O  O41  1  0.28427294  0.30308787  0.80351668  1
  O  O42  1  0.71572706  0.69691213  0.19648332  1
  O  O43  1  0.78427294  0.19691213  0.30351668  1
  S  S44  1  0.24838145  0.17842001  0.87767381  1
  S  S45  1  0.25161855  0.67842001  0.62232619  1
  S  S46  1  0.74838145  0.32157999  0.37767381  1
  S  S47  1  0.75161855  0.82157999  0.12232619  1
