# generated using pymatgen
data_Y2B5Pd14
_symmetry_space_group_name_H-M   'P 1'
_cell_length_a   8.30318609
_cell_length_b   8.30318608
_cell_length_c   10.41905098
_cell_angle_alpha   113.48204873
_cell_angle_beta   113.48204874
_cell_angle_gamma   89.99999998
_symmetry_Int_Tables_number   1
_chemical_formula_structural   Y2B5Pd14
_chemical_formula_sum   'Y4 B10 Pd28'
_cell_volume   593.41045568
_cell_formula_units_Z   2
loop_
 _symmetry_equiv_pos_site_id
 _symmetry_equiv_pos_as_xyz
  1  'x, y, z'
loop_
 _atom_site_type_symbol
 _atom_site_label
 _atom_site_symmetry_multiplicity
 _atom_site_fract_x
 _atom_site_fract_y
 _atom_site_fract_z
 _atom_site_occupancy
  B  B0  1  0.62500000  0.37500000  0.25000000  1
  B  B1  1  0.37500000  0.62500000  0.75000000  1
  B  B2  1  0.21080490  0.50000000  0.00000000  1
  B  B3  1  0.00000000  0.21080490  0.50000000  1
  B  B4  1  0.50000000  0.78919510  0.50000000  1
  B  B5  1  0.78919510  0.00000000  0.00000000  1
  B  B6  1  0.78919510  0.50000000  0.00000000  1
  B  B7  1  0.00000000  0.78919510  0.50000000  1
  B  B8  1  0.50000000  0.21080490  0.50000000  1
  B  B9  1  0.21080490  0.00000000  0.00000000  1
  Y  Y10  1  0.65894292  0.90894292  0.31788583  1
  Y  Y11  1  0.90894292  0.65894292  0.81788583  1
  Y  Y12  1  0.34105708  0.09105708  0.68211417  1
  Y  Y13  1  0.09105708  0.34105708  0.18211417  1
  Pd  Pd14  1  0.35127687  0.93257000  0.36514000  1
  Pd  Pd15  1  0.06743000  0.98613687  0.13486000  1
  Pd  Pd16  1  0.18778850  0.43778850  0.75000000  1
  Pd  Pd17  1  0.81221150  0.18778850  0.25000000  1
  Pd  Pd18  1  0.43778850  0.56221150  0.25000000  1
  Pd  Pd19  1  0.56221150  0.81221150  0.75000000  1
  Pd  Pd20  1  0.81221150  0.56221150  0.25000000  1
  Pd  Pd21  1  0.18778850  0.81221150  0.75000000  1
  Pd  Pd22  1  0.56221150  0.43778850  0.75000000  1
  Pd  Pd23  1  0.43778850  0.18778850  0.25000000  1
  Pd  Pd24  1  0.50000000  0.50000000  0.00000000  1
  Pd  Pd25  1  0.00000000  0.50000000  0.50000000  1
  Pd  Pd26  1  0.50000000  0.50000000  0.50000000  1
  Pd  Pd27  1  0.50000000  0.00000000  0.00000000  1
  Pd  Pd28  1  0.01386313  0.93257000  0.36514000  1
  Pd  Pd29  1  0.93257000  0.01386313  0.86514000  1
  Pd  Pd30  1  0.93257000  0.35127687  0.86514000  1
  Pd  Pd31  1  0.64872313  0.06743000  0.63486000  1
  Pd  Pd32  1  0.98613687  0.06743000  0.63486000  1
  Pd  Pd33  1  0.06743000  0.64872313  0.13486000  1
  Pd  Pd34  1  0.23068887  0.69451157  0.46137775  1
  Pd  Pd35  1  0.73313383  0.76931113  0.03862225  1
  Pd  Pd36  1  0.30548843  0.76931113  0.03862225  1
  Pd  Pd37  1  0.76931113  0.30548843  0.53862225  1
  Pd  Pd38  1  0.76931113  0.73313383  0.53862225  1
  Pd  Pd39  1  0.26686617  0.23068887  0.96137775  1
  Pd  Pd40  1  0.69451157  0.23068887  0.96137775  1
  Pd  Pd41  1  0.23068887  0.26686617  0.46137775  1
