# generated using pymatgen
data_KCe5S8
_symmetry_space_group_name_H-M   'P 1'
_cell_length_a   7.47079495
_cell_length_b   7.47079467
_cell_length_c   7.47079494
_cell_angle_alpha   109.27261568
_cell_angle_beta   109.86915934
_cell_angle_gamma   109.27262324
_symmetry_Int_Tables_number   1
_chemical_formula_structural   KCe5S8
_chemical_formula_sum   'K1 Ce5 S8'
_cell_volume   320.96879069
_cell_formula_units_Z   1
loop_
 _symmetry_equiv_pos_site_id
 _symmetry_equiv_pos_as_xyz
  1  'x, y, z'
loop_
 _atom_site_type_symbol
 _atom_site_label
 _atom_site_symmetry_multiplicity
 _atom_site_fract_x
 _atom_site_fract_y
 _atom_site_fract_z
 _atom_site_occupancy
  Ce  Ce0  1  0.24393632  0.62702123  0.37449785  1
  Ce  Ce1  1  0.37500000  0.25000000  0.62500000  1
  Ce  Ce2  1  0.74747662  0.87297877  0.11691509  1
  Ce  Ce3  1  0.62550215  0.36943847  0.25252338  1
  Ce  Ce4  1  0.88308491  0.13056153  0.75606368  1
  K  K5  1  0.12500000  0.75000000  0.87500000  1
  S  S6  1  0.99620341  0.85710956  0.48793574  1
  S  S7  1  0.99532229  0.33596115  0.48670680  1
  S  S8  1  0.51329320  0.00861549  0.84925435  1
  S  S9  1  0.15074565  0.16403885  0.15936114  1
  S  S10  1  0.36090616  0.49173233  0.00379659  1
  S  S11  1  0.63082618  0.64289044  0.63909384  1
  S  S12  1  0.51206426  0.00826767  0.36917382  1
  S  S13  1  0.84063886  0.49138451  0.00467771  1
