# generated using pymatgen
data_NaCeTiNbO6F
_symmetry_space_group_name_H-M   'P 1'
_cell_length_a   7.37884274
_cell_length_b   14.79322831
_cell_length_c   12.82067410
_cell_angle_alpha   29.92691436
_cell_angle_beta   54.86236780
_cell_angle_gamma   60.07944698
_symmetry_Int_Tables_number   1
_chemical_formula_structural   NaCeTiNbO6F
_chemical_formula_sum   'Na4 Ce4 Ti4 Nb4 O24 F4'
_cell_volume   570.95688330
_cell_formula_units_Z   4
loop_
 _symmetry_equiv_pos_site_id
 _symmetry_equiv_pos_as_xyz
  1  'x, y, z'
loop_
 _atom_site_type_symbol
 _atom_site_label
 _atom_site_symmetry_multiplicity
 _atom_site_fract_x
 _atom_site_fract_y
 _atom_site_fract_z
 _atom_site_occupancy
  Ce  Ce0  1  0.99997580  0.97851196  0.02150113  1
  Ce  Ce1  1  0.02158761  0.25000000  0.00000000  1
  Ce  Ce2  1  0.50000197  0.52148804  0.97849887  1
  Ce  Ce3  1  0.97850283  0.25000000  0.50000000  1
  F  F4  1  0.13684773  0.98816095  0.13685402  1
  F  F5  1  0.11312394  0.51186285  0.11317601  1
  F  F6  1  0.86320167  0.98813715  0.88682399  1
  F  F7  1  0.88687768  0.51183905  0.86314598  1
  Na  Na8  1  0.50002444  0.97771007  0.02224103  1
  Na  Na9  1  -0.00007336  0.52228993  0.97775897  1
  Na  Na10  1  0.97747554  0.75000000  0.00000000  1
  Na  Na11  1  0.02248315  0.75000000  0.50000000  1
  Nb  Nb12  1  -0.00007872  0.00762331  0.49252618  1
  Nb  Nb13  1  0.50022025  0.49237669  0.50747382  1
  Nb  Nb14  1  0.50745629  0.75000000  0.50000000  1
  Nb  Nb15  1  0.49218912  0.75000000  0.00000000  1
  O  O16  1  0.18807004  0.19888802  0.16864689  1
  O  O17  1  0.58394494  0.20890517  0.16609421  1
  O  O18  1  0.16865756  0.69441155  0.18805448  1
  O  O19  1  0.16608573  0.29110316  0.58389537  1
  O  O20  1  0.41608279  0.20889684  0.41610463  1
  O  O21  1  0.17642923  0.47644226  0.59570358  1
  O  O22  1  0.82072090  0.02355774  0.40429642  1
  O  O23  1  0.54865499  0.49854414  0.17927773  1
  O  O24  1  0.81198516  0.19893540  0.43351835  1
  O  O25  1  0.56186043  0.68679999  0.18818191  1
  O  O26  1  0.57689266  0.30106460  0.56648165  1
  O  O27  1  0.18817694  0.81321102  0.56178463  1
  O  O28  1  0.43816824  0.68678898  0.43821537  1
  O  O29  1  0.42313985  0.30111198  0.83135311  1
  O  O30  1  0.17935196  0.02356158  0.54857805  1
  O  O31  1  0.82363123  0.47643842  0.45142195  1
  O  O32  1  0.45136121  0.49854930  0.82362272  1
  O  O33  1  0.59570525  0.00145070  0.17637728  1
  O  O34  1  0.83137096  0.69438350  0.42315449  1
  O  O35  1  0.83394370  0.29109483  0.83390579  1
  O  O36  1  0.56644694  0.80561650  0.57684551  1
  O  O37  1  0.43358964  0.80558845  0.81194552  1
  O  O38  1  0.40429874  0.00145586  0.82072227  1
  O  O39  1  0.81182424  0.81320001  0.81181809  1
  Ti  Ti40  1  0.50029064  0.01366417  0.48614439  1
  Ti  Ti41  1  0.48616654  0.25000000  0.50000000  1
  Ti  Ti42  1  0.51342579  0.25000000  0.00000000  1
  Ti  Ti43  1  -0.00009225  0.48633583  0.51385561  1
