# generated using pymatgen
data_Na3(WO3)4
_symmetry_space_group_name_H-M   'P 1'
_cell_length_a   7.87440019
_cell_length_b   6.81324913
_cell_length_c   6.81324833
_cell_angle_alpha   70.57005781
_cell_angle_beta   54.69883976
_cell_angle_gamma   54.69883781
_symmetry_Int_Tables_number   1
_chemical_formula_structural   Na3(WO3)4
_chemical_formula_sum   'Na3 W4 O12'
_cell_volume   243.46663896
_cell_formula_units_Z   1
loop_
 _symmetry_equiv_pos_site_id
 _symmetry_equiv_pos_as_xyz
  1  'x, y, z'
loop_
 _atom_site_type_symbol
 _atom_site_label
 _atom_site_symmetry_multiplicity
 _atom_site_fract_x
 _atom_site_fract_y
 _atom_site_fract_z
 _atom_site_occupancy
  Na  Na0  1  0.00000000  -0.00000000  0.50000000  1
  Na  Na1  1  0.50000000  0.50000000  -0.00000000  1
  Na  Na2  1  0.50000000  -0.00000000  0.50000000  1
  W  W3  1  0.00000000  -0.00000000  -0.00000000  1
  W  W4  1  0.50000000  -0.00000000  -0.00000000  1
  W  W5  1  0.50000000  0.50000000  0.50000000  1
  W  W6  1  0.00000000  0.50000000  0.50000000  1
  O  O7  1  0.25428774  0.99084062  0.00058391  1
  O  O8  1  0.25094233  0.26648945  0.23351055  1
  O  O9  1  0.02082450  0.22852192  0.72852192  1
  O  O10  1  0.74571226  0.00915938  0.99941609  1
  O  O11  1  0.25428774  0.50058391  0.49084062  1
  O  O12  1  0.52213165  0.22852192  0.72852192  1
  O  O13  1  0.74905767  0.26648945  0.23351055  1
  O  O14  1  0.25094233  0.73351055  0.76648945  1
  O  O15  1  0.47786835  0.77147808  0.27147808  1
  O  O16  1  0.74571226  0.49941609  0.50915938  1
  O  O17  1  0.74905767  0.73351055  0.76648945  1
  O  O18  1  0.97917550  0.77147808  0.27147808  1
