# generated using pymatgen
data_Ca2RuO4
_symmetry_space_group_name_H-M   'P 1'
_cell_length_a   5.33841802
_cell_length_b   5.33513254
_cell_length_c   6.84592572
_cell_angle_alpha   112.93318945
_cell_angle_beta   90.00000000
_cell_angle_gamma   90.00000000
_symmetry_Int_Tables_number   1
_chemical_formula_structural   Ca2RuO4
_chemical_formula_sum   'Ca4 Ru2 O8'
_cell_volume   179.56871239
_cell_formula_units_Z   2
loop_
 _symmetry_equiv_pos_site_id
 _symmetry_equiv_pos_as_xyz
  1  'x, y, z'
loop_
 _atom_site_type_symbol
 _atom_site_label
 _atom_site_symmetry_multiplicity
 _atom_site_fract_x
 _atom_site_fract_y
 _atom_site_fract_z
 _atom_site_occupancy
  O  O0  1  0.50000000  0.66593846  0.33187691  1
  O  O1  1  0.00000000  0.83406154  0.66812309  1
  O  O2  1  0.50000000  0.33406154  0.66812309  1
  O  O3  1  0.00000000  0.16593846  0.33187691  1
  O  O4  1  0.68130373  0.18111854  0.00000000  1
  O  O5  1  0.18130373  0.31888146  0.00000000  1
  O  O6  1  0.31869627  0.81888146  0.00000000  1
  O  O7  1  0.81869627  0.68111854  0.00000000  1
  Ca  Ca8  1  0.00000000  0.34637821  0.69275642  1
  Ca  Ca9  1  0.50000000  0.15362179  0.30724358  1
  Ca  Ca10  1  0.50000000  0.84637821  0.69275642  1
  Ca  Ca11  1  0.00000000  0.65362179  0.30724358  1
  Ru  Ru12  1  0.00000000  0.00000000  0.00000000  1
  Ru  Ru13  1  0.50000000  0.50000000  0.00000000  1
