# generated using pymatgen
data_Ca(FeO2)2
_symmetry_space_group_name_H-M   'P 1'
_cell_length_a   3.11730203
_cell_length_b   8.01688419
_cell_length_c   7.16230623
_cell_angle_alpha   76.64665861
_cell_angle_beta   77.42997600
_cell_angle_gamma   78.78641443
_symmetry_Int_Tables_number   1
_chemical_formula_structural   Ca(FeO2)2
_chemical_formula_sum   'Ca2 Fe4 O8'
_cell_volume   168.00881283
_cell_formula_units_Z   2
loop_
 _symmetry_equiv_pos_site_id
 _symmetry_equiv_pos_as_xyz
  1  'x, y, z'
loop_
 _atom_site_type_symbol
 _atom_site_label
 _atom_site_symmetry_multiplicity
 _atom_site_fract_x
 _atom_site_fract_y
 _atom_site_fract_z
 _atom_site_occupancy
  Ca  Ca0  1  0.34277107  0.15810537  0.15700125  1
  Ca  Ca1  1  0.65324231  0.81671060  0.87720495  1
  Fe  Fe2  1  0.62843239  0.16923984  0.57449866  1
  Fe  Fe3  1  0.13464275  0.51797860  0.21303769  1
  Fe  Fe4  1  0.86134861  0.45686443  0.82093428  1
  Fe  Fe5  1  0.36771982  0.80529390  0.45974174  1
  O  O6  1  0.86375518  0.67366183  0.59927276  1
  O  O7  1  0.45406831  0.29458278  0.79784481  1
  O  O8  1  0.54171853  0.68139709  0.23552347  1
  O  O9  1  0.13251713  0.30117398  0.43441761  1
  O  O10  1  0.15543030  0.99525502  0.69433198  1
  O  O11  1  0.75891810  0.36820857  0.11445429  1
  O  O12  1  0.83843024  0.98081087  0.34297035  1
  O  O13  1  0.23709127  0.60661113  0.91962815  1
