# generated using pymatgen
data_Cu3AsS3
_symmetry_space_group_name_H-M   'P 1'
_cell_length_a   8.63027082
_cell_length_b   8.63027136
_cell_length_c   8.63027089
_cell_angle_alpha   109.47121951
_cell_angle_beta   109.47122078
_cell_angle_gamma   109.47122225
_symmetry_Int_Tables_number   1
_chemical_formula_structural   Cu3AsS3
_chemical_formula_sum   'Cu12 As4 S12'
_cell_volume   494.82474443
_cell_formula_units_Z   4
loop_
 _symmetry_equiv_pos_site_id
 _symmetry_equiv_pos_as_xyz
  1  'x, y, z'
loop_
 _atom_site_type_symbol
 _atom_site_label
 _atom_site_symmetry_multiplicity
 _atom_site_fract_x
 _atom_site_fract_y
 _atom_site_fract_z
 _atom_site_occupancy
  Cu  Cu0  1  0.50000000  0.25000000  0.75000000  1
  Cu  Cu1  1  0.75000000  0.50000000  0.25000000  1
  Cu  Cu2  1  0.25000000  0.50000000  0.75000000  1
  Cu  Cu3  1  0.75000000  0.25000000  0.50000000  1
  Cu  Cu4  1  0.25000000  0.75000000  0.50000000  1
  Cu  Cu5  1  0.50000000  0.75000000  0.25000000  1
  Cu  Cu6  1  1.00000000  0.18210077  0.18210077  1
  Cu  Cu7  1  0.81789923  1.00000000  0.81789923  1
  Cu  Cu8  1  0.18210077  0.00000000  0.18210077  1
  Cu  Cu9  1  0.18210077  0.18210077  1.00000000  1
  Cu  Cu10  1  0.81789923  0.81789923  0.00000000  1
  Cu  Cu11  1  0.00000000  0.81789923  0.81789923  1
  As  As12  1  0.52549528  0.52549528  0.52549528  1
  As  As13  1  0.47450472  0.00000000  0.00000000  1
  As  As14  1  1.00000000  0.47450472  1.00000000  1
  As  As15  1  0.00000000  0.00000000  0.47450472  1
  S  S16  1  0.46660085  0.46660085  0.22797139  1
  S  S17  1  0.53339915  0.76137055  1.00000000  1
  S  S18  1  0.76137055  0.53339915  0.00000000  1
  S  S19  1  1.00000000  0.76137055  0.53339915  1
  S  S20  1  0.77202861  0.23862945  0.23862945  1
  S  S21  1  0.23862945  0.77202861  0.23862945  1
  S  S22  1  0.76137055  0.00000000  0.53339915  1
  S  S23  1  0.53339915  0.00000000  0.76137055  1
  S  S24  1  1.00000000  0.53339915  0.76137055  1
  S  S25  1  0.22797139  0.46660085  0.46660085  1
  S  S26  1  0.46660085  0.22797139  0.46660085  1
  S  S27  1  0.23862945  0.23862945  0.77202861  1
