# generated using pymatgen
data_SmCu(WO4)2
_symmetry_space_group_name_H-M   'P 1'
_cell_length_a   7.27690640
_cell_length_b   7.45564879
_cell_length_c   7.56061717
_cell_angle_alpha   114.37047795
_cell_angle_beta   115.52064855
_cell_angle_gamma   91.90101911
_symmetry_Int_Tables_number   1
_chemical_formula_structural   SmCu(WO4)2
_chemical_formula_sum   'Sm2 Cu2 W4 O16'
_cell_volume   325.89583925
_cell_formula_units_Z   2
loop_
 _symmetry_equiv_pos_site_id
 _symmetry_equiv_pos_as_xyz
  1  'x, y, z'
loop_
 _atom_site_type_symbol
 _atom_site_label
 _atom_site_symmetry_multiplicity
 _atom_site_fract_x
 _atom_site_fract_y
 _atom_site_fract_z
 _atom_site_occupancy
  O  O0  1  0.53255446  0.46449953  0.73310939  1
  O  O1  1  0.46744554  0.53550047  0.26689061  1
  O  O2  1  0.05472246  0.30994645  0.10325475  1
  O  O3  1  0.94527754  0.69005355  0.89674525  1
  O  O4  1  0.19481561  0.36049197  0.80781182  1
  O  O5  1  0.80518439  0.63950803  0.19218818  1
  O  O6  1  0.82555410  0.36253518  0.45149135  1
  O  O7  1  0.17444590  0.63746482  0.54850865  1
  O  O8  1  0.61259864  0.82886290  0.73718115  1
  O  O9  1  0.38740136  0.17113710  0.26281885  1
  O  O10  1  0.47800420  0.82606849  0.00549869  1
  O  O11  1  0.52199580  0.17393151  0.99450131  1
  O  O12  1  0.14129489  0.99009065  0.80038727  1
  O  O13  1  0.85870511  0.00990935  0.19961273  1
  O  O14  1  0.28898510  0.99476286  0.51323080  1
  O  O15  1  0.71101490  0.00523714  0.48676920  1
  Cu  Cu16  1  0.77713843  0.32813286  0.04228933  1
  Cu  Cu17  1  0.22286157  0.67186714  0.95771067  1
  Sm  Sm18  1  0.18268575  0.28480634  0.46003192  1
  Sm  Sm19  1  0.81731425  0.71519366  0.53996808  1
  W  W20  1  0.72784052  0.70350461  0.96224619  1
  W  W21  1  0.35151910  0.89624754  0.70601015  1
  W  W22  1  0.27215948  0.29649539  0.03775381  1
  W  W23  1  0.64848090  0.10375246  0.29398985  1
