# generated using pymatgen
data_Li6Cr3P8O29
_symmetry_space_group_name_H-M   'P 1'
_cell_length_a   9.83399829
_cell_length_b   9.84288215
_cell_length_c   13.95901385
_cell_angle_alpha   90.01201411
_cell_angle_beta   89.86039376
_cell_angle_gamma   59.96652339
_symmetry_Int_Tables_number   1
_chemical_formula_structural   Li6Cr3P8O29
_chemical_formula_sum   'Li12 Cr6 P16 O58'
_cell_volume   1169.73989396
_cell_formula_units_Z   2
loop_
 _symmetry_equiv_pos_site_id
 _symmetry_equiv_pos_as_xyz
  1  'x, y, z'
loop_
 _atom_site_type_symbol
 _atom_site_label
 _atom_site_symmetry_multiplicity
 _atom_site_fract_x
 _atom_site_fract_y
 _atom_site_fract_z
 _atom_site_occupancy
  Li  Li0  1  0.91511098  0.77470295  0.05985094  1
  Li  Li1  1  0.08848701  0.22565846  0.93926045  1
  Li  Li2  1  0.22545989  0.08916729  0.43859283  1
  Li  Li3  1  0.08889771  0.68640069  0.43821037  1
  Li  Li4  1  0.22304806  0.68483100  0.93864425  1
  Li  Li5  1  0.31542019  0.77290268  0.56042844  1
  Li  Li6  1  0.30969180  0.91360639  0.06166018  1
  Li  Li7  1  0.77331910  0.90875701  0.56487359  1
  Li  Li8  1  0.91158444  0.31409416  0.56120390  1
  Li  Li9  1  0.66675805  0.67003147  0.88505179  1
  Li  Li10  1  0.77945109  0.29938441  0.06179059  1
  Li  Li11  1  0.68678631  0.22249679  0.43994801  1
  O  O12  1  0.33160179  0.74863267  0.84328203  1
  O  O13  1  0.25253983  0.08197914  0.15814980  1
  O  O14  1  0.10353063  0.38017108  0.17410482  1
  O  O15  1  0.24234964  0.00322551  0.93130766  1
  O  O16  1  0.08514458  0.24956302  0.65751850  1
  O  O17  1  0.00057269  0.24336703  0.43091621  1
  O  O18  1  0.99961887  0.75797047  0.56853162  1
  O  O19  1  0.91751792  0.74964781  0.34133607  1
  O  O20  1  0.77607134  0.99045710  0.07790740  1
  O  O21  1  0.88604600  0.62394526  0.82585374  1
  O  O22  1  0.74501340  0.91537124  0.84025601  1
  O  O23  1  0.81355718  0.67310499  0.16686479  1
  O  O24  1  0.89656075  0.48382877  0.32571591  1
  O  O25  1  1.00006141  0.24297672  0.06891196  1
  O  O26  1  0.00004397  0.21277073  0.24990424  1
  O  O27  1  0.92062893  0.33451040  0.84047963  1
  O  O28  1  0.67753243  0.81142636  0.66820054  1
  O  O29  1  0.61996254  0.89554466  0.32593249  1
  O  O30  1  0.81225307  0.51090398  0.66644190  1
  O  O31  1  0.66621059  0.66603535  0.52184405  1
  O  O32  1  0.66746384  0.66629658  0.02081339  1
  O  O33  1  0.67463620  0.51152504  0.16659965  1
  O  O34  1  0.48903870  0.88460737  0.82775641  1
  O  O35  1  0.51244379  0.81181165  0.16656176  1
  O  O36  1  0.74772948  0.33444223  0.34150668  1
  O  O37  1  0.78596937  0.21656362  0.75176887  1
  O  O38  1  0.75485897  0.25145789  0.93381028  1
  O  O39  1  0.75899641  0.24290377  0.57005674  1
  O  O40  1  0.62589354  0.49152355  0.82648586  1
  O  O41  1  0.51147231  0.67766069  0.66786833  1
  O  O42  1  0.33358131  0.91907134  0.34013900  1
  O  O43  1  0.66581653  0.25216566  0.16070292  1
  O  O44  1  0.78199346  0.01173204  0.25959936  1
  O  O45  1  0.48342096  0.62117347  0.32419578  1
  O  O46  1  0.75294755  0.99722663  0.43703467  1
  O  O47  1  0.24287066  0.99662129  0.56848910  1
  O  O48  1  0.21538188  0.99918043  0.75059768  1
  O  O49  1  0.51764682  0.38061067  0.67468592  1
  O  O50  1  0.66851766  0.08205623  0.66045625  1
  O  O51  1  0.10299334  0.51701404  0.67252442  1
  O  O52  1  0.48766617  0.32663057  0.33093330  1
  O  O53  1  0.37987869  0.51685861  0.17481316  1
  O  O54  1  0.24389774  0.75618605  0.06805026  1
  O  O55  1  0.24325732  0.75657306  0.43032059  1
  O  O56  1  0.21240891  0.78859555  0.24915627  1
  O  O57  1  0.25181742  0.66669499  0.65845308  1
  O  O58  1  0.48016173  0.19164016  0.82613854  1
  O  O59  1  0.52307995  0.09664440  0.17175693  1
  O  O60  1  0.32491544  0.48935850  0.83326737  1
  O  O61  1  0.32956984  0.33340506  0.47487144  1
  O  O62  1  0.32674771  0.33207942  0.97600383  1
  O  O63  1  0.18393174  0.32942201  0.83027329  1
  O  O64  1  0.38474989  0.09609085  0.67211528  1
  O  O65  1  0.32586255  0.18785952  0.32795875  1
  O  O66  1  0.08185334  0.66654713  0.15873694  1
  O  O67  1  0.99994197  0.78510950  0.75008599  1
  O  O68  1  0.00114140  0.75197880  0.92996336  1
  O  O69  1  0.18661094  0.48917908  0.32942051  1
  P  P70  1  0.32161880  0.76899122  0.34019697  1
  P  P71  1  0.23251406  0.67777509  0.15832126  1
  P  P72  1  0.33112031  0.33517356  0.86743525  1
  P  P73  1  0.33252897  0.33380242  0.36676055  1
  P  P74  1  0.09004883  0.67788526  0.65818150  1
  P  P75  1  0.23509958  0.08685042  0.65792807  1
  P  P76  1  0.90752870  0.76904927  0.84102125  1
  P  P77  1  0.76561464  0.91082413  0.34499242  1
  P  P78  1  0.91017257  0.32249451  0.34106262  1
  P  P79  1  0.66663447  0.66766949  0.63025094  1
  P  P80  1  0.66765020  0.66511065  0.12894624  1
  P  P81  1  0.76896464  0.32360938  0.84334520  1
  P  P82  1  0.67911564  0.23279383  0.66031047  1
  P  P83  1  0.32174075  0.91001702  0.84235138  1
  P  P84  1  0.68482875  0.08693415  0.16200110  1
  P  P85  1  0.09037318  0.23258289  0.15852617  1
  Cr  Cr86  1  0.99975147  0.43315619  0.74754016  1
  Cr  Cr87  1  0.56841959  0.00131354  0.75198011  1
  Cr  Cr88  1  0.43343706  0.56765705  0.75007113  1
  Cr  Cr89  1  0.56603528  0.43506303  0.24992218  1
  Cr  Cr90  1  0.43691622  0.99815628  0.24775471  1
  Cr  Cr91  1  0.99897159  0.56652859  0.24972665  1
