# generated using pymatgen
data_NaP(HO2)2
_symmetry_space_group_name_H-M   'P 1'
_cell_length_a   6.23752712
_cell_length_b   9.79048101
_cell_length_c   12.52176863
_cell_angle_alpha   90.00000000
_cell_angle_beta   90.00000000
_cell_angle_gamma   91.42710204
_symmetry_Int_Tables_number   1
_chemical_formula_structural   NaP(HO2)2
_chemical_formula_sum   'Na8 P8 H16 O32'
_cell_volume   764.44707087
_cell_formula_units_Z   8
loop_
 _symmetry_equiv_pos_site_id
 _symmetry_equiv_pos_as_xyz
  1  'x, y, z'
loop_
 _atom_site_type_symbol
 _atom_site_label
 _atom_site_symmetry_multiplicity
 _atom_site_fract_x
 _atom_site_fract_y
 _atom_site_fract_z
 _atom_site_occupancy
  P  P0  1  0.39928275  0.18812884  0.99682455  1
  P  P1  1  0.60071725  0.31187116  0.49682455  1
  P  P2  1  0.60071725  0.81187116  0.00317545  1
  P  P3  1  0.39928275  0.68812884  0.50317545  1
  P  P4  1  0.45609787  0.48973939  0.32164655  1
  P  P5  1  0.54390213  0.01026061  0.82164655  1
  P  P6  1  0.54390213  0.51026061  0.67835345  1
  P  P7  1  0.45609787  0.98973939  0.17835345  1
  Na  Na8  1  0.93824750  0.07193871  0.12608599  1
  Na  Na9  1  0.06175250  0.42806129  0.62608599  1
  Na  Na10  1  0.06175250  0.92806129  0.87391401  1
  Na  Na11  1  0.93824750  0.57193871  0.37391401  1
  Na  Na12  1  0.74125732  0.47023018  0.06226075  1
  Na  Na13  1  0.25874268  0.02976982  0.56226075  1
  Na  Na14  1  0.25874268  0.52976982  0.93773925  1
  Na  Na15  1  0.74125732  0.97023018  0.43773925  1
  O  O16  1  0.51435572  0.11928423  0.10064596  1
  O  O17  1  0.48564428  0.38071577  0.60064596  1
  O  O18  1  0.48564428  0.88071577  0.89935404  1
  O  O19  1  0.51435572  0.61928423  0.39935404  1
  O  O20  1  0.43570668  0.36177623  0.40396833  1
  O  O21  1  0.56429332  0.13822377  0.90396833  1
  O  O22  1  0.56429332  0.63822377  0.59603167  1
  O  O23  1  0.43570668  0.86177623  0.09603167  1
  O  O24  1  0.56820612  0.16123281  0.50789823  1
  O  O25  1  0.43179388  0.33876719  0.00789823  1
  O  O26  1  0.43179388  0.83876719  0.49210177  1
  O  O27  1  0.56820612  0.66123281  0.99210177  1
  O  O28  1  0.82076250  0.37492573  0.47953621  1
  O  O29  1  0.17923750  0.12507427  0.97953621  1
  O  O30  1  0.17923750  0.62507427  0.52046379  1
  O  O31  1  0.82076250  0.87492573  0.02046379  1
  O  O32  1  0.65169641  0.47677775  0.25300904  1
  O  O33  1  0.34830359  0.02322225  0.75300904  1
  O  O34  1  0.34830359  0.52322225  0.74699096  1
  O  O35  1  0.65169641  0.97677775  0.24699096  1
  O  O36  1  0.23850572  0.50396747  0.27238515  1
  O  O37  1  0.76149428  0.99603253  0.77238515  1
  O  O38  1  0.76149428  0.49603253  0.72761485  1
  O  O39  1  0.23850572  0.00396747  0.22761485  1
  O  O40  1  0.05503960  0.11775603  0.41612796  1
  O  O41  1  0.94496040  0.38224397  0.91612796  1
  O  O42  1  0.94496040  0.88224397  0.58387204  1
  O  O43  1  0.05503960  0.61775603  0.08387204  1
  O  O44  1  0.94804543  0.29729873  0.18290244  1
  O  O45  1  0.05195457  0.20270127  0.68290244  1
  O  O46  1  0.05195457  0.70270127  0.81709756  1
  O  O47  1  0.94804543  0.79729873  0.31709756  1
  H  H48  1  1.00753415  0.21211089  0.42133925  1
  H  H49  1  -0.00753415  0.28788911  0.92133925  1
  H  H50  1  -0.00753415  0.78788911  0.57866075  1
  H  H51  1  1.00753415  0.71211089  0.07866075  1
  H  H52  1  0.13398597  0.10896622  0.34870395  1
  H  H53  1  0.86601403  0.39103378  0.84870395  1
  H  H54  1  0.86601403  0.89103378  0.65129605  1
  H  H55  1  0.13398597  0.60896622  0.15129605  1
  H  H56  1  0.07605086  0.35250850  0.20189209  1
  H  H57  1  0.92394914  0.14749150  0.70189209  1
  H  H58  1  0.92394914  0.64749150  0.79810791  1
  H  H59  1  0.07605086  0.85250850  0.29810791  1
  H  H60  1  0.83292747  0.33897210  0.22484059  1
  H  H61  1  0.16707253  0.16102790  0.72484059  1
  H  H62  1  0.16707253  0.66102790  0.77515941  1
  H  H63  1  0.83292747  0.83897210  0.27515941  1
