# generated using pymatgen
data_Co2B2O5
_symmetry_space_group_name_H-M   'P 1'
_cell_length_a   3.20146248
_cell_length_b   6.23987999
_cell_length_c   9.30673143
_cell_angle_alpha   104.56868889
_cell_angle_beta   91.07734654
_cell_angle_gamma   91.40882904
_symmetry_Int_Tables_number   1
_chemical_formula_structural   Co2B2O5
_chemical_formula_sum   'Co4 B4 O10'
_cell_volume   179.82591472
_cell_formula_units_Z   2
loop_
 _symmetry_equiv_pos_site_id
 _symmetry_equiv_pos_as_xyz
  1  'x, y, z'
loop_
 _atom_site_type_symbol
 _atom_site_label
 _atom_site_symmetry_multiplicity
 _atom_site_fract_x
 _atom_site_fract_y
 _atom_site_fract_z
 _atom_site_occupancy
  B  B0  1  0.65844390  0.11758351  0.83097152  1
  B  B1  1  0.34156000  0.88241599  0.16902874  1
  B  B2  1  0.29826487  0.31573408  0.64457734  1
  B  B3  1  0.70173307  0.68426417  0.35542163  1
  O  O4  1  0.23021155  0.09485407  0.18012308  1
  O  O5  1  0.73869528  0.30200626  0.94537400  1
  O  O6  1  0.26130939  0.69799472  0.05462593  1
  O  O7  1  0.76979025  0.90514602  0.81987680  1
  O  O8  1  0.74109124  0.47903787  0.25789470  1
  O  O9  1  0.23022376  0.27602452  0.49605709  1
  O  O10  1  0.57274329  0.86282053  0.29815413  1
  O  O11  1  0.42725787  0.13718046  0.70184632  1
  O  O12  1  0.76977760  0.72397289  0.50394387  1
  O  O13  1  0.25890085  0.52096191  0.74210503  1
  Co  Co14  1  0.76217016  0.62567157  0.89864764  1
  Co  Co15  1  0.23782502  0.37432642  0.10135195  1
  Co  Co16  1  0.26919094  0.78327778  0.64263887  1
  Co  Co17  1  0.73081097  0.21672423  0.35736136  1
