# generated using pymatgen
data_Li14Co9(P2O7)8
_symmetry_space_group_name_H-M   'P 1'
_cell_length_a   10.78037233
_cell_length_b   9.65000703
_cell_length_c   12.76658581
_cell_angle_alpha   69.80315758
_cell_angle_beta   116.21271544
_cell_angle_gamma   108.42647039
_symmetry_Int_Tables_number   1
_chemical_formula_structural   Li14Co9(P2O7)8
_chemical_formula_sum   'Li14 Co9 P16 O56'
_cell_volume   1096.95920924
_cell_formula_units_Z   1
loop_
 _symmetry_equiv_pos_site_id
 _symmetry_equiv_pos_as_xyz
  1  'x, y, z'
loop_
 _atom_site_type_symbol
 _atom_site_label
 _atom_site_symmetry_multiplicity
 _atom_site_fract_x
 _atom_site_fract_y
 _atom_site_fract_z
 _atom_site_occupancy
  Li  Li0  1  0.10398511  0.92145118  0.57088217  1
  Li  Li1  1  0.89601489  0.07854882  0.42911783  1
  Li  Li2  1  0.97407850  0.36386081  0.59942646  1
  Li  Li3  1  0.61733621  0.95037657  0.10018582  1
  Li  Li4  1  0.90037417  0.58061906  0.93156080  1
  Li  Li5  1  0.54168393  0.62288073  0.17685114  1
  Li  Li6  1  0.61775420  0.44766201  0.60305905  1
  Li  Li7  1  0.50921034  0.12452325  0.68423365  1
  Li  Li8  1  0.49079066  0.87547775  0.31576635  1
  Li  Li9  1  0.38224580  0.55233799  0.39694095  1
  Li  Li10  1  0.02592150  0.63614019  0.40057354  1
  Li  Li11  1  0.38266379  0.04962343  0.89981418  1
  Li  Li12  1  0.09962583  0.41938094  0.06843920  1
  Li  Li13  1  0.45831607  0.37712027  0.82314886  1
  O  O14  1  0.46506024  0.34561146  0.47422207  1
  O  O15  1  0.71768004  0.00302225  0.47970002  1
  O  O16  1  0.80167340  0.27795096  0.48361392  1
  O  O17  1  0.53579064  0.16114797  0.02306914  1
  O  O18  1  0.68559943  0.26719540  0.20473083  1
  O  O19  1  0.90757948  0.85327051  0.27083448  1
  O  O20  1  0.95955235  0.44495949  0.34234280  1
  O  O21  1  0.80215024  0.08129732  0.13811326  1
  O  O22  1  0.98746862  0.39634847  0.16784047  1
  O  O23  1  0.01253138  0.60365153  0.83215953  1
  O  O24  1  0.19784976  0.91870268  0.86188674  1
  O  O25  1  0.04044865  0.55504151  0.65765720  1
  O  O26  1  0.09241952  0.14672949  0.72916552  1
  O  O27  1  0.31440057  0.73280460  0.79526917  1
  O  O28  1  0.46420936  0.83885203  0.97693186  1
  O  O29  1  0.19832660  0.72204904  0.51638608  1
  O  O30  1  0.28231996  0.99697775  0.52029998  1
  O  O31  1  0.29655169  0.39544665  0.85820320  1
  O  O32  1  0.17127195  0.39063762  0.60970742  1
  O  O33  1  0.09061515  0.64707252  0.22961525  1
  O  O34  1  0.01565649  0.10167130  0.33079158  1
  O  O35  1  0.13693570  0.15137565  0.55015498  1
  O  O36  1  0.29572864  0.90560119  0.35802561  1
  O  O37  1  0.16891418  0.89594347  0.10769334  1
  O  O38  1  0.54219264  0.92846135  0.79744998  1
  O  O39  1  0.19775312  0.41973215  0.36060985  1
  O  O40  1  0.54680546  0.65932129  0.92419124  1
  O  O41  1  0.34837358  0.20877027  0.73865651  1
  O  O42  1  0.13576621  0.65441365  0.05075304  1
  O  O43  1  0.45694433  0.84140625  0.57444053  1
  O  O44  1  0.04067829  0.05939285  0.15424465  1
  O  O45  1  0.45057771  0.57183078  0.70128784  1
  O  O46  1  0.34444055  0.71728584  0.23947469  1
  O  O47  1  0.73619569  0.51767063  0.98773942  1
  O  O48  1  0.80058380  0.79625051  0.98163939  1
  O  O49  1  0.31661414  0.23963876  0.29264404  1
  O  O50  1  0.53493976  0.65438754  0.52577793  1
  O  O51  1  0.70344831  0.60455235  0.14179780  1
  O  O52  1  0.68338586  0.76036224  0.70735596  1
  O  O53  1  0.19941620  0.20374849  0.01836061  1
  O  O54  1  0.26380431  0.48232937  0.01226058  1
  O  O55  1  0.65555945  0.28271416  0.76052431  1
  O  O56  1  0.54942229  0.42816822  0.29871216  1
  O  O57  1  0.95932171  0.94060715  0.84575535  1
  O  O58  1  0.54305567  0.15859275  0.42556047  1
  O  O59  1  0.86423379  0.34558535  0.94924696  1
  O  O60  1  0.65162742  0.79122973  0.26134349  1
  O  O61  1  0.45319454  0.34067871  0.07580976  1
  O  O62  1  0.80224688  0.58026685  0.63939015  1
  O  O63  1  0.82872805  0.60936138  0.39029258  1
  O  O64  1  0.83108582  0.10405753  0.89230666  1
  O  O65  1  0.70427136  0.09439981  0.64197439  1
  O  O66  1  0.86306430  0.84862435  0.44984502  1
  O  O67  1  0.98434251  0.89832970  0.66920842  1
  O  O68  1  0.90938485  0.35292648  0.77038475  1
  O  O69  1  0.45780736  0.07153765  0.20255002  1
  P  P70  1  0.19395494  0.73336371  0.15394037  1
  P  P71  1  0.53028969  0.69781318  0.62953908  1
  P  P72  1  0.46971031  0.30218782  0.37046092  1
  P  P73  1  0.80604506  0.26663529  0.84605963  1
  P  P74  1  0.70091911  0.13116711  0.51543752  1
  P  P75  1  0.80200320  0.76941677  0.34643744  1
  P  P76  1  0.53258772  0.20185750  0.12903957  1
  P  P77  1  0.94545190  0.53581342  0.72306030  1
  P  P78  1  0.70862405  0.64398550  0.01734014  1
  P  P79  1  0.05581060  0.96560469  0.77885291  1
  P  P80  1  0.29137595  0.35601450  0.98265986  1
  P  P81  1  0.05454810  0.46418558  0.27693970  1
  P  P82  1  0.46741228  0.79814350  0.87096043  1
  P  P83  1  0.19799680  0.23058323  0.65356256  1
  P  P84  1  0.29908089  0.86883289  0.48456248  1
  P  P85  1  0.94418840  0.03439431  0.22114609  1
  Co  Co86  1  0.78096986  0.30255538  0.08019437  1
  Co  Co87  1  0.75024030  0.43220080  0.30594137  1
  Co  Co88  1  0.77960820  0.79821980  0.58258867  1
  Co  Co89  1  0.25919870  0.06932818  0.20075516  1
  Co  Co90  1  0.74080230  0.93067182  0.79924384  1
  Co  Co91  1  0.00000000  0.00000000  0.00000000  1
  Co  Co92  1  0.22039180  0.20177920  0.41741133  1
  Co  Co93  1  0.24975870  0.56780020  0.69405863  1
  Co  Co94  1  0.21903014  0.69744462  0.91980563  1
