# generated using pymatgen
data_Cr12P7
_symmetry_space_group_name_H-M   'P 1'
_cell_length_a   9.01817311
_cell_length_b   9.01817306
_cell_length_c   3.21507879
_cell_angle_alpha   90.00000000
_cell_angle_beta   90.00000000
_cell_angle_gamma   120.00000016
_symmetry_Int_Tables_number   1
_chemical_formula_structural   Cr12P7
_chemical_formula_sum   'Cr12 P7'
_cell_volume   226.44325242
_cell_formula_units_Z   1
loop_
 _symmetry_equiv_pos_site_id
 _symmetry_equiv_pos_as_xyz
  1  'x, y, z'
loop_
 _atom_site_type_symbol
 _atom_site_label
 _atom_site_symmetry_multiplicity
 _atom_site_fract_x
 _atom_site_fract_y
 _atom_site_fract_z
 _atom_site_occupancy
  Cr  Cr0  1  0.37590345  0.50788550  0.00000000  1
  Cr  Cr1  1  0.13198205  0.62409655  0.00000000  1
  Cr  Cr2  1  0.49211450  0.86801795  0.00000000  1
  Cr  Cr3  1  0.01574265  0.26445951  0.00000000  1
  Cr  Cr4  1  0.24871686  0.98425735  0.00000000  1
  Cr  Cr5  1  0.73554049  0.75128314  0.00000000  1
  Cr  Cr6  1  0.50932993  0.14026497  0.50000000  1
  Cr  Cr7  1  0.63093504  0.49067007  0.50000000  1
  Cr  Cr8  1  0.85973503  0.36906496  0.50000000  1
  Cr  Cr9  1  0.79383836  0.01658147  0.50000000  1
  Cr  Cr10  1  0.22274311  0.20616164  0.50000000  1
  Cr  Cr11  1  0.98341853  0.77725689  0.50000000  1
  P  P12  1  0.00000000  0.00000000  0.00000000  1
  P  P13  1  0.44877740  0.28901593  0.00000000  1
  P  P14  1  0.84023853  0.55122260  0.00000000  1
  P  P15  1  0.71098407  0.15976147  0.00000000  1
  P  P16  1  0.16909526  0.45749654  0.50000000  1
  P  P17  1  0.28840127  0.83090474  0.50000000  1
  P  P18  1  0.54250346  0.71159873  0.50000000  1
