# generated using pymatgen
data_Ce14Y18O55
_symmetry_space_group_name_H-M   'P 1'
_cell_length_a   9.40042130
_cell_length_b   9.40839630
_cell_length_c   18.74789453
_cell_angle_alpha   109.51240411
_cell_angle_beta   109.27617881
_cell_angle_gamma   109.52500845
_symmetry_Int_Tables_number   1
_chemical_formula_structural   Ce14Y18O55
_chemical_formula_sum   'Ce14 Y18 O55'
_cell_volume   1277.98801573
_cell_formula_units_Z   1
loop_
 _symmetry_equiv_pos_site_id
 _symmetry_equiv_pos_as_xyz
  1  'x, y, z'
loop_
 _atom_site_type_symbol
 _atom_site_label
 _atom_site_symmetry_multiplicity
 _atom_site_fract_x
 _atom_site_fract_y
 _atom_site_fract_z
 _atom_site_occupancy
  Ce  Ce0  1  0.25594974  0.97704542  0.12964156  1
  Ce  Ce1  1  0.48618240  0.24460129  0.87081814  1
  Ce  Ce2  1  0.52099943  0.76348516  0.63538992  1
  Ce  Ce3  1  0.73596935  0.26112978  0.75600099  1
  Ce  Ce4  1  0.72080019  0.47934286  0.61379270  1
  Ce  Ce5  1  0.75171101  0.75438944  0.49989640  1
  Ce  Ce6  1  0.48841953  0.99454292  0.50756622  1
  Ce  Ce7  1  0.75857162  0.00254478  0.87660575  1
  Ce  Ce8  1  0.98304351  0.25712793  0.61362997  1
  Ce  Ce9  1  0.74625584  0.74639470  0.00189990  1
  Ce  Ce10  1  0.71731069  0.48187737  0.11855165  1
  Ce  Ce11  1  0.49123904  0.99251596  -0.00005154  1
  Ce  Ce12  1  0.78347431  0.01235023  0.37288864  1
  Ce  Ce13  1  0.98037229  0.25362226  0.11721396  1
  O  O14  1  0.01301083  0.47866250  0.87621305  1
  O  O15  1  0.22761275  0.96677509  0.74747249  1
  O  O16  1  0.24046760  0.75715879  0.86895607  1
  O  O17  1  0.23300867  0.27024310  0.87272629  1
  O  O18  1  0.01012021  0.04717489  0.63237833  1
  O  O19  1  0.23641016  0.46681679  0.73669905  1
  O  O20  1  0.25495051  0.71244963  0.61277097  1
  O  O21  1  0.03479435  0.26364467  0.50371325  1
  O  O22  1  0.01406685  0.48496618  0.37811689  1
  O  O23  1  0.74543931  0.00256417  0.00143854  1
  O  O24  1  0.25314093  0.97466715  0.25521361  1
  O  O25  1  0.26096022  0.77349802  0.36970252  1
  O  O26  1  0.52154104  0.75915606  0.75409201  1
  O  O27  1  0.48710186  0.23111854  0.99336574  1
  O  O28  1  0.51094712  0.51101557  0.87762826  1
  O  O29  1  0.46720559  0.47411943  0.60958620  1
  O  O30  1  0.48613572  0.73956734  0.50528115  1
  O  O31  1  0.23590085  0.27547939  0.37142655  1
  O  O32  1  0.02881922  0.04862949  0.13798898  1
  O  O33  1  0.47832835  0.24903735  0.74254828  1
  O  O34  1  0.25387519  0.01357227  0.51543125  1
  O  O35  1  0.23416571  0.46667670  0.23613646  1
  O  O36  1  0.50940800  -0.00139344  0.87511455  1
  O  O37  1  0.75908844  0.76314633  0.88449489  1
  O  O38  1  0.25249092  0.71428961  0.11182741  1
  O  O39  1  0.02135580  0.26024285  0.00453094  1
  O  O40  1  0.99274914  0.74527771  0.00700523  1
  O  O41  1  0.73435778  0.25015806  0.87369669  1
  O  O42  1  0.50249657  0.99841966  0.63260169  1
  O  O43  1  0.72515723  0.01243632  0.48825136  1
  O  O44  1  0.76615693  0.52154114  0.75136724  1
  O  O45  1  0.52356506  0.78537152  0.26498710  1
  O  O46  1  0.00203435  0.96965620  0.86274813  1
  O  O47  1  0.77006261  0.74981791  0.63872701  1
  O  O48  1  0.51388723  0.52861798  0.37814999  1
  O  O49  1  0.49338076  0.21481739  0.48401894  1
  O  O50  1  0.46280017  0.48362180  0.11532279  1
  O  O51  1  0.48985412  0.73958382  0.00370924  1
  O  O52  1  0.72956445  0.50032695  0.49807522  1
  O  O53  1  0.47493744  0.25740990  0.24011205  1
  O  O54  1  0.75638518  0.24419823  0.63395446  1
  O  O55  1  0.77703366  0.03522211  0.75524208  1
  O  O56  1  0.24807327  0.01334765  0.01495922  1
  O  O57  1  0.77181565  0.77182351  0.38600581  1
  O  O58  1  0.98206154  0.51111027  0.62985028  1
  O  O59  1  0.99227850  0.74469189  0.50655038  1
  O  O60  1  0.71782052  0.22632974  0.37452417  1
  O  O61  1  0.49911100  1.00017382  0.13016251  1
  O  O62  1  0.76861714  0.52733384  0.25240352  1
  O  O63  1  0.01068575  0.96858404  0.36122334  1
  O  O64  1  0.77617656  0.74940811  0.13785261  1
  O  O65  1  0.72678247  0.48850962  0.99713483  1
  O  O66  1  0.75384734  0.24415418  0.13229199  1
  O  O67  1  0.78951039  0.03996362  0.25465625  1
  O  O68  1  0.98141304  0.51164013  0.13048309  1
  Y  Y69  1  0.00799314  0.00735582  0.75254983  1
  Y  Y70  1  0.00562614  0.75139249  0.88859178  1
  Y  Y71  1  0.24578950  0.96846124  0.62770902  1
  Y  Y72  1  0.97112026  0.49228536  0.49627890  1
  Y  Y73  1  0.01580541  0.00811085  0.25162222  1
  Y  Y74  1  0.00984594  0.74752430  0.38876385  1
  Y  Y75  1  0.26815566  0.52174159  0.87259010  1
  Y  Y76  1  0.26982312  0.74295845  0.74799209  1
  Y  Y77  1  0.23954577  0.22516330  0.98554700  1
  Y  Y78  1  0.97736338  0.49657302  0.00040011  1
  Y  Y79  1  0.52453411  0.52018730  0.76034854  1
  Y  Y80  1  0.26365282  0.52423031  0.37123701  1
  Y  Y81  1  0.25290662  0.72449887  0.23713876  1
  Y  Y82  1  0.24855614  0.21946774  0.48164354  1
  Y  Y83  1  0.48596968  0.27145925  0.36873011  1
  Y  Y84  1  0.52828944  0.53286757  0.26017608  1
  Y  Y85  1  0.53176363  0.77621338  0.13924517  1
  Y  Y86  1  0.72999820  0.25971347  0.25567066  1
