# generated using pymatgen
data_LiNiPO4
_symmetry_space_group_name_H-M   'P 1'
_cell_length_a   9.89422749
_cell_length_b   9.93382066
_cell_length_c   16.51550278
_cell_angle_alpha   80.89192348
_cell_angle_beta   90.00000003
_cell_angle_gamma   60.13176172
_symmetry_Int_Tables_number   1
_chemical_formula_structural   LiNiPO4
_chemical_formula_sum   'Li16 Ni16 P16 O64'
_cell_volume   1384.00153947
_cell_formula_units_Z   16
loop_
 _symmetry_equiv_pos_site_id
 _symmetry_equiv_pos_as_xyz
  1  'x, y, z'
loop_
 _atom_site_type_symbol
 _atom_site_label
 _atom_site_symmetry_multiplicity
 _atom_site_fract_x
 _atom_site_fract_y
 _atom_site_fract_z
 _atom_site_occupancy
  Li  Li0  1  0.26644551  0.85078376  0.87250188  1
  Li  Li1  1  0.77345284  0.78576142  0.87384222  1
  Li  Li2  1  0.88277073  0.85078376  0.37250188  1
  Li  Li3  1  0.44078575  0.78576142  0.37384222  1
  Li  Li4  1  0.33577219  0.67119856  0.62214933  1
  Li  Li5  1  0.89027486  0.60578713  0.62265033  1
  Li  Li6  1  0.99302925  0.67119856  0.12214933  1
  Li  Li7  1  0.50393901  0.60578713  0.12265033  1
  Li  Li8  1  0.27920795  0.34069754  0.87313715  1
  Li  Li9  1  0.78258285  0.28092329  0.87603525  1
  Li  Li10  1  0.38009451  0.34069754  0.37313715  1
  Li  Li11  1  0.93649486  0.28092329  0.37603525  1
  Li  Li12  1  0.83196309  0.16846979  0.62404869  1
  Li  Li13  1  0.39307698  0.10803073  0.61882338  1
  Li  Li14  1  0.99956712  0.16846979  0.12404869  1
  Li  Li15  1  0.49889229  0.10803073  0.11882338  1
  Ni  Ni16  1  0.80746007  0.98863313  0.99652964  1
  Ni  Ni17  1  0.20390680  0.98863313  0.49652964  1
  Ni  Ni18  1  0.58968893  0.70986414  0.75311080  1
  Ni  Ni19  1  0.08778375  0.66776489  0.75386633  1
  Ni  Ni20  1  0.30750533  0.54750261  0.99825637  1
  Ni  Ni21  1  0.80483692  0.49297104  0.99451573  1
  Ni  Ni22  1  0.70044693  0.70986414  0.25311080  1
  Ni  Ni23  1  0.24445036  0.66776489  0.25386633  1
  Ni  Ni24  1  0.14499206  0.54750261  0.49825637  1
  Ni  Ni25  1  0.70219105  0.49297104  0.49451573  1
  Ni  Ni26  1  0.56496248  0.24966144  0.74291966  1
  Ni  Ni27  1  0.09514011  0.15959533  0.75187405  1
  Ni  Ni28  1  0.30148428  0.04515679  0.99243950  1
  Ni  Ni29  1  0.18537608  0.24966144  0.24291966  1
  Ni  Ni30  1  0.74526456  0.15959533  0.25187405  1
  Ni  Ni31  1  0.65335893  0.04515679  0.49243950  1
  O  O32  1  0.07454819  0.97143325  0.79265052  1
  O  O33  1  0.74557260  0.82913305  0.98806740  1
  O  O34  1  0.57829692  0.88668037  0.80064967  1
  O  O35  1  0.56085303  0.94221271  0.56541094  1
  O  O36  1  0.23736940  0.77604830  0.98554594  1
  O  O37  1  0.93214388  0.81993369  0.81736337  1
  O  O38  1  0.95401856  0.97143325  0.29265052  1
  O  O39  1  0.13886957  0.86150650  0.57148765  1
  O  O40  1  0.42529535  0.82913305  0.48806740  1
  O  O41  1  0.53502271  0.88668037  0.30064967  1
  O  O42  1  0.49693426  0.94221271  0.06541094  1
  O  O43  1  0.48577555  0.75134642  0.64148287  1
  O  O44  1  0.99372036  0.73151729  0.63878489  1
  O  O45  1  0.43571695  0.68449598  0.82253522  1
  O  O46  1  0.98658230  0.77604830  0.48554594  1
  O  O47  1  0.24792243  0.81993369  0.31736337  1
  O  O48  1  0.99962394  0.86150650  0.07148765  1
  O  O49  1  0.84077505  0.55657668  0.88210520  1
  O  O50  1  0.70798236  0.65749383  0.54602848  1
  O  O51  1  0.31388789  0.57526780  0.73277451  1
  O  O52  1  0.81124276  0.58565610  0.72956680  1
  O  O53  1  0.76287803  0.75134642  0.14148287  1
  O  O54  1  0.27476234  0.73151729  0.13878489  1
  O  O55  1  0.87978707  0.68449598  0.32253522  1
  O  O56  1  0.33637461  0.50472246  0.88583812  1
  O  O57  1  0.08233685  0.47229130  0.79902045  1
  O  O58  1  0.34472477  0.52017631  0.54530479  1
  O  O59  1  0.60264827  0.55657668  0.38210520  1
  O  O60  1  0.63452382  0.65749383  0.04602848  1
  O  O61  1  0.11084431  0.57526780  0.23277451  1
  O  O62  1  0.60310214  0.58565610  0.22956680  1
  O  O63  1  0.74418991  0.33283240  0.98704291  1
  O  O64  1  0.58266941  0.39734973  0.80614925  1
  O  O65  1  0.15890292  0.50472246  0.38583812  1
  O  O66  1  0.05630889  0.43954986  0.56948110  1
  O  O67  1  0.23272993  0.27311116  0.98229377  1
  O  O68  1  0.94910203  0.30921739  0.82078104  1
  O  O69  1  0.44537185  0.47229130  0.29902045  1
  O  O70  1  0.63845917  0.36431499  0.57007290  1
  O  O71  1  0.13509892  0.52017631  0.04530479  1
  O  O72  1  0.92297769  0.33283240  0.48704291  1
  O  O73  1  0.01998186  0.39734973  0.30614925  1
  O  O74  1  0.50414125  0.43954986  0.06948110  1
  O  O75  1  0.48439142  0.24339247  0.63507378  1
  O  O76  1  0.98522962  0.24013848  0.63945613  1
  O  O77  1  0.45428558  0.17189743  0.82026551  1
  O  O78  1  0.49415890  0.27311116  0.48229377  1
  O  O79  1  0.74168057  0.30921739  0.32078104  1
  O  O80  1  0.99722584  0.36431499  0.07007290  1
  O  O81  1  0.85455216  0.05266828  0.88848392  1
  O  O82  1  0.20697458  0.15907983  0.54412844  1
  O  O83  1  0.79088480  0.10556266  0.73602726  1
  O  O84  1  0.31380500  0.08761428  0.72577261  1
  O  O85  1  0.27221611  0.24339247  0.13507378  1
  O  O86  1  0.77463190  0.24013848  0.13945613  1
  O  O87  1  0.32970885  0.01307649  0.87776663  1
  O  O88  1  0.37381699  0.17189743  0.32026551  1
  O  O89  1  0.84294685  0.01420109  0.55413687  1
  O  O90  1  0.09277856  0.05266828  0.38848392  1
  O  O91  1  0.63394459  0.15907983  0.04412844  1
  O  O92  1  0.10355254  0.10556266  0.23602726  1
  O  O93  1  0.59858172  0.08761428  0.22577261  1
  O  O94  1  0.65721466  0.01307649  0.37776663  1
  O  O95  1  0.14285306  0.01420109  0.05413687  1
  P  P96  1  0.91258582  0.98704195  0.80828667  1
  P  P97  1  0.10037223  0.98704195  0.30828667  1
  P  P98  1  0.99031420  0.84754772  0.56307595  1
  P  P99  1  0.54630865  0.79550193  0.56041825  1
  P  P100  1  0.16213808  0.84754772  0.06307595  1
  P  P101  1  0.65818942  0.79550193  0.06041825  1
  P  P102  1  0.41946297  0.54087907  0.81258589  1
  P  P103  1  0.92302935  0.47888001  0.80784496  1
  P  P104  1  0.03965697  0.54087907  0.31258589  1
  P  P105  1  0.59809064  0.47888001  0.30784496  1
  P  P106  1  0.48999644  0.35117216  0.55771603  1
  P  P107  1  0.04400050  0.29274663  0.56045172  1
  P  P108  1  0.15883140  0.35117216  0.05771603  1
  P  P109  1  0.66325287  0.29274663  0.06045172  1
  P  P110  1  0.42244913  0.03905233  0.80586432  1
  P  P111  1  0.53849853  0.03905233  0.30586432  1
