# generated using pymatgen
data_Er2CdS4
_symmetry_space_group_name_H-M   'P 1'
_cell_length_a   7.96098333
_cell_length_b   7.96098330
_cell_length_c   39.68880780
_cell_angle_alpha   59.90317472
_cell_angle_beta   59.90317486
_cell_angle_gamma   59.99999963
_symmetry_Int_Tables_number   1
_chemical_formula_structural   Er2CdS4
_chemical_formula_sum   'Er20 Cd10 S40'
_cell_volume   1776.02605869
_cell_formula_units_Z   10
loop_
 _symmetry_equiv_pos_site_id
 _symmetry_equiv_pos_as_xyz
  1  'x, y, z'
loop_
 _atom_site_type_symbol
 _atom_site_label
 _atom_site_symmetry_multiplicity
 _atom_site_fract_x
 _atom_site_fract_y
 _atom_site_fract_z
 _atom_site_occupancy
  Cd  Cd0  1  0.24804681  0.24804681  0.05117191  1
  Cd  Cd1  1  0.62153327  0.62153327  0.02708004  1
  Cd  Cd2  1  0.24733410  0.24733410  0.25159954  1
  Cd  Cd3  1  0.00078124  0.00078124  0.39953126  1
  Cd  Cd4  1  0.62211827  0.62211827  0.22672904  1
  Cd  Cd5  1  0.24937462  0.24937462  0.45037523  1
  Cd  Cd6  1  0.00044710  0.00044710  0.59973174  1
  Cd  Cd7  1  0.25014725  0.25014725  0.64991165  1
  Cd  Cd8  1  0.00041852  0.00041852  0.79974889  1
  Cd  Cd9  1  0.25070162  0.25070162  0.84957903  1
  Er  Er10  1  0.00100118  0.00100118  0.99939929  1
  Er  Er11  1  0.00198628  0.00198628  0.19880823  1
  Er  Er12  1  0.13100933  0.62296117  0.12461367  1
  Er  Er13  1  0.62296117  0.13100933  0.12461367  1
  Er  Er14  1  0.12937591  0.62332812  0.32479357  1
  Er  Er15  1  0.62296117  0.62296117  0.12461367  1
  Er  Er16  1  0.62332812  0.12937591  0.32479357  1
  Er  Er17  1  0.12513251  0.62514135  0.52491696  1
  Er  Er18  1  0.62332812  0.62332812  0.32479357  1
  Er  Er19  1  0.62554169  0.62554169  0.42467499  1
  Er  Er20  1  0.62514135  0.12513251  0.52491696  1
  Er  Er21  1  0.62514135  0.62514135  0.52491696  1
  Er  Er22  1  0.12524392  0.62519954  0.72487140  1
  Er  Er23  1  0.62516737  0.62516737  0.62489958  1
  Er  Er24  1  0.62519954  0.12524392  0.72487140  1
  Er  Er25  1  0.12621756  0.62480738  0.92483354  1
  Er  Er26  1  0.62519954  0.62519954  0.72487140  1
  Er  Er27  1  0.62480738  0.12621756  0.92483354  1
  Er  Er28  1  0.62553351  0.62553351  0.82467989  1
  Er  Er29  1  0.62480738  0.62480738  0.92483354  1
  S  S30  1  0.38081347  0.38081347  0.07704030  1
  S  S31  1  0.38081347  0.85317155  0.07704030  1
  S  S32  1  0.38241929  0.38241929  0.17054843  1
  S  S33  1  0.85317155  0.38081347  0.07704030  1
  S  S34  1  0.38083122  0.38083122  0.27711833  1
  S  S35  1  0.39971678  0.86847777  0.17266553  1
  S  S36  1  0.86703719  0.86703719  0.07977769  1
  S  S37  1  0.86847777  0.39971678  0.17266553  1
  S  S38  1  0.38254353  0.38254353  0.37047388  1
  S  S39  1  0.38083122  0.85274591  0.27711833  1
  S  S40  1  0.86847777  0.86847777  0.17266553  1
  S  S41  1  0.85274591  0.38083122  0.27711833  1
  S  S42  1  0.40008398  0.86680924  0.37325951  1
  S  S43  1  0.38289083  0.38289083  0.47667538  1
  S  S44  1  0.38289083  0.85084142  0.47667538  1
  S  S45  1  0.86750986  0.86750986  0.27949408  1
  S  S46  1  0.86680924  0.40008398  0.37325951  1
  S  S47  1  0.38303532  0.38303532  0.57017881  1
  S  S48  1  0.86680924  0.86680924  0.37325951  1
  S  S49  1  0.85084142  0.38289083  0.47667538  1
  S  S50  1  0.38280736  0.38280736  0.67672108  1
  S  S51  1  0.39903444  0.86677138  0.57348456  1
  S  S52  1  0.86677138  0.39903444  0.57348456  1
  S  S53  1  0.86702487  0.86702487  0.47978508  1
  S  S54  1  0.38303844  0.38303844  0.77017694  1
  S  S55  1  0.38280736  0.85077987  0.67672108  1
  S  S56  1  0.86677138  0.86677138  0.57348456  1
  S  S57  1  0.85077987  0.38280736  0.67672108  1
  S  S58  1  0.38298878  0.38298878  0.87659266  1
  S  S59  1  0.39895217  0.86673737  0.77351462  1
  S  S60  1  0.86683406  0.86683406  0.67989956  1
  S  S61  1  0.86673737  0.39895217  0.77351462  1
  S  S62  1  0.38293573  0.38293573  0.97023856  1
  S  S63  1  0.38298878  0.85105915  0.87659266  1
  S  S64  1  0.86673737  0.86673737  0.77351462  1
  S  S65  1  0.85105915  0.38298878  0.87659266  1
  S  S66  1  0.39818168  0.86905239  0.97274271  1
  S  S67  1  0.86905239  0.39818168  0.97274271  1
  S  S68  1  0.86670800  0.86670800  0.87997520  1
  S  S69  1  0.86905239  0.86905239  0.97274271  1
