# generated using pymatgen
data_LiCrPO4
_symmetry_space_group_name_H-M   'P 1'
_cell_length_a   9.35155284
_cell_length_b   5.60158081
_cell_length_c   6.31073065
_cell_angle_alpha   103.32604353
_cell_angle_beta   104.09015977
_cell_angle_gamma   83.06742854
_symmetry_Int_Tables_number   1
_chemical_formula_structural   LiCrPO4
_chemical_formula_sum   'Li4 Cr4 P4 O16'
_cell_volume   311.26748101
_cell_formula_units_Z   4
loop_
 _symmetry_equiv_pos_site_id
 _symmetry_equiv_pos_as_xyz
  1  'x, y, z'
loop_
 _atom_site_type_symbol
 _atom_site_label
 _atom_site_symmetry_multiplicity
 _atom_site_fract_x
 _atom_site_fract_y
 _atom_site_fract_z
 _atom_site_occupancy
  Cr  Cr0  1  0.10510232  0.30986412  0.34993960  1
  Cr  Cr1  1  0.27426899  0.81397510  0.52993593  1
  Cr  Cr2  1  0.72573101  0.18602490  0.47006407  1
  Cr  Cr3  1  0.89489768  0.69013588  0.65006040  1
  Li  Li4  1  0.24257748  0.64613254  1.00568734  1
  Li  Li5  1  0.43040903  0.19192422  0.15375345  1
  Li  Li6  1  0.56959097  0.80807578  0.84624655  1
  Li  Li7  1  0.75742252  0.35386746  -0.00568734  1
  O  O8  1  0.06882727  0.38388047  0.66749114  1
  O  O9  1  0.11815085  0.93045576  0.71502127  1
  O  O10  1  0.11366714  0.83471335  0.21525341  1
  O  O11  1  0.13780366  0.29714311  0.04450776  1
  O  O12  1  0.41632699  0.13319447  0.82538285  1
  O  O13  1  0.33894598  0.21965191  0.43923249  1
  O  O14  1  0.36986591  0.58565914  0.77135200  1
  O  O15  1  0.40464376  0.66541675  0.31162111  1
  O  O16  1  0.59535624  0.33458325  0.68837889  1
  O  O17  1  0.63013409  0.41434086  0.22864800  1
  O  O18  1  0.66105402  0.78034809  0.56076751  1
  O  O19  1  0.58367301  0.86680553  0.17461715  1
  O  O20  1  0.86219634  0.70285689  0.95549224  1
  O  O21  1  0.88633286  0.16528665  0.78474659  1
  O  O22  1  0.88184915  0.06954424  0.28497873  1
  O  O23  1  0.93117273  0.61611953  0.33250886  1
  P  P24  1  0.05331621  0.19152006  0.80570193  1
  P  P25  1  0.42967167  0.31623991  0.68254857  1
  P  P26  1  0.57032833  0.68376009  0.31745143  1
  P  P27  1  0.94668379  0.80847994  0.19429807  1
