# generated using pymatgen
data_Li2MnP2O7
_symmetry_space_group_name_H-M   'P 1'
_cell_length_a   5.27540563
_cell_length_b   6.34345628
_cell_length_c   9.17119999
_cell_angle_alpha   66.22975411
_cell_angle_beta   88.56482869
_cell_angle_gamma   84.01465460
_symmetry_Int_Tables_number   1
_chemical_formula_structural   Li2MnP2O7
_chemical_formula_sum   'Li4 Mn2 P4 O14'
_cell_volume   279.29278257
_cell_formula_units_Z   2
loop_
 _symmetry_equiv_pos_site_id
 _symmetry_equiv_pos_as_xyz
  1  'x, y, z'
loop_
 _atom_site_type_symbol
 _atom_site_label
 _atom_site_symmetry_multiplicity
 _atom_site_fract_x
 _atom_site_fract_y
 _atom_site_fract_z
 _atom_site_occupancy
  Li  Li0  1  0.20388050  0.33209702  0.45888041  1
  Li  Li1  1  0.30358977  0.10191765  0.83799251  1
  Li  Li2  1  0.69640923  0.89808235  0.16200749  1
  Li  Li3  1  0.79612050  0.66790398  0.54111959  1
  O  O4  1  0.19659738  0.67647891  0.47639549  1
  O  O5  1  0.88324997  0.88430484  0.65976464  1
  O  O6  1  0.06401185  0.36685158  0.82683691  1
  O  O7  1  0.11675003  0.11569516  0.34023536  1
  O  O8  1  0.93598915  0.63314742  0.17316309  1
  O  O9  1  0.26639458  0.77004203  0.95272633  1
  O  O10  1  0.26641657  0.89914480  0.17151307  1
  O  O11  1  0.42593563  0.08087690  0.63529979  1
  O  O12  1  0.80340362  0.32352209  0.52360451  1
  O  O13  1  0.59773750  0.52051156  0.76200818  1
  O  O14  1  0.57406337  0.91912410  0.36470021  1
  O  O15  1  0.73358343  0.10085620  0.82848693  1
  O  O16  1  0.73360642  0.22995897  0.04727367  1
  O  O17  1  0.40226150  0.47948944  0.23799082  1
  P  P18  1  0.78526915  0.32265187  0.86905382  1
  P  P19  1  0.71365623  0.09916763  0.64793675  1
  P  P20  1  0.21473185  0.67734713  0.13094618  1
  P  P21  1  0.28634277  0.90083237  0.35206225  1
  Mn  Mn22  1  0.23683773  0.69582551  0.74324867  1
  Mn  Mn23  1  0.76316327  0.30417549  0.25675133  1
