# generated using pymatgen
data_Li2Fe3(P2O7)2
_symmetry_space_group_name_H-M   'P 1'
_cell_length_a   5.64752254
_cell_length_b   7.04768361
_cell_length_c   7.41328044
_cell_angle_alpha   75.14672863
_cell_angle_beta   83.95740526
_cell_angle_gamma   66.75361856
_symmetry_Int_Tables_number   1
_chemical_formula_structural   Li2Fe3(P2O7)2
_chemical_formula_sum   'Li2 Fe3 P4 O14'
_cell_volume   262.04692505
_cell_formula_units_Z   1
loop_
 _symmetry_equiv_pos_site_id
 _symmetry_equiv_pos_as_xyz
  1  'x, y, z'
loop_
 _atom_site_type_symbol
 _atom_site_label
 _atom_site_symmetry_multiplicity
 _atom_site_fract_x
 _atom_site_fract_y
 _atom_site_fract_z
 _atom_site_occupancy
  Li  Li0  1  0.65785871  0.01097445  0.68903222  1
  Li  Li1  1  0.34214229  0.98902555  0.31096778  1
  O  O2  1  0.30793161  0.28658109  0.14511763  1
  O  O3  1  0.38542750  0.82650095  0.12012574  1
  O  O4  1  0.87053491  0.74259269  0.14310203  1
  O  O5  1  0.12946609  0.25740631  0.85689597  1
  O  O6  1  0.06583001  0.65080347  0.54086790  1
  O  O7  1  0.93417099  0.34919653  0.45913310  1
  O  O8  1  0.03950424  0.92546590  0.72132734  1
  O  O9  1  0.96049576  0.07453410  0.27867366  1
  O  O10  1  0.54676647  0.25646245  0.45289023  1
  O  O11  1  0.69206739  0.71341891  0.85488137  1
  O  O12  1  0.61457150  0.17349905  0.87987426  1
  O  O13  1  0.45323353  0.74353755  0.54710977  1
  O  O14  1  0.69702148  0.45330372  0.15424629  1
  O  O15  1  0.30297952  0.54669628  0.84575471  1
  P  P16  1  0.21037027  0.72887445  0.65314294  1
  P  P17  1  0.33966066  0.30362028  0.93585711  1
  P  P18  1  0.66034034  0.69637972  0.06414289  1
  P  P19  1  0.78962973  0.27112555  0.34685706  1
  Fe  Fe20  1  0.80949059  0.50251229  0.68029391  1
  Fe  Fe21  1  0.19050941  0.49748971  0.31970509  1
  Fe  Fe22  1  0.00000000  0.00000000  0.00000000  1
