# generated using pymatgen
data_Ho5(Mo3S4)12
_symmetry_space_group_name_H-M   'P 1'
_cell_length_a   12.98848835
_cell_length_b   19.48690382
_cell_length_c   11.33462842
_cell_angle_alpha   54.42225154
_cell_angle_beta   54.44764897
_cell_angle_gamma   89.56038008
_symmetry_Int_Tables_number   1
_chemical_formula_structural   Ho5(Mo3S4)12
_chemical_formula_sum   'Ho5 Mo36 S48'
_cell_volume   1644.41429641
_cell_formula_units_Z   1
loop_
 _symmetry_equiv_pos_site_id
 _symmetry_equiv_pos_as_xyz
  1  'x, y, z'
loop_
 _atom_site_type_symbol
 _atom_site_label
 _atom_site_symmetry_multiplicity
 _atom_site_fract_x
 _atom_site_fract_y
 _atom_site_fract_z
 _atom_site_occupancy
  Ho  Ho0  1  0.99913881  0.33168927  0.00225559  1
  Ho  Ho1  1  0.00086119  0.66831073  0.99774441  1
  Ho  Ho2  1  0.50000000  0.00000000  0.00000000  1
  Ho  Ho3  1  0.49959416  0.33347409  -0.00019906  1
  Ho  Ho4  1  0.50040584  0.66652591  1.00019906  1
  Mo  Mo5  1  0.16667304  0.06557123  0.22226289  1
  Mo  Mo6  1  0.16845677  0.39892660  0.22281379  1
  Mo  Mo7  1  0.17104909  0.73247179  0.22020312  1
  Mo  Mo8  1  0.06833239  0.11100510  0.44422176  1
  Mo  Mo9  1  0.06875834  0.44539283  0.44109804  1
  Mo  Mo10  1  0.07076576  0.77892378  0.43894048  1
  Mo  Mo11  1  0.09875388  0.28676101  0.58181373  1
  Mo  Mo12  1  0.09874167  0.62022947  0.57986884  1
  Mo  Mo13  1  0.09830921  0.95457255  0.58046631  1
  Mo  Mo14  1  0.40191569  0.04680507  0.42013261  1
  Mo  Mo15  1  0.40121853  0.38150796  0.41720151  1
  Mo  Mo16  1  0.40153364  0.71331594  0.42017639  1
  Mo  Mo17  1  0.43037850  0.22123812  0.55739764  1
  Mo  Mo18  1  0.43040764  0.55456581  0.55951107  1
  Mo  Mo19  1  0.42723644  0.88556677  0.56248391  1
  Mo  Mo20  1  0.33155963  0.26834216  0.77553009  1
  Mo  Mo21  1  0.33137611  0.60012990  0.77826531  1
  Mo  Mo22  1  0.33182623  0.93439322  0.77860160  1
  Mo  Mo23  1  0.66817377  0.06560678  0.22139840  1
  Mo  Mo24  1  0.66862389  0.39987010  0.22173469  1
  Mo  Mo25  1  0.66844037  0.73165784  0.22446991  1
  Mo  Mo26  1  0.57276356  0.11443323  0.43751609  1
  Mo  Mo27  1  0.56959236  0.44543419  0.44048893  1
  Mo  Mo28  1  0.56962150  0.77876188  0.44260236  1
  Mo  Mo29  1  0.59846636  0.28668406  0.57982361  1
  Mo  Mo30  1  0.59878147  0.61849204  0.58279849  1
  Mo  Mo31  1  0.59808431  0.95319493  0.57986739  1
  Mo  Mo32  1  0.90169079  0.04542745  0.41953369  1
  Mo  Mo33  1  0.90125833  0.37977053  0.42013116  1
  Mo  Mo34  1  0.90124612  0.71323899  0.41818627  1
  Mo  Mo35  1  0.92923424  0.22107622  0.56105952  1
  Mo  Mo36  1  0.93124166  0.55460717  0.55890196  1
  Mo  Mo37  1  0.93166761  0.88899490  0.55577824  1
  Mo  Mo38  1  0.82895091  0.26752821  0.77979688  1
  Mo  Mo39  1  0.83154323  0.60107340  0.77718621  1
  Mo  Mo40  1  0.83332696  0.93442877  0.77773711  1
  S  S41  1  0.11975818  0.20768279  0.12894048  1
  S  S42  1  0.11958199  0.54076584  0.12841646  1
  S  S43  1  0.12319264  0.87002080  0.12852466  1
  S  S44  1  0.19111663  0.25287282  0.37089309  1
  S  S45  1  0.19180261  0.58528334  0.37047166  1
  S  S46  1  0.99978241  0.00008477  0.76559194  1
  S  S47  1  0.19192715  0.92038781  0.36770045  1
  S  S48  1  0.99754224  0.33296919  0.76497557  1
  S  S49  1  0.99950951  0.66669159  0.76296625  1
  S  S50  1  0.31148448  0.12771795  0.24824561  1
  S  S51  1  0.31109129  0.46152454  0.24771473  1
  S  S52  1  0.31295515  0.79490947  0.24678228  1
  S  S53  1  0.19516520  0.21221853  0.73849070  1
  S  S54  1  0.18854169  0.53869049  0.75127394  1
  S  S55  1  0.18609618  0.87261950  0.75531696  1
  S  S56  1  0.50031758  0.33488965  0.23487983  1
  S  S57  1  0.49974265  0.66725017  0.23724616  1
  S  S58  1  0.31921396  0.08251616  0.62422954  1
  S  S59  1  0.49731172  0.99787702  0.24085415  1
  S  S60  1  0.30769737  0.41378967  0.63110370  1
  S  S61  1  0.30689350  0.74543216  0.63359699  1
  S  S62  1  0.61965234  0.20834266  0.12864255  1
  S  S63  1  0.62171822  0.54281961  0.12655253  1
  S  S64  1  0.62040895  0.87430153  0.12962249  1
  S  S65  1  0.37959105  0.12569847  0.87037751  1
  S  S66  1  0.37828178  0.45718039  0.87344747  1
  S  S67  1  0.38034766  0.79165734  0.87135745  1
  S  S68  1  0.69310650  0.25456784  0.36640301  1
  S  S69  1  0.69230263  0.58621033  0.36889630  1
  S  S70  1  0.50268828  0.00212298  0.75914585  1
  S  S71  1  0.68078604  0.91748384  0.37577046  1
  S  S72  1  0.50025735  0.33274983  0.76275384  1
  S  S73  1  0.49968242  0.66511035  0.76512017  1
  S  S74  1  0.81390382  0.12738050  0.24468304  1
  S  S75  1  0.81145831  0.46130951  0.24872606  1
  S  S76  1  0.80483480  0.78778147  0.26150930  1
  S  S77  1  0.68704485  0.20509053  0.75321772  1
  S  S78  1  0.68890871  0.53847546  0.75228527  1
  S  S79  1  0.68851552  0.87228205  0.75175439  1
  S  S80  1  0.00049049  0.33330841  0.23703375  1
  S  S81  1  0.00245776  0.66703081  0.23502443  1
  S  S82  1  0.80807285  0.07961219  0.63229955  1
  S  S83  1  0.00021759  0.99991523  0.23440806  1
  S  S84  1  0.80819739  0.41471666  0.62952834  1
  S  S85  1  0.80888337  0.74712718  0.62910691  1
  S  S86  1  0.87680736  0.12997920  0.87147534  1
  S  S87  1  0.88041801  0.45923416  0.87158354  1
  S  S88  1  0.88024182  0.79231721  0.87105952  1
