# generated using pymatgen
data_Sr3Pr10Al12Si18(N2O)18
_symmetry_space_group_name_H-M   'P 1'
_cell_length_a   11.70973344
_cell_length_b   11.70921527
_cell_length_c   11.72822920
_cell_angle_alpha   109.51065466
_cell_angle_beta   109.49995011
_cell_angle_gamma   109.43413772
_symmetry_Int_Tables_number   1
_chemical_formula_structural   Sr3Pr10Al12Si18(N2O)18
_chemical_formula_sum   'Sr3 Pr10 Al12 Si18 N36 O18'
_cell_volume   1237.42386073
_cell_formula_units_Z   1
loop_
 _symmetry_equiv_pos_site_id
 _symmetry_equiv_pos_as_xyz
  1  'x, y, z'
loop_
 _atom_site_type_symbol
 _atom_site_label
 _atom_site_symmetry_multiplicity
 _atom_site_fract_x
 _atom_site_fract_y
 _atom_site_fract_z
 _atom_site_occupancy
  Al  Al0  1  0.00000000  0.24678403  0.83751596  1
  Al  Al1  1  1.00000000  0.83795918  0.24578800  1
  Al  Al2  1  0.24685136  0.00081164  0.83817636  1
  Al  Al3  1  0.16236753  0.40869689  0.16282171  1
  Al  Al4  1  0.16285189  0.16322160  0.41005045  1
  Al  Al5  1  0.24595360  0.83685854  -0.00042015  1
  Al  Al6  1  0.59128156  0.75391395  0.75351632  1
  Al  Al7  1  0.75314864  0.75396028  0.59132499  1
  Al  Al8  1  0.75404640  0.59090493  0.75362625  1
  Al  Al9  1  0.40871844  0.16263239  0.16223476  1
  Al  Al10  1  0.83714811  0.00036971  0.24719856  1
  Al  Al11  1  0.83763247  0.24632936  0.00045419  1
  N  N12  1  0.15005059  0.00019156  0.67275419  1
  N  N13  1  0.15389098  0.84279804  0.84279371  1
  N  N14  1  0.14565371  0.44997868  0.45139482  1
  N  N15  1  0.30266945  0.85455396  0.30265030  1
  N  N16  1  0.30262077  0.30450753  0.85429794  1
  N  N17  1  0.14943886  0.67225613  -0.00036247  1
  N  N18  1  0.30573121  0.15541589  1.00024360  1
  N  N19  1  0.52221349  0.84955702  0.85009779  1
  N  N20  1  0.55210080  0.00328562  0.69945424  1
  N  N21  1  0.15673471  0.31122402  0.99970991  1
  N  N22  1  0.15653233  0.00112898  0.30925576  1
  N  N23  1  0.32891751  0.32753078  0.47975455  1
  N  N24  1  0.32361749  0.46985582  0.32577609  1
  N  N25  1  0.69737923  0.00188676  0.55167717  1
  N  N26  1  0.69426879  0.84968468  0.69451239  1
  N  N27  1  0.69112027  0.69064152  0.84624165  1
  N  N28  1  0.45074472  0.14425333  0.44659665  1
  N  N29  1  0.44789920  0.45118482  0.14735344  1
  N  N30  1  0.47778651  0.32734353  0.32788430  1
  N  N31  1  0.30887973  -0.00047874  0.15512138  1
  N  N32  1  0.54925528  0.69350861  0.99585193  1
  N  N33  1  0.84610902  0.68890707  0.68890274  1
  N  N34  1  0.85056114  0.52281727  0.85019867  1
  N  N35  1  0.84994941  0.85014097  0.52270360  1
  N  N36  1  0.69733055  0.55188451  0.99998085  1
  N  N37  1  0.84326529  0.15448931  0.84297519  1
  N  N38  1  0.84346767  0.84459664  0.15272342  1
  N  N39  1  0.00000000  0.55032884  0.69568499  1
  N  N40  1  1.00000000  0.69660898  0.55148548  1
  N  N41  1  0.67108249  0.99861328  0.15083704  1
  N  N42  1  0.67638251  0.14623833  0.00215860  1
  N  N43  1  0.85434629  0.30432497  0.30574110  1
  N  N44  1  0.00000000  0.67317629  0.14982364  1
  N  N45  1  1.00000000  0.14956256  0.67301330  1
  N  N46  1  1.00000000  0.15800826  0.31259270  1
  N  N47  1  0.00000000  0.31008794  0.15794475  1
  O  O48  1  1.00000000  0.38972139  0.81100340  1
  O  O49  1  0.00000000  0.81412437  0.39032337  1
  O  O50  1  0.39079614  1.00009397  0.81411940  1
  O  O51  1  0.24818585  0.49900264  0.75013285  1
  O  O52  1  0.24070559  0.75114972  0.50610796  1
  O  O53  1  0.18399381  0.57436499  0.18326850  1
  O  O54  1  0.18562614  0.18752870  0.57745481  1
  O  O55  1  0.42218625  0.60995758  0.61053750  1
  O  O56  1  0.38897710  0.81108610  -0.00167576  1
  O  O57  1  0.50670142  0.75279438  0.24063574  1
  O  O58  1  0.49329858  0.24609296  0.73393432  1
  O  O59  1  0.61102290  0.42210901  0.60934714  1
  O  O60  1  0.60920386  0.60929783  0.42332326  1
  O  O61  1  0.81437386  0.00190256  0.39182867  1
  O  O62  1  0.57781375  0.18777133  0.18835125  1
  O  O63  1  0.75181415  0.25081678  0.50194699  1
  O  O64  1  0.75929441  0.51044412  0.26540237  1
  O  O65  1  0.81600619  0.39037117  0.99927468  1
  Pr  Pr66  1  0.00000000  0.57724762  0.32532473  1
  Pr  Pr67  1  0.25177987  0.67745747  0.67613512  1
  Pr  Pr68  1  0.42615972  0.42079333  0.75046942  1
  Pr  Pr69  1  0.32426048  0.99550139  0.57379609  1
  Pr  Pr70  1  0.32570192  0.57655446  0.00148293  1
  Pr  Pr71  1  0.67429808  0.25085254  0.67578101  1
  Pr  Pr72  1  0.67573952  0.67124091  0.24953561  1
  Pr  Pr73  1  0.74822013  0.42567760  0.42435526  1
  Pr  Pr74  1  0.57384028  0.99463362  0.32430970  1
  Pr  Pr75  1  1.00000000  0.32426971  0.57622662  1
  Si  Si76  1  0.00000000  0.70002856  0.69988401  1
  Si  Si77  1  1.00000000  0.53846146  0.83939685  1
  Si  Si78  1  0.00000000  0.83975525  0.53880958  1
  Si  Si79  1  1.00000000  0.30084735  0.30118391  1
  Si  Si80  1  0.16021503  0.16060852  0.69945407  1
  Si  Si81  1  0.16067116  0.69858113  0.16077319  1
  Si  Si82  1  0.54041384  0.00125518  0.84203716  1
  Si  Si83  1  0.30097832  0.46072754  0.46217534  1
  Si  Si84  1  0.69963153  0.00017936  0.70004945  1
  Si  Si85  1  0.30036847  0.30054784  1.00041793  1
  Si  Si86  1  0.29941179  0.99932391  0.29845823  1
  Si  Si87  1  0.45958616  0.46084134  0.30162331  1
  Si  Si88  1  0.46171769  0.30017476  0.46119864  1
  Si  Si89  1  0.53828231  0.83845707  0.99948095  1
  Si  Si90  1  0.83978497  0.00039349  0.53923905  1
  Si  Si91  1  0.70058821  0.69991212  0.99904645  1
  Si  Si92  1  0.69902168  0.15974922  0.16119702  1
  Si  Si93  1  0.83932884  0.53790998  0.00010204  1
  Sr  Sr94  1  1.00000000  0.00008190  1.00093148  1
  Sr  Sr95  1  0.42501152  0.74473553  0.42464857  1
  Sr  Sr96  1  0.57498848  0.31972401  -0.00036295  1
