# generated using pymatgen
data_Dy11S16
_symmetry_space_group_name_H-M   'P 1'
_cell_length_a   28.84797517
_cell_length_b   8.33796846
_cell_length_c   8.28335299
_cell_angle_alpha   90.00000000
_cell_angle_beta   54.95103620
_cell_angle_gamma   54.68560534
_symmetry_Int_Tables_number   1
_chemical_formula_structural   Dy11S16
_chemical_formula_sum   'Dy22 S32'
_cell_volume   1155.00518038
_cell_formula_units_Z   2
loop_
 _symmetry_equiv_pos_site_id
 _symmetry_equiv_pos_as_xyz
  1  'x, y, z'
loop_
 _atom_site_type_symbol
 _atom_site_label
 _atom_site_symmetry_multiplicity
 _atom_site_fract_x
 _atom_site_fract_y
 _atom_site_fract_z
 _atom_site_occupancy
  Dy  Dy0  1  0.99750258  0.12924114  0.73798993  1
  Dy  Dy1  1  0.05555731  0.63859050  0.38878499  1
  Dy  Dy2  1  0.12486643  0.25494604  0.62957439  1
  Dy  Dy3  1  0.25495797  0.34988269  0.23286760  1
  Dy  Dy4  1  0.19444269  0.86081973  0.11121501  1
  Dy  Dy5  1  0.25249742  0.11925145  0.76201007  1
  Dy  Dy6  1  0.12513357  0.75441178  0.87042561  1
  Dy  Dy7  1  0.31342846  0.62901565  0.35390259  1
  Dy  Dy8  1  0.37500000  0.25000000  0.62127115  1
  Dy  Dy9  1  0.49750258  0.38074855  0.27199977  1
  Dy  Dy10  1  0.43657154  0.87098435  0.10761644  1
  Dy  Dy11  1  0.49504203  0.15011731  0.75269949  1
  Dy  Dy12  1  0.55555731  0.63918027  0.38898578  1
  Dy  Dy13  1  0.62513357  0.24505396  0.62904012  1
  Dy  Dy14  1  0.75249742  0.37075886  0.22800023  1
  Dy  Dy15  1  0.69444269  0.86140950  0.11101422  1
  Dy  Dy16  1  0.75495797  0.13028542  0.74730051  1
  Dy  Dy17  1  0.62486643  0.74558822  0.87095988  1
  Dy  Dy18  1  0.81342846  0.61727050  0.39238356  1
  Dy  Dy19  1  0.99504203  0.36971458  0.26713240  1
  Dy  Dy20  1  0.93657154  0.88272950  0.14609741  1
  Dy  Dy21  1  0.87500000  0.75000000  0.87872885  1
  S  S22  1  0.09203930  0.50121177  0.99619623  1
  S  S23  1  0.03286312  0.36076341  0.50966181  1
  S  S24  1  0.20692459  0.15769498  0.16509928  1
  S  S25  1  0.04307541  0.98539336  0.33490072  1
  S  S26  1  0.21713688  0.49221590  0.99033819  1
  S  S27  1  0.15765083  0.01078922  0.86803864  1
  S  S28  1  0.09234917  0.64139254  0.63196136  1
  S  S29  1  0.15796070  0.86936895  0.50380377  1
  S  S30  1  0.33621377  0.50119757  0.99438364  1
  S  S31  1  0.28454457  0.36955394  0.49194765  1
  S  S32  1  0.46545543  0.13044606  0.13012595  1
  S  S33  1  0.28223993  0.01195808  0.37934134  1
  S  S34  1  0.46776007  0.48804192  0.00830104  1
  S  S35  1  0.41378623  0.99880243  0.83923871  1
  S  S36  1  0.33782748  0.63972112  0.62685565  1
  S  S37  1  0.41217252  0.86027888  0.47816557  1
  S  S38  1  0.59234917  0.48921078  0.99864195  1
  S  S39  1  0.54307541  0.34230502  0.49279765  1
  S  S40  1  0.71713688  0.13923659  0.14111429  1
  S  S41  1  0.53286312  0.00778410  0.35888571  1
  S  S42  1  0.70692459  0.51460664  0.00720235  1
  S  S43  1  0.65796070  0.99878823  0.86435341  1
  S  S44  1  0.59203930  0.63063105  0.63564659  1
  S  S45  1  0.65765083  0.85860746  0.50135805  1
  S  S46  1  0.83782748  0.50896896  0.02183443  1
  S  S47  1  0.78223993  0.35908222  0.49169896  1
  S  S48  1  0.78454457  0.99226776  0.36987405  1
  S  S49  1  0.96776007  0.14091778  0.12065866  1
  S  S50  1  0.96545543  0.50773224  0.00805235  1
  S  S51  1  0.91217252  0.99103104  0.87314435  1
  S  S52  1  0.83621377  0.65394735  0.66076129  1
  S  S53  1  0.91378623  0.84605265  0.50561636  1
