# generated using pymatgen
data_MgAl2O4
_symmetry_space_group_name_H-M   'P 1'
_cell_length_a   5.76037688
_cell_length_b   5.76037757
_cell_length_c   23.12964274
_cell_angle_alpha   60.12596966
_cell_angle_beta   60.12596566
_cell_angle_gamma   59.99999916
_symmetry_Int_Tables_number   1
_chemical_formula_structural   MgAl2O4
_chemical_formula_sum   'Mg8 Al16 O32'
_cell_volume   543.72593816
_cell_formula_units_Z   8
loop_
 _symmetry_equiv_pos_site_id
 _symmetry_equiv_pos_as_xyz
  1  'x, y, z'
loop_
 _atom_site_type_symbol
 _atom_site_label
 _atom_site_symmetry_multiplicity
 _atom_site_fract_x
 _atom_site_fract_y
 _atom_site_fract_z
 _atom_site_occupancy
  Al  Al0  1  0.01087426  0.49585266  0.12435510  1
  Al  Al1  1  0.49585266  0.01087426  0.12435510  1
  Al  Al2  1  0.49585266  0.49585266  0.12435510  1
  Al  Al3  1  0.01011518  0.49640958  0.37426641  1
  Al  Al4  1  0.49640958  0.01011518  0.37426641  1
  Al  Al5  1  0.00526383  0.49693535  0.62521637  1
  Al  Al6  1  0.49640958  0.49640958  0.37426641  1
  Al  Al7  1  0.49693535  0.00526383  0.62521637  1
  Al  Al8  1  0.88031623  0.88031623  0.21476283  1
  Al  Al9  1  0.49693535  0.49693535  0.62521637  1
  Al  Al10  1  0.00660231  0.49880184  0.87394850  1
  Al  Al11  1  0.49880184  0.00660231  0.87394850  1
  Al  Al12  1  0.88123108  0.88123108  0.46407669  1
  Al  Al13  1  0.50214875  0.50214875  0.74838844  1
  Al  Al14  1  0.49880184  0.49880184  0.87394850  1
  Al  Al15  1  0.87669802  0.87669802  0.96747648  1
  Mg  Mg16  1  0.12161285  0.12161285  0.03379037  1
  Mg  Mg17  1  0.12116353  0.12116353  0.28412736  1
  Mg  Mg18  1  0.49863339  0.49863339  0.25102496  1
  Mg  Mg19  1  0.12150515  0.12150515  0.53387114  1
  Mg  Mg20  1  0.12397935  0.12397935  0.78201549  1
  Mg  Mg21  1  0.49744336  0.49744336  0.50191748  1
  Mg  Mg22  1  0.87792568  0.87792568  0.71655574  1
  Mg  Mg23  1  0.49845655  0.49845655  0.00115759  1
  O  O24  1  0.25340621  0.25340621  0.07019195  1
  O  O25  1  0.25340621  0.71241978  0.07019195  1
  O  O26  1  0.26008323  0.26008323  0.17993758  1
  O  O27  1  0.71241978  0.25340621  0.07019195  1
  O  O28  1  0.25295737  0.25295737  0.32062297  1
  O  O29  1  0.27059975  0.75149944  0.18160034  1
  O  O30  1  0.75149944  0.27059975  0.18160034  1
  O  O31  1  0.25295737  0.71159340  0.32062297  1
  O  O32  1  0.25988867  0.25988867  0.43008350  1
  O  O33  1  0.74485342  0.74485342  0.06635994  1
  O  O34  1  0.71159340  0.25295737  0.32062297  1
  O  O35  1  0.75149944  0.75149944  0.18160034  1
  O  O36  1  0.24967717  0.24967717  0.57230045  1
  O  O37  1  0.27203659  0.75099208  0.43149481  1
  O  O38  1  0.75099208  0.27203659  0.43149481  1
  O  O39  1  0.74661946  0.74661946  0.31503541  1
  O  O40  1  0.24967717  0.71144387  0.57230045  1
  O  O41  1  0.25988949  0.25988949  0.68008288  1
  O  O42  1  0.71144387  0.24967717  0.57230045  1
  O  O43  1  0.75099208  0.75099208  0.43149481  1
  O  O44  1  0.26553610  0.26553610  0.81522295  1
  O  O45  1  0.29604670  0.73466770  0.68365447  1
  O  O46  1  0.73466770  0.29604670  0.68365447  1
  O  O47  1  0.74986661  0.74986661  0.56260004  1
  O  O48  1  0.26282967  0.26282967  0.92787775  1
  O  O49  1  0.26553610  0.70803602  0.81522295  1
  O  O50  1  0.73466770  0.73466770  0.68365447  1
  O  O51  1  0.70803602  0.26553610  0.81522295  1
  O  O52  1  0.26389241  0.75472270  0.93166555  1
  O  O53  1  0.75472270  0.26389241  0.93166555  1
  O  O54  1  0.73301500  0.73301500  0.82523875  1
  O  O55  1  0.75472270  0.75472270  0.93166555  1
