# generated using pymatgen
data_CuGeO3
_symmetry_space_group_name_H-M   'P 1'
_cell_length_a   8.74592071
_cell_length_b   9.88444499
_cell_length_c   11.92396927
_cell_angle_alpha   90.00000000
_cell_angle_beta   90.00000000
_cell_angle_gamma   90.00000000
_symmetry_Int_Tables_number   1
_chemical_formula_structural   CuGeO3
_chemical_formula_sum   'Cu16 Ge16 O48'
_cell_volume   1030.81011769
_cell_formula_units_Z   16
loop_
 _symmetry_equiv_pos_site_id
 _symmetry_equiv_pos_as_xyz
  1  'x, y, z'
loop_
 _atom_site_type_symbol
 _atom_site_label
 _atom_site_symmetry_multiplicity
 _atom_site_fract_x
 _atom_site_fract_y
 _atom_site_fract_z
 _atom_site_occupancy
  Cu  Cu0  1  0.50000000  0.50000000  0.75090534  1
  Cu  Cu1  1  0.00000000  0.50000000  0.49828209  1
  Cu  Cu2  1  0.00000000  0.50000000  0.24987906  1
  Cu  Cu3  1  0.00000000  -0.00000000  0.24909466  1
  Cu  Cu4  1  0.00000000  -0.00000000  0.00168166  1
  Cu  Cu5  1  0.50000000  0.50000000  0.99831834  1
  Cu  Cu6  1  0.50000000  -0.00000000  0.50171791  1
  Cu  Cu7  1  0.50000000  0.50000000  0.50166811  1
  Cu  Cu8  1  0.50000000  0.50000000  0.24895072  1
  Cu  Cu9  1  0.00000000  0.00000000  0.75104928  1
  Cu  Cu10  1  0.50000000  0.00000000  0.75012094  1
  Cu  Cu11  1  0.00000000  -0.00000000  0.49833189  1
  Cu  Cu12  1  0.00000000  0.50000000  0.75017940  1
  Cu  Cu13  1  0.00000000  0.50000000  0.00183070  1
  Cu  Cu14  1  0.50000000  0.00000000  0.99816930  1
  Cu  Cu15  1  0.50000000  0.00000000  0.24982060  1
  Ge  Ge16  1  0.25432421  0.29614444  0.62509930  1
  Ge  Ge17  1  0.24828071  0.79513362  0.12511870  1
  Ge  Ge18  1  0.24567579  0.79614444  0.37490070  1
  Ge  Ge19  1  0.25146447  0.29583473  0.37520570  1
  Ge  Ge20  1  0.25171929  0.29513362  0.87488130  1
  Ge  Ge21  1  0.25176315  0.79572017  0.87499548  1
  Ge  Ge22  1  0.75146447  0.20416527  0.62479430  1
  Ge  Ge23  1  0.24823685  0.29572017  0.12500452  1
  Ge  Ge24  1  0.74567579  0.70385556  0.62509930  1
  Ge  Ge25  1  0.75432421  0.20385556  0.37490070  1
  Ge  Ge26  1  0.74828071  0.70486638  0.87488130  1
  Ge  Ge27  1  0.75171929  0.20486638  0.12511870  1
  Ge  Ge28  1  0.74853553  0.70416527  0.37520570  1
  Ge  Ge29  1  0.74823685  0.20427983  0.87499548  1
  Ge  Ge30  1  0.75176315  0.70427983  0.12500452  1
  Ge  Ge31  1  0.24853553  0.79583473  0.62479430  1
  O  O32  1  0.57153542  0.61117333  0.62615452  1
  O  O33  1  0.91221393  0.10002463  0.87595385  1
  O  O34  1  0.42193940  0.89250404  0.87469455  1
  O  O35  1  0.92078175  0.10499232  0.62401143  1
  O  O36  1  0.74819216  0.30686732  0.25011900  1
  O  O37  1  0.91425472  0.60187291  0.37470112  1
  O  O38  1  0.41221393  0.39997537  0.12404615  1
  O  O39  1  0.42341985  0.39064695  0.87373194  1
  O  O40  1  0.08574528  0.39812709  0.37470112  1
  O  O41  1  0.74990389  0.80603432  0.50018136  1
  O  O42  1  0.57658015  0.60935305  0.87373194  1
  O  O43  1  0.42078175  0.39500768  0.37598857  1
  O  O44  1  0.08864413  0.40149152  0.87561982  1
  O  O45  1  0.42846458  0.38882667  0.62615452  1
  O  O46  1  0.08778607  0.89997537  0.87595385  1
  O  O47  1  0.92341985  0.10935305  0.12626806  1
  O  O48  1  0.75207372  0.30587018  0.75011113  1
  O  O49  1  0.07658015  0.89064695  0.12626806  1
  O  O50  1  0.75024059  0.80666768  0.00019756  1
  O  O51  1  0.59537224  0.09279624  0.37538203  1
  O  O52  1  0.57806060  0.10749596  0.87469455  1
  O  O53  1  0.91135587  0.59850848  0.87561982  1
  O  O54  1  0.41425472  0.89812709  0.62529888  1
  O  O55  1  0.07153542  0.88882667  0.37384548  1
  O  O56  1  0.24792628  0.69412982  0.75011113  1
  O  O57  1  0.74975941  0.30666768  -0.00019756  1
  O  O58  1  0.75180784  0.80686732  0.74988100  1
  O  O59  1  0.92193940  0.60749596  0.12530545  1
  O  O60  1  0.75009611  0.30603432  0.49981864  1
  O  O61  1  0.58574528  0.10187291  0.62529888  1
  O  O62  1  0.40462776  0.90720376  0.37538203  1
  O  O63  1  0.25024059  0.69333232  -0.00019756  1
  O  O64  1  0.24975941  0.19333232  0.00019756  1
  O  O65  1  0.25180784  0.69313268  0.25011900  1
  O  O66  1  0.57921825  0.60499232  0.37598857  1
  O  O67  1  0.25207372  0.19412982  0.24988887  1
  O  O68  1  0.09537224  0.40720376  0.62461797  1
  O  O69  1  0.24990389  0.69396568  0.49981864  1
  O  O70  1  0.58864413  0.09850848  0.12438018  1
  O  O71  1  0.58778607  0.60002463  0.12404615  1
  O  O72  1  0.24819216  0.19313268  0.74988100  1
  O  O73  1  0.92846458  0.11117333  0.37384548  1
  O  O74  1  0.41135587  0.90149152  0.12438018  1
  O  O75  1  0.07921825  0.89500768  0.62401143  1
  O  O76  1  0.90462776  0.59279624  0.62461797  1
  O  O77  1  0.07806060  0.39250404  0.12530545  1
  O  O78  1  0.74792628  0.80587018  0.24988887  1
  O  O79  1  0.25009611  0.19396568  0.50018136  1
