# generated using pymatgen
data_Mn4(PO4)3
_symmetry_space_group_name_H-M   'P 1'
_cell_length_a   6.39801877
_cell_length_b   16.40698858
_cell_length_c   9.98264488
_cell_angle_alpha   90.00000000
_cell_angle_beta   90.00000000
_cell_angle_gamma   90.00000000
_symmetry_Int_Tables_number   1
_chemical_formula_structural   Mn4(PO4)3
_chemical_formula_sum   'Mn16 P12 O48'
_cell_volume   1047.90040345
_cell_formula_units_Z   4
loop_
 _symmetry_equiv_pos_site_id
 _symmetry_equiv_pos_as_xyz
  1  'x, y, z'
loop_
 _atom_site_type_symbol
 _atom_site_label
 _atom_site_symmetry_multiplicity
 _atom_site_fract_x
 _atom_site_fract_y
 _atom_site_fract_z
 _atom_site_occupancy
  Mn  Mn0  1  0.00000000  0.09411946  0.54889199  1
  Mn  Mn1  1  0.00000000  0.13917364  0.98754230  1
  Mn  Mn2  1  0.00000000  0.86082636  0.01245770  1
  Mn  Mn3  1  0.00000000  0.90588054  0.45110801  1
  Mn  Mn4  1  0.24724352  0.29888532  0.75976477  1
  Mn  Mn5  1  0.24724352  0.70111468  0.24023523  1
  Mn  Mn6  1  0.25275648  0.20111468  0.25976477  1
  Mn  Mn7  1  0.25275648  0.79888532  0.74023523  1
  Mn  Mn8  1  0.50000000  0.36082636  0.48754230  1
  Mn  Mn9  1  0.50000000  0.40588054  0.04889199  1
  Mn  Mn10  1  0.50000000  0.59411946  0.95110801  1
  Mn  Mn11  1  0.50000000  0.63917364  0.51245770  1
  Mn  Mn12  1  0.74724352  0.20111468  0.25976477  1
  Mn  Mn13  1  0.74724352  0.79888532  0.74023523  1
  Mn  Mn14  1  0.75275648  0.29888532  0.75976477  1
  Mn  Mn15  1  0.75275648  0.70111468  0.24023523  1
  O  O16  1  0.00000000  0.01759066  0.37289015  1
  O  O17  1  0.00000000  0.05137103  0.84656091  1
  O  O18  1  0.00000000  0.18497044  0.41601376  1
  O  O19  1  0.00000000  0.25170243  0.12520794  1
  O  O20  1  0.00000000  0.27448581  0.62283698  1
  O  O21  1  0.00000000  0.32298911  0.89801804  1
  O  O22  1  0.00000000  0.67701089  0.10198196  1
  O  O23  1  0.00000000  0.72551419  0.37716302  1
  O  O24  1  0.00000000  0.74829757  0.87479206  1
  O  O25  1  0.00000000  0.81502956  0.58398624  1
  O  O26  1  0.00000000  0.94862897  0.15343909  1
  O  O27  1  0.00000000  0.98240934  0.62710985  1
  O  O28  1  0.19133464  0.08598274  0.17435370  1
  O  O29  1  0.19133464  0.91401726  0.82564630  1
  O  O30  1  0.20042839  0.38411440  0.09405531  1
  O  O31  1  0.20042839  0.61588560  0.90594469  1
  O  O32  1  0.20307067  0.31290173  0.40863905  1
  O  O33  1  0.20307067  0.68709827  0.59136095  1
  O  O34  1  0.29692933  0.18709827  0.90863905  1
  O  O35  1  0.29692933  0.81290173  0.09136095  1
  O  O36  1  0.29957161  0.11588560  0.59405531  1
  O  O37  1  0.29957161  0.88411440  0.40594469  1
  O  O38  1  0.30866536  0.41401726  0.67435370  1
  O  O39  1  0.30866536  0.58598274  0.32564630  1
  O  O40  1  0.50000000  0.17701089  0.39801804  1
  O  O41  1  0.50000000  0.22551419  0.12283698  1
  O  O42  1  0.50000000  0.24829757  0.62520794  1
  O  O43  1  0.50000000  0.31502956  0.91601376  1
  O  O44  1  0.50000000  0.44862897  0.34656091  1
  O  O45  1  0.50000000  0.48240934  0.87289015  1
  O  O46  1  0.50000000  0.51759066  0.12710985  1
  O  O47  1  0.50000000  0.55137103  0.65343909  1
  O  O48  1  0.50000000  0.68497044  0.08398624  1
  O  O49  1  0.50000000  0.75170243  0.37479206  1
  O  O50  1  0.50000000  0.77448581  0.87716302  1
  O  O51  1  0.50000000  0.82298911  0.60198196  1
  O  O52  1  0.69133464  0.41401726  0.67435370  1
  O  O53  1  0.69133464  0.58598274  0.32564630  1
  O  O54  1  0.70042839  0.11588560  0.59405531  1
  O  O55  1  0.70042839  0.88411440  0.40594469  1
  O  O56  1  0.70307067  0.18709827  0.90863905  1
  O  O57  1  0.70307067  0.81290173  0.09136095  1
  O  O58  1  0.79692933  0.31290173  0.40863905  1
  O  O59  1  0.79692933  0.68709827  0.59136095  1
  O  O60  1  0.79957161  0.38411440  0.09405531  1
  O  O61  1  0.79957161  0.61588560  0.90594469  1
  O  O62  1  0.80866536  0.08598274  0.17435370  1
  O  O63  1  0.80866536  0.91401726  0.82564630  1
  P  P64  1  0.00000000  0.03274280  0.21515355  1
  P  P65  1  0.00000000  0.27938868  0.46781372  1
  P  P66  1  0.00000000  0.33890044  0.05240372  1
  P  P67  1  0.00000000  0.66109956  0.94759628  1
  P  P68  1  0.00000000  0.72061132  0.53218628  1
  P  P69  1  0.00000000  0.96725720  0.78484645  1
  P  P70  1  0.50000000  0.16109956  0.55240372  1
  P  P71  1  0.50000000  0.22061132  0.96781372  1
  P  P72  1  0.50000000  0.46725720  0.71515355  1
  P  P73  1  0.50000000  0.53274280  0.28484645  1
  P  P74  1  0.50000000  0.77938868  0.03218628  1
  P  P75  1  0.50000000  0.83890044  0.44759628  1
