# generated using pymatgen
data_MnAsO4
_symmetry_space_group_name_H-M   'P 1'
_cell_length_a   6.14739555
_cell_length_b   10.28844520
_cell_length_c   5.07527549
_cell_angle_alpha   90.00000000
_cell_angle_beta   90.00000000
_cell_angle_gamma   90.00000000
_symmetry_Int_Tables_number   1
_chemical_formula_structural   MnAsO4
_chemical_formula_sum   'Mn4 As4 O16'
_cell_volume   320.99667082
_cell_formula_units_Z   4
loop_
 _symmetry_equiv_pos_site_id
 _symmetry_equiv_pos_as_xyz
  1  'x, y, z'
loop_
 _atom_site_type_symbol
 _atom_site_label
 _atom_site_symmetry_multiplicity
 _atom_site_fract_x
 _atom_site_fract_y
 _atom_site_fract_z
 _atom_site_occupancy
  As  As0  1  0.25000000  0.09853701  0.42601350  1
  As  As1  1  0.25000000  0.59853701  0.07398650  1
  As  As2  1  0.75000000  0.40146299  0.92601350  1
  As  As3  1  0.75000000  0.90146299  0.57398650  1
  Mn  Mn4  1  0.25000000  0.28084354  0.93916892  1
  Mn  Mn5  1  0.25000000  0.78084354  0.56083108  1
  Mn  Mn6  1  0.75000000  0.21915646  0.43916892  1
  Mn  Mn7  1  0.75000000  0.71915646  0.06083108  1
  O  O8  1  0.03844938  0.17699883  0.26562555  1
  O  O9  1  0.03844938  0.67699883  0.23437445  1
  O  O10  1  0.25000000  0.43596685  0.14678320  1
  O  O11  1  0.25000000  0.11663302  0.76185614  1
  O  O12  1  0.25000000  0.61663302  0.73814386  1
  O  O13  1  0.25000000  0.93596685  0.35321680  1
  O  O14  1  0.46155062  0.17699883  0.26562555  1
  O  O15  1  0.46155062  0.67699883  0.23437445  1
  O  O16  1  0.53844938  0.82300117  0.73437445  1
  O  O17  1  0.53844938  0.32300117  0.76562555  1
  O  O18  1  0.75000000  0.56403315  0.85321680  1
  O  O19  1  0.75000000  0.06403315  0.64678320  1
  O  O20  1  0.75000000  0.38336698  0.26185614  1
  O  O21  1  0.75000000  0.88336698  0.23814386  1
  O  O22  1  0.96155062  0.32300117  0.76562555  1
  O  O23  1  0.96155062  0.82300117  0.73437445  1
