# generated using pymatgen
data_Zn2BiPO6
_symmetry_space_group_name_H-M   'P 1'
_cell_length_a   5.34038273
_cell_length_b   7.92246081
_cell_length_c   12.14436009
_cell_angle_alpha   90.00000000
_cell_angle_beta   90.00000000
_cell_angle_gamma   90.00000000
_symmetry_Int_Tables_number   1
_chemical_formula_structural   Zn2BiPO6
_chemical_formula_sum   'Zn8 Bi4 P4 O24'
_cell_volume   513.81540180
_cell_formula_units_Z   4
loop_
 _symmetry_equiv_pos_site_id
 _symmetry_equiv_pos_as_xyz
  1  'x, y, z'
loop_
 _atom_site_type_symbol
 _atom_site_label
 _atom_site_symmetry_multiplicity
 _atom_site_fract_x
 _atom_site_fract_y
 _atom_site_fract_z
 _atom_site_occupancy
  Zn  Zn0  1  0.25000000  0.70076829  0.90804975  1
  Zn  Zn1  1  0.75000000  0.20076829  0.59195025  1
  Zn  Zn2  1  0.75000000  0.80510693  0.60357224  1
  Zn  Zn3  1  0.75000000  0.29923171  0.09195025  1
  Zn  Zn4  1  0.25000000  0.79923171  0.40804975  1
  Zn  Zn5  1  0.25000000  0.19489307  0.39642776  1
  Zn  Zn6  1  0.75000000  0.69489307  0.10357224  1
  Zn  Zn7  1  0.25000000  0.30510693  0.89642776  1
  Bi  Bi8  1  0.75000000  0.98446013  0.90186373  1
  Bi  Bi9  1  0.75000000  0.51553987  0.40186373  1
  Bi  Bi10  1  0.25000000  0.48446013  0.59813627  1
  Bi  Bi11  1  0.25000000  0.01553987  0.09813627  1
  P  P12  1  0.75000000  0.97510182  0.30120904  1
  P  P13  1  0.25000000  0.02489818  0.69879096  1
  P  P14  1  0.75000000  0.52489818  0.80120904  1
  P  P15  1  0.25000000  0.47510182  0.19879096  1
  O  O16  1  0.00168640  0.32731442  0.49311825  1
  O  O17  1  0.99322941  0.99399723  0.37305772  1
  O  O18  1  0.49831360  0.17268558  0.99311825  1
  O  O19  1  0.25000000  0.60689697  0.29172013  1
  O  O20  1  0.00677059  0.00600277  0.62694228  1
  O  O21  1  0.99322941  0.50600277  0.87305772  1
  O  O22  1  0.00677059  0.49399723  0.12694228  1
  O  O23  1  0.25000000  0.29229596  0.24437083  1
  O  O24  1  0.75000000  0.39310303  0.70827987  1
  O  O25  1  0.49322941  0.00600277  0.62694228  1
  O  O26  1  0.00168640  0.17268558  0.99311825  1
  O  O27  1  0.99831360  0.82731442  0.00688175  1
  O  O28  1  0.49322941  0.49399723  0.12694228  1
  O  O29  1  0.50677059  0.50600277  0.87305772  1
  O  O30  1  0.25000000  0.20770404  0.74437083  1
  O  O31  1  0.49831360  0.32731442  0.49311825  1
  O  O32  1  0.50168640  0.82731442  0.00688175  1
  O  O33  1  0.50168640  0.67268558  0.50688175  1
  O  O34  1  0.99831360  0.67268558  0.50688175  1
  O  O35  1  0.75000000  0.10689697  0.20827987  1
  O  O36  1  0.75000000  0.79229596  0.25562917  1
  O  O37  1  0.50677059  0.99399723  0.37305772  1
  O  O38  1  0.25000000  0.89310303  0.79172013  1
  O  O39  1  0.75000000  0.70770404  0.75562917  1
