# generated using pymatgen
data_Cu4Bi7S12
_symmetry_space_group_name_H-M   'P 1'
_cell_length_a   3.94500618
_cell_length_b   9.44370361
_cell_length_c   15.22347276
_cell_angle_alpha   102.20747090
_cell_angle_beta   90.00000000
_cell_angle_gamma   102.05611922
_symmetry_Int_Tables_number   1
_chemical_formula_structural   Cu4Bi7S12
_chemical_formula_sum   'Cu4 Bi7 S12'
_cell_volume   541.52755297
_cell_formula_units_Z   1
loop_
 _symmetry_equiv_pos_site_id
 _symmetry_equiv_pos_as_xyz
  1  'x, y, z'
loop_
 _atom_site_type_symbol
 _atom_site_label
 _atom_site_symmetry_multiplicity
 _atom_site_fract_x
 _atom_site_fract_y
 _atom_site_fract_z
 _atom_site_occupancy
  Cu  Cu0  1  0.40837300  0.81674600  0.01020076  1
  Cu  Cu1  1  0.59162700  0.18325400  0.98979924  1
  Cu  Cu2  1  0.34684154  0.69368309  0.36134015  1
  Cu  Cu3  1  0.65315846  0.30631691  0.63865985  1
  Bi  Bi4  1  0.00000000  0.00000000  0.50000000  1
  Bi  Bi5  1  0.76211453  0.52422905  0.12912587  1
  Bi  Bi6  1  0.23788547  0.47577095  0.87087413  1
  Bi  Bi7  1  0.00842264  0.01684528  0.22007162  1
  Bi  Bi8  1  0.99157736  0.98315472  0.77992838  1
  Bi  Bi9  1  0.67122516  0.34245031  0.41115699  1
  Bi  Bi10  1  0.32877484  0.65754969  0.58884301  1
  S  S11  1  0.83858481  0.67716962  0.00210111  1
  S  S12  1  0.16141519  0.32283038  0.99789889  1
  S  S13  1  0.52545911  0.05091822  0.10738713  1
  S  S14  1  0.47454089  0.94908178  0.89261287  1
  S  S15  1  0.35079529  0.70159057  0.21559175  1
  S  S16  1  0.64920471  0.29840943  0.78440825  1
  S  S17  1  0.15737935  0.31475871  0.28314485  1
  S  S18  1  0.84262065  0.68524129  0.71685515  1
  S  S19  1  0.51735494  0.03470987  0.37562255  1
  S  S20  1  0.48264506  0.96529013  0.62437745  1
  S  S21  1  0.83958018  0.67916036  0.43917200  1
  S  S22  1  0.16041982  0.32083964  0.56082800  1
