# generated using pymatgen
data_BaCuB2O5
_symmetry_space_group_name_H-M   'P 1'
_cell_length_a   4.11280061
_cell_length_b   5.66387670
_cell_length_c   5.66387415
_cell_angle_alpha   109.56953757
_cell_angle_beta   93.72937535
_cell_angle_gamma   93.72932762
_symmetry_Int_Tables_number   1
_chemical_formula_structural   BaCuB2O5
_chemical_formula_sum   'Ba1 Cu1 B2 O5'
_cell_volume   123.52194623
_cell_formula_units_Z   1
loop_
 _symmetry_equiv_pos_site_id
 _symmetry_equiv_pos_as_xyz
  1  'x, y, z'
loop_
 _atom_site_type_symbol
 _atom_site_label
 _atom_site_symmetry_multiplicity
 _atom_site_fract_x
 _atom_site_fract_y
 _atom_site_fract_z
 _atom_site_occupancy
  O  O0  1  0.50000220  0.76176495  0.23823558  1
  B  B1  1  0.40464885  0.87080290  0.48611834  1
  O  O2  1  0.53304047  0.33248768  0.23498073  1
  Cu  Cu3  1  0.49999018  0.40737513  0.59262734  1
  B  B4  1  0.59535601  0.51388262  0.12919598  1
  O  O5  1  0.46696092  0.76501907  0.66751146  1
  O  O6  1  0.24584833  0.08333801  0.53896523  1
  Ba  Ba7  1  1.00000113  0.99749529  0.00250457  1
  O  O8  1  0.75415190  0.46103435  0.91666078  1
