# generated using pymatgen
data_SiO2
_symmetry_space_group_name_H-M   'P 1'
_cell_length_a   7.73927219
_cell_length_b   7.73927246
_cell_length_c   7.73927250
_cell_angle_alpha   106.71610260
_cell_angle_beta   106.71610312
_cell_angle_gamma   115.13424506
_symmetry_Int_Tables_number   1
_chemical_formula_structural   SiO2
_chemical_formula_sum   'Si8 O16'
_cell_volume   354.20367307
_cell_formula_units_Z   8
loop_
 _symmetry_equiv_pos_site_id
 _symmetry_equiv_pos_as_xyz
  1  'x, y, z'
loop_
 _atom_site_type_symbol
 _atom_site_label
 _atom_site_symmetry_multiplicity
 _atom_site_fract_x
 _atom_site_fract_y
 _atom_site_fract_z
 _atom_site_occupancy
  Si  Si0  1  0.47679573  0.11897179  0.23218880  1
  Si  Si1  1  0.88678299  0.24460693  0.76781120  1
  Si  Si2  1  0.11897179  0.47679573  0.23218880  1
  Si  Si3  1  0.88102821  0.11321701  0.35782394  1
  Si  Si4  1  0.75539307  0.52320427  0.64217606  1
  Si  Si5  1  0.24460693  0.88678299  0.76781120  1
  Si  Si6  1  0.11321701  0.88102821  0.35782394  1
  Si  Si7  1  0.52320427  0.75539307  0.64217606  1
  O  O8  1  1.00000000  0.28323428  0.28323428  1
  O  O9  1  0.08407910  0.37410089  1.00000000  1
  O  O10  1  0.62218728  0.01456357  0.25285656  1
  O  O11  1  0.00000000  0.71676572  0.71676572  1
  O  O12  1  0.37410089  0.08407910  0.00000000  1
  O  O13  1  0.98543643  0.23829299  0.60762371  1
  O  O14  1  0.23829299  0.98543643  0.60762371  1
  O  O15  1  0.62589911  0.62589911  0.70997821  1
  O  O16  1  0.76170701  0.36933072  0.74714344  1
  O  O17  1  0.71676572  1.00000000  0.71676572  1
  O  O18  1  0.01456357  0.62218728  0.25285656  1
  O  O19  1  0.37781272  0.63066928  0.39237629  1
  O  O20  1  0.28323428  0.00000000  0.28323428  1
  O  O21  1  0.63066928  0.37781272  0.39237629  1
  O  O22  1  0.91592090  0.91592090  0.29002179  1
  O  O23  1  0.36933072  0.76170701  0.74714344  1
