# generated using pymatgen
data_FeCuSe2
_symmetry_space_group_name_H-M   'P 1'
_cell_length_a   5.46258316
_cell_length_b   5.46258316
_cell_length_c   11.22997539
_cell_angle_alpha   90.00000000
_cell_angle_beta   90.00000000
_cell_angle_gamma   90.00000000
_symmetry_Int_Tables_number   1
_chemical_formula_structural   FeCuSe2
_chemical_formula_sum   'Fe4 Cu4 Se8'
_cell_volume   335.10038562
_cell_formula_units_Z   4
loop_
 _symmetry_equiv_pos_site_id
 _symmetry_equiv_pos_as_xyz
  1  'x, y, z'
loop_
 _atom_site_type_symbol
 _atom_site_label
 _atom_site_symmetry_multiplicity
 _atom_site_fract_x
 _atom_site_fract_y
 _atom_site_fract_z
 _atom_site_occupancy
  Cu  Cu0  1  0.00000000  0.00000000  0.00000000  1
  Cu  Cu1  1  0.00000000  0.00000000  0.50000000  1
  Cu  Cu2  1  0.00000000  0.00000000  0.25000000  1
  Cu  Cu3  1  0.00000000  0.00000000  0.75000000  1
  Fe  Fe4  1  0.00000000  0.50000000  0.99921829  1
  Fe  Fe5  1  0.50000000  0.00000000  0.00078171  1
  Fe  Fe6  1  0.00000000  0.50000000  0.50078171  1
  Fe  Fe7  1  0.50000000  0.00000000  0.49921829  1
  Se  Se8  1  0.26087261  0.26248437  0.12699155  1
  Se  Se9  1  0.26248437  0.73912739  0.87300845  1
  Se  Se10  1  0.73751563  0.26087261  0.87300845  1
  Se  Se11  1  0.26087261  0.73751563  0.37300845  1
  Se  Se12  1  0.73912739  0.26248437  0.37300845  1
  Se  Se13  1  0.73912739  0.73751563  0.12699155  1
  Se  Se14  1  0.73751563  0.73912739  0.62699155  1
  Se  Se15  1  0.26248437  0.26087261  0.62699155  1
