# generated using pymatgen
data_S
_symmetry_space_group_name_H-M   'P 1'
_cell_length_a   8.60580310
_cell_length_b   8.60580338
_cell_length_c   9.18514235
_cell_angle_alpha   77.77581393
_cell_angle_beta   77.77581339
_cell_angle_gamma   78.79511261
_symmetry_Int_Tables_number   1
_chemical_formula_structural   S
_chemical_formula_sum   S20
_cell_volume   641.74633546
_cell_formula_units_Z   20
loop_
 _symmetry_equiv_pos_site_id
 _symmetry_equiv_pos_as_xyz
  1  'x, y, z'
loop_
 _atom_site_type_symbol
 _atom_site_label
 _atom_site_symmetry_multiplicity
 _atom_site_fract_x
 _atom_site_fract_y
 _atom_site_fract_z
 _atom_site_occupancy
  S  S0  1  0.92690453  0.25298367  0.85382515  1
  S  S1  1  0.60187684  0.50023957  0.19712289  1
  S  S2  1  0.39812316  0.49976043  0.80287711  1
  S  S3  1  0.07309547  0.74701633  0.14617485  1
  S  S4  1  0.76724133  0.88953470  0.41680507  1
  S  S5  1  0.61885337  0.02613799  0.26824733  1
  S  S6  1  0.75298367  0.42690453  0.35382515  1
  S  S7  1  0.12764671  0.51677979  0.26927630  1
  S  S8  1  -0.00023957  0.89812316  0.30287711  1
  S  S9  1  0.24701633  0.57309547  0.64617485  1
  S  S10  1  0.98322021  0.37235329  0.23072370  1
  S  S11  1  0.52613799  0.11885337  0.76824733  1
  S  S12  1  0.38953470  0.26724133  0.91680507  1
  S  S13  1  0.87235329  0.48322021  0.73072370  1
  S  S14  1  0.23275867  0.11046530  0.58319493  1
  S  S15  1  0.01677979  0.62764671  0.76927630  1
  S  S16  1  1.00023957  0.10187684  0.69712289  1
  S  S17  1  0.47386201  0.88114663  0.23175267  1
  S  S18  1  0.38114663  0.97386201  0.73175267  1
  S  S19  1  0.61046530  0.73275867  0.08319493  1
