# generated using pymatgen
data_Re2S2NCl11
_symmetry_space_group_name_H-M   'P 1'
_cell_length_a   9.14805697
_cell_length_b   9.14805677
_cell_length_c   11.95094746
_cell_angle_alpha   101.86885071
_cell_angle_beta   101.86885044
_cell_angle_gamma   93.85343940
_symmetry_Int_Tables_number   1
_chemical_formula_structural   Re2S2NCl11
_chemical_formula_sum   'Re4 S4 N2 Cl22'
_cell_volume   951.54935334
_cell_formula_units_Z   2
loop_
 _symmetry_equiv_pos_site_id
 _symmetry_equiv_pos_as_xyz
  1  'x, y, z'
loop_
 _atom_site_type_symbol
 _atom_site_label
 _atom_site_symmetry_multiplicity
 _atom_site_fract_x
 _atom_site_fract_y
 _atom_site_fract_z
 _atom_site_occupancy
  Re  Re0  1  0.27114543  0.92367089  0.21857288  1
  Re  Re1  1  0.07632911  0.72885457  0.28142712  1
  Re  Re2  1  0.92367089  0.27114543  0.71857288  1
  Re  Re3  1  0.72885457  0.07632911  0.78142712  1
  S  S4  1  0.60161724  0.24633268  0.12608359  1
  S  S5  1  0.24633268  0.60161724  0.62608359  1
  S  S6  1  0.39838276  0.75366732  0.87391641  1
  S  S7  1  0.75366732  0.39838276  0.37391641  1
  N  N8  1  0.29474404  0.70525596  0.75000000  1
  N  N9  1  0.70525596  0.29474404  0.25000000  1
  Cl  Cl10  1  0.67348066  0.16891007  0.60206507  1
  Cl  Cl11  1  0.55810449  0.61396171  0.89711068  1
  Cl  Cl12  1  0.38603829  0.44189551  0.60288932  1
  Cl  Cl13  1  0.32651934  0.83108993  0.39793493  1
  Cl  Cl14  1  0.36667433  0.16236273  0.32931578  1
  Cl  Cl15  1  0.83108993  0.32651934  0.89793493  1
  Cl  Cl16  1  0.02395365  0.97604635  0.25000000  1
  Cl  Cl17  1  0.13040919  0.49354433  0.31145345  1
  Cl  Cl18  1  0.97604635  0.02395365  0.75000000  1
  Cl  Cl19  1  0.86959081  0.50645567  0.68854655  1
  Cl  Cl20  1  0.22137849  0.01209317  0.04822269  1
  Cl  Cl21  1  0.49354433  0.13040919  0.81145345  1
  Cl  Cl22  1  0.01209317  0.22137849  0.54822269  1
  Cl  Cl23  1  0.16236273  0.36667433  0.82931578  1
  Cl  Cl24  1  0.44189551  0.38603829  0.10288932  1
  Cl  Cl25  1  0.98790683  0.77862151  0.45177731  1
  Cl  Cl26  1  0.83763727  0.63332567  0.17068422  1
  Cl  Cl27  1  0.50645567  0.86959081  0.18854655  1
  Cl  Cl28  1  0.61396171  0.55810449  0.39711068  1
  Cl  Cl29  1  0.63332567  0.83763727  0.67068422  1
  Cl  Cl30  1  0.16891007  0.67348066  0.10206507  1
  Cl  Cl31  1  0.77862151  0.98790683  0.95177731  1
