# generated using pymatgen
data_V2(CuO2)5
_symmetry_space_group_name_H-M   'P 1'
_cell_length_a   6.33350932
_cell_length_b   8.44266875
_cell_length_c   15.97844970
_cell_angle_alpha   101.76419477
_cell_angle_beta   90.00000000
_cell_angle_gamma   90.00000000
_symmetry_Int_Tables_number   1
_chemical_formula_structural   V2(CuO2)5
_chemical_formula_sum   'V8 Cu20 O40'
_cell_volume   836.44862840
_cell_formula_units_Z   4
loop_
 _symmetry_equiv_pos_site_id
 _symmetry_equiv_pos_as_xyz
  1  'x, y, z'
loop_
 _atom_site_type_symbol
 _atom_site_label
 _atom_site_symmetry_multiplicity
 _atom_site_fract_x
 _atom_site_fract_y
 _atom_site_fract_z
 _atom_site_occupancy
  V  V0  1  0.68887633  0.67246983  0.10591265  1
  V  V1  1  0.18887633  0.82753017  0.39408735  1
  V  V2  1  0.31112367  0.32753017  0.89408735  1
  V  V3  1  0.81112367  0.17246983  0.60591265  1
  V  V4  1  0.66979863  0.12115617  0.33399380  1
  V  V5  1  0.16979863  0.37884383  0.16600620  1
  V  V6  1  0.33020137  0.87884383  0.66600620  1
  V  V7  1  0.83020137  0.62115617  0.83399380  1
  Cu  Cu8  1  0.92438176  0.03973823  0.10061235  1
  Cu  Cu9  1  0.42438176  0.46026177  0.39938765  1
  Cu  Cu10  1  0.07561824  0.96026177  0.89938765  1
  Cu  Cu11  1  0.57561824  0.53973823  0.60061235  1
  Cu  Cu12  1  0.23000195  0.21409934  0.48086912  1
  Cu  Cu13  1  0.73000195  0.28590066  0.01913088  1
  Cu  Cu14  1  0.76999805  0.78590066  0.51913088  1
  Cu  Cu15  1  0.26999805  0.71409934  0.98086912  1
  Cu  Cu16  1  0.12925963  0.12033059  0.28072484  1
  Cu  Cu17  1  0.62925963  0.37966941  0.21927516  1
  Cu  Cu18  1  0.87074037  0.87966941  0.71927516  1
  Cu  Cu19  1  0.37074037  0.62033059  0.78072484  1
  Cu  Cu20  1  0.42836279  0.05928851  0.09000209  1
  Cu  Cu21  1  0.92836279  0.44071149  0.40999791  1
  Cu  Cu22  1  0.57163721  0.94071149  0.90999791  1
  Cu  Cu23  1  0.07163721  0.55928851  0.59000209  1
  Cu  Cu24  1  0.20643668  0.79925723  0.17271965  1
  Cu  Cu25  1  0.70643668  0.70074277  0.32728035  1
  Cu  Cu26  1  0.79356332  0.20074277  0.82728035  1
  Cu  Cu27  1  0.29356332  0.29925723  0.67271965  1
  O  O28  1  0.16557701  0.89839077  0.29735068  1
  O  O29  1  0.66557701  0.60160923  0.20264932  1
  O  O30  1  0.83442299  0.10160923  0.70264932  1
  O  O31  1  0.33442299  0.39839077  0.79735068  1
  O  O32  1  0.24904423  0.98707390  0.47379411  1
  O  O33  1  0.74904423  0.51292610  0.02620589  1
  O  O34  1  0.75095577  0.01292610  0.52620589  1
  O  O35  1  0.25095577  0.48707390  0.97379411  1
  O  O36  1  0.88591442  0.82086298  0.10982954  1
  O  O37  1  0.38591442  0.67913702  0.39017046  1
  O  O38  1  0.11408558  0.17913702  0.89017046  1
  O  O39  1  0.61408558  0.32086298  0.60982954  1
  O  O40  1  0.43887545  0.75891810  0.08516938  1
  O  O41  1  0.93887545  0.74108190  0.41483062  1
  O  O42  1  0.56112455  0.24108190  0.91483062  1
  O  O43  1  0.06112455  0.25891810  0.58516938  1
  O  O44  1  0.64997326  0.91888299  0.32391636  1
  O  O45  1  0.14997326  0.58111701  0.17608364  1
  O  O46  1  0.35002674  0.08111701  0.67608364  1
  O  O47  1  0.85002674  0.41888299  0.82391636  1
  O  O48  1  0.46109629  0.23239734  0.39868645  1
  O  O49  1  0.96109629  0.26760266  0.10131355  1
  O  O50  1  0.53890371  0.76760266  0.60131355  1
  O  O51  1  0.03890371  0.73239734  0.89868645  1
  O  O52  1  0.92414399  0.19048863  0.37428715  1
  O  O53  1  0.42414399  0.30951137  0.12571285  1
  O  O54  1  0.07585601  0.80951137  0.62571285  1
  O  O55  1  0.57585601  0.69048863  0.87428715  1
  O  O56  1  0.65494340  0.15791716  0.23017263  1
  O  O57  1  0.15494340  0.34208284  0.26982737  1
  O  O58  1  0.34505660  0.84208284  0.76982737  1
  O  O59  1  0.84505660  0.65791716  0.73017263  1
  O  O60  1  0.19020192  0.02554547  0.15920523  1
  O  O61  1  0.69020192  0.47445453  0.34079477  1
  O  O62  1  0.80979808  0.97445453  0.84079477  1
  O  O63  1  0.30979808  0.52554547  0.65920523  1
  O  O64  1  0.18896351  0.43933538  0.47151086  1
  O  O65  1  0.68896351  0.06066462  0.02848914  1
  O  O66  1  0.81103649  0.56066462  0.52848914  1
  O  O67  1  0.31103649  0.93933538  0.97151086  1
