# generated using pymatgen
data_CuHgSBr
_symmetry_space_group_name_H-M   'P 1'
_cell_length_a   4.11045471
_cell_length_b   9.57892914
_cell_length_c   10.10252608
_cell_angle_alpha   90.00000000
_cell_angle_beta   90.00000000
_cell_angle_gamma   90.00000000
_symmetry_Int_Tables_number   1
_chemical_formula_structural   CuHgSBr
_chemical_formula_sum   'Cu4 Hg4 S4 Br4'
_cell_volume   397.77438070
_cell_formula_units_Z   4
loop_
 _symmetry_equiv_pos_site_id
 _symmetry_equiv_pos_as_xyz
  1  'x, y, z'
loop_
 _atom_site_type_symbol
 _atom_site_label
 _atom_site_symmetry_multiplicity
 _atom_site_fract_x
 _atom_site_fract_y
 _atom_site_fract_z
 _atom_site_occupancy
  Cu  Cu0  1  0.00000000  0.20736258  0.07631330  1
  Cu  Cu1  1  0.00000000  0.20736258  0.42368670  1
  Cu  Cu2  1  0.00000000  0.79263742  0.57631330  1
  Cu  Cu3  1  0.00000000  0.79263742  0.92368670  1
  Hg  Hg4  1  0.50000000  0.77989806  0.25000000  1
  Hg  Hg5  1  0.50000000  0.22010194  0.75000000  1
  Hg  Hg6  1  0.50000000  0.50000000  0.50000000  1
  Hg  Hg7  1  0.50000000  0.50000000  0.00000000  1
  S  S8  1  0.50000000  0.24538294  0.99085474  1
  S  S9  1  0.50000000  0.24538294  0.50914526  1
  S  S10  1  0.50000000  0.75461706  0.00914526  1
  S  S11  1  0.50000000  0.75461706  0.49085474  1
  Br  Br12  1  0.00000000  0.55043074  0.75000000  1
  Br  Br13  1  0.00000000  0.44956926  0.25000000  1
  Br  Br14  1  0.00000000  0.97198466  0.75000000  1
  Br  Br15  1  0.00000000  0.02801534  0.25000000  1
