# generated using pymatgen
data_Gd2WO6
_symmetry_space_group_name_H-M   'P 1'
_cell_length_a   5.48369701
_cell_length_b   9.97538987
_cell_length_c   9.97538947
_cell_angle_alpha   68.90055891
_cell_angle_beta   76.11028741
_cell_angle_gamma   76.11028518
_symmetry_Int_Tables_number   1
_chemical_formula_structural   Gd2WO6
_chemical_formula_sum   'Gd8 W4 O24'
_cell_volume   487.04152224
_cell_formula_units_Z   4
loop_
 _symmetry_equiv_pos_site_id
 _symmetry_equiv_pos_as_xyz
  1  'x, y, z'
loop_
 _atom_site_type_symbol
 _atom_site_label
 _atom_site_symmetry_multiplicity
 _atom_site_fract_x
 _atom_site_fract_y
 _atom_site_fract_z
 _atom_site_occupancy
  Gd  Gd0  1  0.25000000  0.60696503  0.39303497  1
  Gd  Gd1  1  0.75000000  0.39303497  0.60696503  1
  Gd  Gd2  1  0.25000000  0.13111389  0.86888611  1
  Gd  Gd3  1  0.75000000  0.86888611  0.13111389  1
  Gd  Gd4  1  0.88506663  0.44105536  0.21317761  1
  Gd  Gd5  1  0.61493337  0.78682239  0.55894464  1
  Gd  Gd6  1  0.11493337  0.55894464  0.78682239  1
  Gd  Gd7  1  0.38506663  0.21317761  0.44105536  1
  W  W8  1  0.56710877  0.30437454  0.00333812  1
  W  W9  1  0.93289123  0.99666288  0.69562546  1
  W  W10  1  0.43289123  0.69562546  0.99666288  1
  W  W11  1  0.06710877  0.00333812  0.30437454  1
  O  O12  1  0.64190167  0.28400314  0.18316377  1
  O  O13  1  0.85809833  0.81683623  0.71599686  1
  O  O14  1  0.35809833  0.71599686  0.81683623  1
  O  O15  1  0.14190167  0.18316377  0.28400314  1
  O  O16  1  0.51866461  0.11625835  0.04350463  1
  O  O17  1  0.98133539  0.95649537  0.88374165  1
  O  O18  1  0.48133539  0.88374165  0.95649537  1
  O  O19  1  0.01866461  0.04350463  0.11625835  1
  O  O20  1  0.26850509  0.44346126  0.02705473  1
  O  O21  1  0.23149491  0.97294527  0.55653874  1
  O  O22  1  0.73149491  0.55653874  0.97294527  1
  O  O23  1  0.76850509  0.02705473  0.44346126  1
  O  O24  1  0.88526289  0.32064306  0.88219288  1
  O  O25  1  0.61473711  0.11780712  0.67935594  1
  O  O26  1  0.11473711  0.67935594  0.11780712  1
  O  O27  1  0.38526289  0.88219288  0.32064306  1
  O  O28  1  0.42185518  0.34189932  0.81533604  1
  O  O29  1  0.07814482  0.18466396  0.65810068  1
  O  O30  1  0.57814482  0.65810068  0.18466396  1
  O  O31  1  0.92185518  0.81533604  0.34189932  1
  O  O32  1  0.42244315  0.60666827  0.57640510  1
  O  O33  1  0.07755685  0.42359490  0.39333173  1
  O  O34  1  0.57755685  0.39333173  0.42359490  1
  O  O35  1  0.92244315  0.57640510  0.60666827  1
