# generated using pymatgen
data_EuCu2SnS4
_symmetry_space_group_name_H-M   'P 1'
_cell_length_a   6.09128988
_cell_length_b   6.09129053
_cell_length_c   10.50652299
_cell_angle_alpha   90.00000000
_cell_angle_beta   90.00000000
_cell_angle_gamma   116.07324304
_symmetry_Int_Tables_number   1
_chemical_formula_structural   EuCu2SnS4
_chemical_formula_sum   'Eu2 Cu4 Sn2 S8'
_cell_volume   350.16002823
_cell_formula_units_Z   2
loop_
 _symmetry_equiv_pos_site_id
 _symmetry_equiv_pos_as_xyz
  1  'x, y, z'
loop_
 _atom_site_type_symbol
 _atom_site_label
 _atom_site_symmetry_multiplicity
 _atom_site_fract_x
 _atom_site_fract_y
 _atom_site_fract_z
 _atom_site_occupancy
  Eu  Eu0  1  0.47791685  0.47791685  0.50000000  1
  Eu  Eu1  1  0.47791685  0.47791685  0.00000000  1
  Cu  Cu2  1  0.28116244  0.85278556  0.87395653  1
  Cu  Cu3  1  0.85278556  0.28116244  0.37395653  1
  Cu  Cu4  1  0.85278556  0.28116244  0.12604347  1
  Cu  Cu5  1  0.28116244  0.85278556  0.62604347  1
  Sn  Sn6  1  0.20878675  0.90513983  0.25000000  1
  Sn  Sn7  1  0.90513983  0.20878675  0.75000000  1
  S  S8  1  0.96633612  0.48416445  0.93205537  1
  S  S9  1  0.48416445  0.96633612  0.06794463  1
  S  S10  1  0.58633632  0.78701879  0.75000000  1
  S  S11  1  0.48416445  0.96633612  0.43205537  1
  S  S12  1  0.29428637  0.17684111  0.75000000  1
  S  S13  1  0.96633612  0.48416445  0.56794463  1
  S  S14  1  0.78701879  0.58633632  0.25000000  1
  S  S15  1  0.17684111  0.29428637  0.25000000  1
