# generated using pymatgen
data_Rb2NaFe(CN)6
_symmetry_space_group_name_H-M   'P 1'
_cell_length_a   7.32193161
_cell_length_b   7.78492363
_cell_length_c   10.64881274
_cell_angle_alpha   90.00000000
_cell_angle_beta   90.42379507
_cell_angle_gamma   90.00000000
_symmetry_Int_Tables_number   1
_chemical_formula_structural   Rb2NaFe(CN)6
_chemical_formula_sum   'Rb4 Na2 Fe2 C12 N12'
_cell_volume   606.97294650
_cell_formula_units_Z   2
loop_
 _symmetry_equiv_pos_site_id
 _symmetry_equiv_pos_as_xyz
  1  'x, y, z'
loop_
 _atom_site_type_symbol
 _atom_site_label
 _atom_site_symmetry_multiplicity
 _atom_site_fract_x
 _atom_site_fract_y
 _atom_site_fract_z
 _atom_site_occupancy
  Rb  Rb0  1  0.52200884  0.92919493  0.24951282  1
  Rb  Rb1  1  0.97799116  0.42919493  0.25048718  1
  Rb  Rb2  1  0.47799116  0.07080507  0.75048718  1
  Rb  Rb3  1  0.02200884  0.57080507  0.74951282  1
  Na  Na4  1  0.00000000  0.00000000  0.50000000  1
  Na  Na5  1  0.50000000  0.50000000  0.00000000  1
  Fe  Fe6  1  0.00000000  0.00000000  0.00000000  1
  Fe  Fe7  1  0.50000000  0.50000000  0.50000000  1
  C  C8  1  0.07071280  0.01938133  0.17211234  1
  C  C9  1  0.42928720  0.51938133  0.32788766  1
  C  C10  1  0.92928720  0.98061867  0.82788766  1
  C  C11  1  0.57071280  0.48061867  0.67211234  1
  N  N12  1  0.11301814  0.03380719  0.27851294  1
  N  N13  1  0.38698186  0.53380719  0.22148706  1
  N  N14  1  0.88698186  0.96619281  0.72148706  1
  N  N15  1  0.61301814  0.46619281  0.77851294  1
  C  C16  1  0.78639519  0.13341629  0.03218181  1
  C  C17  1  0.71360481  0.63341629  0.46781819  1
  C  C18  1  0.21360481  0.86658371  0.96781819  1
  C  C19  1  0.28639519  0.36658371  0.53218181  1
  N  N20  1  0.65554648  0.21625850  0.05334475  1
  N  N21  1  0.84445352  0.71625850  0.44665525  1
  N  N22  1  0.34445352  0.78374150  0.94665525  1
  N  N23  1  0.15554648  0.28374150  0.55334475  1
  C  C24  1  0.13140509  0.20526773  0.96101245  1
  C  C25  1  0.36859491  0.70526773  0.53898755  1
  C  C26  1  0.86859491  0.79473227  0.03898755  1
  C  C27  1  0.63140509  0.29473227  0.46101245  1
  N  N28  1  0.21356533  0.33076530  0.93635254  1
  N  N29  1  0.28643467  0.83076530  0.56364746  1
  N  N30  1  0.78643467  0.66923470  0.06364746  1
  N  N31  1  0.71356533  0.16923470  0.43635254  1
