# generated using pymatgen
data_BaFe12O19
_symmetry_space_group_name_H-M   'P 1'
_cell_length_a   6.01681046
_cell_length_b   6.01681046
_cell_length_c   23.49536771
_cell_angle_alpha   90.00000000
_cell_angle_beta   90.00000000
_cell_angle_gamma   119.99999999
_symmetry_Int_Tables_number   1
_chemical_formula_structural   BaFe12O19
_chemical_formula_sum   'Ba2 Fe24 O38'
_cell_volume   736.62344864
_cell_formula_units_Z   2
loop_
 _symmetry_equiv_pos_site_id
 _symmetry_equiv_pos_as_xyz
  1  'x, y, z'
loop_
 _atom_site_type_symbol
 _atom_site_label
 _atom_site_symmetry_multiplicity
 _atom_site_fract_x
 _atom_site_fract_y
 _atom_site_fract_z
 _atom_site_occupancy
  Ba  Ba0  1  0.66666700  0.33333300  0.25000000  1
  Ba  Ba1  1  0.33333300  0.66666700  0.75000000  1
  Fe  Fe2  1  0.83198632  0.66397265  0.10825792  1
  Fe  Fe3  1  0.83198632  0.66397265  0.39174208  1
  Fe  Fe4  1  0.66666700  0.33333300  0.97191358  1
  Fe  Fe5  1  0.16801368  0.83198632  0.60825792  1
  Fe  Fe6  1  0.66666700  0.33333300  0.80971461  1
  Fe  Fe7  1  0.33602735  0.16801368  0.39174208  1
  Fe  Fe8  1  0.16801368  0.33602735  0.60825792  1
  Fe  Fe9  1  0.33333300  0.66666700  0.30971461  1
  Fe  Fe10  1  0.33333300  0.66666700  0.02808642  1
  Fe  Fe11  1  0.66397265  0.83198632  0.89174208  1
  Fe  Fe12  1  0.33602735  0.16801368  0.10825792  1
  Fe  Fe13  1  0.83198632  0.16801368  0.10825792  1
  Fe  Fe14  1  0.33333300  0.66666700  0.19028539  1
  Fe  Fe15  1  0.66397265  0.83198632  0.60825792  1
  Fe  Fe16  1  0.00000000  0.00000000  0.50000000  1
  Fe  Fe17  1  0.33333300  0.66666700  0.47191358  1
  Fe  Fe18  1  0.16801368  0.33602735  0.89174208  1
  Fe  Fe19  1  0.66666700  0.33333300  0.69028539  1
  Fe  Fe20  1  0.16801368  0.83198632  0.89174208  1
  Fe  Fe21  1  0.66666700  0.33333300  0.52808642  1
  Fe  Fe22  1  0.83198632  0.16801368  0.39174208  1
  Fe  Fe23  1  0.00000000  0.00000000  0.75000000  1
  Fe  Fe24  1  0.00000000  0.00000000  0.00000000  1
  Fe  Fe25  1  0.00000000  0.00000000  0.25000000  1
  O  O26  1  0.00722944  0.50361472  0.85095620  1
  O  O27  1  0.63443618  0.81721809  0.25000000  1
  O  O28  1  0.15505893  0.31011785  0.05243026  1
  O  O29  1  0.50361472  0.49638528  0.14904380  1
  O  O30  1  0.49638528  0.50361472  0.85095620  1
  O  O31  1  0.00000000  0.00000000  0.15124452  1
  O  O32  1  0.00000000  0.00000000  0.34875548  1
  O  O33  1  0.84494107  0.68988215  0.55243026  1
  O  O34  1  0.49638528  0.99277056  0.64904380  1
  O  O35  1  0.36556382  0.18278191  0.75000000  1
  O  O36  1  0.31011785  0.15505893  0.94756974  1
  O  O37  1  0.00000000  0.00000000  0.84875548  1
  O  O38  1  0.15505893  0.84494107  0.05243026  1
  O  O39  1  0.84494107  0.15505893  0.55243026  1
  O  O40  1  0.33333300  0.66666700  0.55467976  1
  O  O41  1  0.18278191  0.81721809  0.25000000  1
  O  O42  1  0.33333300  0.66666700  0.94532024  1
  O  O43  1  0.50361472  0.00722944  0.35095620  1
  O  O44  1  0.66666700  0.33333300  0.05467976  1
  O  O45  1  0.00000000  0.00000000  0.65124452  1
  O  O46  1  0.99277056  0.49638528  0.35095620  1
  O  O47  1  0.84494107  0.15505893  0.94756974  1
  O  O48  1  0.81721809  0.63443618  0.75000000  1
  O  O49  1  0.31011785  0.15505893  0.55243026  1
  O  O50  1  0.50361472  0.49638528  0.35095620  1
  O  O51  1  0.84494107  0.68988215  0.94756974  1
  O  O52  1  0.49638528  0.50361472  0.64904380  1
  O  O53  1  0.99277056  0.49638528  0.14904380  1
  O  O54  1  0.68988215  0.84494107  0.44756974  1
  O  O55  1  0.00722944  0.50361472  0.64904380  1
  O  O56  1  0.66666700  0.33333300  0.44532024  1
  O  O57  1  0.15505893  0.31011785  0.44756974  1
  O  O58  1  0.49638528  0.99277056  0.85095620  1
  O  O59  1  0.15505893  0.84494107  0.44756974  1
  O  O60  1  0.18278191  0.36556382  0.25000000  1
  O  O61  1  0.68988215  0.84494107  0.05243026  1
  O  O62  1  0.81721809  0.18278191  0.75000000  1
  O  O63  1  0.50361472  0.00722944  0.14904380  1
