# generated using pymatgen
data_K4Mn(AsS4)2
_symmetry_space_group_name_H-M   'P 1'
_cell_length_a   8.73125560
_cell_length_b   9.36261179
_cell_length_c   20.75185846
_cell_angle_alpha   95.64515603
_cell_angle_beta   90.00000000
_cell_angle_gamma   90.00000000
_symmetry_Int_Tables_number   1
_chemical_formula_structural   K4Mn(AsS4)2
_chemical_formula_sum   'K16 Mn4 As8 S32'
_cell_volume   1688.18229956
_cell_formula_units_Z   4
loop_
 _symmetry_equiv_pos_site_id
 _symmetry_equiv_pos_as_xyz
  1  'x, y, z'
loop_
 _atom_site_type_symbol
 _atom_site_label
 _atom_site_symmetry_multiplicity
 _atom_site_fract_x
 _atom_site_fract_y
 _atom_site_fract_z
 _atom_site_occupancy
  K  K0  1  0.11922728  0.25000000  0.75000000  1
  K  K1  1  0.38622094  0.89122175  0.86494289  1
  K  K2  1  0.10485857  0.13210838  0.33466205  1
  K  K3  1  0.11591977  0.28707102  0.51659535  1
  K  K4  1  0.40827102  0.75000000  0.25000000  1
  K  K5  1  0.88077272  0.75000000  0.25000000  1
  K  K6  1  0.89514143  0.86789162  0.66533795  1
  K  K7  1  0.38622094  0.60877825  0.63505711  1
  K  K8  1  0.11591977  0.21292898  0.98340465  1
  K  K9  1  0.88408023  0.71292898  0.48340465  1
  K  K10  1  0.59172898  0.25000000  0.75000000  1
  K  K11  1  0.89514143  0.63210838  0.83466205  1
  K  K12  1  0.61377906  0.10877825  0.13505711  1
  K  K13  1  0.61377906  0.39122175  0.36494289  1
  K  K14  1  0.88408023  0.78707102  0.01659535  1
  K  K15  1  0.10485857  0.36789162  0.16533795  1
  Mn  Mn16  1  0.62918575  0.16884929  0.54220208  1
  Mn  Mn17  1  0.37081425  0.66884929  0.04220208  1
  Mn  Mn18  1  0.62918575  0.33115071  0.95779792  1
  Mn  Mn19  1  0.37081425  0.83115071  0.45779792  1
  As  As20  1  0.33600237  0.99641438  0.61175426  1
  As  As21  1  0.80787555  0.05090585  0.87542858  1
  As  As22  1  0.80787555  0.44909415  0.62457142  1
  As  As23  1  0.33600237  0.50358562  0.88824574  1
  As  As24  1  0.19212445  0.55090585  0.37542858  1
  As  As25  1  0.19212445  0.94909415  0.12457142  1
  As  As26  1  0.66399763  0.00358562  0.38824574  1
  As  As27  1  0.66399763  0.49641438  0.11175426  1
  S  S28  1  0.69474507  0.55653230  0.70881997  1
  S  S29  1  0.84728377  0.28343949  0.86797949  1
  S  S30  1  0.65579534  0.05834511  0.96084614  1
  S  S31  1  0.65579534  0.44165489  0.53915386  1
  S  S32  1  0.83358068  0.44033711  0.03541892  1
  S  S33  1  0.73776025  0.43249129  0.20420512  1
  S  S34  1  0.34420466  0.94165489  0.03915386  1
  S  S35  1  0.15271623  0.71656051  0.13202051  1
  S  S36  1  0.84728377  0.21656051  0.63202051  1
  S  S37  1  0.83358068  0.05966289  0.46458108  1
  S  S38  1  0.54645741  0.60690255  0.93067947  1
  S  S39  1  0.26223975  0.56750871  0.79579488  1
  S  S40  1  0.45354259  0.39309745  0.06932053  1
  S  S41  1  0.73776025  0.06750871  0.29579488  1
  S  S42  1  0.39375433  0.22613998  0.61611027  1
  S  S43  1  0.30525493  0.05653230  0.20881997  1
  S  S44  1  0.15271623  0.78343949  0.36797949  1
  S  S45  1  0.98023286  0.43878764  0.39196237  1
  S  S46  1  0.98023286  0.06121236  0.10803763  1
  S  S47  1  0.60624567  0.72613998  0.11611027  1
  S  S48  1  0.34420466  0.55834511  0.46084614  1
  S  S49  1  0.26223975  0.93249129  0.70420512  1
  S  S50  1  0.39375433  0.27386002  0.88388973  1
  S  S51  1  0.16641932  0.94033711  0.53541892  1
  S  S52  1  0.01976714  0.56121236  0.60803763  1
  S  S53  1  0.54645741  0.89309745  0.56932053  1
  S  S54  1  0.60624567  0.77386002  0.38388973  1
  S  S55  1  0.69474507  0.94346770  0.79118003  1
  S  S56  1  0.16641932  0.55966289  0.96458108  1
  S  S57  1  0.30525493  0.44346770  0.29118003  1
  S  S58  1  0.01976714  0.93878764  0.89196237  1
  S  S59  1  0.45354259  0.10690255  0.43067947  1
