# generated using pymatgen
data_Sr2UNiO6
_symmetry_space_group_name_H-M   'P 1'
_cell_length_a   5.83560477
_cell_length_b   5.83833456
_cell_length_c   8.21692578
_cell_angle_alpha   89.59950541
_cell_angle_beta   90.00000000
_cell_angle_gamma   90.00000000
_symmetry_Int_Tables_number   1
_chemical_formula_structural   Sr2UNiO6
_chemical_formula_sum   'Sr4 U2 Ni2 O12'
_cell_volume   279.94557282
_cell_formula_units_Z   2
loop_
 _symmetry_equiv_pos_site_id
 _symmetry_equiv_pos_as_xyz
  1  'x, y, z'
loop_
 _atom_site_type_symbol
 _atom_site_label
 _atom_site_symmetry_multiplicity
 _atom_site_fract_x
 _atom_site_fract_y
 _atom_site_fract_z
 _atom_site_occupancy
  Sr  Sr0  1  0.47318862  0.50892082  0.75248972  1
  Sr  Sr1  1  0.02681138  0.00892082  0.25248972  1
  Sr  Sr2  1  0.52681138  0.49107918  0.24751028  1
  Sr  Sr3  1  0.97318862  0.99107918  0.74751028  1
  U  U4  1  0.50000000  0.00000000  0.00000000  1
  U  U5  1  0.00000000  0.50000000  0.50000000  1
  Ni  Ni6  1  0.00000000  0.50000000  0.00000000  1
  Ni  Ni7  1  0.50000000  0.00000000  0.50000000  1
  O  O8  1  0.48547837  0.92406766  0.24806052  1
  O  O9  1  0.77847609  0.22399269  0.46103388  1
  O  O10  1  0.72461242  0.72159441  0.54145577  1
  O  O11  1  0.77538758  0.22159441  0.04145577  1
  O  O12  1  0.27847609  0.27600731  0.03896612  1
  O  O13  1  0.72152391  0.72399269  0.96103388  1
  O  O14  1  0.51452163  0.07593234  0.75193948  1
  O  O15  1  0.01452163  0.42406766  0.74806052  1
  O  O16  1  0.27538758  0.27840559  0.45854423  1
  O  O17  1  0.22152391  0.77600731  0.53896612  1
  O  O18  1  0.22461242  0.77840559  0.95854423  1
  O  O19  1  0.98547837  0.57593234  0.25193948  1
