# generated using pymatgen
data_Fe2Ag(MoO4)3
_symmetry_space_group_name_H-M   'P 1'
_cell_length_a   7.02389506
_cell_length_b   7.06296569
_cell_length_c   11.30333725
_cell_angle_alpha   83.55168551
_cell_angle_beta   80.84748889
_cell_angle_gamma   81.75893445
_symmetry_Int_Tables_number   1
_chemical_formula_structural   Fe2Ag(MoO4)3
_chemical_formula_sum   'Fe4 Ag2 Mo6 O24'
_cell_volume   545.59343592
_cell_formula_units_Z   2
loop_
 _symmetry_equiv_pos_site_id
 _symmetry_equiv_pos_as_xyz
  1  'x, y, z'
loop_
 _atom_site_type_symbol
 _atom_site_label
 _atom_site_symmetry_multiplicity
 _atom_site_fract_x
 _atom_site_fract_y
 _atom_site_fract_z
 _atom_site_occupancy
  Fe  Fe0  1  0.17398145  0.81727658  0.50686763  1
  Fe  Fe1  1  0.77572034  0.76947893  0.11092679  1
  Fe  Fe2  1  0.22427966  0.23052107  0.88907321  1
  Fe  Fe3  1  0.82601855  0.18272342  0.49313237  1
  Ag  Ag4  1  0.40542897  0.15257912  0.20497970  1
  Ag  Ag5  1  0.59457103  0.84742088  0.79502030  1
  Mo  Mo6  1  0.70790769  0.71974163  0.45100513  1
  Mo  Mo7  1  0.29209331  0.28025837  0.54899487  1
  Mo  Mo8  1  0.89738020  0.23883294  0.14698748  1
  Mo  Mo9  1  0.71672695  0.28721661  0.81235731  1
  Mo  Mo10  1  0.28327305  0.71278339  0.18764269  1
  Mo  Mo11  1  0.10261980  0.76116706  0.85301252  1
  O  O12  1  0.49695778  0.78362126  0.08767552  1
  O  O13  1  0.78931192  0.47978741  0.49844875  1
  O  O14  1  0.46800790  0.78976901  0.52498087  1
  O  O15  1  0.75317073  0.14531431  0.68651291  1
  O  O16  1  0.50304222  0.21637874  0.91232448  1
  O  O17  1  0.53199210  0.21023099  0.47501913  1
  O  O18  1  0.93538412  0.24715759  0.88557246  1
  O  O19  1  0.85224294  0.81527022  0.92718323  1
  O  O20  1  0.26095413  0.93692520  0.87336731  1
  O  O21  1  0.29039830  0.26105332  0.71018129  1
  O  O22  1  0.87347607  0.87277275  0.48982640  1
  O  O23  1  0.32708970  0.46784683  0.23785499  1
  O  O24  1  0.67291030  0.53215317  0.76214501  1
  O  O25  1  0.20109133  0.51935601  0.89708920  1
  O  O26  1  0.79890867  0.48064399  0.10291080  1
  O  O27  1  0.21068808  0.52021259  0.50155125  1
  O  O28  1  0.73904587  0.06307480  0.12663269  1
  O  O29  1  0.70960170  0.73894668  0.28981871  1
  O  O30  1  0.90870272  0.22254688  0.30185644  1
  O  O31  1  0.14775706  0.18472978  0.07281677  1
  O  O32  1  0.09129728  0.77745312  0.69814356  1
  O  O33  1  0.06461588  0.75284241  0.11442754  1
  O  O34  1  0.12652393  0.12722725  0.51017360  1
  O  O35  1  0.24682927  0.85468569  0.31348709  1
