# generated using pymatgen
data_Ba5Ru2ClO9
_symmetry_space_group_name_H-M   'P 1'
_cell_length_a   6.11876024
_cell_length_b   6.18978551
_cell_length_c   18.32687044
_cell_angle_alpha   90.00000000
_cell_angle_beta   90.00000000
_cell_angle_gamma   119.62114390
_symmetry_Int_Tables_number   1
_chemical_formula_structural   Ba5Ru2ClO9
_chemical_formula_sum   'Ba10 Ru4 Cl2 O18'
_cell_volume   603.39723480
_cell_formula_units_Z   2
loop_
 _symmetry_equiv_pos_site_id
 _symmetry_equiv_pos_as_xyz
  1  'x, y, z'
loop_
 _atom_site_type_symbol
 _atom_site_label
 _atom_site_symmetry_multiplicity
 _atom_site_fract_x
 _atom_site_fract_y
 _atom_site_fract_z
 _atom_site_occupancy
  Ba  Ba0  1  0.84186862  0.68373725  0.01839855  1
  Ba  Ba1  1  0.15813138  0.31626275  0.51839855  1
  Ba  Ba2  1  0.16791685  0.33583371  0.74640183  1
  Ba  Ba3  1  0.83208315  0.66416629  0.24640183  1
  Ba  Ba4  1  0.50970488  0.01940976  0.34358475  1
  Ba  Ba5  1  0.49029512  0.98059024  0.84358475  1
  Ba  Ba6  1  0.50730819  0.01461637  0.64878378  1
  Ba  Ba7  1  0.17067485  0.34134970  0.97365715  1
  Ba  Ba8  1  0.49269181  0.98538363  0.14878378  1
  Ba  Ba9  1  0.82932515  0.65865030  0.47365715  1
  Ru  Ru10  1  0.82619939  0.65239878  0.67098080  1
  Ru  Ru11  1  0.83883129  0.67766259  0.82115009  1
  Ru  Ru12  1  0.17380061  0.34760122  0.17098080  1
  Ru  Ru13  1  0.16116871  0.32233741  0.32115009  1
  Cl  Cl14  1  0.54263646  0.08527293  0.99603470  1
  Cl  Cl15  1  0.45736354  0.91472707  0.49603470  1
  O  O16  1  0.00982881  0.54781819  0.88124545  1
  O  O17  1  0.99680624  0.99361249  0.87598381  1
  O  O18  1  0.31696318  0.63392636  0.25057591  1
  O  O19  1  0.13295377  0.81354294  0.74389339  1
  O  O20  1  0.46201062  0.45218181  0.38124545  1
  O  O21  1  0.53798938  0.54781819  0.88124545  1
  O  O22  1  0.51378733  0.47916271  0.61457062  1
  O  O23  1  0.97263795  0.94527590  0.60922971  1
  O  O24  1  0.03462462  0.52083729  0.11457062  1
  O  O25  1  0.68058917  0.81354294  0.74389339  1
  O  O26  1  0.86704623  0.18645706  0.24389339  1
  O  O27  1  0.31941083  0.18645706  0.24389339  1
  O  O28  1  0.00319376  0.00638751  0.37598381  1
  O  O29  1  0.68303682  0.36607364  0.75057591  1
  O  O30  1  0.96537538  0.47916271  0.61457062  1
  O  O31  1  0.48621267  0.52083729  0.11457062  1
  O  O32  1  0.99017119  0.45218181  0.38124545  1
  O  O33  1  0.02736205  0.05472410  0.10922971  1
