# generated using pymatgen
data_Ba7Al10
_symmetry_space_group_name_H-M   'P 1'
_cell_length_a   16.93919751
_cell_length_b   16.93919750
_cell_length_c   16.93919791
_cell_angle_alpha   20.54333299
_cell_angle_beta   20.54333305
_cell_angle_gamma   20.54333355
_symmetry_Int_Tables_number   1
_chemical_formula_structural   Ba7Al10
_chemical_formula_sum   'Ba7 Al10'
_cell_volume   523.89130661
_cell_formula_units_Z   1
loop_
 _symmetry_equiv_pos_site_id
 _symmetry_equiv_pos_as_xyz
  1  'x, y, z'
loop_
 _atom_site_type_symbol
 _atom_site_label
 _atom_site_symmetry_multiplicity
 _atom_site_fract_x
 _atom_site_fract_y
 _atom_site_fract_z
 _atom_site_occupancy
  Ba  Ba0  1  0.35973727  0.35973727  0.35973727  1
  Ba  Ba1  1  0.05206017  0.05206017  0.05206017  1
  Ba  Ba2  1  0.94793983  0.94793983  0.94793983  1
  Ba  Ba3  1  0.13015345  0.13015345  0.13015345  1
  Ba  Ba4  1  0.86984655  0.86984655  0.86984655  1
  Ba  Ba5  1  0.64026273  0.64026273  0.64026273  1
  Ba  Ba6  1  0.50000000  0.50000000  0.50000000  1
  Al  Al7  1  0.58441603  0.58441603  0.10477729  1
  Al  Al8  1  0.58441603  0.10477729  0.58441603  1
  Al  Al9  1  0.80063062  0.80063062  0.80063062  1
  Al  Al10  1  0.71401288  0.71401288  0.71401288  1
  Al  Al11  1  0.10477729  0.58441603  0.58441603  1
  Al  Al12  1  0.89522271  0.41558397  0.41558397  1
  Al  Al13  1  0.19936938  0.19936938  0.19936938  1
  Al  Al14  1  0.28598712  0.28598712  0.28598712  1
  Al  Al15  1  0.41558397  0.89522271  0.41558397  1
  Al  Al16  1  0.41558397  0.41558397  0.89522271  1
