# generated using pymatgen
data_LiBiP2O7
_symmetry_space_group_name_H-M   'P 1'
_cell_length_a   6.67689831
_cell_length_b   6.79646799
_cell_length_c   6.57812623
_cell_angle_alpha   115.05900019
_cell_angle_beta   92.00950808
_cell_angle_gamma   83.75992988
_symmetry_Int_Tables_number   1
_chemical_formula_structural   LiBiP2O7
_chemical_formula_sum   'Li2 Bi2 P4 O14'
_cell_volume   268.79063058
_cell_formula_units_Z   2
loop_
 _symmetry_equiv_pos_site_id
 _symmetry_equiv_pos_as_xyz
  1  'x, y, z'
loop_
 _atom_site_type_symbol
 _atom_site_label
 _atom_site_symmetry_multiplicity
 _atom_site_fract_x
 _atom_site_fract_y
 _atom_site_fract_z
 _atom_site_occupancy
  Li  Li0  1  0.65118845  0.07848809  0.22995766  1
  Li  Li1  1  0.34881155  0.92151191  0.77004234  1
  Bi  Bi2  1  0.14355692  0.75234503  0.19230689  1
  Bi  Bi3  1  0.85644308  0.24765497  0.80769311  1
  P  P4  1  0.85352216  0.76505222  0.73935298  1
  P  P5  1  0.14647784  0.23494778  0.26064702  1
  P  P6  1  0.64207943  0.64218567  0.31493976  1
  P  P7  1  0.35792057  0.35781433  0.68506024  1
  O  O8  1  0.97073668  0.13511675  0.31533610  1
  O  O9  1  0.92240707  0.61902354  0.86092684  1
  O  O10  1  0.30959786  0.04468638  0.13488653  1
  O  O11  1  0.75498409  0.80704571  0.27853813  1
  O  O12  1  0.57382420  0.26638423  0.59348286  1
  O  O13  1  0.75935401  0.59551931  0.51491158  1
  O  O14  1  0.69040214  0.95531362  0.86511347  1
  O  O15  1  0.42617580  0.73361577  0.40651714  1
  O  O16  1  0.02926332  0.86488325  0.68466390  1
  O  O17  1  0.24501591  0.19295429  0.72146187  1
  O  O18  1  0.64832456  0.41269108  0.12092771  1
  O  O19  1  0.24064599  0.40448069  0.48508842  1
  O  O20  1  0.07759293  0.38097646  0.13907316  1
  O  O21  1  0.35167544  0.58730892  0.87907229  1
