# generated using pymatgen
data_Ce4In8Ni7
_symmetry_space_group_name_H-M   'P 1'
_cell_length_a   4.40930522
_cell_length_b   13.99196164
_cell_length_c   13.99196201
_cell_angle_alpha   117.57478996
_cell_angle_beta   90.00000000
_cell_angle_gamma   90.00000000
_symmetry_Int_Tables_number   1
_chemical_formula_structural   Ce4In8Ni7
_chemical_formula_sum   'Ce8 In16 Ni14'
_cell_volume   765.17492695
_cell_formula_units_Z   2
loop_
 _symmetry_equiv_pos_site_id
 _symmetry_equiv_pos_as_xyz
  1  'x, y, z'
loop_
 _atom_site_type_symbol
 _atom_site_label
 _atom_site_symmetry_multiplicity
 _atom_site_fract_x
 _atom_site_fract_y
 _atom_site_fract_z
 _atom_site_occupancy
  Ce  Ce0  1  0.00000000  0.99717076  0.34736680  1
  Ce  Ce1  1  0.50000000  0.39636310  0.60363690  1
  Ce  Ce2  1  0.00000000  0.65263320  0.00282924  1
  Ce  Ce3  1  0.00000000  0.80949302  0.80949302  1
  Ce  Ce4  1  0.00000000  0.00282924  0.65263320  1
  Ce  Ce5  1  0.50000000  0.60363690  0.39636310  1
  Ce  Ce6  1  0.00000000  0.34736680  0.99717076  1
  Ce  Ce7  1  0.00000000  0.19050698  0.19050698  1
  In  In8  1  0.50000000  0.18101569  0.37018476  1
  In  In9  1  0.50000000  0.87762981  0.44153270  1
  In  In10  1  0.00000000  0.72097179  0.27902821  1
  In  In11  1  0.00000000  0.91522274  0.08477726  1
  In  In12  1  0.50000000  0.44153270  0.87762981  1
  In  In13  1  0.50000000  0.37018476  0.18101569  1
  In  In14  1  0.50000000  0.62981524  0.81898431  1
  In  In15  1  0.50000000  0.80908192  0.19091808  1
  In  In16  1  0.50000000  0.12237019  0.55846730  1
  In  In17  1  0.50000000  0.81898431  0.62981524  1
  In  In18  1  0.00000000  0.27902821  0.72097179  1
  In  In19  1  0.00000000  0.08477726  0.91522274  1
  In  In20  1  0.50000000  0.00000000  0.00000000  1
  In  In21  1  0.50000000  0.19091808  0.80908192  1
  In  In22  1  0.50000000  0.55846730  0.12237019  1
  In  In23  1  0.00000000  0.50000000  0.50000000  1
  Ni  Ni24  1  0.00000000  0.40347829  0.29639605  1
  Ni  Ni25  1  0.50000000  0.61706475  0.61706475  1
  Ni  Ni26  1  0.00000000  0.29639605  0.40347829  1
  Ni  Ni27  1  0.00000000  0.51006646  0.20100806  1
  Ni  Ni28  1  0.00000000  0.48993354  0.79899194  1
  Ni  Ni29  1  0.50000000  0.19371667  0.00115470  1
  Ni  Ni30  1  0.50000000  0.38293525  0.38293525  1
  Ni  Ni31  1  0.50000000  0.99884530  0.80628333  1
  Ni  Ni32  1  0.50000000  0.80628333  0.99884530  1
  Ni  Ni33  1  0.50000000  0.00115470  0.19371667  1
  Ni  Ni34  1  0.00000000  0.79899194  0.48993354  1
  Ni  Ni35  1  0.00000000  0.20100806  0.51006646  1
  Ni  Ni36  1  0.00000000  0.70360395  0.59652171  1
  Ni  Ni37  1  0.00000000  0.59652171  0.70360395  1
