# generated using pymatgen
data_Si2P2Pt
_symmetry_space_group_name_H-M   'P 1'
_cell_length_a   6.06686499
_cell_length_b   9.61417429
_cell_length_c   12.12094213
_cell_angle_alpha   90.00000000
_cell_angle_beta   102.98269022
_cell_angle_gamma   90.00000000
_symmetry_Int_Tables_number   1
_chemical_formula_structural   Si2P2Pt
_chemical_formula_sum   'Si16 P16 Pt8'
_cell_volume   688.91700089
_cell_formula_units_Z   8
loop_
 _symmetry_equiv_pos_site_id
 _symmetry_equiv_pos_as_xyz
  1  'x, y, z'
loop_
 _atom_site_type_symbol
 _atom_site_label
 _atom_site_symmetry_multiplicity
 _atom_site_fract_x
 _atom_site_fract_y
 _atom_site_fract_z
 _atom_site_occupancy
  Pt  Pt0  1  0.90676418  0.04007863  0.62695635  1
  Pt  Pt1  1  0.09323582  0.54007863  0.37304365  1
  Pt  Pt2  1  0.41324984  0.34479390  0.64344385  1
  Pt  Pt3  1  0.58675016  0.84479390  0.35655615  1
  Pt  Pt4  1  0.09015251  0.70248376  0.86348103  1
  Pt  Pt5  1  0.90984749  0.20248376  0.13651897  1
  Pt  Pt6  1  0.39090040  0.51989136  0.12814725  1
  Pt  Pt7  1  0.60909960  0.01989136  0.87185275  1
  Si  Si8  1  0.03945659  0.44232717  0.17833098  1
  Si  Si9  1  0.96054341  0.94232717  0.82166902  1
  Si  Si10  1  0.44981743  0.79048297  0.82975079  1
  Si  Si11  1  0.55018257  0.29048297  0.17024921  1
  Si  Si12  1  0.25101654  0.31461812  0.43730547  1
  Si  Si13  1  0.74898346  0.81461812  0.56269453  1
  Si  Si14  1  0.25473881  0.08604633  0.91594487  1
  Si  Si15  1  0.74526119  0.58604633  0.08405513  1
  Si  Si16  1  0.24156200  0.56731559  0.57451093  1
  Si  Si17  1  0.75843800  0.06731559  0.42548907  1
  Si  Si18  1  0.96611862  0.63712307  0.66781177  1
  Si  Si19  1  0.03388138  0.13712307  0.33218823  1
  Si  Si20  1  0.44199296  0.76498276  0.63880340  1
  Si  Si21  1  0.55800704  0.26498276  0.36119660  1
  Si  Si22  1  0.54711247  0.42569094  0.83665951  1
  Si  Si23  1  0.45288753  0.92569094  0.16334049  1
  P  P24  1  0.07147236  0.29010763  0.86086655  1
  P  P25  1  0.92852764  0.79010763  0.13913345  1
  P  P26  1  0.23443215  0.75023508  0.06887274  1
  P  P27  1  0.76556785  0.25023508  0.93112726  1
  P  P28  1  0.76139016  0.43623979  0.60977198  1
  P  P29  1  0.23860984  0.93623979  0.39022802  1
  P  P30  1  0.45108457  0.59942889  0.32466483  1
  P  P31  1  0.54891543  0.09942889  0.67533517  1
  P  P32  1  0.04583271  0.27230754  0.67094408  1
  P  P33  1  0.95416729  0.77230754  0.32905592  1
  P  P34  1  0.25156352  0.96357239  0.58080713  1
  P  P35  1  0.74843648  0.46357239  0.41919287  1
  P  P36  1  0.72862359  0.62939763  0.89664900  1
  P  P37  1  0.27137641  0.12939763  0.10335100  1
  P  P38  1  0.73444980  0.97815645  0.07311215  1
  P  P39  1  0.26555020  0.47815645  0.92688785  1
