# generated using pymatgen
data_SiO2
_symmetry_space_group_name_H-M   'P 1'
_cell_length_a   8.67909288
_cell_length_b   8.67909288
_cell_length_c   13.95487198
_cell_angle_alpha   90.00000000
_cell_angle_beta   90.00000000
_cell_angle_gamma   90.00000000
_symmetry_Int_Tables_number   1
_chemical_formula_structural   SiO2
_chemical_formula_sum   'Si20 O40'
_cell_volume   1051.17380236
_cell_formula_units_Z   20
loop_
 _symmetry_equiv_pos_site_id
 _symmetry_equiv_pos_as_xyz
  1  'x, y, z'
loop_
 _atom_site_type_symbol
 _atom_site_label
 _atom_site_symmetry_multiplicity
 _atom_site_fract_x
 _atom_site_fract_y
 _atom_site_fract_z
 _atom_site_occupancy
  Si  Si0  1  0.25350463  0.43072805  0.11100108  1
  Si  Si1  1  0.56927195  0.25350463  0.11100108  1
  Si  Si2  1  0.43072805  0.74649537  0.11100108  1
  Si  Si3  1  0.25350463  0.56927195  0.38899892  1
  Si  Si4  1  0.74649537  0.43072805  0.38899892  1
  Si  Si5  1  0.74649537  0.56927195  0.11100108  1
  Si  Si6  1  0.43072805  0.25350463  0.38899892  1
  Si  Si7  1  0.56927195  0.74649537  0.38899892  1
  Si  Si8  1  0.74649537  0.56927195  0.88899892  1
  Si  Si9  1  0.43072805  0.74649537  0.88899892  1
  Si  Si10  1  0.56927195  0.25350463  0.88899892  1
  Si  Si11  1  0.74649537  0.43072805  0.61100108  1
  Si  Si12  1  0.25350463  0.56927195  0.61100108  1
  Si  Si13  1  0.25350463  0.43072805  0.88899892  1
  Si  Si14  1  0.56927195  0.74649537  0.61100108  1
  Si  Si15  1  0.43072805  0.25350463  0.61100108  1
  Si  Si16  1  0.00000000  0.50000000  0.25000000  1
  Si  Si17  1  0.50000000  0.00000000  0.25000000  1
  Si  Si18  1  0.00000000  0.50000000  0.75000000  1
  Si  Si19  1  0.50000000  0.00000000  0.75000000  1
  O  O20  1  0.10909019  0.60774013  0.31823775  1
  O  O21  1  0.39225987  0.10909019  0.31823775  1
  O  O22  1  0.60774013  0.89090981  0.31823775  1
  O  O23  1  0.10909019  0.39225987  0.18176225  1
  O  O24  1  0.89090981  0.60774013  0.18176225  1
  O  O25  1  0.89090981  0.39225987  0.31823775  1
  O  O26  1  0.60774013  0.10909019  0.18176225  1
  O  O27  1  0.39225987  0.89090981  0.18176225  1
  O  O28  1  0.89090981  0.39225987  0.68176225  1
  O  O29  1  0.60774013  0.89090981  0.68176225  1
  O  O30  1  0.39225987  0.10909019  0.68176225  1
  O  O31  1  0.89090981  0.60774013  0.81823775  1
  O  O32  1  0.10909019  0.39225987  0.81823775  1
  O  O33  1  0.10909019  0.60774013  0.68176225  1
  O  O34  1  0.39225987  0.89090981  0.81823775  1
  O  O35  1  0.60774013  0.10909019  0.81823775  1
  O  O36  1  0.19813631  0.41501032  0.00000000  1
  O  O37  1  0.58498968  0.19813631  0.00000000  1
  O  O38  1  0.41501032  0.80186369  0.00000000  1
  O  O39  1  0.19813631  0.58498968  0.50000000  1
  O  O40  1  0.80186369  0.41501032  0.50000000  1
  O  O41  1  0.80186369  0.58498968  0.00000000  1
  O  O42  1  0.41501032  0.19813631  0.50000000  1
  O  O43  1  0.58498968  0.80186369  0.50000000  1
  O  O44  1  0.39349418  0.31099522  0.13212968  1
  O  O45  1  0.68900478  0.39349418  0.13212968  1
  O  O46  1  0.31099522  0.60650582  0.13212968  1
  O  O47  1  0.39349418  0.68900478  0.36787032  1
  O  O48  1  0.60650582  0.31099522  0.36787032  1
  O  O49  1  0.60650582  0.68900478  0.13212968  1
  O  O50  1  0.31099522  0.39349418  0.36787032  1
  O  O51  1  0.68900478  0.60650582  0.36787032  1
  O  O52  1  0.60650582  0.68900478  0.86787032  1
  O  O53  1  0.31099522  0.60650582  0.86787032  1
  O  O54  1  0.68900478  0.39349418  0.86787032  1
  O  O55  1  0.60650582  0.31099522  0.63212968  1
  O  O56  1  0.39349418  0.68900478  0.63212968  1
  O  O57  1  0.39349418  0.31099522  0.86787032  1
  O  O58  1  0.68900478  0.60650582  0.63212968  1
  O  O59  1  0.31099522  0.39349418  0.63212968  1
