# generated using pymatgen
data_LaGaO3
_symmetry_space_group_name_H-M   'P 1'
_cell_length_a   5.55920281
_cell_length_b   5.58868787
_cell_length_c   7.87857479
_cell_angle_alpha   90.00000000
_cell_angle_beta   90.00000000
_cell_angle_gamma   90.00000000
_symmetry_Int_Tables_number   1
_chemical_formula_structural   LaGaO3
_chemical_formula_sum   'La4 Ga4 O12'
_cell_volume   244.77667722
_cell_formula_units_Z   4
loop_
 _symmetry_equiv_pos_site_id
 _symmetry_equiv_pos_as_xyz
  1  'x, y, z'
loop_
 _atom_site_type_symbol
 _atom_site_label
 _atom_site_symmetry_multiplicity
 _atom_site_fract_x
 _atom_site_fract_y
 _atom_site_fract_z
 _atom_site_occupancy
  O  O0  1  0.71621019  0.28477409  0.45881446  1
  O  O1  1  0.21621019  0.21522591  0.54118554  1
  O  O2  1  0.78378981  0.78477409  0.04118554  1
  O  O3  1  0.28378981  0.71522591  0.95881446  1
  O  O4  1  0.28378981  0.71522591  0.54118554  1
  O  O5  1  0.78378981  0.78477409  0.45881446  1
  O  O6  1  0.21621019  0.21522591  0.95881446  1
  O  O7  1  0.71621019  0.28477409  0.04118554  1
  O  O8  1  0.07662840  0.48455593  0.25000000  1
  O  O9  1  0.57662840  0.01544407  0.75000000  1
  O  O10  1  0.42337160  0.98455593  0.25000000  1
  O  O11  1  0.92337160  0.51544407  0.75000000  1
  Ga  Ga12  1  0.00000000  0.50000000  0.50000000  1
  Ga  Ga13  1  0.50000000  0.00000000  0.50000000  1
  Ga  Ga14  1  0.50000000  0.00000000  0.00000000  1
  Ga  Ga15  1  0.00000000  0.50000000  0.00000000  1
  La  La16  1  0.49228989  0.46653414  0.75000000  1
  La  La17  1  0.99228989  0.03346586  0.25000000  1
  La  La18  1  0.00771011  0.96653414  0.75000000  1
  La  La19  1  0.50771011  0.53346586  0.25000000  1
