# generated using pymatgen
data_SiO2
_symmetry_space_group_name_H-M   'P 1'
_cell_length_a   8.88918890
_cell_length_b   11.32759920
_cell_length_c   17.60475859
_cell_angle_alpha   90.00000000
_cell_angle_beta   90.00000000
_cell_angle_gamma   90.00000000
_symmetry_Int_Tables_number   1
_chemical_formula_structural   SiO2
_chemical_formula_sum   'Si32 O64'
_cell_volume   1772.67893318
_cell_formula_units_Z   32
loop_
 _symmetry_equiv_pos_site_id
 _symmetry_equiv_pos_as_xyz
  1  'x, y, z'
loop_
 _atom_site_type_symbol
 _atom_site_label
 _atom_site_symmetry_multiplicity
 _atom_site_fract_x
 _atom_site_fract_y
 _atom_site_fract_z
 _atom_site_occupancy
  Si  Si0  1  0.77609548  0.10401884  0.79105076  1
  Si  Si1  1  0.77609548  0.89598116  0.20894924  1
  Si  Si2  1  0.22390452  0.10401884  0.70894924  1
  Si  Si3  1  0.22390452  0.89598116  0.29105076  1
  Si  Si4  1  0.27609548  0.60401884  0.79105076  1
  Si  Si5  1  0.27609548  0.39598116  0.20894924  1
  Si  Si6  1  0.72390452  0.60401884  0.70894924  1
  Si  Si7  1  0.72390452  0.39598116  0.29105076  1
  Si  Si8  1  0.79713374  0.12615016  0.12492903  1
  Si  Si9  1  0.79713374  0.87384984  0.87507097  1
  Si  Si10  1  0.20286626  0.12615016  0.37507097  1
  Si  Si11  1  0.20286626  0.87384984  0.62492903  1
  Si  Si12  1  0.29713374  0.62615016  0.12492903  1
  Si  Si13  1  0.29713374  0.37384984  0.87507097  1
  Si  Si14  1  0.70286626  0.62615016  0.37507097  1
  Si  Si15  1  0.70286626  0.37384984  0.62492903  1
  Si  Si16  1  0.58712491  0.35779029  0.13892683  1
  Si  Si17  1  0.58712491  0.64220971  0.86107317  1
  Si  Si18  1  0.41287509  0.35779029  0.36107317  1
  Si  Si19  1  0.41287509  0.64220971  0.63892683  1
  Si  Si20  1  0.08712491  0.85779029  0.13892683  1
  Si  Si21  1  0.08712491  0.14220971  0.86107317  1
  Si  Si22  1  0.91287509  0.85779029  0.36107317  1
  Si  Si23  1  0.91287509  0.14220971  0.63892683  1
  Si  Si24  1  0.50000000  0.27108927  0.75000000  1
  Si  Si25  1  0.50000000  0.72891073  0.25000000  1
  Si  Si26  1  0.00000000  0.77108927  0.75000000  1
  Si  Si27  1  0.00000000  0.22891073  0.25000000  1
  Si  Si28  1  0.96860466  0.00000000  0.00000000  1
  Si  Si29  1  0.03139534  0.00000000  0.50000000  1
  Si  Si30  1  0.46860466  0.50000000  0.00000000  1
  Si  Si31  1  0.53139534  0.50000000  0.50000000  1
  O  O32  1  0.71580463  0.99141551  0.84007899  1
  O  O33  1  0.71580463  0.00858449  0.15992101  1
  O  O34  1  0.28419537  0.99141551  0.65992101  1
  O  O35  1  0.28419537  0.00858449  0.34007899  1
  O  O36  1  0.21580463  0.49141551  0.84007899  1
  O  O37  1  0.21580463  0.50858449  0.15992101  1
  O  O38  1  0.78419537  0.49141551  0.65992101  1
  O  O39  1  0.78419537  0.50858449  0.34007899  1
  O  O40  1  0.82976620  0.06479789  0.70543094  1
  O  O41  1  0.82976620  0.93520211  0.29456906  1
  O  O42  1  0.17023380  0.06479789  0.79456906  1
  O  O43  1  0.17023380  0.93520211  0.20543094  1
  O  O44  1  0.32976620  0.56479789  0.70543094  1
  O  O45  1  0.32976620  0.43520211  0.29456906  1
  O  O46  1  0.67023380  0.56479789  0.79456906  1
  O  O47  1  0.67023380  0.43520211  0.20543094  1
  O  O48  1  0.63727570  0.19434422  0.78339921  1
  O  O49  1  0.63727570  0.80565578  0.21660079  1
  O  O50  1  0.36272430  0.19434422  0.71660079  1
  O  O51  1  0.36272430  0.80565578  0.28339921  1
  O  O52  1  0.13727570  0.69434422  0.78339921  1
  O  O53  1  0.13727570  0.30565578  0.21660079  1
  O  O54  1  0.86272430  0.69434422  0.71660079  1
  O  O55  1  0.86272430  0.30565578  0.28339921  1
  O  O56  1  0.91539982  0.17204640  0.83358146  1
  O  O57  1  0.91539982  0.82795360  0.16641854  1
  O  O58  1  0.08460018  0.17204640  0.66641854  1
  O  O59  1  0.08460018  0.82795360  0.33358146  1
  O  O60  1  0.41539982  0.67204640  0.83358146  1
  O  O61  1  0.41539982  0.32795360  0.16641854  1
  O  O62  1  0.58460018  0.67204640  0.66641854  1
  O  O63  1  0.58460018  0.32795360  0.33358146  1
  O  O64  1  0.86037156  0.09932890  0.03955903  1
  O  O65  1  0.86037156  0.90067110  0.96044097  1
  O  O66  1  0.13962844  0.09932890  0.46044097  1
  O  O67  1  0.13962844  0.90067110  0.53955903  1
  O  O68  1  0.36037156  0.59932890  0.03955903  1
  O  O69  1  0.36037156  0.40067110  0.96044097  1
  O  O70  1  0.63962844  0.59932890  0.46044097  1
  O  O71  1  0.63962844  0.40067110  0.53955903  1
  O  O72  1  0.67982873  0.23635663  0.12254306  1
  O  O73  1  0.67982873  0.76364337  0.87745694  1
  O  O74  1  0.32017127  0.23635663  0.37745694  1
  O  O75  1  0.32017127  0.76364337  0.62254306  1
  O  O76  1  0.17982873  0.73635663  0.12254306  1
  O  O77  1  0.17982873  0.26364337  0.87745694  1
  O  O78  1  0.82017127  0.73635663  0.37745694  1
  O  O79  1  0.82017127  0.26364337  0.62254306  1
  O  O80  1  0.94175232  0.14989894  0.17927410  1
  O  O81  1  0.94175232  0.85010106  0.82072590  1
  O  O82  1  0.05824768  0.14989894  0.32072590  1
  O  O83  1  0.05824768  0.85010106  0.67927410  1
  O  O84  1  0.44175232  0.64989894  0.17927410  1
  O  O85  1  0.44175232  0.35010106  0.82072590  1
  O  O86  1  0.55824768  0.64989894  0.32072590  1
  O  O87  1  0.55824768  0.35010106  0.67927410  1
  O  O88  1  0.57820761  0.43679367  0.06196748  1
  O  O89  1  0.57820761  0.56320633  0.93803252  1
  O  O90  1  0.42179239  0.43679367  0.43803252  1
  O  O91  1  0.42179239  0.56320633  0.56196748  1
  O  O92  1  0.07820761  0.93679367  0.06196748  1
  O  O93  1  0.07820761  0.06320633  0.93803252  1
  O  O94  1  0.92179239  0.93679367  0.43803252  1
  O  O95  1  0.92179239  0.06320633  0.56196748  1
