# generated using pymatgen
data_BaLaNiRuO6
_symmetry_space_group_name_H-M   'P 1'
_cell_length_a   5.63547549
_cell_length_b   5.68197213
_cell_length_c   5.68315767
_cell_angle_alpha   59.45470422
_cell_angle_beta   60.32184188
_cell_angle_gamma   60.30778300
_symmetry_Int_Tables_number   1
_chemical_formula_structural   BaLaNiRuO6
_chemical_formula_sum   'Ba1 La1 Ni1 Ru1 O6'
_cell_volume   128.74079373
_cell_formula_units_Z   1
loop_
 _symmetry_equiv_pos_site_id
 _symmetry_equiv_pos_as_xyz
  1  'x, y, z'
loop_
 _atom_site_type_symbol
 _atom_site_label
 _atom_site_symmetry_multiplicity
 _atom_site_fract_x
 _atom_site_fract_y
 _atom_site_fract_z
 _atom_site_occupancy
  Ba  Ba0  1  0.74981628  0.75018211  0.74985673  1
  La  La1  1  0.24990516  0.25045331  0.24953130  1
  Ni  Ni2  1  0.50021819  0.49997185  0.49990354  1
  Ru  Ru3  1  -0.00000417  -0.00004490  0.00006245  1
  O  O4  1  0.21576163  0.27232698  0.69352748  1
  O  O5  1  0.27234219  0.81813594  0.21585642  1
  O  O6  1  0.24325480  0.75664696  0.75636628  1
  O  O7  1  0.75700539  0.24282537  0.24413739  1
  O  O8  1  0.69254350  0.21671346  0.81939506  1
  O  O9  1  0.81915703  0.69278893  0.27136334  1
