# generated using pymatgen
data_H7BrO3
_symmetry_space_group_name_H-M   'P 1'
_cell_length_a   6.31658159
_cell_length_b   6.92984199
_cell_length_c   6.51531093
_cell_angle_alpha   54.96473991
_cell_angle_beta   93.84061472
_cell_angle_gamma   92.18641235
_symmetry_Int_Tables_number   1
_chemical_formula_structural   H7BrO3
_chemical_formula_sum   'H14 Br2 O6'
_cell_volume   232.99220673
_cell_formula_units_Z   2
loop_
 _symmetry_equiv_pos_site_id
 _symmetry_equiv_pos_as_xyz
  1  'x, y, z'
loop_
 _atom_site_type_symbol
 _atom_site_label
 _atom_site_symmetry_multiplicity
 _atom_site_fract_x
 _atom_site_fract_y
 _atom_site_fract_z
 _atom_site_occupancy
  H  H0  1  0.47278827  0.78425658  0.02601927  1
  H  H1  1  0.50315679  0.04060012  0.77895728  1
  H  H2  1  0.89997474  0.31076695  0.32534906  1
  H  H3  1  0.04943632  0.47247641  0.37160719  1
  H  H4  1  0.72843932  0.55830525  0.73385039  1
  H  H5  1  0.71099477  0.70340443  0.85541094  1
  H  H6  1  0.99852260  0.71386139  0.72892734  1
  H  H7  1  0.13536749  0.85779137  0.45211814  1
  H  H8  1  0.26830847  0.83105618  0.70937862  1
  H  H9  1  0.74770596  0.08046227  0.21797897  1
  H  H10  1  0.65066754  0.99000006  0.47539316  1
  H  H11  1  0.24382292  0.26797824  0.02673772  1
  H  H12  1  0.45329480  0.26977279  0.18575828  1
  H  H13  1  0.19570416  0.34373763  0.22395864  1
  Br  Br14  1  0.54142115  0.46086600  0.52830072  1
  Br  Br15  1  0.03460576  0.97192674  0.08630748  1
  O  O16  1  0.48557310  0.87142624  0.84300586  1
  O  O17  1  0.04881612  0.33414750  0.36704090  1
  O  O18  1  0.81172056  0.61481697  0.82831830  1
  O  O19  1  0.15218959  0.77508637  0.64083422  1
  O  O20  1  0.67076187  0.13184015  0.30714076  1
  O  O21  1  0.31238570  0.35328936  0.09664476  1
