# generated using pymatgen
data_V6PbO11
_symmetry_space_group_name_H-M   'P 1'
_cell_length_a   5.93689591
_cell_length_b   5.93689574
_cell_length_c   13.58260403
_cell_angle_alpha   90.00000000
_cell_angle_beta   90.00000000
_cell_angle_gamma   120.00000086
_symmetry_Int_Tables_number   1
_chemical_formula_structural   V6PbO11
_chemical_formula_sum   'V12 Pb2 O22'
_cell_volume   414.60308100
_cell_formula_units_Z   2
loop_
 _symmetry_equiv_pos_site_id
 _symmetry_equiv_pos_as_xyz
  1  'x, y, z'
loop_
 _atom_site_type_symbol
 _atom_site_label
 _atom_site_symmetry_multiplicity
 _atom_site_fract_x
 _atom_site_fract_y
 _atom_site_fract_z
 _atom_site_occupancy
  V  V0  1  0.66666700  0.33333300  0.25531350  1
  V  V1  1  0.49829706  0.50170294  0.49643122  1
  V  V2  1  0.00000000  0.00000000  0.14605301  1
  V  V3  1  0.50170294  0.00340589  0.99643122  1
  V  V4  1  0.00000000  0.00000000  0.85187359  1
  V  V5  1  0.49829706  0.99659411  0.49643122  1
  V  V6  1  0.00000000  0.00000000  0.64605301  1
  V  V7  1  0.00340589  0.50170294  0.49643122  1
  V  V8  1  0.33333300  0.66666700  0.75531350  1
  V  V9  1  0.50170294  0.49829706  0.99643122  1
  V  V10  1  0.99659411  0.49829706  0.99643122  1
  V  V11  1  0.00000000  0.00000000  0.35187359  1
  Pb  Pb12  1  0.33333300  0.66666700  0.22111453  1
  Pb  Pb13  1  0.66666700  0.33333300  0.72111453  1
  O  O14  1  0.82300286  0.64600572  0.57836993  1
  O  O15  1  0.85208221  0.14791779  0.24920515  1
  O  O16  1  0.85208221  0.70416443  0.24920515  1
  O  O17  1  0.83004219  0.16995781  0.92411682  1
  O  O18  1  0.66008439  0.83004219  0.42411682  1
  O  O19  1  0.16995781  0.33991561  0.42411682  1
  O  O20  1  0.66666700  0.33333300  0.41516712  1
  O  O21  1  0.17699714  0.82300286  0.07836993  1
  O  O22  1  0.14791779  0.29583557  0.74920515  1
  O  O23  1  0.83004219  0.66008439  0.92411682  1
  O  O24  1  0.70416443  0.85208221  0.74920515  1
  O  O25  1  0.29583557  0.14791779  0.24920515  1
  O  O26  1  0.66666700  0.33333300  0.07900890  1
  O  O27  1  0.17699714  0.35399428  0.07836993  1
  O  O28  1  0.33333300  0.66666700  0.57900890  1
  O  O29  1  0.64600572  0.82300286  0.07836993  1
  O  O30  1  0.33991561  0.16995781  0.92411682  1
  O  O31  1  0.33333300  0.66666700  0.91516712  1
  O  O32  1  0.82300286  0.17699714  0.57836993  1
  O  O33  1  0.35399428  0.17699714  0.57836993  1
  O  O34  1  0.14791779  0.85208221  0.74920515  1
  O  O35  1  0.16995781  0.83004219  0.42411682  1
