# generated using pymatgen
data_Tm(HO)3
_symmetry_space_group_name_H-M   'P 1'
_cell_length_a   6.30094411
_cell_length_b   6.30087882
_cell_length_c   3.45308127
_cell_angle_alpha   90.00000000
_cell_angle_beta   90.00000000
_cell_angle_gamma   119.99956196
_symmetry_Int_Tables_number   1
_chemical_formula_structural   Tm(HO)3
_chemical_formula_sum   'Tm2 H6 O6'
_cell_volume   118.72607295
_cell_formula_units_Z   2
loop_
 _symmetry_equiv_pos_site_id
 _symmetry_equiv_pos_as_xyz
  1  'x, y, z'
loop_
 _atom_site_type_symbol
 _atom_site_label
 _atom_site_symmetry_multiplicity
 _atom_site_fract_x
 _atom_site_fract_y
 _atom_site_fract_z
 _atom_site_occupancy
  Tm  Tm0  1  0.33333195  0.66666386  0.25000000  1
  Tm  Tm1  1  0.66666805  0.33333614  0.75000000  1
  H  H2  1  0.85796111  0.72099408  0.25000000  1
  H  H3  1  0.86302631  0.14203781  0.25000000  1
  H  H4  1  0.27901732  0.13697443  0.25000000  1
  H  H5  1  0.14203889  0.27900592  0.75000000  1
  H  H6  1  0.13697369  0.85796219  0.75000000  1
  H  H7  1  0.72098268  0.86302557  0.75000000  1
  O  O8  1  0.91347237  0.60204355  0.25000000  1
  O  O9  1  0.68856721  0.08652869  0.25000000  1
  O  O10  1  0.39796205  0.31142963  0.25000000  1
  O  O11  1  0.08652763  0.39795645  0.75000000  1
  O  O12  1  0.31143279  0.91347131  0.75000000  1
  O  O13  1  0.60203795  0.68857037  0.75000000  1
