# generated using pymatgen
data_Sr(H8O5)2
_symmetry_space_group_name_H-M   'P 1'
_cell_length_a   6.32329836
_cell_length_b   6.45624800
_cell_length_c   11.40508152
_cell_angle_alpha   91.29028034
_cell_angle_beta   87.52532309
_cell_angle_gamma   92.19858918
_symmetry_Int_Tables_number   1
_chemical_formula_structural   Sr(H8O5)2
_chemical_formula_sum   'Sr2 H32 O20'
_cell_volume   464.73181476
_cell_formula_units_Z   2
loop_
 _symmetry_equiv_pos_site_id
 _symmetry_equiv_pos_as_xyz
  1  'x, y, z'
loop_
 _atom_site_type_symbol
 _atom_site_label
 _atom_site_symmetry_multiplicity
 _atom_site_fract_x
 _atom_site_fract_y
 _atom_site_fract_z
 _atom_site_occupancy
  Sr  Sr0  1  0.99968158  0.99412709  0.24132190  1
  Sr  Sr1  1  0.01647451  0.00405848  0.76180706  1
  H  H2  1  0.00504325  0.34748292  0.38230285  1
  H  H3  1  0.26742979  0.39086065  0.35147747  1
  H  H4  1  0.96945176  0.60150459  0.35762541  1
  H  H5  1  0.71258486  0.59562026  0.35123907  1
  H  H6  1  0.59295401  0.19732891  0.35033235  1
  H  H7  1  0.68862373  0.13369912  0.47042521  1
  H  H8  1  0.36977010  0.72247292  0.34381869  1
  H  H9  1  0.29478215  0.87717531  0.44709857  1
  H  H10  1  0.73236411  0.38549625  0.85668866  1
  H  H11  1  0.85725164  0.31798578  0.96962476  1
  H  H12  1  0.03680216  0.54561767  0.87000450  1
  H  H13  1  0.27781905  0.60846695  0.84860764  1
  H  H14  1  0.40406640  0.26293348  0.85536593  1
  H  H15  1  0.32416193  0.13565183  0.96941404  1
  H  H16  1  0.61492317  0.72067715  0.85082277  1
  H  H17  1  0.54641202  0.95504799  0.87097409  1
  H  H18  1  0.73048124  0.62317231  0.64500270  1
  H  H19  1  0.86730235  0.71400784  0.53852610  1
  H  H20  1  0.27570319  0.37233585  0.64728535  1
  H  H21  1  0.13562556  0.29704225  0.54398276  1
  H  H22  1  0.35690867  0.73108394  0.62854216  1
  H  H23  1  0.43564372  0.96985294  0.61319572  1
  H  H24  1  0.59083578  0.30198368  0.66555339  1
  H  H25  1  0.71178621  0.97524262  0.61540756  1
  H  H26  1  0.27910003  0.60619478  0.14432203  1
  H  H27  1  0.14891045  0.68089116  0.03354251  1
  H  H28  1  0.96572484  0.45508584  0.12611678  1
  H  H29  1  0.72118228  0.39196103  0.14767476  1
  H  H30  1  0.60040233  0.72594951  0.14653689  1
  H  H31  1  0.68228213  0.85855632  0.03536467  1
  H  H32  1  0.45326462  0.04337124  0.12766024  1
  H  H33  1  0.39375145  0.28344040  0.14277193  1
  O  O34  1  0.47701607  0.50746719  0.31240787  1
  O  O35  1  0.51662725  0.47979649  0.81279647  1
  O  O36  1  0.53360392  0.45291412  0.68329784  1
  O  O37  1  0.48992215  0.50468190  0.18109191  1
  O  O38  1  0.14614808  0.29138534  0.38419595  1
  O  O39  1  0.84423940  0.68025553  0.37720562  1
  O  O40  1  0.72548177  0.15699393  0.38295145  1
  O  O41  1  0.28840349  0.85400513  0.36175325  1
  O  O42  1  0.87096354  0.32903484  0.88208434  1
  O  O43  1  0.13915956  0.66775311  0.87574364  1
  O  O44  1  0.33751128  0.12447595  0.88122857  1
  O  O45  1  0.66824174  0.86200341  0.87837912  1
  O  O46  1  0.83857086  0.73475535  0.62365823  1
  O  O47  1  0.13394859  0.31060884  0.63087602  1
  O  O48  1  0.30053572  0.86704815  0.61593869  1
  O  O49  1  0.62889569  0.10096087  0.60569801  1
  O  O50  1  0.13903845  0.66725936  0.12039160  1
  O  O51  1  0.86357014  0.33270581  0.12333141  1
  O  O52  1  0.66753479  0.86638257  0.12256719  1
  O  O53  1  0.33603945  0.13920904  0.11662229  1
