# generated using pymatgen
data_Mo(HO2)2
_symmetry_space_group_name_H-M   'P 1'
_cell_length_a   7.71147846
_cell_length_b   6.74895203
_cell_length_c   3.77266441
_cell_angle_alpha   104.27862091
_cell_angle_beta   89.53022696
_cell_angle_gamma   116.58043628
_symmetry_Int_Tables_number   1
_chemical_formula_structural   Mo(HO2)2
_chemical_formula_sum   'Mo2 H4 O8'
_cell_volume   168.98284724
_cell_formula_units_Z   2
loop_
 _symmetry_equiv_pos_site_id
 _symmetry_equiv_pos_as_xyz
  1  'x, y, z'
loop_
 _atom_site_type_symbol
 _atom_site_label
 _atom_site_symmetry_multiplicity
 _atom_site_fract_x
 _atom_site_fract_y
 _atom_site_fract_z
 _atom_site_occupancy
  Mo  Mo0  1  0.79475190  0.95046552  0.73039036  1
  Mo  Mo1  1  0.20175444  0.03456754  0.25963790  1
  H  H2  1  0.32364978  0.53824460  0.49558345  1
  H  H3  1  0.67180917  0.44698080  0.49218169  1
  H  H4  1  0.87800900  0.56178696  0.72547837  1
  H  H5  1  0.12442405  0.42171905  0.23773236  1
  O  O6  1  0.54202829  0.79572902  0.65514350  1
  O  O7  1  0.45430282  0.19052824  0.33745210  1
  O  O8  1  0.12547029  0.04737854  0.76512015  1
  O  O9  1  0.87158036  0.93791306  0.22524145  1
  O  O10  1  0.83747762  0.23391940  0.86703890  1
  O  O11  1  0.16156750  0.75219417  0.12085101  1
  O  O12  1  0.79372995  0.59324466  0.57902303  1
  O  O13  1  0.20199785  0.39233746  0.40359475  1
