# generated using pymatgen
data_Te3WICl6
_symmetry_space_group_name_H-M   'P 1'
_cell_length_a   11.00615502
_cell_length_b   11.85258731
_cell_length_c   12.04067088
_cell_angle_alpha   111.67763345
_cell_angle_beta   90.00000000
_cell_angle_gamma   90.00000000
_symmetry_Int_Tables_number   1
_chemical_formula_structural   Te3WICl6
_chemical_formula_sum   'Te12 W4 I4 Cl24'
_cell_volume   1459.63607085
_cell_formula_units_Z   4
loop_
 _symmetry_equiv_pos_site_id
 _symmetry_equiv_pos_as_xyz
  1  'x, y, z'
loop_
 _atom_site_type_symbol
 _atom_site_label
 _atom_site_symmetry_multiplicity
 _atom_site_fract_x
 _atom_site_fract_y
 _atom_site_fract_z
 _atom_site_occupancy
  Te  Te0  1  0.18843241  0.88809070  0.04375619  1
  Te  Te1  1  0.20971575  0.06026021  0.95193145  1
  Te  Te2  1  0.70971575  0.93973979  0.54806855  1
  Te  Te3  1  0.81156759  0.11190930  0.95624381  1
  Te  Te4  1  0.50992188  0.98878140  0.71809370  1
  Te  Te5  1  0.99007812  0.98878140  0.21809370  1
  Te  Te6  1  0.79028425  0.93973979  0.04806855  1
  Te  Te7  1  0.29028425  0.06026021  0.45193145  1
  Te  Te8  1  0.00992188  0.01121860  0.78190630  1
  Te  Te9  1  0.31156759  0.88809070  0.54375619  1
  Te  Te10  1  0.68843241  0.11190930  0.45624381  1
  Te  Te11  1  0.49007812  0.01121860  0.28190630  1
  W  W12  1  0.00533866  0.36099802  0.71439926  1
  W  W13  1  0.49466134  0.36099802  0.21439926  1
  W  W14  1  0.99466134  0.63900198  0.28560074  1
  W  W15  1  0.50533866  0.63900198  0.78560074  1
  I  I16  1  0.97048415  0.77320246  0.74023622  1
  I  I17  1  0.52951585  0.77320246  0.24023622  1
  I  I18  1  0.02951585  0.22679754  0.25976378  1
  I  I19  1  0.47048415  0.22679754  0.75976378  1
  Cl  Cl20  1  0.61443234  0.44166065  0.10360604  1
  Cl  Cl21  1  0.66991144  0.30920874  0.29640036  1
  Cl  Cl22  1  0.48201280  0.54607697  0.36852350  1
  Cl  Cl23  1  0.00543255  0.83715901  0.43724465  1
  Cl  Cl24  1  0.50543255  0.16284099  0.06275535  1
  Cl  Cl25  1  0.01798720  0.54607697  0.86852350  1
  Cl  Cl26  1  0.33008856  0.69079126  0.70359964  1
  Cl  Cl27  1  0.38556766  0.55833935  0.89639396  1
  Cl  Cl28  1  0.67957673  0.60932593  0.87625439  1
  Cl  Cl29  1  0.83008856  0.30920874  0.79640036  1
  Cl  Cl30  1  0.32042327  0.39067407  0.12374561  1
  Cl  Cl31  1  0.11443234  0.55833935  0.39639396  1
  Cl  Cl32  1  0.17957673  0.39067407  0.62374561  1
  Cl  Cl33  1  0.87850043  0.72572411  0.16788809  1
  Cl  Cl34  1  0.49456745  0.83715901  0.93724465  1
  Cl  Cl35  1  0.88556766  0.44166065  0.60360604  1
  Cl  Cl36  1  0.82042327  0.60932593  0.37625439  1
  Cl  Cl37  1  0.12149957  0.27427589  0.83211191  1
  Cl  Cl38  1  0.51798720  0.45392303  0.63147650  1
  Cl  Cl39  1  0.99456745  0.16284099  0.56275535  1
  Cl  Cl40  1  0.37850043  0.27427589  0.33211191  1
  Cl  Cl41  1  0.62149957  0.72572411  0.66788809  1
  Cl  Cl42  1  0.16991144  0.69079126  0.20359964  1
  Cl  Cl43  1  0.98201280  0.45392303  0.13147650  1
