# generated using pymatgen
data_TeHO3
_symmetry_space_group_name_H-M   'P 1'
_cell_length_a   11.71309202
_cell_length_b   8.42995975
_cell_length_c   4.97552305
_cell_angle_alpha   90.00000000
_cell_angle_beta   89.98826034
_cell_angle_gamma   90.00000000
_symmetry_Int_Tables_number   1
_chemical_formula_structural   TeHO3
_chemical_formula_sum   'Te8 H8 O24'
_cell_volume   491.28758482
_cell_formula_units_Z   8
loop_
 _symmetry_equiv_pos_site_id
 _symmetry_equiv_pos_as_xyz
  1  'x, y, z'
loop_
 _atom_site_type_symbol
 _atom_site_label
 _atom_site_symmetry_multiplicity
 _atom_site_fract_x
 _atom_site_fract_y
 _atom_site_fract_z
 _atom_site_occupancy
  Te  Te0  1  0.61107952  0.44999646  0.98120803  1
  Te  Te1  1  0.38885357  0.54960613  0.48143128  1
  Te  Te2  1  0.88885357  0.95039387  0.48143128  1
  Te  Te3  1  0.11107952  0.05000354  0.98120803  1
  Te  Te4  1  0.89796092  0.32755544  0.84767241  1
  Te  Te5  1  0.10219162  0.67284502  0.34762462  1
  Te  Te6  1  0.60219162  0.82715498  0.34762462  1
  Te  Te7  1  0.39796092  0.17244456  0.84767241  1
  H  H8  1  0.87375594  0.51193039  0.48064472  1
  H  H9  1  0.12681127  0.48985070  0.97909859  1
  H  H10  1  0.62681127  0.01014930  0.97909859  1
  H  H11  1  0.37375594  0.98806961  0.48064472  1
  H  H12  1  0.68007241  0.31999267  0.40540964  1
  H  H13  1  0.32131020  0.68240306  0.90472603  1
  H  H14  1  0.82131020  0.81759694  0.90472603  1
  H  H15  1  0.18007241  0.18000733  0.40540964  1
  O  O16  1  0.74017773  0.45174137  0.74776127  1
  O  O17  1  0.25952874  0.54787897  0.24904216  1
  O  O18  1  0.75952874  0.95212103  0.24904216  1
  O  O19  1  0.24017773  0.04825863  0.74776127  1
  O  O20  1  0.94053172  0.44571070  0.52404179  1
  O  O21  1  0.05971723  0.55525189  0.02354304  1
  O  O22  1  0.55971723  0.94474811  0.02354304  1
  O  O23  1  0.44053172  0.05428930  0.52404179  1
  O  O24  1  0.33165048  0.35481084  0.66230626  1
  O  O25  1  0.66847104  0.64450757  0.16263784  1
  O  O26  1  0.16847104  0.85549243  0.16263784  1
  O  O27  1  0.83165048  0.14518916  0.66230626  1
  O  O28  1  0.47872014  0.41266866  0.23214833  1
  O  O29  1  0.52112340  0.58711013  0.73241178  1
  O  O30  1  0.02112340  0.91288987  0.73241178  1
  O  O31  1  0.97872014  0.08733134  0.23214833  1
  O  O32  1  0.55737483  0.26332615  0.79073896  1
  O  O33  1  0.44250389  0.73642324  0.29110302  1
  O  O34  1  0.94250389  0.76357676  0.29110302  1
  O  O35  1  0.05737483  0.23667385  0.79073896  1
  O  O36  1  0.70494944  0.32051537  0.21686296  1
  O  O37  1  0.29478889  0.67864396  0.71770628  1
  O  O38  1  0.79478889  0.82135604  0.71770628  1
  O  O39  1  0.20494944  0.17948463  0.21686296  1
