# generated using pymatgen
data_Cr5As3
_symmetry_space_group_name_H-M   'P 1'
_cell_length_a   6.33441854
_cell_length_b   7.39880671
_cell_length_c   9.26039680
_cell_angle_alpha   90.00000000
_cell_angle_beta   90.00000000
_cell_angle_gamma   90.00000000
_symmetry_Int_Tables_number   1
_chemical_formula_structural   Cr5As3
_chemical_formula_sum   'Cr20 As12'
_cell_volume   434.00829844
_cell_formula_units_Z   4
loop_
 _symmetry_equiv_pos_site_id
 _symmetry_equiv_pos_as_xyz
  1  'x, y, z'
loop_
 _atom_site_type_symbol
 _atom_site_label
 _atom_site_symmetry_multiplicity
 _atom_site_fract_x
 _atom_site_fract_y
 _atom_site_fract_z
 _atom_site_occupancy
  Cr  Cr0  1  0.65170968  0.75000000  0.70814467  1
  Cr  Cr1  1  0.15170968  0.25000000  0.79185533  1
  Cr  Cr2  1  0.34829032  0.25000000  0.29185533  1
  Cr  Cr3  1  0.84829032  0.75000000  0.20814467  1
  Cr  Cr4  1  0.19406376  0.75000000  0.74942233  1
  Cr  Cr5  1  0.69406376  0.25000000  0.75057767  1
  Cr  Cr6  1  0.80593624  0.25000000  0.25057767  1
  Cr  Cr7  1  0.30593624  0.75000000  0.24942233  1
  Cr  Cr8  1  0.47439815  0.75000000  0.98357962  1
  Cr  Cr9  1  0.97439815  0.25000000  0.51642038  1
  Cr  Cr10  1  0.52560185  0.25000000  0.01642038  1
  Cr  Cr11  1  0.02560185  0.75000000  0.48357962  1
  Cr  Cr12  1  0.79911514  0.94430779  0.92318252  1
  Cr  Cr13  1  0.29911514  0.05569221  0.57681748  1
  Cr  Cr14  1  0.20088486  0.44430779  0.07681748  1
  Cr  Cr15  1  0.70088486  0.55569221  0.42318252  1
  Cr  Cr16  1  0.20088486  0.05569221  0.07681748  1
  Cr  Cr17  1  0.70088486  0.94430779  0.42318252  1
  Cr  Cr18  1  0.79911514  0.55569221  0.92318252  1
  Cr  Cr19  1  0.29911514  0.44430779  0.57681748  1
  As  As20  1  0.41442321  0.75000000  0.50562261  1
  As  As21  1  0.91442321  0.25000000  0.99437739  1
  As  As22  1  0.58557679  0.25000000  0.49437739  1
  As  As23  1  0.08557679  0.75000000  0.00562261  1
  As  As24  1  0.92837712  0.51547747  0.66999066  1
  As  As25  1  0.42837712  0.48452253  0.83000934  1
  As  As26  1  0.07162288  0.01547747  0.33000934  1
  As  As27  1  0.57162288  0.98452253  0.16999066  1
  As  As28  1  0.07162288  0.48452253  0.33000934  1
  As  As29  1  0.57162288  0.51547747  0.16999066  1
  As  As30  1  0.92837712  0.98452253  0.66999066  1
  As  As31  1  0.42837712  0.01547747  0.83000934  1
