# generated using pymatgen
data_TlHO
_symmetry_space_group_name_H-M   'P 1'
_cell_length_a   4.43893428
_cell_length_b   4.43893428
_cell_length_c   21.78736163
_cell_angle_alpha   88.43754157
_cell_angle_beta   91.56245843
_cell_angle_gamma   88.01812113
_symmetry_Int_Tables_number   1
_chemical_formula_structural   TlHO
_chemical_formula_sum   'Tl8 H8 O8'
_cell_volume   428.71383321
_cell_formula_units_Z   8
loop_
 _symmetry_equiv_pos_site_id
 _symmetry_equiv_pos_as_xyz
  1  'x, y, z'
loop_
 _atom_site_type_symbol
 _atom_site_label
 _atom_site_symmetry_multiplicity
 _atom_site_fract_x
 _atom_site_fract_y
 _atom_site_fract_z
 _atom_site_occupancy
  Tl  Tl0  1  0.91258863  0.41645711  0.94572886  1
  Tl  Tl1  1  0.41645711  0.91258863  0.05427114  1
  Tl  Tl2  1  0.38157153  0.90584136  0.54834717  1
  Tl  Tl3  1  0.90584136  0.38157153  0.45165283  1
  Tl  Tl4  1  0.92603407  0.89802649  0.80254231  1
  Tl  Tl5  1  0.89802649  0.92603407  0.19745769  1
  Tl  Tl6  1  0.40036320  0.41519324  0.69330526  1
  Tl  Tl7  1  0.41519324  0.40036320  0.30669474  1
  H  H8  1  0.89682423  0.95949020  0.65974390  1
  H  H9  1  0.95949020  0.89682423  0.34025610  1
  H  H10  1  0.45053706  0.39763451  0.83430459  1
  H  H11  1  0.39763451  0.45053706  0.16569541  1
  H  H12  1  0.88254519  0.46196429  0.59946213  1
  H  H13  1  0.46196429  0.88254519  0.40053787  1
  H  H14  1  0.43301224  0.92103200  0.91100800  1
  H  H15  1  0.92103200  0.43301224  0.08899200  1
  O  O16  1  0.87365039  0.09465310  0.69387013  1
  O  O17  1  0.09465310  0.87365039  0.30612987  1
  O  O18  1  0.59201271  0.37841551  0.80114757  1
  O  O19  1  0.37841551  0.59201271  0.19885243  1
  O  O20  1  0.86018281  0.59372809  0.56278640  1
  O  O21  1  0.59372809  0.86018281  0.43721360  1
  O  O22  1  0.58339667  0.89504938  0.94425113  1
  O  O23  1  0.89504938  0.58339667  0.05574887  1
