# generated using pymatgen
data_Tb4Ga6FeGe6
_symmetry_space_group_name_H-M   'P 1'
_cell_length_a   7.45080301
_cell_length_b   7.45071203
_cell_length_c   7.45067177
_cell_angle_alpha   109.47334290
_cell_angle_beta   109.47200099
_cell_angle_gamma   109.46784384
_symmetry_Int_Tables_number   1
_chemical_formula_structural   Tb4Ga6FeGe6
_chemical_formula_sum   'Tb4 Ga6 Fe1 Ge6'
_cell_volume   318.40284631
_cell_formula_units_Z   1
loop_
 _symmetry_equiv_pos_site_id
 _symmetry_equiv_pos_as_xyz
  1  'x, y, z'
loop_
 _atom_site_type_symbol
 _atom_site_label
 _atom_site_symmetry_multiplicity
 _atom_site_fract_x
 _atom_site_fract_y
 _atom_site_fract_z
 _atom_site_occupancy
  Tb  Tb0  1  0.50006554  -0.00000090  0.99999267  1
  Tb  Tb1  1  0.49995982  0.49996334  0.49997565  1
  Tb  Tb2  1  0.99999493  0.99999503  0.49998552  1
  Tb  Tb3  1  0.99996791  0.50000051  0.99999131  1
  Ga  Ga4  1  0.24999206  0.75001377  0.49999430  1
  Ga  Ga5  1  0.24997056  0.49998040  0.75000052  1
  Ga  Ga6  1  0.49998262  0.75002969  0.25004005  1
  Ga  Ga7  1  0.49998139  0.24998841  0.74997390  1
  Ga  Ga8  1  0.74999502  0.24996424  0.49998903  1
  Ga  Ga9  1  0.75003300  0.50002199  0.25005154  1
  Fe  Fe10  1  0.00002285  0.00000046  0.00001558  1
  Ge  Ge11  1  0.00000690  0.28789669  0.28787860  1
  Ge  Ge12  1  0.28789004  0.00000760  0.28785267  1
  Ge  Ge13  1  0.71211823  0.99998397  0.71213259  1
  Ge  Ge14  1  0.00001194  0.71213638  0.71214254  1
  Ge  Ge15  1  0.28785597  0.28788716  0.99999798  1
  Ge  Ge16  1  0.71215122  0.71213126  0.99998556  1
