# generated using pymatgen
data_Ca(H8O5)2
_symmetry_space_group_name_H-M   'P 1'
_cell_length_a   6.20768238
_cell_length_b   6.35023653
_cell_length_c   10.83658541
_cell_angle_alpha   87.66875984
_cell_angle_beta   88.32287911
_cell_angle_gamma   90.81088685
_symmetry_Int_Tables_number   1
_chemical_formula_structural   Ca(H8O5)2
_chemical_formula_sum   'Ca2 H32 O20'
_cell_volume   426.59418489
_cell_formula_units_Z   2
loop_
 _symmetry_equiv_pos_site_id
 _symmetry_equiv_pos_as_xyz
  1  'x, y, z'
loop_
 _atom_site_type_symbol
 _atom_site_label
 _atom_site_symmetry_multiplicity
 _atom_site_fract_x
 _atom_site_fract_y
 _atom_site_fract_z
 _atom_site_occupancy
  Ca  Ca0  1  0.97909079  0.97660480  0.22524103  1
  Ca  Ca1  1  0.99334796  0.01113240  0.74081479  1
  H  H2  1  0.28428790  0.35454240  0.35243294  1
  H  H3  1  0.19685431  0.13529382  0.40409094  1
  H  H4  1  0.86487919  0.68069283  0.46412184  1
  H  H5  1  0.95987333  0.51777218  0.36920616  1
  H  H6  1  0.64947315  0.20621697  0.33790154  1
  H  H7  1  0.70195052  0.09995136  0.51807886  1
  H  H8  1  0.48533658  0.96430721  0.36297382  1
  H  H9  1  0.34867017  0.74249424  0.34329027  1
  H  H10  1  0.87216402  0.30738206  0.96655987  1
  H  H11  1  0.73219864  0.37063047  0.85010771  1
  H  H12  1  0.03202647  0.55903157  0.86183178  1
  H  H13  1  0.12022127  0.69757005  0.96973477  1
  H  H14  1  0.37047085  0.25620492  0.83598547  1
  H  H15  1  0.44148602  0.02016640  0.86009817  1
  H  H16  1  0.68463332  0.87183410  0.96543145  1
  H  H17  1  0.63967189  0.73694874  0.84580942  1
  H  H18  1  0.96445932  0.58253739  0.63224382  1
  H  H19  1  0.71418956  0.63663908  0.63456580  1
  H  H20  1  0.27347971  0.41900755  0.63433047  1
  H  H21  1  0.11063696  0.33991429  0.53658869  1
  H  H22  1  0.43649408  0.98045913  0.62488728  1
  H  H23  1  0.29258019  0.87554644  0.52736009  1
  H  H24  1  0.63017696  0.26210271  0.62600461  1
  H  H25  1  0.23939630  0.64285747  0.13123565  1
  H  H26  1  0.73256109  0.38135626  0.13860514  1
  H  H27  1  0.97510019  0.46634278  0.11939238  1
  H  H28  1  0.52776834  0.97405069  0.12383119  1
  H  H29  1  0.59734371  0.73024708  0.13508311  1
  H  H30  1  0.37046125  0.28128486  0.13507851  1
  H  H31  1  0.29436361  0.13966692  0.02393993  1
  H  H32  1  0.64062531  0.55954053  0.33215570  1
  H  H33  1  0.34611557  0.58536972  0.81307561  1
  O  O34  1  0.14815008  0.27806074  0.38035790  1
  O  O35  1  0.86872243  0.64250778  0.37388579  1
  O  O36  1  0.68370298  0.06346392  0.36742964  1
  O  O37  1  0.32018853  0.88893015  0.36537588  1
  O  O38  1  0.87362715  0.31626813  0.87267838  1
  O  O39  1  0.12805503  0.68318252  0.87191396  1
  O  O40  1  0.31324595  0.11432075  0.86456560  1
  O  O41  1  0.67923394  0.87903270  0.87135751  1
  O  O42  1  0.86415487  0.70458430  0.61916521  1
  O  O43  1  0.11608276  0.36921700  0.62548958  1
  O  O44  1  0.29094601  0.91716447  0.61499196  1
  O  O45  1  0.69264104  0.11872133  0.61130523  1
  O  O46  1  0.09465118  0.68737881  0.10879825  1
  O  O47  1  0.88166539  0.32776858  0.11888813  1
  O  O48  1  0.65491494  0.87970202  0.11300640  1
  O  O49  1  0.31065149  0.13833101  0.11544392  1
  O  O50  1  0.49240922  0.50557422  0.30656301  1
  O  O51  1  0.48323944  0.49949228  0.79556585  1
  O  O52  1  0.50943572  0.48782355  0.65934197  1
  O  O53  1  0.50531432  0.50311231  0.16996901  1
