# generated using pymatgen
data_Al(HO)3
_symmetry_space_group_name_H-M   'P 1'
_cell_length_a   7.09928313
_cell_length_b   7.43226698
_cell_length_c   8.47033945
_cell_angle_alpha   111.69005172
_cell_angle_beta   142.41467587
_cell_angle_gamma   88.90999661
_symmetry_Int_Tables_number   1
_chemical_formula_structural   Al(HO)3
_chemical_formula_sum   'Al4 H12 O12'
_cell_volume   221.76634566
_cell_formula_units_Z   4
loop_
 _symmetry_equiv_pos_site_id
 _symmetry_equiv_pos_as_xyz
  1  'x, y, z'
loop_
 _atom_site_type_symbol
 _atom_site_label
 _atom_site_symmetry_multiplicity
 _atom_site_fract_x
 _atom_site_fract_y
 _atom_site_fract_z
 _atom_site_occupancy
  Al  Al0  1  0.48147646  0.83385829  0.31507033  1
  Al  Al1  1  0.51861880  0.16616927  0.68498751  1
  Al  Al2  1  0.99795132  0.66733369  0.66613203  1
  Al  Al3  1  0.00207209  0.33263610  0.33386546  1
  H  H4  1  0.09798673  0.05339212  0.88903867  1
  H  H5  1  0.90232854  0.94664462  0.11106884  1
  H  H6  1  0.60366475  0.54184839  0.90982432  1
  H  H7  1  0.39635398  0.45816992  0.09018587  1
  H  H8  1  0.09828167  0.72682539  0.44984070  1
  H  H9  1  0.90171824  0.27313892  0.55015385  1
  H  H10  1  0.48689320  0.21017979  0.39038285  1
  H  H11  1  0.51309337  0.78981322  0.60961454  1
  H  H12  1  0.67533398  0.90980305  0.17642120  1
  H  H13  1  0.32466590  0.09013740  0.82351024  1
  H  H14  1  0.18555208  0.40729587  0.18011663  1
  H  H15  1  0.81454061  0.59272004  0.81994067  1
  O  O16  1  0.98768871  0.93878895  0.69909400  1
  O  O17  1  0.01238299  0.06119069  0.30089157  1
  O  O18  1  0.51143778  0.44142742  0.72639751  1
  O  O19  1  0.48861723  0.55858519  0.27363521  1
  O  O20  1  0.05969978  0.62393055  0.47623703  1
  O  O21  1  0.94032211  0.37603001  0.52376486  1
  O  O22  1  0.58081452  0.13743448  0.49661269  1
  O  O23  1  0.41928913  0.86259723  0.50344688  1
  O  O24  1  0.48146020  0.81782806  0.09022150  1
  O  O25  1  0.51856725  0.18217153  0.90977702  1
  O  O26  1  0.01056715  0.30250120  0.10560901  1
  O  O27  1  0.98951643  0.69750960  0.89443900  1
