# generated using pymatgen
data_SrGaH4
_symmetry_space_group_name_H-M   'P 1'
_cell_length_a   4.73560064
_cell_length_b   8.78654425
_cell_length_c   7.46079754
_cell_angle_alpha   90.00000000
_cell_angle_beta   90.00000000
_cell_angle_gamma   90.00000000
_symmetry_Int_Tables_number   1
_chemical_formula_structural   SrGaH4
_chemical_formula_sum   'Sr4 Ga4 H16'
_cell_volume   310.44053701
_cell_formula_units_Z   4
loop_
 _symmetry_equiv_pos_site_id
 _symmetry_equiv_pos_as_xyz
  1  'x, y, z'
loop_
 _atom_site_type_symbol
 _atom_site_label
 _atom_site_symmetry_multiplicity
 _atom_site_fract_x
 _atom_site_fract_y
 _atom_site_fract_z
 _atom_site_occupancy
  Sr  Sr0  1  0.95398412  0.99529580  0.75141877  1
  Sr  Sr1  1  0.45398412  0.00470420  0.24858123  1
  Sr  Sr2  1  0.45398412  0.50470420  0.25141877  1
  Sr  Sr3  1  0.95398412  0.49529580  0.74858123  1
  Ga  Ga4  1  0.95405430  0.75739348  0.39580273  1
  Ga  Ga5  1  0.45405430  0.24260652  0.60419727  1
  Ga  Ga6  1  0.45405430  0.74260652  0.89580273  1
  Ga  Ga7  1  0.95405430  0.25739348  0.10419727  1
  H  H8  1  0.21819485  0.25609413  0.24845673  1
  H  H9  1  0.71819485  0.74390587  0.75154327  1
  H  H10  1  0.71819485  0.24390587  0.74845673  1
  H  H11  1  0.21819485  0.75609413  0.25154327  1
  H  H12  1  0.95408401  0.96100387  0.42154825  1
  H  H13  1  0.45408401  0.03899613  0.57845175  1
  H  H14  1  0.45408401  0.53899613  0.92154825  1
  H  H15  1  0.95408401  0.46100387  0.07845175  1
  H  H16  1  0.95408146  0.05389889  0.08005198  1
  H  H17  1  0.45408146  0.94610111  0.91994802  1
  H  H18  1  0.45408146  0.44610111  0.58005198  1
  H  H19  1  0.95408146  0.55389889  0.41994802  1
  H  H20  1  0.18962026  0.24390324  0.74817446  1
  H  H21  1  0.68962026  0.75609676  0.25182554  1
  H  H22  1  0.68962026  0.25609676  0.24817446  1
  H  H23  1  0.18962026  0.74390324  0.75182554  1
