# generated using pymatgen
data_Mo(HO2)2
_symmetry_space_group_name_H-M   'P 1'
_cell_length_a   7.84978810
_cell_length_b   3.72964978
_cell_length_c   6.74667264
_cell_angle_alpha   109.29383273
_cell_angle_beta   114.11295463
_cell_angle_gamma   92.15435961
_symmetry_Int_Tables_number   1
_chemical_formula_structural   Mo(HO2)2
_chemical_formula_sum   'Mo2 H4 O8'
_cell_volume   166.71180410
_cell_formula_units_Z   2
loop_
 _symmetry_equiv_pos_site_id
 _symmetry_equiv_pos_as_xyz
  1  'x, y, z'
loop_
 _atom_site_type_symbol
 _atom_site_label
 _atom_site_symmetry_multiplicity
 _atom_site_fract_x
 _atom_site_fract_y
 _atom_site_fract_z
 _atom_site_occupancy
  Mo  Mo0  1  0.79639346  0.20436355  0.95285769  1
  Mo  Mo1  1  0.20360654  0.79563645  0.04714231  1
  H  H2  1  0.67145016  0.98482394  0.45323177  1
  H  H3  1  0.83992231  0.76498134  0.50819433  1
  H  H4  1  0.16007769  0.23501866  0.49180567  1
  H  H5  1  0.32854984  0.01517606  0.54676823  1
  O  O6  1  0.55116887  0.10179126  0.79390710  1
  O  O7  1  0.44883113  0.89820874  0.20609290  1
  O  O8  1  0.12607809  0.29712977  0.06110733  1
  O  O9  1  0.87392191  0.70287023  0.93889267  1
  O  O10  1  0.82789225  0.37562836  0.23916127  1
  O  O11  1  0.17210775  0.62437164  0.76083873  1
  O  O12  1  0.79260008  0.98706990  0.58180003  1
  O  O13  1  0.20739992  0.01293010  0.41819997  1
