# generated using pymatgen
data_H7NO6
_symmetry_space_group_name_H-M   'P 1'
_cell_length_a   9.63917950
_cell_length_b   15.23077333
_cell_length_c   3.65103689
_cell_angle_alpha   90.00000000
_cell_angle_beta   92.35211947
_cell_angle_gamma   90.00000000
_symmetry_Int_Tables_number   1
_chemical_formula_structural   H7NO6
_chemical_formula_sum   'H28 N4 O24'
_cell_volume   535.56499784
_cell_formula_units_Z   4
loop_
 _symmetry_equiv_pos_site_id
 _symmetry_equiv_pos_as_xyz
  1  'x, y, z'
loop_
 _atom_site_type_symbol
 _atom_site_label
 _atom_site_symmetry_multiplicity
 _atom_site_fract_x
 _atom_site_fract_y
 _atom_site_fract_z
 _atom_site_occupancy
  H  H0  1  0.60073833  0.69653311  0.14812669  1
  H  H1  1  0.45351741  0.68258860  0.78323463  1
  H  H2  1  0.99709094  0.33181625  0.37926568  1
  H  H3  1  0.95197900  0.40983192  0.67331025  1
  H  H4  1  0.00290906  0.83181625  0.12073432  1
  H  H5  1  0.04802100  0.90983192  0.82668975  1
  H  H6  1  0.54648259  0.18258860  0.71676537  1
  H  H7  1  0.39926167  0.19653311  0.35187331  1
  H  H8  1  0.58682741  0.95404111  0.09859088  1
  H  H9  1  0.49174971  0.00459475  0.80795024  1
  H  H10  1  0.04383707  0.04425178  0.68715957  1
  H  H11  1  0.91084863  0.99535014  0.52008526  1
  H  H12  1  0.95616293  0.54425178  0.81284043  1
  H  H13  1  0.08915137  0.49535014  0.97991474  1
  H  H14  1  0.50825029  0.50459475  0.69204976  1
  H  H15  1  0.41317259  0.45404111  0.40140912  1
  H  H16  1  0.33077674  0.83429060  0.46344438  1
  H  H17  1  0.17410865  0.86981797  0.14645811  1
  H  H18  1  0.36938463  0.91829232  0.21863630  1
  H  H19  1  0.20397716  0.08293538  0.10799335  1
  H  H20  1  0.34346329  0.14190448  0.68508875  1
  H  H21  1  0.15586107  0.17672504  0.98539623  1
  H  H22  1  0.79602284  0.58293538  0.39200665  1
  H  H23  1  0.84413893  0.67672504  0.51460377  1
  H  H24  1  0.65653671  0.64190448  0.81491125  1
  H  H25  1  0.82589135  0.36981797  0.35354189  1
  H  H26  1  0.66922326  0.33429060  0.03655562  1
  H  H27  1  0.63061537  0.41829232  0.28136370  1
  N  N28  1  0.75246962  0.82975883  0.30673312  1
  N  N29  1  0.74921317  0.15947386  0.83287276  1
  N  N30  1  0.25078683  0.65947386  0.66712724  1
  N  N31  1  0.24753038  0.32975883  0.19326688  1
  O  O32  1  0.64023899  0.79477274  0.39701206  1
  O  O33  1  0.85564086  0.18542968  0.99313231  1
  O  O34  1  0.14435914  0.68542968  0.50686769  1
  O  O35  1  0.35976101  0.29477274  0.10298794  1
  O  O36  1  0.86477727  0.78363848  0.31648160  1
  O  O37  1  0.63577044  0.21399449  0.85769424  1
  O  O38  1  0.36422956  0.71399449  0.64230576  1
  O  O39  1  0.13522273  0.28363848  0.18351840  1
  O  O40  1  0.75718951  0.90891166  0.20739053  1
  O  O41  1  0.73274969  0.09123823  0.65545110  1
  O  O42  1  0.26725031  0.59123823  0.84454890  1
  O  O43  1  0.24281049  0.40891166  0.29260947  1
  O  O44  1  0.57419478  0.65055311  0.96670883  1
  O  O45  1  0.91877996  0.35494412  0.52563847  1
  O  O46  1  0.08122004  0.85494412  0.97436153  1
  O  O47  1  0.42580522  0.15055311  0.53329117  1
  O  O48  1  0.49189163  0.97685330  0.04848775  1
  O  O49  1  0.01033533  0.98860814  0.57730161  1
  O  O50  1  0.98966467  0.48860814  0.92269839  1
  O  O51  1  0.50810837  0.47685330  0.45151225  1
  O  O52  1  0.29260140  0.88850138  0.35385559  1
  O  O53  1  0.18399481  0.11834252  0.88958691  1
  O  O54  1  0.81600519  0.61834252  0.61041309  1
  O  O55  1  0.70739860  0.38850138  0.14614441  1
