# generated using pymatgen
data_Cu3Mo2O9
_symmetry_space_group_name_H-M   'P 1'
_cell_length_a   6.91477881
_cell_length_b   7.73783332
_cell_length_c   14.82603021
_cell_angle_alpha   90.00000000
_cell_angle_beta   90.00000000
_cell_angle_gamma   90.00000000
_symmetry_Int_Tables_number   1
_chemical_formula_structural   Cu3Mo2O9
_chemical_formula_sum   'Cu12 Mo8 O36'
_cell_volume   793.27276392
_cell_formula_units_Z   4
loop_
 _symmetry_equiv_pos_site_id
 _symmetry_equiv_pos_as_xyz
  1  'x, y, z'
loop_
 _atom_site_type_symbol
 _atom_site_label
 _atom_site_symmetry_multiplicity
 _atom_site_fract_x
 _atom_site_fract_y
 _atom_site_fract_z
 _atom_site_occupancy
  Cu  Cu0  1  0.25000000  0.20405057  0.43575451  1
  Cu  Cu1  1  0.25000000  0.33582609  0.64335334  1
  Cu  Cu2  1  0.75000000  0.29594943  0.93575451  1
  Cu  Cu3  1  0.25000000  0.70405057  0.06424549  1
  Cu  Cu4  1  0.25000000  0.83582609  0.85664666  1
  Cu  Cu5  1  0.75000000  0.79594943  0.56424549  1
  Cu  Cu6  1  0.00000000  0.00000000  0.00000000  1
  Cu  Cu7  1  0.75000000  0.66417391  0.35664666  1
  Cu  Cu8  1  0.50000000  0.50000000  0.50000000  1
  Cu  Cu9  1  0.75000000  0.16417391  0.14335334  1
  Cu  Cu10  1  0.00000000  0.50000000  0.50000000  1
  Cu  Cu11  1  0.50000000  0.00000000  0.00000000  1
  Mo  Mo12  1  0.25000000  0.76453175  0.33101358  1
  Mo  Mo13  1  0.25000000  0.34183025  0.88740555  1
  Mo  Mo14  1  0.75000000  0.73546825  0.83101358  1
  Mo  Mo15  1  0.25000000  0.84183025  0.61259445  1
  Mo  Mo16  1  0.75000000  0.65816975  0.11259445  1
  Mo  Mo17  1  0.75000000  0.23546825  0.66898642  1
  Mo  Mo18  1  0.75000000  0.15816975  0.38740555  1
  Mo  Mo19  1  0.25000000  0.26453175  0.16898642  1
  O  O20  1  0.96562820  0.25405840  0.44008856  1
  O  O21  1  0.75000000  0.70835238  0.23007638  1
  O  O22  1  0.25000000  0.30388005  0.28533301  1
  O  O23  1  0.75000000  0.08730735  0.01659794  1
  O  O24  1  0.96536506  0.36051531  0.63663673  1
  O  O25  1  0.53463494  0.86051531  0.86336327  1
  O  O26  1  0.03437180  0.74594160  0.55991144  1
  O  O27  1  0.25000000  0.79164762  0.73007638  1
  O  O28  1  0.96536506  0.86051531  0.86336327  1
  O  O29  1  0.75000000  0.53080562  0.88921014  1
  O  O30  1  0.25000000  0.56683355  0.90380804  1
  O  O31  1  0.75000000  0.69611995  0.71466699  1
  O  O32  1  0.25000000  0.96919438  0.38921014  1
  O  O33  1  0.25000000  0.29164762  0.76992362  1
  O  O34  1  0.75000000  0.58730735  0.48340206  1
  O  O35  1  0.25000000  0.91269265  0.98340206  1
  O  O36  1  0.25000000  0.41269265  0.51659794  1
  O  O37  1  0.25000000  0.46919438  0.11078986  1
  O  O38  1  0.03463494  0.13948469  0.13663673  1
  O  O39  1  0.25000000  0.80388005  0.21466699  1
  O  O40  1  0.75000000  0.03080562  0.61078986  1
  O  O41  1  0.46536506  0.13948469  0.13663673  1
  O  O42  1  0.53437180  0.25405840  0.44008856  1
  O  O43  1  0.46536506  0.63948469  0.36336327  1
  O  O44  1  0.75000000  0.19611995  0.78533301  1
  O  O45  1  0.46562820  0.74594160  0.55991144  1
  O  O46  1  0.46562820  0.24594160  0.94008856  1
  O  O47  1  0.53437180  0.75405840  0.05991144  1
  O  O48  1  0.53463494  0.36051531  0.63663673  1
  O  O49  1  0.25000000  0.06683355  0.59619196  1
  O  O50  1  0.75000000  0.20835238  0.26992362  1
  O  O51  1  0.75000000  0.93316645  0.40380804  1
  O  O52  1  0.03437180  0.24594160  0.94008856  1
  O  O53  1  0.75000000  0.43316645  0.09619196  1
  O  O54  1  0.96562820  0.75405840  0.05991144  1
  O  O55  1  0.03463494  0.63948469  0.36336327  1
