# generated using pymatgen
data_Ce2Zn2Cu5
_symmetry_space_group_name_H-M   'P 1'
_cell_length_a   12.98629170
_cell_length_b   12.98629182
_cell_length_c   12.98629250
_cell_angle_alpha   23.18664848
_cell_angle_beta   23.18664726
_cell_angle_gamma   23.18664989
_symmetry_Int_Tables_number   1
_chemical_formula_structural   Ce2Zn2Cu5
_chemical_formula_sum   'Ce4 Zn4 Cu10'
_cell_volume   298.03141407
_cell_formula_units_Z   2
loop_
 _symmetry_equiv_pos_site_id
 _symmetry_equiv_pos_as_xyz
  1  'x, y, z'
loop_
 _atom_site_type_symbol
 _atom_site_label
 _atom_site_symmetry_multiplicity
 _atom_site_fract_x
 _atom_site_fract_y
 _atom_site_fract_z
 _atom_site_occupancy
  Ce  Ce0  1  0.94425025  0.94425025  0.94425025  1
  Ce  Ce1  1  0.15205912  0.15205912  0.15205912  1
  Ce  Ce2  1  0.84794088  0.84794088  0.84794088  1
  Ce  Ce3  1  0.05574975  0.05574975  0.05574975  1
  Zn  Zn4  1  0.50000000  0.00000000  0.50000000  1
  Zn  Zn5  1  0.50000000  0.50000000  0.50000000  1
  Zn  Zn6  1  0.50000000  0.50000000  0.00000000  1
  Zn  Zn7  1  0.00000000  0.50000000  0.50000000  1
  Cu  Cu8  1  0.60863912  0.11087595  0.60863912  1
  Cu  Cu9  1  0.88912405  0.39136088  0.39136088  1
  Cu  Cu10  1  0.60863912  0.60863912  0.11087595  1
  Cu  Cu11  1  0.27701474  0.27701474  0.27701474  1
  Cu  Cu12  1  0.39136088  0.39136088  0.88912405  1
  Cu  Cu13  1  0.39136088  0.88912405  0.39136088  1
  Cu  Cu14  1  0.11087595  0.60863912  0.60863912  1
  Cu  Cu15  1  0.38881374  0.38881374  0.38881374  1
  Cu  Cu16  1  0.72298526  0.72298526  0.72298526  1
  Cu  Cu17  1  0.61118626  0.61118626  0.61118626  1
