# generated using pymatgen
data_SiO2
_symmetry_space_group_name_H-M   'P 1'
_cell_length_a   14.84844469
_cell_length_b   8.71701650
_cell_length_c   19.15093033
_cell_angle_alpha   90.00000000
_cell_angle_beta   90.00000000
_cell_angle_gamma   90.00000000
_symmetry_Int_Tables_number   1
_chemical_formula_structural   SiO2
_chemical_formula_sum   'Si36 O72'
_cell_volume   2478.78414694
_cell_formula_units_Z   36
loop_
 _symmetry_equiv_pos_site_id
 _symmetry_equiv_pos_as_xyz
  1  'x, y, z'
loop_
 _atom_site_type_symbol
 _atom_site_label
 _atom_site_symmetry_multiplicity
 _atom_site_fract_x
 _atom_site_fract_y
 _atom_site_fract_z
 _atom_site_occupancy
  Si  Si0  1  0.63157103  0.79565890  0.64867099  1
  Si  Si1  1  0.13157103  0.70434110  0.35132901  1
  Si  Si2  1  0.36842897  0.79565890  0.85132901  1
  Si  Si3  1  0.86842897  0.70434110  0.14867099  1
  Si  Si4  1  0.36842897  0.20434110  0.35132901  1
  Si  Si5  1  0.86842897  0.29565890  0.64867099  1
  Si  Si6  1  0.63157103  0.20434110  0.14867099  1
  Si  Si7  1  0.13157103  0.29565890  0.85132901  1
  Si  Si8  1  0.49232185  0.58043099  0.60109248  1
  Si  Si9  1  0.99232185  0.91956901  0.39890752  1
  Si  Si10  1  0.50767815  0.58043099  0.89890752  1
  Si  Si11  1  0.00767815  0.91956901  0.10109248  1
  Si  Si12  1  0.50767815  0.41956901  0.39890752  1
  Si  Si13  1  0.00767815  0.08043099  0.60109248  1
  Si  Si14  1  0.49232185  0.41956901  0.10109248  1
  Si  Si15  1  0.99232185  0.08043099  0.89890752  1
  Si  Si16  1  0.21906832  0.40947484  0.41003155  1
  Si  Si17  1  0.71906832  0.09052516  0.58996845  1
  Si  Si18  1  0.78093168  0.40947484  0.08996845  1
  Si  Si19  1  0.28093168  0.09052516  0.91003155  1
  Si  Si20  1  0.78093168  0.59052516  0.58996845  1
  Si  Si21  1  0.28093168  0.90947484  0.41003155  1
  Si  Si22  1  0.21906832  0.59052516  0.91003155  1
  Si  Si23  1  0.71906832  0.90947484  0.08996845  1
  Si  Si24  1  0.37083477  0.62110103  0.47455743  1
  Si  Si25  1  0.87083477  0.87889897  0.52544257  1
  Si  Si26  1  0.62916523  0.62110103  0.02544257  1
  Si  Si27  1  0.12916523  0.87889897  0.97455743  1
  Si  Si28  1  0.62916523  0.37889897  0.52544257  1
  Si  Si29  1  0.12916523  0.12110103  0.47455743  1
  Si  Si30  1  0.37083477  0.37889897  0.97455743  1
  Si  Si31  1  0.87083477  0.12110103  0.02544257  1
  Si  Si32  1  0.00000000  0.82798152  0.25000000  1
  Si  Si33  1  0.50000000  0.67201848  0.75000000  1
  Si  Si34  1  0.00000000  0.17201848  0.75000000  1
  Si  Si35  1  0.50000000  0.32798152  0.25000000  1
  O  O36  1  0.55989996  0.72814909  0.59096477  1
  O  O37  1  0.05989996  0.77185091  0.40903523  1
  O  O38  1  0.44010004  0.72814909  0.90903523  1
  O  O39  1  0.94010004  0.77185091  0.09096477  1
  O  O40  1  0.44010004  0.27185091  0.40903523  1
  O  O41  1  0.94010004  0.22814909  0.59096477  1
  O  O42  1  0.55989996  0.27185091  0.09096477  1
  O  O43  1  0.05989996  0.22814909  0.90903523  1
  O  O44  1  0.40081334  0.60699692  0.55632855  1
  O  O45  1  0.90081334  0.89300308  0.44367145  1
  O  O46  1  0.59918666  0.60699692  0.94367145  1
  O  O47  1  0.09918666  0.89300308  0.05632855  1
  O  O48  1  0.59918666  0.39300308  0.44367145  1
  O  O49  1  0.09918666  0.10699692  0.55632855  1
  O  O50  1  0.40081334  0.39300308  0.05632855  1
  O  O51  1  0.90081334  0.10699692  0.94367145  1
  O  O52  1  0.28648098  0.50642037  0.46038965  1
  O  O53  1  0.78648098  0.99357963  0.53961035  1
  O  O54  1  0.71351902  0.50642037  0.03961035  1
  O  O55  1  0.21351902  0.99357963  0.96038965  1
  O  O56  1  0.71351902  0.49357963  0.53961035  1
  O  O57  1  0.21351902  0.00642037  0.46038965  1
  O  O58  1  0.28648098  0.49357963  0.96038965  1
  O  O59  1  0.78648098  0.00642037  0.03961035  1
  O  O60  1  0.27658882  0.30753982  0.35391875  1
  O  O61  1  0.77658882  0.19246018  0.64608125  1
  O  O62  1  0.72341118  0.30753982  0.14608125  1
  O  O63  1  0.22341118  0.19246018  0.85391875  1
  O  O64  1  0.72341118  0.69246018  0.64608125  1
  O  O65  1  0.22341118  0.80753982  0.35391875  1
  O  O66  1  0.27658882  0.69246018  0.85391875  1
  O  O67  1  0.77658882  0.80753982  0.14608125  1
  O  O68  1  0.58470231  0.77977308  0.72565065  1
  O  O69  1  0.08470231  0.72022692  0.27434935  1
  O  O70  1  0.41529769  0.77977308  0.77434935  1
  O  O71  1  0.91529769  0.72022692  0.22565065  1
  O  O72  1  0.41529769  0.22022692  0.27434935  1
  O  O73  1  0.91529769  0.27977308  0.72565065  1
  O  O74  1  0.58470231  0.22022692  0.22565065  1
  O  O75  1  0.08470231  0.27977308  0.77434935  1
  O  O76  1  0.46879431  0.56444916  0.68429623  1
  O  O77  1  0.96879431  0.93555084  0.31570377  1
  O  O78  1  0.53120569  0.56444916  0.81570377  1
  O  O79  1  0.03120569  0.93555084  0.18429623  1
  O  O80  1  0.53120569  0.43555084  0.31570377  1
  O  O81  1  0.03120569  0.06444916  0.68429623  1
  O  O82  1  0.46879431  0.43555084  0.18429623  1
  O  O83  1  0.96879431  0.06444916  0.81570377  1
  O  O84  1  0.45612772  0.57459244  0.42476414  1
  O  O85  1  0.95612772  0.92540756  0.57523586  1
  O  O86  1  0.54387228  0.57459244  0.07523586  1
  O  O87  1  0.04387228  0.92540756  0.92476414  1
  O  O88  1  0.54387228  0.42540756  0.57523586  1
  O  O89  1  0.04387228  0.07459244  0.42476414  1
  O  O90  1  0.45612772  0.42540756  0.92476414  1
  O  O91  1  0.95612772  0.07459244  0.07523586  1
  O  O92  1  0.65350502  0.97385612  0.63261481  1
  O  O93  1  0.15350502  0.52614388  0.36738519  1
  O  O94  1  0.34649498  0.97385612  0.86738519  1
  O  O95  1  0.84649498  0.52614388  0.13261481  1
  O  O96  1  0.34649498  0.02614388  0.36738519  1
  O  O97  1  0.84649498  0.47385612  0.63261481  1
  O  O98  1  0.65350502  0.02614388  0.13261481  1
  O  O99  1  0.15350502  0.47385612  0.86738519  1
  O  O100  1  0.15784676  0.29697793  0.45817521  1
  O  O101  1  0.65784676  0.20302207  0.54182479  1
  O  O102  1  0.84215324  0.29697793  0.04182479  1
  O  O103  1  0.34215324  0.20302207  0.95817521  1
  O  O104  1  0.84215324  0.70302207  0.54182479  1
  O  O105  1  0.34215324  0.79697793  0.45817521  1
  O  O106  1  0.15784676  0.70302207  0.95817521  1
  O  O107  1  0.65784676  0.79697793  0.04182479  1
