# generated using pymatgen
data_CaIn4Ni
_symmetry_space_group_name_H-M   'P 1'
_cell_length_a   4.32537758
_cell_length_b   7.14105815
_cell_length_c   8.53387824
_cell_angle_alpha   89.39427830
_cell_angle_beta   104.48004668
_cell_angle_gamma   89.96202397
_symmetry_Int_Tables_number   1
_chemical_formula_structural   CaIn4Ni
_chemical_formula_sum   'Ca2 In8 Ni2'
_cell_volume   255.20366802
_cell_formula_units_Z   2
loop_
 _symmetry_equiv_pos_site_id
 _symmetry_equiv_pos_as_xyz
  1  'x, y, z'
loop_
 _atom_site_type_symbol
 _atom_site_label
 _atom_site_symmetry_multiplicity
 _atom_site_fract_x
 _atom_site_fract_y
 _atom_site_fract_z
 _atom_site_occupancy
  Ca  Ca0  1  0.88218323  0.25089689  0.75820452  1
  Ca  Ca1  1  0.12193274  0.75250901  0.24630870  1
  In  In2  1  0.31601570  0.54420495  0.63119105  1
  In  In3  1  0.07018756  0.24832815  0.14380620  1
  In  In4  1  0.68532948  0.04487796  0.37453809  1
  In  In5  1  0.50139401  0.00159855  0.00053154  1
  In  In6  1  0.92597750  0.75180739  0.85657863  1
  In  In7  1  0.67997986  0.45568449  0.37092285  1
  In  In8  1  0.31596418  0.95600411  0.63024227  1
  In  In9  1  0.49470547  0.50068920  0.00107852  1
  Ni  Ni10  1  0.22491595  0.25160537  0.45478891  1
  Ni  Ni11  1  0.77175232  0.74871092  0.54828472  1
