# generated using pymatgen
data_Nb(PO3)4
_symmetry_space_group_name_H-M   'P 1'
_cell_length_a   7.30213472
_cell_length_b   7.30191122
_cell_length_c   9.93483579
_cell_angle_alpha   79.64233728
_cell_angle_beta   71.86965082
_cell_angle_gamma   109.36888512
_symmetry_Int_Tables_number   1
_chemical_formula_structural   Nb(PO3)4
_chemical_formula_sum   'Nb2 P8 O24'
_cell_volume   450.64921782
_cell_formula_units_Z   2
loop_
 _symmetry_equiv_pos_site_id
 _symmetry_equiv_pos_as_xyz
  1  'x, y, z'
loop_
 _atom_site_type_symbol
 _atom_site_label
 _atom_site_symmetry_multiplicity
 _atom_site_fract_x
 _atom_site_fract_y
 _atom_site_fract_z
 _atom_site_occupancy
  Nb  Nb0  1  0.80903157  0.05902475  0.24995333  1
  Nb  Nb1  1  0.19096843  0.94097525  0.75004667  1
  P  P2  1  0.73379743  0.27403726  0.52120650  1
  P  P3  1  0.98616697  0.68663925  0.30144421  1
  P  P4  1  0.48845764  0.28777586  0.19820482  1
  P  P5  1  0.70484504  0.74496668  0.02122207  1
  P  P6  1  0.26620257  0.72596274  0.47879350  1
  P  P7  1  0.01383303  0.31336075  0.69855579  1
  P  P8  1  0.51154236  0.71222414  0.80179518  1
  P  P9  1  0.29515496  0.25503332  0.97877793  1
  O  O10  1  0.50246133  0.84142327  0.40514268  1
  O  O11  1  0.13927028  0.79853967  0.59105207  1
  O  O12  1  0.49753867  0.15857673  0.59485732  1
  O  O13  1  0.78154966  0.50580467  0.44140014  1
  O  O14  1  0.93732148  0.87444815  0.31373027  1
  O  O15  1  0.69380115  0.80981241  0.65754696  1
  O  O16  1  0.96759961  0.35125700  0.84225221  1
  O  O17  1  0.74678414  0.90750552  0.09478515  1
  O  O18  1  0.11032641  0.26989097  0.09112697  1
  O  O19  1  0.31185754  0.74893861  0.81379323  1
  O  O20  1  0.88967359  0.73010903  0.90887303  1
  O  O21  1  0.03240039  0.64874300  0.15774779  1
  O  O22  1  0.55647444  0.53150905  0.14939183  1
  O  O23  1  0.55297654  0.77718733  0.94132057  1
  O  O24  1  0.44702346  0.22281267  0.05867943  1
  O  O25  1  0.06267852  0.12555185  0.68626973  1
  O  O26  1  0.86072972  0.20146033  0.40894793  1
  O  O27  1  0.44352556  0.46849095  0.85060817  1
  O  O28  1  0.68814246  0.25106139  0.18620677  1
  O  O29  1  0.30619885  0.19018759  0.34245304  1
  O  O30  1  0.25321586  0.09249448  0.90521485  1
  O  O31  1  0.21845034  0.49419533  0.55859986  1
  O  O32  1  0.18106399  0.70606397  0.35053689  1
  O  O33  1  0.81893601  0.29393603  0.64946311  1
