# generated using pymatgen
data_NaNb13O33
_symmetry_space_group_name_H-M   'P 1'
_cell_length_a   3.87772715
_cell_length_b   11.61018002
_cell_length_c   15.66350778
_cell_angle_alpha   91.48914520
_cell_angle_beta   90.03150726
_cell_angle_gamma   99.62424500
_symmetry_Int_Tables_number   1
_chemical_formula_structural   NaNb13O33
_chemical_formula_sum   'Na1 Nb13 O33'
_cell_volume   695.01986541
_cell_formula_units_Z   1
loop_
 _symmetry_equiv_pos_site_id
 _symmetry_equiv_pos_as_xyz
  1  'x, y, z'
loop_
 _atom_site_type_symbol
 _atom_site_label
 _atom_site_symmetry_multiplicity
 _atom_site_fract_x
 _atom_site_fract_y
 _atom_site_fract_z
 _atom_site_occupancy
  Na  Na0  1  0.50779361  0.99949040  0.50259981  1
  Nb  Nb1  1  0.86921972  0.72540183  0.53256261  1
  Nb  Nb2  1  0.91591831  0.85944983  0.77121470  1
  Nb  Nb3  1  0.15811258  0.30983574  0.90491231  1
  Nb  Nb4  1  0.05745648  0.14031153  0.22840233  1
  Nb  Nb5  1  0.29542613  0.58442038  0.37468474  1
  Nb  Nb6  1  0.77916658  0.55146542  0.86308628  1
  Nb  Nb7  1  0.91763956  0.82647305  0.32538113  1
  Nb  Nb8  1  0.70814383  0.41412563  0.62603148  1
  Nb  Nb9  1  0.13844943  0.27314282  0.46722951  1
  Nb  Nb10  1  0.22211637  0.44854464  0.13772235  1
  Nb  Nb11  1  0.84093349  0.68903557  0.09614318  1
  Nb  Nb12  1  0.09347664  0.17397668  0.67531255  1
  Nb  Nb13  1  0.01162787  0.99884401  0.00018684  1
  O  O14  1  0.80905864  0.61215483  0.97290776  1
  O  O15  1  0.08267377  0.16244429  0.95026650  1
  O  O16  1  0.74766157  0.49842649  0.13772623  1
  O  O17  1  0.18358012  0.36254136  0.61069345  1
  O  O18  1  0.65427961  0.30345731  0.49438943  1
  O  O19  1  0.96534400  0.93019489  0.87980135  1
  O  O20  1  0.93487961  0.86191372  0.45558875  1
  O  O21  1  0.57465745  0.14027548  0.24472560  1
  O  O22  1  0.99523211  0.97620539  0.29141515  1
  O  O23  1  0.26667203  0.53281056  0.26519673  1
  O  O24  1  0.13195534  0.25725860  0.78676455  1
  O  O25  1  0.90848923  0.79945300  0.63468216  1
  O  O26  1  0.39323998  0.78055067  0.33669728  1
  O  O27  1  0.15394693  0.30554705  0.19484634  1
  O  O28  1  0.91105945  0.83581335  0.04864012  1
  O  O29  1  0.43631414  0.85966323  0.75370838  1
  O  O30  1  0.25169270  0.50177544  0.86271706  1
  O  O31  1  0.82207513  0.63647792  0.38908318  1
  O  O32  1  0.61386556  0.21816581  0.66155877  1
  O  O33  1  0.31884922  0.63918923  0.09999229  1
  O  O34  1  0.07032415  0.13758670  0.54409941  1
  O  O35  1  0.85327504  0.69362167  0.80483692  1
  O  O36  1  0.18998409  0.38780746  0.02768836  1
  O  O37  1  0.35336883  0.69557291  0.50448982  1
  O  O38  1  0.22670645  0.44671539  0.43308963  1
  O  O39  1  0.87027745  0.74419770  0.21266800  1
  O  O40  1  0.77920765  0.55426045  0.56991224  1
  O  O41  1  0.02017627  0.02369349  0.70895379  1
  O  O42  1  0.49873058  0.99854208  0.99973524  1
  O  O43  1  0.72819890  0.46264418  0.73618968  1
  O  O44  1  0.10470648  0.20044177  0.36439348  1
  O  O45  1  0.68043327  0.35928020  0.90177951  1
  O  O46  1  0.03925063  0.07072985  0.11894301  1
