# generated using pymatgen
data_Ho2TiO5
_symmetry_space_group_name_H-M   'P 1'
_cell_length_a   7.41098218
_cell_length_b   7.27074584
_cell_length_c   21.88836267
_cell_angle_alpha   60.11113991
_cell_angle_beta   59.39959013
_cell_angle_gamma   60.62235284
_symmetry_Int_Tables_number   1
_chemical_formula_structural   Ho2TiO5
_chemical_formula_sum   'Ho16 Ti8 O40'
_cell_volume   834.62232985
_cell_formula_units_Z   8
loop_
 _symmetry_equiv_pos_site_id
 _symmetry_equiv_pos_as_xyz
  1  'x, y, z'
loop_
 _atom_site_type_symbol
 _atom_site_label
 _atom_site_symmetry_multiplicity
 _atom_site_fract_x
 _atom_site_fract_y
 _atom_site_fract_z
 _atom_site_occupancy
  Ho  Ho0  1  0.00535633  0.97935319  0.17859610  1
  Ho  Ho1  1  0.53368642  0.98658141  0.99776346  1
  Ho  Ho2  1  0.49683231  0.99619688  0.16663716  1
  Ho  Ho3  1  0.47277497  0.52707810  0.99107153  1
  Ho  Ho4  1  0.52394669  0.97763532  0.34019259  1
  Ho  Ho5  1  0.49691998  0.50698348  0.16660446  1
  Ho  Ho6  1  0.51859534  0.97497551  0.50430088  1
  Ho  Ho7  1  0.54436914  0.48887993  0.32589074  1
  Ho  Ho8  1  0.00167070  0.52310238  0.15066628  1
  Ho  Ho9  1  0.51841647  0.49352588  0.50436174  1
  Ho  Ho10  1  0.54956848  0.99606092  0.82192621  1
  Ho  Ho11  1  0.01972611  0.96768929  0.51496845  1
  Ho  Ho12  1  0.52089035  0.48109631  0.67263266  1
  Ho  Ho13  1  0.54953179  0.48868934  0.82195375  1
  Ho  Ho14  1  0.98532197  0.49210015  0.51017808  1
  Ho  Ho15  1  0.99896748  0.48207673  0.84565844  1
  O  O16  1  0.09181621  0.66980756  0.02284747  1
  O  O17  1  0.12323484  0.15617767  0.20958683  1
  O  O18  1  0.12339163  0.59168447  0.20952809  1
  O  O19  1  0.60239547  0.16281942  0.04239909  1
  O  O20  1  0.91622562  0.82674664  0.31001201  1
  O  O21  1  0.14672583  0.13509445  0.54720633  1
  O  O22  1  0.30512459  0.39490958  0.31714808  1
  O  O23  1  0.36568410  0.88423464  0.12194988  1
  O  O24  1  0.60774955  0.12354780  0.21502685  1
  O  O25  1  0.60264636  0.60773335  0.04233472  1
  O  O26  1  0.14655155  0.57668424  0.54724675  1
  O  O27  1  0.93109703  0.34414327  0.10282924  1
  O  O28  1  0.62557874  0.13279189  0.38058221  1
  O  O29  1  0.30509887  0.84839173  0.31711812  1
  O  O30  1  0.65243725  0.61653199  0.20477687  1
  O  O31  1  0.03222360  0.77558325  0.63887618  1
  O  O32  1  0.32129156  0.33447129  0.65413733  1
  O  O33  1  0.97849817  0.08552959  0.90614101  1
  O  O34  1  0.37274765  0.86850893  0.46342071  1
  O  O35  1  0.94777124  0.28694951  0.32610347  1
  O  O36  1  0.62967361  0.09621910  0.55930563  1
  O  O37  1  0.93106076  0.91619999  0.10282893  1
  O  O38  1  0.62529859  0.59961145  0.38067972  1
  O  O39  1  0.97872155  0.71750100  0.90608409  1
  O  O40  1  0.66280063  0.08167634  0.69339105  1
  O  O41  1  0.36140195  0.37723569  0.79469107  1
  O  O42  1  0.32151345  0.88139905  0.65408309  1
  O  O43  1  0.93463913  0.36930690  0.44358812  1
  O  O44  1  0.63159194  0.60796993  0.55082494  1
  O  O45  1  0.33206452  0.36186490  0.95666149  1
  O  O46  1  0.31579897  0.91827206  0.78262308  1
  O  O47  1  0.89515046  0.32058693  0.65454614  1
  O  O48  1  0.67496062  0.11820172  0.86288114  1
  O  O49  1  0.93463665  0.86539495  0.44358183  1
  O  O50  1  0.66273095  0.67526800  0.69342752  1
  O  O51  1  0.93929833  0.37135504  0.77216553  1
  O  O52  1  0.33204843  0.93616655  0.95667355  1
  O  O53  1  0.63387020  0.62547019  0.87177280  1
  O  O54  1  0.97160427  0.31544216  0.96584163  1
  O  O55  1  0.93933943  0.87290072  0.77213750  1
  Ti  Ti56  1  0.02491047  0.00104475  0.99930954  1
  Ti  Ti57  1  0.02488886  0.47611792  0.99931070  1
  Ti  Ti58  1  0.50082271  0.99093589  0.67273378  1
  Ti  Ti59  1  0.00599881  0.99653700  0.33514632  1
  Ti  Ti60  1  0.00603585  0.49188856  0.33518577  1
  Ti  Ti61  1  0.02465442  -0.00363442  0.66358209  1
  Ti  Ti62  1  0.02417814  0.48836229  0.66364643  1
  Ti  Ti63  1  0.99544188  0.99633924  0.83728973  1
