# generated using pymatgen
data_CaC2
_symmetry_space_group_name_H-M   'P 1'
_cell_length_a   6.82592372
_cell_length_b   7.73043091
_cell_length_c   3.97843524
_cell_angle_alpha   81.40747615
_cell_angle_beta   89.34858092
_cell_angle_gamma   73.00254997
_symmetry_Int_Tables_number   1
_chemical_formula_structural   CaC2
_chemical_formula_sum   'Ca4 C8'
_cell_volume   198.39187946
_cell_formula_units_Z   4
loop_
 _symmetry_equiv_pos_site_id
 _symmetry_equiv_pos_as_xyz
  1  'x, y, z'
loop_
 _atom_site_type_symbol
 _atom_site_label
 _atom_site_symmetry_multiplicity
 _atom_site_fract_x
 _atom_site_fract_y
 _atom_site_fract_z
 _atom_site_occupancy
  Ca  Ca0  1  0.47360242  0.24608994  0.24392632  1
  Ca  Ca1  1  0.52639758  0.75391006  0.75607368  1
  Ca  Ca2  1  0.02578607  0.75437868  0.25476812  1
  Ca  Ca3  1  0.97421393  0.24562132  0.74523188  1
  C  C4  1  0.81114021  0.93760116  0.68061091  1
  C  C5  1  0.18885979  0.06239884  0.31938909  1
  C  C6  1  0.68889640  0.06232633  0.81723611  1
  C  C7  1  0.31110360  0.93767367  0.18276389  1
  C  C8  1  0.25620226  0.56931112  0.80953218  1
  C  C9  1  0.74379774  0.43068888  0.19046782  1
  C  C10  1  0.24400579  0.43058089  0.68861226  1
  C  C11  1  0.75599421  0.56941911  0.31138774  1
