# generated using pymatgen
data_In3Bi7(Pb2S9)2
_symmetry_space_group_name_H-M   'P 1'
_cell_length_a   4.03488894
_cell_length_b   19.03414814
_cell_length_c   21.15074318
_cell_angle_alpha   96.69459677
_cell_angle_beta   90.00000000
_cell_angle_gamma   90.00000000
_symmetry_Int_Tables_number   1
_chemical_formula_structural   In3Bi7(Pb2S9)2
_chemical_formula_sum   'In6 Bi14 Pb8 S36'
_cell_volume   1613.31565513
_cell_formula_units_Z   2
loop_
 _symmetry_equiv_pos_site_id
 _symmetry_equiv_pos_as_xyz
  1  'x, y, z'
loop_
 _atom_site_type_symbol
 _atom_site_label
 _atom_site_symmetry_multiplicity
 _atom_site_fract_x
 _atom_site_fract_y
 _atom_site_fract_z
 _atom_site_occupancy
  In  In0  1  0.25000000  0.62717947  0.72009524  1
  In  In1  1  0.25000000  0.44791938  0.43374527  1
  In  In2  1  0.75000000  0.71824782  0.86299317  1
  In  In3  1  0.75000000  0.55208062  0.56625473  1
  In  In4  1  0.75000000  0.37282053  0.27990476  1
  In  In5  1  0.25000000  0.28175218  0.13700683  1
  Bi  Bi6  1  0.75000000  0.95686249  0.57881723  1
  Bi  Bi7  1  0.25000000  0.93209501  0.23632065  1
  Bi  Bi8  1  0.25000000  0.95695819  0.91408038  1
  Bi  Bi9  1  0.25000000  0.76741817  0.53771951  1
  Bi  Bi10  1  0.25000000  0.04313751  0.42118277  1
  Bi  Bi11  1  0.25000000  0.59833650  0.00353238  1
  Bi  Bi12  1  0.75000000  0.84566701  0.38907342  1
  Bi  Bi13  1  0.75000000  0.06790499  0.76367935  1
  Bi  Bi14  1  0.75000000  0.73488618  0.20542500  1
  Bi  Bi15  1  0.25000000  0.15433299  0.61092658  1
  Bi  Bi16  1  0.75000000  0.23258183  0.46228049  1
  Bi  Bi17  1  0.25000000  0.26511382  0.79457500  1
  Bi  Bi18  1  0.75000000  0.04304181  0.08591962  1
  Bi  Bi19  1  0.75000000  0.40166350  0.99646762  1
  Pb  Pb20  1  0.25000000  0.62544128  0.35791698  1
  Pb  Pb21  1  0.75000000  0.15474760  0.25590340  1
  Pb  Pb22  1  0.75000000  0.19158080  0.96295053  1
  Pb  Pb23  1  0.25000000  0.51511258  0.18115205  1
  Pb  Pb24  1  0.75000000  0.37455872  0.64208302  1
  Pb  Pb25  1  0.25000000  0.80841920  0.03704947  1
  Pb  Pb26  1  0.25000000  0.84525240  0.74409660  1
  Pb  Pb27  1  0.75000000  0.48488742  0.81884795  1
  S  S28  1  0.75000000  0.35636400  0.40644865  1
  S  S29  1  0.75000000  0.99059763  0.33359505  1
  S  S30  1  0.75000000  0.09535373  0.51767314  1
  S  S31  1  0.25000000  0.17157432  0.38071673  1
  S  S32  1  0.75000000  0.72339101  0.74170963  1
  S  S33  1  0.25000000  0.12100186  0.84518718  1
  S  S34  1  0.25000000  0.27660899  0.25829037  1
  S  S35  1  0.75000000  0.87899814  0.15481282  1
  S  S36  1  0.25000000  0.46369852  0.30693085  1
  S  S37  1  0.25000000  0.80980986  0.87422641  1
  S  S38  1  0.25000000  0.29235409  0.01674559  1
  S  S39  1  0.75000000  0.38586438  0.15720401  1
  S  S40  1  0.75000000  0.21070676  0.69628409  1
  S  S41  1  0.25000000  0.05699389  0.19067272  1
  S  S42  1  0.25000000  0.27437291  0.55561965  1
  S  S43  1  0.75000000  0.70764591  0.98325441  1
  S  S44  1  0.25000000  0.78929324  0.30371591  1
  S  S45  1  0.75000000  0.53630148  0.69306915  1
  S  S46  1  0.75000000  0.82842568  0.61928327  1
  S  S47  1  0.25000000  0.46305070  0.93251603  1
  S  S48  1  0.75000000  0.19019014  0.12577359  1
  S  S49  1  0.25000000  0.45597346  0.55719386  1
  S  S50  1  0.75000000  0.53694930  0.06748397  1
  S  S51  1  0.75000000  0.60839625  0.25447686  1
  S  S52  1  0.75000000  0.54402654  0.44280614  1
  S  S53  1  0.75000000  0.30495574  0.87758662  1
  S  S54  1  0.75000000  0.94300611  0.80932728  1
  S  S55  1  0.25000000  0.69504426  0.12241338  1
  S  S56  1  0.25000000  0.39160375  0.74552314  1
  S  S57  1  0.25000000  0.64363600  0.59355135  1
  S  S58  1  0.25000000  0.61413562  0.84279599  1
  S  S59  1  0.75000000  0.92064785  0.99225058  1
  S  S60  1  0.25000000  0.00940237  0.66640495  1
  S  S61  1  0.75000000  0.72562709  0.44438035  1
  S  S62  1  0.25000000  0.90464627  0.48232686  1
  S  S63  1  0.25000000  0.07935215  0.00774942  1
