# generated using pymatgen
data_Ce3Ru
_symmetry_space_group_name_H-M   'P 1'
_cell_length_a   6.09889459
_cell_length_b   6.96746251
_cell_length_c   9.76127943
_cell_angle_alpha   90.00000000
_cell_angle_beta   90.00000000
_cell_angle_gamma   90.00000000
_symmetry_Int_Tables_number   1
_chemical_formula_structural   Ce3Ru
_chemical_formula_sum   'Ce12 Ru4'
_cell_volume   414.79404529
_cell_formula_units_Z   4
loop_
 _symmetry_equiv_pos_site_id
 _symmetry_equiv_pos_as_xyz
  1  'x, y, z'
loop_
 _atom_site_type_symbol
 _atom_site_label
 _atom_site_symmetry_multiplicity
 _atom_site_fract_x
 _atom_site_fract_y
 _atom_site_fract_z
 _atom_site_occupancy
  Ce  Ce0  1  0.65617332  0.16535773  0.05871069  1
  Ce  Ce1  1  0.34739865  0.54171838  0.25000000  1
  Ce  Ce2  1  0.84382668  0.66535773  0.05871069  1
  Ce  Ce3  1  0.15617332  0.33464227  0.94128931  1
  Ce  Ce4  1  0.34382668  0.83464227  0.94128931  1
  Ce  Ce5  1  0.65260135  0.45828162  0.75000000  1
  Ce  Ce6  1  0.84739865  0.95828162  0.75000000  1
  Ce  Ce7  1  0.34382668  0.83464227  0.55871069  1
  Ce  Ce8  1  0.15617332  0.33464227  0.55871069  1
  Ce  Ce9  1  0.84382668  0.66535773  0.44128931  1
  Ce  Ce10  1  0.15260135  0.04171838  0.25000000  1
  Ce  Ce11  1  0.65617332  0.16535773  0.44128931  1
  Ru  Ru12  1  0.93343824  0.36260386  0.25000000  1
  Ru  Ru13  1  0.43343824  0.13739614  0.75000000  1
  Ru  Ru14  1  0.56656176  0.86260386  0.25000000  1
  Ru  Ru15  1  0.06656176  0.63739614  0.75000000  1
