# generated using pymatgen
data_KCoPH2O5
_symmetry_space_group_name_H-M   'P 1'
_cell_length_a   5.63794299
_cell_length_b   8.35422802
_cell_length_c   4.85553367
_cell_angle_alpha   90.00000000
_cell_angle_beta   90.00000000
_cell_angle_gamma   90.00000000
_symmetry_Int_Tables_number   1
_chemical_formula_structural   KCoPH2O5
_chemical_formula_sum   'K2 Co2 P2 H4 O10'
_cell_volume   228.69884683
_cell_formula_units_Z   2
loop_
 _symmetry_equiv_pos_site_id
 _symmetry_equiv_pos_as_xyz
  1  'x, y, z'
loop_
 _atom_site_type_symbol
 _atom_site_label
 _atom_site_symmetry_multiplicity
 _atom_site_fract_x
 _atom_site_fract_y
 _atom_site_fract_z
 _atom_site_occupancy
  K  K0  1  0.50000000  0.46605938  0.19615257  1
  K  K1  1  0.00000000  0.53394062  0.69615257  1
  Co  Co2  1  0.50000000  0.02168179  0.08820769  1
  Co  Co3  1  0.00000000  0.97831821  0.58820769  1
  P  P4  1  0.50000000  0.79177631  0.65674695  1
  P  P5  1  0.00000000  0.20822369  0.15674695  1
  H  H6  1  0.63963081  0.19647080  0.66564140  1
  H  H7  1  0.36036919  0.19647080  0.66564140  1
  H  H8  1  0.86036919  0.80352920  0.16564140  1
  H  H9  1  0.13963081  0.80352920  0.16564140  1
  O  O10  1  0.50000000  0.82208684  0.34460809  1
  O  O11  1  0.00000000  0.17791316  0.84460809  1
  O  O12  1  0.50000000  0.61229122  0.71401528  1
  O  O13  1  0.00000000  0.38770878  0.21401528  1
  O  O14  1  0.71923349  0.87684387  0.80161415  1
  O  O15  1  0.28076651  0.87684387  0.80161415  1
  O  O16  1  0.78076651  0.12315613  0.30161415  1
  O  O17  1  0.21923349  0.12315613  0.30161415  1
  O  O18  1  0.50000000  0.21500783  0.78381830  1
  O  O19  1  0.00000000  0.78499217  0.28381830  1
