# generated using pymatgen
data_Li5Ca7Sn11
_symmetry_space_group_name_H-M   'P 1'
_cell_length_a   4.62840821
_cell_length_b   8.87102837
_cell_length_c   32.03243666
_cell_angle_alpha   90.00000000
_cell_angle_beta   90.00000000
_cell_angle_gamma   105.12181776
_symmetry_Int_Tables_number   1
_chemical_formula_structural   Li5Ca7Sn11
_chemical_formula_sum   'Li10 Ca14 Sn22'
_cell_volume   1269.67015414
_cell_formula_units_Z   2
loop_
 _symmetry_equiv_pos_site_id
 _symmetry_equiv_pos_as_xyz
  1  'x, y, z'
loop_
 _atom_site_type_symbol
 _atom_site_label
 _atom_site_symmetry_multiplicity
 _atom_site_fract_x
 _atom_site_fract_y
 _atom_site_fract_z
 _atom_site_occupancy
  Li  Li0  1  0.70833829  0.41667657  0.52791785  1
  Li  Li1  1  0.29166171  0.58332343  0.02791785  1
  Li  Li2  1  0.65784197  0.31568393  0.25000000  1
  Li  Li3  1  0.34215803  0.68431607  0.75000000  1
  Li  Li4  1  0.29166171  0.58332343  0.47208215  1
  Li  Li5  1  0.78840022  0.57680043  0.61643970  1
  Li  Li6  1  0.70833829  0.41667657  0.97208215  1
  Li  Li7  1  0.21159978  0.42319957  0.38356030  1
  Li  Li8  1  0.21159978  0.42319957  0.11643970  1
  Li  Li9  1  0.78840022  0.57680043  0.88356030  1
  Ca  Ca10  1  0.10643638  0.21287275  0.89881838  1
  Ca  Ca11  1  0.89356362  0.78712725  0.10118162  1
  Ca  Ca12  1  0.04560023  0.09120045  0.31650357  1
  Ca  Ca13  1  0.95439977  0.90879955  0.68349643  1
  Ca  Ca14  1  0.90336943  0.80673886  0.53018084  1
  Ca  Ca15  1  0.09663057  0.19326114  0.46981916  1
  Ca  Ca16  1  0.89356362  0.78712725  0.39881838  1
  Ca  Ca17  1  0.85122698  0.70245397  0.25000000  1
  Ca  Ca18  1  0.90336943  0.80673886  0.96981916  1
  Ca  Ca19  1  0.09663057  0.19326114  0.03018084  1
  Ca  Ca20  1  0.95439977  0.90879955  0.81650357  1
  Ca  Ca21  1  0.14877302  0.29754603  0.75000000  1
  Ca  Ca22  1  0.04560023  0.09120045  0.18349643  1
  Ca  Ca23  1  0.10643638  0.21287275  0.60118162  1
  Sn  Sn24  1  0.23066176  0.46132352  0.29442978  1
  Sn  Sn25  1  0.39148551  0.78297101  0.32519740  1
  Sn  Sn26  1  0.39148551  0.78297101  0.17480260  1
  Sn  Sn27  1  0.57132953  0.14265905  0.10789651  1
  Sn  Sn28  1  0.27942066  0.55884133  0.56163346  1
  Sn  Sn29  1  0.45472657  0.90945313  0.46153890  1
  Sn  Sn30  1  0.60851449  0.21702899  0.67480260  1
  Sn  Sn31  1  0.54527343  0.09054687  0.96153890  1
  Sn  Sn32  1  0.76933824  0.53867648  0.79442978  1
  Sn  Sn33  1  0.42867047  0.85734095  0.60789651  1
  Sn  Sn34  1  0.27942066  0.55884133  0.93836654  1
  Sn  Sn35  1  0.57132953  0.14265905  0.39210349  1
  Sn  Sn36  1  0.50951227  0.01902454  0.75000000  1
  Sn  Sn37  1  0.42867047  0.85734095  0.89210349  1
  Sn  Sn38  1  0.76933824  0.53867648  0.70557022  1
  Sn  Sn39  1  0.45472657  0.90945313  0.03846110  1
  Sn  Sn40  1  0.23066176  0.46132352  0.20557022  1
  Sn  Sn41  1  0.54527343  0.09054687  0.53846110  1
  Sn  Sn42  1  0.72057934  0.44115867  0.43836654  1
  Sn  Sn43  1  0.60851449  0.21702899  0.82519740  1
  Sn  Sn44  1  0.72057934  0.44115867  0.06163346  1
  Sn  Sn45  1  0.49048773  0.98097546  0.25000000  1
