# generated using pymatgen
data_Nd2PbS4
_symmetry_space_group_name_H-M   'P 1'
_cell_length_a   7.51691726
_cell_length_b   7.51691783
_cell_length_c   7.51691735
_cell_angle_alpha   109.41234359
_cell_angle_beta   109.58904490
_cell_angle_gamma   109.41233763
_symmetry_Int_Tables_number   1
_chemical_formula_structural   Nd2PbS4
_chemical_formula_sum   'Nd4 Pb2 S8'
_cell_volume   326.96109529
_cell_formula_units_Z   2
loop_
 _symmetry_equiv_pos_site_id
 _symmetry_equiv_pos_as_xyz
  1  'x, y, z'
loop_
 _atom_site_type_symbol
 _atom_site_label
 _atom_site_symmetry_multiplicity
 _atom_site_fract_x
 _atom_site_fract_y
 _atom_site_fract_z
 _atom_site_occupancy
  Nd  Nd0  1  0.25000000  0.63128822  0.38128822  1
  Nd  Nd1  1  0.61871178  0.36871178  0.25000000  1
  Nd  Nd2  1  0.75000000  0.86871178  0.11871178  1
  Nd  Nd3  1  0.88128822  0.13128822  0.75000000  1
  Pb  Pb4  1  0.12500000  0.75000000  0.87500000  1
  Pb  Pb5  1  0.37500000  0.25000000  0.62500000  1
  S  S6  1  0.98780948  0.84557610  0.49012916  1
  S  S7  1  0.99012916  0.34557610  0.48780948  1
  S  S8  1  0.50987084  0.99768032  0.35544694  1
  S  S9  1  0.14223338  0.15442390  0.14455306  1
  S  S10  1  0.35776662  0.50231968  0.01219052  1
  S  S11  1  0.64455306  0.65442390  0.64223338  1
  S  S12  1  0.51219052  0.00231968  0.85776662  1
  S  S13  1  0.85544694  0.49768032  0.00987084  1
