# generated using pymatgen
data_LiBi(PO3)4
_symmetry_space_group_name_H-M   'P 1'
_cell_length_a   9.87101519
_cell_length_b   13.21821958
_cell_length_c   7.24021802
_cell_angle_alpha   90.00000000
_cell_angle_beta   90.90491398
_cell_angle_gamma   90.00000000
_symmetry_Int_Tables_number   1
_chemical_formula_structural   LiBi(PO3)4
_chemical_formula_sum   'Li4 Bi4 P16 O48'
_cell_volume   944.56589088
_cell_formula_units_Z   4
loop_
 _symmetry_equiv_pos_site_id
 _symmetry_equiv_pos_as_xyz
  1  'x, y, z'
loop_
 _atom_site_type_symbol
 _atom_site_label
 _atom_site_symmetry_multiplicity
 _atom_site_fract_x
 _atom_site_fract_y
 _atom_site_fract_z
 _atom_site_occupancy
  Li  Li0  1  0.05938520  0.78190433  0.49126597  1
  Li  Li1  1  0.94061480  0.21809567  0.50873403  1
  Li  Li2  1  0.55938520  0.71809567  0.99126597  1
  Li  Li3  1  0.44061480  0.28190433  0.00873403  1
  Bi  Bi4  1  0.02153190  0.21817380  0.98821938  1
  Bi  Bi5  1  0.52153190  0.28182620  0.48821938  1
  Bi  Bi6  1  0.47846810  0.71817380  0.51178062  1
  Bi  Bi7  1  0.97846810  0.78182620  0.01178062  1
  P  P8  1  0.30249985  0.09050330  0.22528705  1
  P  P9  1  0.76725035  0.88492833  0.38230351  1
  P  P10  1  0.23274965  0.11507167  0.61769649  1
  P  P11  1  0.19251975  0.37188206  0.35617628  1
  P  P12  1  0.69251975  0.12811794  0.85617628  1
  P  P13  1  0.80748025  0.62811794  0.64382372  1
  P  P14  1  0.23874782  0.89874450  0.74573029  1
  P  P15  1  0.73874782  0.60125550  0.24573029  1
  P  P16  1  0.30748025  0.87188206  0.14382372  1
  P  P17  1  0.26125218  0.39874450  0.75426971  1
  P  P18  1  0.19750015  0.59050330  0.27471195  1
  P  P19  1  0.69750015  0.90949670  0.77471195  1
  P  P20  1  0.76125218  0.10125550  0.25426971  1
  P  P21  1  0.80249985  0.40949570  0.72528805  1
  P  P22  1  0.26725035  0.61507167  0.88230351  1
  P  P23  1  0.73274965  0.38492833  0.11769649  1
  O  O24  1  0.36905324  0.97839225  0.21503166  1
  O  O25  1  0.91082901  0.10768145  0.21860811  1
  O  O26  1  0.33123087  0.87608427  0.92451037  1
  O  O27  1  0.28869267  0.58101515  0.09371299  1
  O  O28  1  0.09423493  0.14649466  0.68230302  1
  O  O29  1  0.78720641  0.66615458  0.08735916  1
  O  O30  1  0.16876913  0.37608427  0.57548963  1
  O  O31  1  0.90173479  0.71123051  0.70807345  1
  O  O32  1  0.66876913  0.12391573  0.07548963  1
  O  O33  1  0.71345152  0.98656442  0.28706688  1
  O  O34  1  0.65893152  0.63342653  0.68439791  1
  O  O35  1  0.08201081  0.66402253  0.25124664  1
  O  O36  1  0.78869267  0.91898485  0.59371299  1
  O  O37  1  0.59423493  0.35350534  0.18230302  1
  O  O38  1  0.15385659  0.68960945  0.86288991  1
  O  O39  1  0.71279359  0.16615458  0.41264084  1
  O  O40  1  0.40173479  0.78876949  0.20807345  1
  O  O41  1  0.65385659  0.81039055  0.36288991  1
  O  O42  1  0.63094676  0.02160775  0.78496834  1
  O  O43  1  0.28654848  0.01343558  0.71293312  1
  O  O44  1  0.34614341  0.18960945  0.63711009  1
  O  O45  1  0.41082901  0.39231855  0.71860811  1
  O  O46  1  0.83123087  0.62391573  0.42451037  1
  O  O47  1  0.21130733  0.08101515  0.40628701  1
  O  O48  1  0.78654848  0.48656442  0.21293312  1
  O  O49  1  0.59826521  0.21123051  0.79192655  1
  O  O50  1  0.58201081  0.83597747  0.75124664  1
  O  O51  1  0.21279359  0.33384542  0.91264084  1
  O  O52  1  0.28720641  0.83384542  0.58735916  1
  O  O53  1  0.70776657  0.39239409  0.56378844  1
  O  O54  1  0.79223343  0.89239409  0.93621156  1
  O  O55  1  0.41798919  0.16402253  0.24875336  1
  O  O56  1  0.09826521  0.28876949  0.29192655  1
  O  O57  1  0.84106848  0.13342653  0.81560209  1
  O  O58  1  0.13094676  0.47839225  0.28496834  1
  O  O59  1  0.58917099  0.60768145  0.28139189  1
  O  O60  1  0.86905324  0.52160775  0.71503166  1
  O  O61  1  0.20776657  0.10760591  0.06378844  1
  O  O62  1  0.34106848  0.36657347  0.31560209  1
  O  O63  1  0.15893152  0.86657347  0.18439791  1
  O  O64  1  0.84614341  0.31039055  0.13711009  1
  O  O65  1  0.91798919  0.33597747  0.74875336  1
  O  O66  1  0.40576507  0.64649466  0.81769698  1
  O  O67  1  0.71130733  0.41898485  0.90628701  1
  O  O68  1  0.21345152  0.51343558  0.78706688  1
  O  O69  1  0.08917099  0.89231855  0.78139189  1
  O  O70  1  0.29223343  0.60760591  0.43621156  1
  O  O71  1  0.90576507  0.85350534  0.31769698  1
