# generated using pymatgen
data_LiBi(PO3)4
_symmetry_space_group_name_H-M   'P 1'
_cell_length_a   13.57018205
_cell_length_b   8.29249119
_cell_length_c   9.99245393
_cell_angle_alpha   90.00000000
_cell_angle_beta   90.00000000
_cell_angle_gamma   90.00000000
_symmetry_Int_Tables_number   1
_chemical_formula_structural   LiBi(PO3)4
_chemical_formula_sum   'Li4 Bi4 P16 O48'
_cell_volume   1124.45698706
_cell_formula_units_Z   4
loop_
 _symmetry_equiv_pos_site_id
 _symmetry_equiv_pos_as_xyz
  1  'x, y, z'
loop_
 _atom_site_type_symbol
 _atom_site_label
 _atom_site_symmetry_multiplicity
 _atom_site_fract_x
 _atom_site_fract_y
 _atom_site_fract_z
 _atom_site_occupancy
  Li  Li0  1  0.00000000  0.02679062  0.25000000  1
  Li  Li1  1  0.00000000  0.97320938  0.75000000  1
  Li  Li2  1  0.50000000  0.47320938  0.75000000  1
  Li  Li3  1  0.50000000  0.52679062  0.25000000  1
  Bi  Bi4  1  0.50000000  0.87734280  0.75000000  1
  Bi  Bi5  1  0.00000000  0.62265720  0.25000000  1
  Bi  Bi6  1  0.00000000  0.37734280  0.75000000  1
  Bi  Bi7  1  0.50000000  0.12265720  0.25000000  1
  P  P8  1  0.36434974  0.33224648  0.00249443  1
  P  P9  1  0.63565026  0.33224648  0.49750557  1
  P  P10  1  0.13565026  0.83224648  0.00249443  1
  P  P11  1  0.83891129  0.53666031  0.99298011  1
  P  P12  1  0.36434974  0.66775352  0.50249443  1
  P  P13  1  0.66108871  0.03666031  0.99298011  1
  P  P14  1  0.63565026  0.66775352  0.99750557  1
  P  P15  1  0.13565026  0.16775352  0.50249443  1
  P  P16  1  0.33891129  0.03666031  0.50701989  1
  P  P17  1  0.66108871  0.96333969  0.49298011  1
  P  P18  1  0.16108871  0.46333969  0.00701989  1
  P  P19  1  0.16108871  0.53666031  0.50701989  1
  P  P20  1  0.83891129  0.46333969  0.49298011  1
  P  P21  1  0.86434974  0.16775352  0.99750557  1
  P  P22  1  0.33891129  0.96333969  0.00701989  1
  P  P23  1  0.86434974  0.83224648  0.49750557  1
  O  O24  1  0.64499110  0.12415801  0.12330787  1
  O  O25  1  0.93526260  0.83392088  0.37916679  1
  O  O26  1  0.76644478  0.08534660  0.93411940  1
  O  O27  1  0.23355522  0.08534660  0.56588060  1
  O  O28  1  0.06473740  0.83392088  0.12083321  1
  O  O29  1  0.82469859  0.34861022  0.02363857  1
  O  O30  1  0.26644478  0.41465340  0.06588060  1
  O  O31  1  0.43526260  0.33392088  0.12083321  1
  O  O32  1  0.43526260  0.66607912  0.62083321  1
  O  O33  1  0.91560193  0.56252866  0.88548637  1
  O  O34  1  0.32469859  0.84861022  0.47636143  1
  O  O35  1  0.60388250  0.59570776  0.12642503  1
  O  O36  1  0.39611750  0.59570776  0.37357497  1
  O  O37  1  0.08439807  0.56252866  0.61451363  1
  O  O38  1  0.26644478  0.58534660  0.56588060  1
  O  O39  1  0.14499110  0.62415801  0.37669213  1
  O  O40  1  0.35500890  0.87584199  0.87669213  1
  O  O41  1  0.06473740  0.16607912  0.62083321  1
  O  O42  1  0.32469859  0.15138978  0.97636143  1
  O  O43  1  0.73355522  0.58534660  0.93411940  1
  O  O44  1  0.91560193  0.43747134  0.38548637  1
  O  O45  1  0.85500890  0.37584199  0.62330787  1
  O  O46  1  0.17530141  0.34861022  0.47636143  1
  O  O47  1  0.93526260  0.16607912  0.87916679  1
  O  O48  1  0.85500890  0.62415801  0.12330787  1
  O  O49  1  0.41560193  0.06252866  0.61451363  1
  O  O50  1  0.14499110  0.37584199  0.87669213  1
  O  O51  1  0.35500890  0.12415801  0.37669213  1
  O  O52  1  0.17530141  0.65138978  0.97636143  1
  O  O53  1  0.89611750  0.09570776  0.12642503  1
  O  O54  1  0.58439807  0.06252866  0.88548637  1
  O  O55  1  0.60388250  0.40429224  0.62642503  1
  O  O56  1  0.58439807  0.93747134  0.38548637  1
  O  O57  1  0.64499110  0.87584199  0.62330787  1
  O  O58  1  0.10388250  0.09570776  0.37357497  1
  O  O59  1  0.23355522  0.91465340  0.06588060  1
  O  O60  1  0.67530141  0.15138978  0.52363857  1
  O  O61  1  0.76644478  0.91465340  0.43411940  1
  O  O62  1  0.89611750  0.90429224  0.62642503  1
  O  O63  1  0.56473740  0.33392088  0.37916679  1
  O  O64  1  0.10388250  0.90429224  0.87357497  1
  O  O65  1  0.67530141  0.84861022  0.02363857  1
  O  O66  1  0.39611750  0.40429224  0.87357497  1
  O  O67  1  0.73355522  0.41465340  0.43411940  1
  O  O68  1  0.41560193  0.93747134  0.11451363  1
  O  O69  1  0.56473740  0.66607912  0.87916679  1
  O  O70  1  0.82469859  0.65138978  0.52363857  1
  O  O71  1  0.08439807  0.43747134  0.11451363  1
