# generated using pymatgen
data_Co2RhS4
_symmetry_space_group_name_H-M   'P 1'
_cell_length_a   6.73750113
_cell_length_b   6.70609501
_cell_length_c   6.73750205
_cell_angle_alpha   60.15407988
_cell_angle_beta   60.26257381
_cell_angle_gamma   60.15408247
_symmetry_Int_Tables_number   1
_chemical_formula_structural   Co2RhS4
_chemical_formula_sum   'Co4 Rh2 S8'
_cell_volume   216.18144398
_cell_formula_units_Z   2
loop_
 _symmetry_equiv_pos_site_id
 _symmetry_equiv_pos_as_xyz
  1  'x, y, z'
loop_
 _atom_site_type_symbol
 _atom_site_label
 _atom_site_symmetry_multiplicity
 _atom_site_fract_x
 _atom_site_fract_y
 _atom_site_fract_z
 _atom_site_occupancy
  Co  Co0  1  0.00124105  0.99875895  0.00124105  1
  Co  Co1  1  0.24875895  0.25124105  0.24875895  1
  Co  Co2  1  0.62500000  0.12500000  0.62500000  1
  Co  Co3  1  0.62500000  0.62500000  0.62500000  1
  Rh  Rh4  1  0.12500000  0.62500000  0.62500000  1
  Rh  Rh5  1  0.62500000  0.62500000  0.12500000  1
  S  S6  1  0.38498162  0.36736440  0.38498162  1
  S  S7  1  0.39203537  0.37433826  0.85928811  1
  S  S8  1  0.38498162  0.86267237  0.38498162  1
  S  S9  1  0.85928811  0.37433826  0.39203537  1
  S  S10  1  0.39071189  0.87566174  0.85796463  1
  S  S11  1  0.86501838  0.38732763  0.86501838  1
  S  S12  1  0.85796463  0.87566174  0.39071189  1
  S  S13  1  0.86501838  0.88263560  0.86501838  1
