# generated using pymatgen
data_MnP2O7
_symmetry_space_group_name_H-M   'P 1'
_cell_length_a   9.02583781
_cell_length_b   8.45255638
_cell_length_c   6.80766229
_cell_angle_alpha   90.00000000
_cell_angle_beta   102.39488570
_cell_angle_gamma   90.00000000
_symmetry_Int_Tables_number   1
_chemical_formula_structural   MnP2O7
_chemical_formula_sum   'Mn4 P8 O28'
_cell_volume   507.26043223
_cell_formula_units_Z   4
loop_
 _symmetry_equiv_pos_site_id
 _symmetry_equiv_pos_as_xyz
  1  'x, y, z'
loop_
 _atom_site_type_symbol
 _atom_site_label
 _atom_site_symmetry_multiplicity
 _atom_site_fract_x
 _atom_site_fract_y
 _atom_site_fract_z
 _atom_site_occupancy
  Mn  Mn0  1  0.24993134  0.93555014  0.74974559  1
  Mn  Mn1  1  0.75006866  0.06444986  0.25025441  1
  Mn  Mn2  1  0.75006866  0.43555014  0.25025441  1
  Mn  Mn3  1  0.24993134  0.56444986  0.74974559  1
  P  P4  1  0.55637548  0.25000000  0.49981531  1
  P  P5  1  0.94413856  0.25000000  0.00170690  1
  P  P6  1  0.47801009  0.25000000  0.91223407  1
  P  P7  1  0.05586144  0.75000000  0.99829310  1
  P  P8  1  0.52198991  0.75000000  0.08776593  1
  P  P9  1  0.44362452  0.75000000  0.50018469  1
  P  P10  1  0.02252421  0.25000000  0.58791643  1
  P  P11  1  0.97747579  0.75000000  0.41208357  1
  O  O12  1  0.10951466  0.75000000  0.60560865  1
  O  O13  1  0.38791621  0.09902327  0.90362982  1
  O  O14  1  0.39154520  0.25000000  0.39056777  1
  O  O15  1  0.42471758  0.75000000  0.26096078  1
  O  O16  1  0.11254193  0.09888297  0.59521640  1
  O  O17  1  0.07277557  0.75000000  0.23695769  1
  O  O18  1  0.36029501  0.90492761  0.53790324  1
  O  O19  1  0.13937936  0.90490546  0.96120699  1
  O  O20  1  0.88745807  0.90111703  0.40478360  1
  O  O21  1  0.13937936  0.59509454  0.96120699  1
  O  O22  1  0.36029501  0.59507239  0.53790324  1
  O  O23  1  0.92722443  0.25000000  0.76304231  1
  O  O24  1  0.39084239  0.75000000  0.89314141  1
  O  O25  1  0.57528242  0.25000000  0.73903922  1
  O  O26  1  0.60845480  0.75000000  0.60943223  1
  O  O27  1  0.11254193  0.40111703  0.59521640  1
  O  O28  1  0.86062064  0.40490546  0.03879301  1
  O  O29  1  0.89168709  0.75000000  0.88635603  1
  O  O30  1  0.60915761  0.25000000  0.10685859  1
  O  O31  1  0.61208379  0.90097673  0.09637018  1
  O  O32  1  0.63970499  0.09507239  0.46209676  1
  O  O33  1  0.38791621  0.40097673  0.90362982  1
  O  O34  1  0.88745807  0.59888297  0.40478360  1
  O  O35  1  0.61208379  0.59902327  0.09637018  1
  O  O36  1  0.86062064  0.09509454  0.03879301  1
  O  O37  1  0.89048534  0.25000000  0.39439135  1
  O  O38  1  0.10831291  0.25000000  0.11364397  1
  O  O39  1  0.63970499  0.40492761  0.46209676  1
