# generated using pymatgen
data_K6Yb3(PS4)5
_symmetry_space_group_name_H-M   'P 1'
_cell_length_a   12.97824922
_cell_length_b   15.34970929
_cell_length_c   23.79647392
_cell_angle_alpha   79.83557646
_cell_angle_beta   74.16023506
_cell_angle_gamma   64.99614667
_symmetry_Int_Tables_number   1
_chemical_formula_structural   K6Yb3(PS4)5
_chemical_formula_sum   'K24 Yb12 P20 S80'
_cell_volume   4122.96664207
_cell_formula_units_Z   4
loop_
 _symmetry_equiv_pos_site_id
 _symmetry_equiv_pos_as_xyz
  1  'x, y, z'
loop_
 _atom_site_type_symbol
 _atom_site_label
 _atom_site_symmetry_multiplicity
 _atom_site_fract_x
 _atom_site_fract_y
 _atom_site_fract_z
 _atom_site_occupancy
  Yb  Yb0  1  0.50385520  0.35015512  0.62235318  1
  Yb  Yb1  1  0.86519023  0.31359389  0.93799229  1
  Yb  Yb2  1  0.52372718  0.85009042  0.12234108  1
  Yb  Yb3  1  0.20075473  0.77717637  0.75697042  1
  Yb  Yb4  1  0.49614480  0.64984488  0.37764682  1
  Yb  Yb5  1  0.26510387  0.27729015  0.25697509  1
  Yb  Yb6  1  0.13480977  0.68640611  0.06200771  1
  Yb  Yb7  1  0.73489613  0.72270985  0.74302491  1
  Yb  Yb8  1  0.47627282  0.14990958  0.87765892  1
  Yb  Yb9  1  0.88328752  0.81361101  0.43800579  1
  Yb  Yb10  1  0.11671248  0.18638899  0.56199421  1
  Yb  Yb11  1  0.79924527  0.22282363  0.24302958  1
  K  K12  1  0.21032517  0.45918506  0.47804673  1
  K  K13  1  0.85582493  0.09279629  0.76977410  1
  K  K14  1  0.77622005  0.00702250  0.63846557  1
  K  K15  1  0.13560480  0.41412514  0.73134909  1
  K  K16  1  0.50680098  0.13944781  0.42613136  1
  K  K17  1  0.14759158  0.04080955  0.02198126  1
  K  K18  1  0.50169196  0.74170092  0.92227001  1
  K  K19  1  0.49830804  0.25829908  0.07772999  1
  K  K20  1  0.71918813  0.91400862  0.23163557  1
  K  K21  1  0.22377995  0.99297750  0.36153443  1
  K  K22  1  0.28171268  0.59274373  0.26990397  1
  K  K23  1  0.83423738  0.24177330  0.42234071  1
  K  K24  1  0.28081187  0.08599138  0.76836443  1
  K  K25  1  0.07225525  0.36051554  0.07385634  1
  K  K26  1  0.42151361  0.49302722  0.86141452  1
  K  K27  1  0.86439520  0.58587486  0.26865091  1
  K  K28  1  0.14417507  0.90720371  0.23022590  1
  K  K29  1  0.71828732  0.40725627  0.73009603  1
  K  K30  1  0.16576262  0.75822670  0.57765929  1
  K  K31  1  0.49319902  0.86055219  0.57386864  1
  K  K32  1  0.57848639  0.50697278  0.13858548  1
  K  K33  1  0.92774475  0.63948446  0.92614366  1
  K  K34  1  0.78967483  0.54081494  0.52195327  1
  K  K35  1  0.85240842  0.95919045  0.97801874  1
  P  P36  1  0.66619135  0.43585740  0.31007870  1
  P  P37  1  0.17821373  0.26095517  0.90637998  1
  P  P38  1  0.80614317  0.27082173  0.59110909  1
  P  P39  1  0.33192498  0.77077823  0.09104568  1
  P  P40  1  0.20566546  0.48202528  0.16343652  1
  P  P41  1  0.65434492  0.76087765  0.40639699  1
  P  P42  1  0.16781973  0.75630123  0.90615726  1
  P  P43  1  0.83013059  0.74367722  0.59392079  1
  P  P44  1  0.66807502  0.22922177  0.90895432  1
  P  P45  1  0.85110487  0.01802809  0.33656442  1
  P  P46  1  0.33380865  0.56414260  0.68992130  1
  P  P47  1  0.16986941  0.25632278  0.40607921  1
  P  P48  1  0.14889513  0.98197191  0.66343558  1
  P  P49  1  0.79433454  0.51797472  0.83656348  1
  P  P50  1  0.58782512  0.93597344  0.81009861  1
  P  P51  1  0.41217488  0.06402656  0.18990139  1
  P  P52  1  0.82178627  0.73904483  0.09362002  1
  P  P53  1  0.19385683  0.72917827  0.40889091  1
  P  P54  1  0.83218027  0.24369877  0.09384274  1
  P  P55  1  0.34565508  0.23912235  0.59360301  1
  S  S56  1  0.04942777  0.34111539  0.46991993  1
  S  S57  1  0.44606742  0.29630939  0.52994970  1
  S  S58  1  0.19180341  0.59831711  0.75804800  1
  S  S59  1  0.09326932  0.23989067  0.34625186  1
  S  S60  1  0.90620769  0.58479348  0.79883876  1
  S  S61  1  0.86042032  0.15889191  0.03008752  1
  S  S62  1  0.67937955  0.26008958  0.15377762  1
  S  S63  1  0.30064440  0.52113245  0.62280649  1
  S  S64  1  0.60618104  0.77744162  0.32887566  1
  S  S65  1  0.71252643  0.72259442  0.17110468  1
  S  S66  1  0.90673068  0.76010933  0.65374814  1
  S  S67  1  0.08008901  0.84881957  0.45129043  1
  S  S68  1  0.24972512  0.47488308  0.07497440  1
  S  S69  1  0.29375433  0.76820177  0.33405566  1
  S  S70  1  0.96342784  0.08750298  0.30548933  1
  S  S71  1  0.32062045  0.73991042  0.84622238  1
  S  S72  1  0.92646884  0.87791751  0.31579600  1
  S  S73  1  0.36529952  0.11068355  0.57008061  1
  S  S74  1  0.61968115  0.34884152  0.95128531  1
  S  S75  1  0.09379231  0.41520652  0.20116124  1
  S  S76  1  0.37548502  0.68086067  0.66174256  1
  S  S77  1  0.81959100  0.37645912  0.05371923  1
  S  S78  1  0.30343096  0.63308542  0.46018469  1
  S  S79  1  0.63470048  0.88931645  0.42991939  1
  S  S80  1  0.70624567  0.23179823  0.66594434  1
  S  S81  1  0.12021728  0.62204506  0.18433427  1
  S  S82  1  0.79938731  0.02521747  0.42506163  1
  S  S83  1  0.70991835  0.08484011  0.29887154  1
  S  S84  1  0.69656904  0.36691458  0.53981531  1
  S  S85  1  0.46529819  0.44923429  0.71985683  1
  S  S86  1  0.71822623  0.81907247  0.83824210  1
  S  S87  1  0.44465912  0.97879786  0.87717702  1
  S  S88  1  0.29061135  0.31317047  0.36452924  1
  S  S89  1  0.27244665  0.20356965  0.97008320  1
  S  S90  1  0.89686960  0.33778961  0.61178730  1
  S  S91  1  0.03167675  0.81326798  0.86443785  1
  S  S92  1  0.55534088  0.02120214  0.12282298  1
  S  S93  1  0.28177377  0.18092753  0.16175790  1
  S  S94  1  0.80819659  0.40168289  0.24195200  1
  S  S95  1  0.04607982  0.38923065  0.92993708  1
  S  S96  1  0.63439641  0.05064362  0.78007748  1
  S  S97  1  0.69935560  0.47886755  0.37719351  1
  S  S98  1  0.03657216  0.91249702  0.69451067  1
  S  S99  1  0.91991099  0.15118043  0.54870957  1
  S  S100  1  0.36560359  0.94935638  0.21992252  1
  S  S101  1  0.64346297  0.58749508  0.80541340  1
  S  S102  1  0.87978272  0.37795494  0.81566573  1
  S  S103  1  0.60406319  0.26815947  0.83397944  1
  S  S104  1  0.38031885  0.65115848  0.04871469  1
  S  S105  1  0.95392018  0.61076935  0.07006292  1
  S  S106  1  0.95057223  0.65888461  0.53008007  1
  S  S107  1  0.10388782  0.17197310  0.89724475  1
  S  S108  1  0.55393258  0.70369061  0.47005030  1
  S  S109  1  0.28747357  0.27740558  0.82889532  1
  S  S110  1  0.45185799  0.09823295  0.25808299  1
  S  S111  1  0.29008165  0.91515989  0.70112846  1
  S  S112  1  0.15357308  0.83769715  0.11189850  1
  S  S113  1  0.82691648  0.67200041  0.39726018  1
  S  S114  1  0.75018332  0.87653368  0.55368922  1
  S  S115  1  0.07353116  0.12208249  0.68420400  1
  S  S116  1  0.24981668  0.12346632  0.44631078  1
  S  S117  1  0.70938865  0.68682953  0.63547076  1
  S  S118  1  0.10313040  0.66221039  0.38821270  1
  S  S119  1  0.39381896  0.22255838  0.67112434  1
  S  S120  1  0.89611218  0.82802690  0.10275525  1
  S  S121  1  0.35653703  0.41250492  0.19458660  1
  S  S122  1  0.20061269  0.97478253  0.57493837  1
  S  S123  1  0.84642692  0.16230285  0.88810150  1
  S  S124  1  0.60336771  0.13312038  0.96013585  1
  S  S125  1  0.39593681  0.73184053  0.16602056  1
  S  S126  1  0.17308352  0.32799959  0.60273982  1
  S  S127  1  0.96832325  0.18673202  0.13556215  1
  S  S128  1  0.62451498  0.31913933  0.33825744  1
  S  S129  1  0.39663229  0.86687962  0.03986415  1
  S  S130  1  0.53470181  0.55076571  0.28014317  1
  S  S131  1  0.18040900  0.62354088  0.94628077  1
  S  S132  1  0.72755335  0.79643035  0.02991680  1
  S  S133  1  0.13957968  0.84110809  0.96991248  1
  S  S134  1  0.54814201  0.90176705  0.74191701  1
  S  S135  1  0.75027488  0.52511692  0.92502560  1
