# generated using pymatgen
data_Cu3(BiI4)4
_symmetry_space_group_name_H-M   'P 1'
_cell_length_a   8.74937038
_cell_length_b   8.74937025
_cell_length_c   17.95348662
_cell_angle_alpha   59.43922201
_cell_angle_beta   59.43922251
_cell_angle_gamma   59.40079459
_symmetry_Int_Tables_number   1
_chemical_formula_structural   Cu3(BiI4)4
_chemical_formula_sum   'Cu3 Bi4 I16'
_cell_volume   959.14022509
_cell_formula_units_Z   1
loop_
 _symmetry_equiv_pos_site_id
 _symmetry_equiv_pos_as_xyz
  1  'x, y, z'
loop_
 _atom_site_type_symbol
 _atom_site_label
 _atom_site_symmetry_multiplicity
 _atom_site_fract_x
 _atom_site_fract_y
 _atom_site_fract_z
 _atom_site_occupancy
  Cu  Cu0  1  0.36553144  0.36553144  0.94170802  1
  Cu  Cu1  1  0.89017500  0.89017500  0.69241654  1
  Cu  Cu2  1  0.86430574  0.86430574  0.92912797  1
  Bi  Bi3  1  0.00280129  0.00280129  0.00770110  1
  Bi  Bi4  1  0.02034863  0.02034863  0.24112485  1
  Bi  Bi5  1  0.99609369  0.48815442  0.50608907  1
  Bi  Bi6  1  0.48815442  0.99609369  0.50608907  1
  I  I7  1  0.25988609  0.25988609  0.12296505  1
  I  I8  1  0.24911556  0.24911556  0.37878281  1
  I  I9  1  0.25389450  0.74707580  0.12732700  1
  I  I10  1  0.74707580  0.25389450  0.12732700  1
  I  I11  1  0.25067781  0.74926808  0.37141992  1
  I  I12  1  0.25327734  0.25327734  0.62257579  1
  I  I13  1  0.75841547  0.75841547  0.11091376  1
  I  I14  1  0.25902325  0.25902325  0.87115235  1
  I  I15  1  0.25079279  0.74003816  0.62622159  1
  I  I16  1  0.74926808  0.25067781  0.37141992  1
  I  I17  1  0.74003816  0.25079279  0.62622159  1
  I  I18  1  0.74468546  0.74468546  0.37747451  1
  I  I19  1  0.23967175  0.74027343  0.87944300  1
  I  I20  1  0.74829101  0.74829101  0.63104191  1
  I  I21  1  0.74027343  0.23967175  0.87944300  1
  I  I22  1  0.75320329  0.75320329  0.86451419  1
