# generated using pymatgen
data_Cu4Bi4S9
_symmetry_space_group_name_H-M   'P 1'
_cell_length_a   3.92984015
_cell_length_b   11.30814431
_cell_length_c   33.33139458
_cell_angle_alpha   90.00000000
_cell_angle_beta   90.00000000
_cell_angle_gamma   90.00000000
_symmetry_Int_Tables_number   1
_chemical_formula_structural   Cu4Bi4S9
_chemical_formula_sum   'Cu16 Bi16 S36'
_cell_volume   1481.22049440
_cell_formula_units_Z   4
loop_
 _symmetry_equiv_pos_site_id
 _symmetry_equiv_pos_as_xyz
  1  'x, y, z'
loop_
 _atom_site_type_symbol
 _atom_site_label
 _atom_site_symmetry_multiplicity
 _atom_site_fract_x
 _atom_site_fract_y
 _atom_site_fract_z
 _atom_site_occupancy
  Cu  Cu0  1  0.25000000  0.42235568  0.30273705  1
  Cu  Cu1  1  0.75000000  0.89911678  0.01285248  1
  Cu  Cu2  1  0.75000000  0.83423628  0.30691635  1
  Cu  Cu3  1  0.25000000  0.07764432  0.80273705  1
  Cu  Cu4  1  0.75000000  0.92235568  0.19726295  1
  Cu  Cu5  1  0.25000000  0.16576372  0.69308365  1
  Cu  Cu6  1  0.25000000  0.88089546  0.35861163  1
  Cu  Cu7  1  0.25000000  0.10088322  0.98714752  1
  Cu  Cu8  1  0.75000000  0.66576372  0.80691635  1
  Cu  Cu9  1  0.75000000  0.38089546  0.14138837  1
  Cu  Cu10  1  0.75000000  0.11910454  0.64138837  1
  Cu  Cu11  1  0.25000000  0.33423628  0.19308365  1
  Cu  Cu12  1  0.75000000  0.57764432  0.69726295  1
  Cu  Cu13  1  0.75000000  0.60088322  0.51285248  1
  Cu  Cu14  1  0.25000000  0.39911678  0.48714752  1
  Cu  Cu15  1  0.25000000  0.61910454  0.85861163  1
  Bi  Bi16  1  0.75000000  0.62085949  0.96723628  1
  Bi  Bi17  1  0.75000000  0.90951001  0.90808057  1
  Bi  Bi18  1  0.75000000  0.85233043  0.72342878  1
  Bi  Bi19  1  0.25000000  0.72036286  0.11106491  1
  Bi  Bi20  1  0.75000000  0.27963714  0.88893509  1
  Bi  Bi21  1  0.75000000  0.59048999  0.40808057  1
  Bi  Bi22  1  0.25000000  0.09048999  0.09191943  1
  Bi  Bi23  1  0.25000000  0.77963714  0.61106491  1
  Bi  Bi24  1  0.25000000  0.14766957  0.27657122  1
  Bi  Bi25  1  0.25000000  0.12085949  0.53276372  1
  Bi  Bi26  1  0.75000000  0.22036286  0.38893509  1
  Bi  Bi27  1  0.25000000  0.35233043  0.77657122  1
  Bi  Bi28  1  0.25000000  0.37914051  0.03276372  1
  Bi  Bi29  1  0.75000000  0.64766957  0.22342878  1
  Bi  Bi30  1  0.25000000  0.40951001  0.59191943  1
  Bi  Bi31  1  0.75000000  0.87914051  0.46723628  1
  S  S32  1  0.25000000  0.01632566  0.73729602  1
  S  S33  1  0.75000000  0.31934385  0.31670397  1
  S  S34  1  0.25000000  0.07811940  0.35137765  1
  S  S35  1  0.25000000  0.31981194  0.11118394  1
  S  S36  1  0.25000000  0.84488818  0.97717606  1
  S  S37  1  0.75000000  0.88201076  0.08160542  1
  S  S38  1  0.75000000  0.41811291  0.65466120  1
  S  S39  1  0.25000000  0.03890567  0.45136746  1
  S  S40  1  0.75000000  0.18065615  0.81670397  1
  S  S41  1  0.25000000  0.46109433  0.95136746  1
  S  S42  1  0.75000000  0.92188060  0.64862235  1
  S  S43  1  0.75000000  0.53890567  0.04863254  1
  S  S44  1  0.25000000  0.38201076  0.41839458  1
  S  S45  1  0.75000000  0.57811940  0.14862235  1
  S  S46  1  0.75000000  0.51632566  0.76270398  1
  S  S47  1  0.25000000  0.76786372  0.80731662  1
  S  S48  1  0.75000000  0.34488818  0.52282394  1
  S  S49  1  0.75000000  0.08188709  0.15466120  1
  S  S50  1  0.25000000  0.91811291  0.84533880  1
  S  S51  1  0.75000000  0.26786372  0.69268338  1
  S  S52  1  0.75000000  0.96109433  0.54863254  1
  S  S53  1  0.75000000  0.23213628  0.19268338  1
  S  S54  1  0.75000000  0.61798924  0.58160542  1
  S  S55  1  0.75000000  0.68018806  0.88881606  1
  S  S56  1  0.25000000  0.81934385  0.18329603  1
  S  S57  1  0.25000000  0.58188709  0.34533880  1
  S  S58  1  0.75000000  0.15511182  0.02282394  1
  S  S59  1  0.25000000  0.73213628  0.30731662  1
  S  S60  1  0.25000000  0.68065615  0.68329603  1
  S  S61  1  0.25000000  0.65511182  0.47717606  1
  S  S62  1  0.25000000  0.48367434  0.23729602  1
  S  S63  1  0.75000000  0.81981194  0.38881606  1
  S  S64  1  0.25000000  0.42188060  0.85137765  1
  S  S65  1  0.25000000  0.18018806  0.61118394  1
  S  S66  1  0.75000000  0.98367434  0.26270398  1
  S  S67  1  0.25000000  0.11798924  0.91839458  1
