# generated using pymatgen
data_La2Te4Pb
_symmetry_space_group_name_H-M   'P 1'
_cell_length_a   8.45073057
_cell_length_b   8.45073099
_cell_length_c   8.45073118
_cell_angle_alpha   109.55082668
_cell_angle_beta   109.31212111
_cell_angle_gamma   109.55083158
_symmetry_Int_Tables_number   1
_chemical_formula_structural   La2Te4Pb
_chemical_formula_sum   'La4 Te8 Pb2'
_cell_volume   464.57775960
_cell_formula_units_Z   2
loop_
 _symmetry_equiv_pos_site_id
 _symmetry_equiv_pos_as_xyz
  1  'x, y, z'
loop_
 _atom_site_type_symbol
 _atom_site_label
 _atom_site_symmetry_multiplicity
 _atom_site_fract_x
 _atom_site_fract_y
 _atom_site_fract_z
 _atom_site_occupancy
  La  La0  1  0.25000000  0.62879358  0.37879358  1
  La  La1  1  0.75000000  0.87120642  0.12120642  1
  La  La2  1  0.62120642  0.37120642  0.25000000  1
  La  La3  1  0.87879358  0.12879358  0.75000000  1
  Te  Te4  1  0.99303265  0.84603990  0.49506155  1
  Te  Te5  1  0.99506155  0.34603990  0.49303265  1
  Te  Te6  1  0.50696735  0.00202889  0.85300724  1
  Te  Te7  1  0.14699276  0.15396010  0.14902165  1
  Te  Te8  1  0.35300724  0.50202889  0.00696735  1
  Te  Te9  1  0.64902165  0.65396010  0.64699276  1
  Te  Te10  1  0.50493845  0.99797111  0.35097835  1
  Te  Te11  1  0.85097835  0.49797111  0.00493845  1
  Pb  Pb12  1  0.12500000  0.75000000  0.87500000  1
  Pb  Pb13  1  0.37500000  0.25000000  0.62500000  1
