# generated using pymatgen
data_Bi2O5
_symmetry_space_group_name_H-M   'P 1'
_cell_length_a   10.19209352
_cell_length_b   5.95008902
_cell_length_c   4.26184030
_cell_angle_alpha   110.98554520
_cell_angle_beta   90.00000000
_cell_angle_gamma   90.00000000
_symmetry_Int_Tables_number   1
_chemical_formula_structural   Bi2O5
_chemical_formula_sum   'Bi4 O10'
_cell_volume   241.31138666
_cell_formula_units_Z   2
loop_
 _symmetry_equiv_pos_site_id
 _symmetry_equiv_pos_as_xyz
  1  'x, y, z'
loop_
 _atom_site_type_symbol
 _atom_site_label
 _atom_site_symmetry_multiplicity
 _atom_site_fract_x
 _atom_site_fract_y
 _atom_site_fract_z
 _atom_site_occupancy
  Bi  Bi0  1  0.18849971  0.77184090  0.88591995  1
  Bi  Bi1  1  0.31150029  0.22815910  0.61408005  1
  Bi  Bi2  1  0.68849971  0.22815910  0.61408005  1
  Bi  Bi3  1  0.81150029  0.77184090  0.88591995  1
  O  O4  1  0.00000000  0.92826107  0.96413103  1
  O  O5  1  0.12532069  0.40727220  0.70363610  1
  O  O6  1  0.21350834  0.87197358  0.43598629  1
  O  O7  1  0.28649166  0.12802442  0.06401271  1
  O  O8  1  0.37467931  0.59272780  0.79636390  1
  O  O9  1  0.50000000  0.07173893  0.53586897  1
  O  O10  1  0.62532069  0.59272780  0.79636390  1
  O  O11  1  0.87467931  0.40727220  0.70363610  1
  O  O12  1  0.71350834  0.12802442  0.06401271  1
  O  O13  1  0.78649166  0.87197358  0.43598629  1
