# generated using pymatgen
data_Li2CrP2O7
_symmetry_space_group_name_H-M   'P 1'
_cell_length_a   5.63275988
_cell_length_b   7.80777727
_cell_length_c   7.97725886
_cell_angle_alpha   64.16046024
_cell_angle_beta   90.13978926
_cell_angle_gamma   68.98193303
_symmetry_Int_Tables_number   1
_chemical_formula_structural   Li2CrP2O7
_chemical_formula_sum   'Li4 Cr2 P4 O14'
_cell_volume   289.43857065
_cell_formula_units_Z   2
loop_
 _symmetry_equiv_pos_site_id
 _symmetry_equiv_pos_as_xyz
  1  'x, y, z'
loop_
 _atom_site_type_symbol
 _atom_site_label
 _atom_site_symmetry_multiplicity
 _atom_site_fract_x
 _atom_site_fract_y
 _atom_site_fract_z
 _atom_site_occupancy
  Li  Li0  1  0.93598625  0.44076862  0.19058181  1
  Li  Li1  1  0.62447135  0.44316789  0.68907947  1
  Li  Li2  1  0.06841494  0.55170545  0.80738718  1
  Li  Li3  1  0.38056638  0.55555740  0.30598286  1
  Cr  Cr4  1  0.99885584  0.99936938  0.50120014  1
  Cr  Cr5  1  0.00109396  0.99907657  0.00039357  1
  P  P6  1  0.75214149  0.77502291  0.35699513  1
  P  P7  1  0.24521954  0.22661803  0.64124112  1
  P  P8  1  0.52844806  0.22530059  0.14109716  1
  P  P9  1  0.47357806  0.77495405  0.85832965  1
  O  O10  1  0.74661994  0.61313545  0.91771373  1
  O  O11  1  0.66028070  0.22609720  0.97215319  1
  O  O12  1  0.64209990  0.61200123  0.41726899  1
  O  O13  1  0.93733190  0.76225427  0.21547927  1
  O  O14  1  0.69882004  0.23731387  0.28514911  1
  O  O15  1  0.34611201  0.77451217  0.02910397  1
  O  O16  1  0.87959486  0.77559544  0.52740237  1
  O  O17  1  0.29939172  0.76210820  0.71731262  1
  O  O18  1  0.49273807  0.00173548  0.74907789  1
  O  O19  1  0.25571320  0.38793506  0.07978958  1
  O  O20  1  0.50579700  0.00031621  0.24733497  1
  O  O21  1  0.35170235  0.39185147  0.58190817  1
  O  O22  1  0.06073277  0.23735822  0.78385467  1
  O  O23  1  0.11623867  0.22661284  0.47110339  1
