# generated using pymatgen
data_ZnGaP2H4NO8
_symmetry_space_group_name_H-M   'P 1'
_cell_length_a   8.81565870
_cell_length_b   9.23004115
_cell_length_c   10.12274413
_cell_angle_alpha   90.00000000
_cell_angle_beta   90.00000000
_cell_angle_gamma   90.47656728
_symmetry_Int_Tables_number   1
_chemical_formula_structural   ZnGaP2H4NO8
_chemical_formula_sum   'Zn4 Ga4 P8 H16 N4 O32'
_cell_volume   823.64798745
_cell_formula_units_Z   4
loop_
 _symmetry_equiv_pos_site_id
 _symmetry_equiv_pos_as_xyz
  1  'x, y, z'
loop_
 _atom_site_type_symbol
 _atom_site_label
 _atom_site_symmetry_multiplicity
 _atom_site_fract_x
 _atom_site_fract_y
 _atom_site_fract_z
 _atom_site_occupancy
  Zn  Zn0  1  0.08123464  0.77579100  0.08509668  1
  Zn  Zn1  1  0.42724256  0.43147473  0.69392254  1
  Zn  Zn2  1  0.57275744  0.06852527  0.19392254  1
  Zn  Zn3  1  0.91876536  0.72420900  0.58509668  1
  Ga  Ga4  1  0.13452433  0.31717365  0.34886787  1
  Ga  Ga5  1  0.41682570  0.91578686  0.83599435  1
  Ga  Ga6  1  0.58317430  0.58421314  0.33599435  1
  Ga  Ga7  1  0.86547567  0.18282635  0.84886787  1
  P  P8  1  0.06766641  0.89376391  0.81183849  1
  P  P9  1  0.06317747  0.41647277  0.64241553  1
  P  P10  1  0.43245647  0.76071334  0.11209635  1
  P  P11  1  0.46972183  0.27177271  0.42277946  1
  P  P12  1  0.56754353  0.73928666  0.61209635  1
  P  P13  1  0.53027817  0.22822729  0.92277946  1
  P  P14  1  0.93233359  0.60623609  0.31183849  1
  P  P15  1  0.93682253  0.08352723  0.14241553  1
  H  H16  1  0.15309155  0.85982322  0.37646931  1
  H  H17  1  0.12586241  0.31948396  0.09426552  1
  H  H18  1  0.20172298  0.89288047  0.53226445  1
  H  H19  1  0.13740755  0.30081980  0.82819137  1
  H  H20  1  0.26514995  0.00624940  0.41096145  1
  H  H21  1  0.23245315  0.45703378  0.14922575  1
  H  H22  1  0.33614641  0.83785643  0.42400393  1
  H  H23  1  0.30735186  0.29337287  0.13407200  1
  H  H24  1  0.66385359  0.66214357  0.92400393  1
  H  H25  1  0.69264814  0.20662713  0.63407200  1
  H  H26  1  0.73485005  0.49375060  0.91096145  1
  H  H27  1  0.76754685  0.04296622  0.64922575  1
  H  H28  1  0.79827702  0.60711953  0.03226445  1
  H  H29  1  0.86259245  0.19918020  0.32819137  1
  H  H30  1  0.84690845  0.64017678  0.87646931  1
  H  H31  1  0.87413759  0.18051604  0.59426552  1
  N  N32  1  0.23975416  0.89950790  0.43492083  1
  N  N33  1  0.20983025  0.34800301  0.16018946  1
  N  N34  1  0.76024584  0.60049210  0.93492083  1
  N  N35  1  0.79016975  0.15199699  0.66018946  1
  O  O36  1  0.05061728  0.75358411  0.89325096  1
  O  O37  1  0.05179724  0.29788429  0.53474474  1
  O  O38  1  0.06678969  0.86064953  0.66260825  1
  O  O39  1  0.03872921  0.31892649  0.78597824  1
  O  O40  1  0.06946792  0.98040809  0.14702036  1
  O  O41  1  0.06608462  0.50739305  0.35080850  1
  O  O42  1  0.21853194  0.97634943  0.84756813  1
  O  O43  1  0.21777993  0.48660973  0.65614819  1
  O  O44  1  0.27644084  0.68705776  0.12545894  1
  O  O45  1  0.30595361  0.20507241  0.39759408  1
  O  O46  1  0.44445705  0.84460027  0.66722869  1
  O  O47  1  0.43489912  0.90576380  0.18513583  1
  O  O48  1  0.40951414  0.32524101  0.86020708  1
  O  O49  1  0.45863924  0.42465875  0.35623505  1
  O  O50  1  0.47783836  0.78005532  0.96182187  1
  O  O51  1  0.50361730  0.28494175  0.57061574  1
  O  O52  1  0.52216164  0.71994468  0.46182187  1
  O  O53  1  0.49638270  0.21505825  0.07061574  1
  O  O54  1  0.56510088  0.59423620  0.68513583  1
  O  O55  1  0.55554295  0.65539973  0.16722869  1
  O  O56  1  0.54136076  0.07534125  0.85623505  1
  O  O57  1  0.59048586  0.17475899  0.36020708  1
  O  O58  1  0.72355916  0.81294224  0.62545894  1
  O  O59  1  0.69404639  0.29492759  0.89759408  1
  O  O60  1  0.78146806  0.52365057  0.34756813  1
  O  O61  1  0.78222007  0.01339027  0.15614819  1
  O  O62  1  0.93053208  0.51959191  0.64702036  1
  O  O63  1  0.93391538  0.99260695  0.85080850  1
  O  O64  1  0.93321031  0.63935047  0.16260825  1
  O  O65  1  0.96127079  0.18107351  0.28597824  1
  O  O66  1  0.94938272  0.74641589  0.39325096  1
  O  O67  1  0.94820276  0.20211571  0.03474474  1
