# generated using pymatgen
data_CaPr2Ti2ZnO9
_symmetry_space_group_name_H-M   'P 1'
_cell_length_a   5.50055694
_cell_length_b   5.72497521
_cell_length_c   23.41610841
_cell_angle_alpha   90.05243529
_cell_angle_beta   89.84813414
_cell_angle_gamma   90.29977687
_symmetry_Int_Tables_number   1
_chemical_formula_structural   CaPr2Ti2ZnO9
_chemical_formula_sum   'Ca4 Pr8 Ti8 Zn4 O36'
_cell_volume   737.37320067
_cell_formula_units_Z   4
loop_
 _symmetry_equiv_pos_site_id
 _symmetry_equiv_pos_as_xyz
  1  'x, y, z'
loop_
 _atom_site_type_symbol
 _atom_site_label
 _atom_site_symmetry_multiplicity
 _atom_site_fract_x
 _atom_site_fract_y
 _atom_site_fract_z
 _atom_site_occupancy
  Ca  Ca0  1  0.49219647  0.44950738  0.58826635  1
  Ca  Ca1  1  0.49287032  0.44964458  0.91953539  1
  Ca  Ca2  1  -0.00511781  0.06015796  0.41360070  1
  Ca  Ca3  1  0.99106532  0.05859403  0.74460457  1
  Pr  Pr4  1  0.01717334  0.94059752  0.25230193  1
  Pr  Pr5  1  0.01537192  0.93190971  0.58675998  1
  Pr  Pr6  1  0.01310564  0.93239706  0.91711329  1
  Pr  Pr7  1  0.48305989  0.44297166  0.25075703  1
  Pr  Pr8  1  0.51411594  0.55763038  0.08189364  1
  Pr  Pr9  1  0.51592476  0.55947193  0.41648273  1
  Pr  Pr10  1  0.51551592  0.56045183  0.74686744  1
  Pr  Pr11  1  0.98181742  0.05744465  0.08199869  1
  Ti  Ti12  1  0.02992264  0.48202819  0.50327461  1
  Ti  Ti13  1  0.03004434  0.48178575  0.83417092  1
  Ti  Ti14  1  0.52580930  0.01215813  0.49872892  1
  Ti  Ti15  1  0.49146760  0.00311046  -0.00076196  1
  Ti  Ti16  1  0.50917991  0.00331489  0.33457459  1
  Ti  Ti17  1  0.52615585  0.01333021  0.83052485  1
  Ti  Ti18  1  0.49914656  0.00723121  0.66685823  1
  Ti  Ti19  1  0.99788816  0.50030767  0.16675658  1
  Zn  Zn20  1  0.49837652  0.99967534  0.16676919  1
  Zn  Zn21  1  0.00063665  0.49487664  0.99703188  1
  Zn  Zn22  1  0.00149288  0.49586582  0.33555464  1
  Zn  Zn23  1  0.00241968  0.49110077  0.66603859  1
  O  O24  1  0.09074909  0.47262286  0.08582767  1
  O  O25  1  0.08552095  0.47212969  0.42260626  1
  O  O26  1  0.08391670  0.47309494  0.75406196  1
  O  O27  1  0.20636561  0.18672946  0.65319165  1
  O  O28  1  0.18853904  0.21264157  0.18401937  1
  O  O29  1  0.20413000  0.20610268  0.51796417  1
  O  O30  1  0.21231729  0.19202988  0.31939804  1
  O  O31  1  0.20389248  0.20577231  0.84913592  1
  O  O32  1  0.20519626  0.18753003  0.98470003  1
  O  O33  1  0.28719346  0.69484504  0.18264514  1
  O  O34  1  0.30963588  0.71225584  0.31964885  1
  O  O35  1  0.29082839  0.69819789  0.51670780  1
  O  O36  1  0.30584550  0.71433830  0.65188287  1
  O  O37  1  0.30643257  0.71482489  0.98154993  1
  O  O38  1  0.29048822  0.69821147  0.84793949  1
  O  O39  1  0.40750341  0.97316351  0.07912826  1
  O  O40  1  0.40776099  0.97785478  0.42041915  1
  O  O41  1  0.40806256  0.97908909  0.75139482  1
  O  O42  1  0.58176331  0.02790985  0.58223649  1
  O  O43  1  0.59225858  0.02628903  0.25420772  1
  O  O44  1  0.58270677  0.03078044  0.91321213  1
  O  O45  1  0.68992321  0.28576387  0.01496272  1
  O  O46  1  0.70696630  0.30672026  0.15073110  1
  O  O47  1  0.68560686  0.29190470  0.34976617  1
  O  O48  1  0.70125751  0.28905745  0.48469418  1
  O  O49  1  0.68444886  0.28930470  0.68071501  1
  O  O50  1  0.70119064  0.28914542  0.81567861  1
  O  O51  1  0.78637832  0.80892268  0.01253278  1
  O  O52  1  0.78604125  0.81116006  0.35108875  1
  O  O53  1  0.80527080  0.78577298  0.14915562  1
  O  O54  1  0.78175287  0.81119588  0.68111826  1
  O  O55  1  0.78484968  0.80689145  0.48505679  1
  O  O56  1  0.78428699  0.80705942  0.81650237  1
  O  O57  1  0.90649838  0.52841321  0.24757317  1
  O  O58  1  0.90270585  0.52348147  0.57870591  1
  O  O59  1  0.90207622  0.52322915  0.91013801  1
