# generated using pymatgen
data_FePO4
_symmetry_space_group_name_H-M   'P 1'
_cell_length_a   5.22355512
_cell_length_b   10.08535715
_cell_length_c   7.06385396
_cell_angle_alpha   90.00000000
_cell_angle_beta   89.41462631
_cell_angle_gamma   90.00000000
_symmetry_Int_Tables_number   1
_chemical_formula_structural   FePO4
_chemical_formula_sum   'Fe4 P4 O16'
_cell_volume   372.11442857
_cell_formula_units_Z   4
loop_
 _symmetry_equiv_pos_site_id
 _symmetry_equiv_pos_as_xyz
  1  'x, y, z'
loop_
 _atom_site_type_symbol
 _atom_site_label
 _atom_site_symmetry_multiplicity
 _atom_site_fract_x
 _atom_site_fract_y
 _atom_site_fract_z
 _atom_site_occupancy
  Fe  Fe0  1  0.69879821  0.32470807  0.50836587  1
  Fe  Fe1  1  0.80120179  0.82470807  0.99163413  1
  Fe  Fe2  1  0.30120179  0.67529193  0.49163413  1
  Fe  Fe3  1  0.19879821  0.17529193  0.00836587  1
  P  P4  1  0.20105801  0.41098312  0.27485537  1
  P  P5  1  0.29894199  0.91098312  0.22514463  1
  P  P6  1  0.79894199  0.58901688  0.72514463  1
  P  P7  1  0.70105801  0.08901688  0.77485537  1
  O  O8  1  0.77988332  0.14804809  0.57995318  1
  O  O9  1  0.14594783  0.84367290  0.06375520  1
  O  O10  1  0.35405217  0.34367290  0.43624480  1
  O  O11  1  0.74976682  0.43780755  0.72208885  1
  O  O12  1  0.72011668  0.64804809  0.92004682  1
  O  O13  1  0.85405217  0.15632710  0.93624480  1
  O  O14  1  0.24976682  0.06219245  0.22208885  1
  O  O15  1  0.75023318  0.93780755  0.77791115  1
  O  O16  1  0.91241380  0.38134759  0.30762662  1
  O  O17  1  0.22011668  0.85195191  0.42004682  1
  O  O18  1  0.64594783  0.65632710  0.56375520  1
  O  O19  1  0.58758620  0.88134759  0.19237338  1
  O  O20  1  0.08758620  0.61865241  0.69237338  1
  O  O21  1  0.41241380  0.11865241  0.80762662  1
  O  O22  1  0.25023318  0.56219245  0.27791115  1
  O  O23  1  0.27988332  0.35195191  0.07995318  1
