# generated using pymatgen
data_Li(CoO2)8
_symmetry_space_group_name_H-M   'P 1'
_cell_length_a   10.38820632
_cell_length_b   15.02438184
_cell_length_c   19.74053997
_cell_angle_alpha   15.13010181
_cell_angle_beta   21.07669806
_cell_angle_gamma   21.11227140
_symmetry_Int_Tables_number   1
_chemical_formula_structural   Li(CoO2)8
_chemical_formula_sum   'Li1 Co8 O16'
_cell_volume   271.73759533
_cell_formula_units_Z   1
loop_
 _symmetry_equiv_pos_site_id
 _symmetry_equiv_pos_as_xyz
  1  'x, y, z'
loop_
 _atom_site_type_symbol
 _atom_site_label
 _atom_site_symmetry_multiplicity
 _atom_site_fract_x
 _atom_site_fract_y
 _atom_site_fract_z
 _atom_site_occupancy
  Li  Li0  1  0.12500000  0.25000000  0.50000000  1
  Co  Co1  1  0.06395116  0.12408171  0.24973667  1
  Co  Co2  1  0.56563009  0.12115632  0.24929058  1
  Co  Co3  1  0.31256111  0.62626663  0.25056699  1
  Co  Co4  1  0.18604884  0.37591829  0.75026333  1
  Co  Co5  1  0.81144917  0.62489260  0.24778710  1
  Co  Co6  1  0.68436991  0.37884368  0.75070942  1
  Co  Co7  1  0.43855083  0.87510740  0.75221290  1
  Co  Co8  1  0.93743889  0.87373337  0.74943301  1
  O  O9  1  0.02702875  0.05615198  0.11804511  1
  O  O10  1  0.52380053  0.05343893  0.12034403  1
  O  O11  1  0.09772511  0.18962415  0.38334649  1
  O  O12  1  0.27273468  0.55025525  0.12451115  1
  O  O13  1  0.58701978  0.19357870  0.38857112  1
  O  O14  1  0.15227489  0.31037585  0.61665351  1
  O  O15  1  0.78717599  0.56354201  0.10776597  1
  O  O16  1  0.34268988  0.69240552  0.38499859  1
  O  O17  1  0.66298022  0.30642130  0.61142888  1
  O  O18  1  0.22297125  0.44384802  0.88195489  1
  O  O19  1  0.85012076  0.68008495  0.39179381  1
  O  O20  1  0.39987924  0.81991505  0.60820619  1
  O  O21  1  0.72619947  0.44656107  0.87965597  1
  O  O22  1  0.90731012  0.80759448  0.61500141  1
  O  O23  1  0.46282401  0.93645799  0.89223403  1
  O  O24  1  0.97726532  0.94974475  0.87548885  1
