# generated using pymatgen
data_Si(Bi3O5)5
_symmetry_space_group_name_H-M   'P 1'
_cell_length_a   44.37740556
_cell_length_b   16.99470406
_cell_length_c   16.99470400
_cell_angle_alpha   50.47335279
_cell_angle_beta   29.49293874
_cell_angle_gamma   29.49293758
_symmetry_Int_Tables_number   1
_chemical_formula_structural   Si(Bi3O5)5
_chemical_formula_sum   'Si4 Bi60 O100'
_cell_volume   2690.34611157
_cell_formula_units_Z   4
loop_
 _symmetry_equiv_pos_site_id
 _symmetry_equiv_pos_as_xyz
  1  'x, y, z'
loop_
 _atom_site_type_symbol
 _atom_site_label
 _atom_site_symmetry_multiplicity
 _atom_site_fract_x
 _atom_site_fract_y
 _atom_site_fract_z
 _atom_site_occupancy
  Si  Si0  1  0.20033102  0.00000000  0.00000000  1
  Si  Si1  1  0.39984803  1.00000000  1.00000000  1
  Si  Si2  1  0.59998919  1.00000000  1.00000000  1
  Si  Si3  1  0.79972193  1.00000000  1.00000000  1
  Bi  Bi4  1  0.08847271  0.33650367  0.19190655  1
  Bi  Bi5  1  0.02972942  0.68737613  0.17131688  1
  Bi  Bi6  1  0.18446663  0.13827452  0.30354953  1
  Bi  Bi7  1  0.10609687  0.49842597  0.33325761  1
  Bi  Bi8  1  0.07892615  0.82166457  0.13401753  1
  Bi  Bi9  1  0.18844287  0.19482867  0.50052785  1
  Bi  Bi10  1  0.00400342  0.83649649  0.49946459  1
  Bi  Bi11  1  0.28724229  0.33477541  0.19349087  1
  Bi  Bi12  1  0.12733187  0.15987436  0.85671741  1
  Bi  Bi13  1  0.08389274  0.50926970  0.70214231  1
  Bi  Bi14  1  0.24269276  0.66553880  0.15804207  1
  Bi  Bi15  1  0.02150795  0.86212538  0.66698061  1
  Bi  Bi16  1  0.38337553  0.14219606  0.30242295  1
  Bi  Bi17  1  0.18357944  0.30684804  0.80688123  1
  Bi  Bi18  1  0.30865591  0.49079980  0.33132002  1
  Bi  Bi19  1  0.28037926  0.80809345  0.14459712  1
  Bi  Bi20  1  0.09406842  0.69493567  0.82819052  1
  Bi  Bi21  1  0.39466413  0.18775494  0.49136611  1
  Bi  Bi22  1  0.20104630  0.82868312  0.51605925  1
  Bi  Bi23  1  0.49036327  0.33167465  0.18793009  1
  Bi  Bi24  1  0.32274115  0.16527500  0.86172548  1
  Bi  Bi25  1  0.28144182  0.51609001  0.69438411  1
  Bi  Bi26  1  0.43935448  0.66674239  0.16516836  1
  Bi  Bi27  1  0.21294368  0.86598247  0.68764704  1
  Bi  Bi28  1  0.58175886  0.14430843  0.30456868  1
  Bi  Bi29  1  0.38327155  0.30569918  0.80517133  1
  Bi  Bi30  1  0.50346801  0.50053541  0.33703191  1
  Bi  Bi31  1  0.48073316  0.80650913  0.14128454  1
  Bi  Bi32  1  0.28720623  0.69684305  0.84012564  1
  Bi  Bi33  1  0.59316244  0.19287261  0.49073030  1
  Bi  Bi34  1  0.40073483  0.84195793  0.50749673  1
  Bi  Bi35  1  0.68848857  0.33301939  0.19514477  1
  Bi  Bi36  1  0.52557160  0.16022688  0.85780394  1
  Bi  Bi37  1  0.49042747  0.50003319  0.69315196  1
  Bi  Bi38  1  0.63997593  0.66867998  0.15947978  1
  Bi  Bi39  1  0.42497638  0.85540288  0.66349633  1
  Bi  Bi40  1  0.78900409  0.13325485  0.30506433  1
  Bi  Bi41  1  0.58241907  0.30361117  0.81224506  1
  Bi  Bi42  1  0.71710555  0.48394075  0.31262387  1
  Bi  Bi43  1  0.67829337  0.81206991  0.14374456  1
  Bi  Bi44  1  0.48801616  0.69645047  0.83472500  1
  Bi  Bi45  1  0.79753183  0.17829410  0.48390999  1
  Bi  Bi46  1  0.60452284  0.83483164  0.50157403  1
  Bi  Bi47  1  0.90059072  0.31235296  0.17833543  1
  Bi  Bi48  1  0.72606729  0.16026024  0.85569157  1
  Bi  Bi49  1  0.68897073  0.49947215  0.69430082  1
  Bi  Bi50  1  0.84049992  0.66296809  0.16350351  1
  Bi  Bi51  1  0.62201770  0.85871546  0.66522459  1
  Bi  Bi52  1  0.98404928  0.14328259  0.30315695  1
  Bi  Bi53  1  0.78603505  0.29785769  0.80712739  1
  Bi  Bi54  1  0.90823156  0.49250327  0.33446120  1
  Bi  Bi55  1  0.88363333  0.80485523  0.13787462  1
  Bi  Bi56  1  0.68579848  0.69757705  0.83977312  1
  Bi  Bi57  1  0.99046066  0.19311877  0.49996681  1
  Bi  Bi58  1  0.79945571  0.84052022  0.50920020  1
  Bi  Bi59  1  0.92225894  0.17180948  0.86674515  1
  Bi  Bi60  1  0.88603024  0.50863389  0.69638883  1
  Bi  Bi61  1  0.82203793  0.85625544  0.66832535  1
  Bi  Bi62  1  0.97582593  0.30561589  0.82170590  1
  Bi  Bi63  1  0.88632754  0.69543132  0.83973976  1
  O  O64  1  0.05443131  0.00000000  0.00000000  1
  O  O65  1  0.12306724  1.00000000  1.00000000  1
  O  O66  1  0.12568823  0.99853605  0.18715913  1
  O  O67  1  0.12422428  0.18862308  0.00146395  1
  O  O68  1  0.23781565  0.00000000  0.00000000  1
  O  O69  1  0.08492608  0.23846481  0.35802513  1
  O  O70  1  0.01493383  0.26177509  0.63983649  1
  O  O71  1  0.15029652  0.38240165  0.12242946  1
  O  O72  1  0.32072767  1.00000000  1.00000000  1
  O  O73  1  0.14900624  0.00012056  0.62744535  1
  O  O74  1  0.14912680  0.62732479  0.99987944  1
  O  O75  1  0.05443109  0.36144538  0.62147229  1
  O  O76  1  0.32521260  0.99901973  0.18752509  1
  O  O77  1  0.32423232  0.18850537  0.00098027  1
  O  O78  1  0.12892776  0.61983759  0.23855756  1
  O  O79  1  0.12351237  0.12184068  0.76141465  1
  O  O80  1  0.16223617  0.39574742  0.39648999  1
  O  O81  1  0.43743715  0.00000000  0.00000000  1
  O  O82  1  0.07417763  0.38365179  0.74143638  1
  O  O83  1  0.07338290  0.88098305  0.25681647  1
  O  O84  1  0.14735917  0.61937447  0.38151997  1
  O  O85  1  0.28615430  0.23655088  0.35637284  1
  O  O86  1  0.21484096  0.26032976  0.64283948  1
  O  O87  1  0.35242272  0.38042207  0.12092084  1
  O  O88  1  0.52094503  1.00000000  1.00000000  1
  O  O89  1  0.16694675  0.76387254  0.37953632  1
  O  O90  1  0.04592370  0.63811892  0.87589312  1
  O  O91  1  0.35872253  0.00075087  0.60342038  1
  O  O92  1  0.35947340  0.60266950  0.99924913  1
  O  O93  1  0.25931829  0.35700549  0.61364966  1
  O  O94  1  0.13351588  0.73861691  0.61647508  1
  O  O95  1  0.52525234  0.99922371  0.18740718  1
  O  O96  1  0.52447605  0.18818347  0.00077629  1
  O  O97  1  0.33068771  0.61386446  0.23789566  1
  O  O98  1  0.32339089  0.11956032  0.76153519  1
  O  O99  1  0.36893457  0.38507581  0.38513303  1
  O  O100  1  0.63764463  0.00000000  0.00000000  1
  O  O101  1  0.27670892  0.37806140  0.73822491  1
  O  O102  1  0.27272598  0.87757054  0.25997220  1
  O  O103  1  0.16246747  0.72927008  0.72887780  1
  O  O104  1  0.34996251  0.61644725  0.37789001  1
  O  O105  1  0.48479800  0.23787402  0.35688071  1
  O  O106  1  0.41587647  0.26002690  0.63855462  1
  O  O107  1  0.55305628  0.37866623  0.11959582  1
  O  O108  1  0.72028160  1.00000000  1.00000000  1
  O  O109  1  0.36748532  0.76144244  0.38128003  1
  O  O110  1  0.24535305  0.63957396  0.87815932  1
  O  O111  1  0.55798359  0.00074257  0.60425258  1
  O  O112  1  0.55872616  0.60351001  0.99925743  1
  O  O113  1  0.45782942  0.35778459  0.61634821  1
  O  O114  1  0.33019938  0.74318353  0.62416657  1
  O  O115  1  0.72328491  0.00295407  0.18953065  1
  O  O116  1  0.72623898  0.18657657  0.99704593  1
  O  O117  1  0.52887914  0.61848003  0.23785450  1
  O  O118  1  0.52270518  0.11982196  0.76344912  1
  O  O119  1  0.56126263  0.39807421  0.39675655  1
  O  O120  1  0.83756459  0.00000000  0.00000000  1
  O  O121  1  0.47517073  0.38250972  0.73967024  1
  O  O122  1  0.47334357  0.87907916  0.25950122  1
  O  O123  1  0.31284736  0.81284087  0.81137692  1
  O  O124  1  0.54648307  0.62046368  0.38433623  1
  O  O125  1  0.68404262  0.23777420  0.36188108  1
  O  O126  1  0.61632378  0.25664417  0.64299451  1
  O  O127  1  0.74999096  0.38352492  0.12214183  1
  O  O128  1  0.92537188  1.00000000  1.00000000  1
  O  O129  1  0.56858337  0.76210434  0.37596880  1
  O  O130  1  0.44295121  0.64197487  0.88043968  1
  O  O131  1  0.75401038  0.00005722  0.61492419  1
  O  O132  1  0.75406760  0.61486697  0.99994278  1
  O  O133  1  0.65477032  0.36016351  0.62193860  1
  O  O134  1  0.53269818  0.74002780  0.61759835  1
  O  O135  1  0.89173755  0.99960772  0.27072992  1
  O  O136  1  0.89134527  0.27112220  0.00039228  1
  O  O137  1  0.72785252  0.62210999  0.23855724  1
  O  O138  1  0.72267202  0.11900669  0.76212598  1
  O  O139  1  0.77645159  0.37255465  0.37267521  1
  O  O140  1  0.67590337  0.37852771  0.73997310  1
  O  O141  1  0.67265209  0.88040418  0.25907041  1
  O  O142  1  0.51273769  0.81247491  0.81149463  1
  O  O143  1  0.74876536  0.61871997  0.38016241  1
  O  O144  1  0.88492702  0.23858535  0.36042604  1
  O  O145  1  0.81561401  0.25856362  0.64221541  1
  O  O146  1  0.95436595  0.37583343  0.11901695  1
  O  O147  1  0.76673364  0.76214550  0.38062553  1
  O  O148  1  0.64252714  0.64362716  0.88017804  1
  O  O149  1  0.95933683  0.99868235  0.60192579  1
  O  O150  1  0.95801918  0.60324345  0.00131765  1
  O  O151  1  0.85768044  0.35716052  0.61749028  1
  O  O152  1  0.73284479  0.74049878  0.61957793  1
  O  O153  1  0.93081930  0.61566377  0.23612746  1
  O  O154  1  0.92181682  0.12410688  0.76222580  1
  O  O155  1  0.96214291  0.39657962  0.39733050  1
  O  O156  1  0.87296795  0.38635034  0.74335583  1
  O  O157  1  0.87213279  0.87785817  0.26138309  1
  O  O158  1  0.71265952  0.81259282  0.81181653  1
  O  O159  1  0.94455217  0.62403120  0.38613554  1
  O  O160  1  0.96640976  0.76144276  0.38355275  1
  O  O161  1  0.84167871  0.64311929  0.88099331  1
  O  O162  1  0.93172250  0.74092959  0.62133377  1
  O  O163  1  0.91281556  0.81046935  0.81342343  1
