# generated using pymatgen
data_Mg4Al9Cu(SiO4)9
_symmetry_space_group_name_H-M   'P 1'
_cell_length_a   9.88382228
_cell_length_b   9.83220741
_cell_length_c   9.47970891
_cell_angle_alpha   90.00000000
_cell_angle_beta   90.00000000
_cell_angle_gamma   119.61569355
_symmetry_Int_Tables_number   1
_chemical_formula_structural   Mg4Al9Cu(SiO4)9
_chemical_formula_sum   'Mg4 Al9 Cu1 Si9 O36'
_cell_volume   800.88547514
_cell_formula_units_Z   1
loop_
 _symmetry_equiv_pos_site_id
 _symmetry_equiv_pos_as_xyz
  1  'x, y, z'
loop_
 _atom_site_type_symbol
 _atom_site_label
 _atom_site_symmetry_multiplicity
 _atom_site_fract_x
 _atom_site_fract_y
 _atom_site_fract_z
 _atom_site_occupancy
  Mg  Mg0  1  0.32435929  0.66204379  0.25161709  1
  Mg  Mg1  1  0.32173484  0.66087156  0.74732776  1
  Mg  Mg2  1  0.67564071  0.33795621  0.25161709  1
  Mg  Mg3  1  0.67826516  0.33912844  0.74732776  1
  Al  Al4  1  0.10484021  0.74277685  0.49924897  1
  Al  Al5  1  0.00000000  0.50000000  0.74686599  1
  Al  Al6  1  0.10092743  0.35889062  0.99753907  1
  Al  Al7  1  0.50000000  0.50000000  0.25265883  1
  Al  Al8  1  0.50000000  0.50000000  0.74578296  1
  Al  Al9  1  0.50000000  0.00000000  0.24877675  1
  Al  Al10  1  0.50000000  0.00000000  0.74827321  1
  Al  Al11  1  0.89907257  0.64110938  0.99753907  1
  Al  Al12  1  0.89515979  0.25722315  0.49924897  1
  Cu  Cu13  1  0.00000000  0.00000000  0.98576945  1
  Si  Si14  1  0.27301750  0.90011876  0.99780435  1
  Si  Si15  1  0.27015729  0.37461511  0.49900448  1
  Si  Si16  1  0.61645537  0.88523091  0.49712204  1
  Si  Si17  1  0.38281785  0.26910029  0.99927274  1
  Si  Si18  1  0.61718215  0.73089971  0.99927274  1
  Si  Si19  1  0.38354463  0.11476909  0.49712204  1
  Si  Si20  1  0.72984271  0.62538489  0.49900448  1
  Si  Si21  1  0.72698250  0.09988124  0.99780435  1
  Si  Si22  1  0.00000000  0.50000000  0.25061650  1
  O  O23  1  0.08355524  0.81809329  0.99365310  1
  O  O24  1  0.23956824  0.94087037  0.48868627  1
  O  O25  1  0.13957670  0.65505220  0.64414634  1
  O  O26  1  0.12676099  0.64753060  0.34506087  1
  O  O27  1  0.12114513  0.47097689  0.15247925  1
  O  O28  1  0.13751050  0.48442210  0.85632391  1
  O  O29  1  0.34307774  0.86152447  0.14095965  1
  O  O30  1  0.34749849  0.86261911  0.85821799  1
  O  O31  1  0.08587152  0.29422865  0.49928307  1
  O  O32  1  0.22057225  0.27272309  0.00253205  1
  O  O33  1  0.50301897  0.85463367  0.35739295  1
  O  O34  1  0.51179646  0.85907900  0.64147503  1
  O  O35  1  0.34680878  0.48651351  0.35770088  1
  O  O36  1  0.34812667  0.48591657  0.63929913  1
  O  O37  1  0.50955056  0.64848620  0.14008142  1
  O  O38  1  0.51318463  0.64997470  0.85732794  1
  O  O39  1  0.33285217  0.24889216  0.49638929  1
  O  O40  1  0.65917312  0.91252771  0.99938249  1
  O  O41  1  0.34082688  0.08747229  0.99938249  1
  O  O42  1  0.66714783  0.75110784  0.49638929  1
  O  O43  1  0.49044944  0.35151380  0.14008142  1
  O  O44  1  0.48681537  0.35002530  0.85732794  1
  O  O45  1  0.65319122  0.51348649  0.35770088  1
  O  O46  1  0.65187333  0.51408343  0.63929913  1
  O  O47  1  0.49698103  0.14536633  0.35739295  1
  O  O48  1  0.48820354  0.14092100  0.64147503  1
  O  O49  1  0.77942775  0.72727691  0.00253205  1
  O  O50  1  0.91412848  0.70577135  0.49928307  1
  O  O51  1  0.65250151  0.13738089  0.85821799  1
  O  O52  1  0.65692226  0.13847553  0.14095965  1
  O  O53  1  0.87885487  0.52902311  0.15247925  1
  O  O54  1  0.86248950  0.51557790  0.85632391  1
  O  O55  1  0.87323901  0.35246940  0.34506087  1
  O  O56  1  0.86042330  0.34494780  0.64414634  1
  O  O57  1  0.76043176  0.05912963  0.48868627  1
  O  O58  1  0.91644476  0.18190671  0.99365310  1
