# generated using pymatgen
data_NiPO4
_symmetry_space_group_name_H-M   'P 1'
_cell_length_a   10.12505032
_cell_length_b   6.81807964
_cell_length_c   4.97490290
_cell_angle_alpha   90.00000000
_cell_angle_beta   90.00000000
_cell_angle_gamma   90.00000000
_symmetry_Int_Tables_number   1
_chemical_formula_structural   NiPO4
_chemical_formula_sum   'Ni4 P4 O16'
_cell_volume   343.43445907
_cell_formula_units_Z   4
loop_
 _symmetry_equiv_pos_site_id
 _symmetry_equiv_pos_as_xyz
  1  'x, y, z'
loop_
 _atom_site_type_symbol
 _atom_site_label
 _atom_site_symmetry_multiplicity
 _atom_site_fract_x
 _atom_site_fract_y
 _atom_site_fract_z
 _atom_site_occupancy
  Ni  Ni0  1  0.34303998  0.20882383  0.18320782  1
  Ni  Ni1  1  0.15696002  0.70882383  0.68320782  1
  Ni  Ni2  1  0.65696002  0.70882383  0.81679218  1
  Ni  Ni3  1  0.84303998  0.20882383  0.31679218  1
  P  P4  1  0.90648692  0.46259519  0.81827715  1
  P  P5  1  0.59351308  0.96259519  0.31827715  1
  P  P6  1  0.40648692  0.46259519  0.68172285  1
  P  P7  1  0.09351308  0.96259519  0.18172285  1
  O  O8  1  0.44576829  0.99285923  0.25046244  1
  O  O9  1  0.61200470  0.93143372  0.62443642  1
  O  O10  1  0.11200470  0.93143372  0.87556358  1
  O  O11  1  0.85546521  0.27550345  0.67544810  1
  O  O12  1  0.67009854  0.14890858  0.22937725  1
  O  O13  1  0.14453479  0.77550345  0.32455190  1
  O  O14  1  0.55423171  0.49285923  0.74953756  1
  O  O15  1  0.05423171  0.49285923  0.75046244  1
  O  O16  1  0.82990146  0.64890858  0.72937725  1
  O  O17  1  0.17009854  0.14890858  0.27062275  1
  O  O18  1  0.94576829  0.99285923  0.24953756  1
  O  O19  1  0.64453479  0.77550345  0.17544810  1
  O  O20  1  0.38799530  0.43143372  0.37556358  1
  O  O21  1  0.88799530  0.43143372  0.12443642  1
  O  O22  1  0.32990146  0.64890858  0.77062275  1
  O  O23  1  0.35546521  0.27550345  0.82455190  1
