# generated using pymatgen
data_LiVP2O7
_symmetry_space_group_name_H-M   'P 1'
_cell_length_a   7.18935248
_cell_length_b   8.10965669
_cell_length_c   9.61142713
_cell_angle_alpha   90.00000000
_cell_angle_beta   110.81273606
_cell_angle_gamma   90.00000000
_symmetry_Int_Tables_number   1
_chemical_formula_structural   LiVP2O7
_chemical_formula_sum   'Li4 V4 P8 O28'
_cell_volume   523.81034674
_cell_formula_units_Z   4
loop_
 _symmetry_equiv_pos_site_id
 _symmetry_equiv_pos_as_xyz
  1  'x, y, z'
loop_
 _atom_site_type_symbol
 _atom_site_label
 _atom_site_symmetry_multiplicity
 _atom_site_fract_x
 _atom_site_fract_y
 _atom_site_fract_z
 _atom_site_occupancy
  Li  Li0  1  0.80135621  0.47205036  0.27661636  1
  Li  Li1  1  0.19864379  0.52794964  0.72338364  1
  Li  Li2  1  0.19864379  0.97205036  0.22338364  1
  Li  Li3  1  0.80135621  0.02794964  0.77661636  1
  V  V4  1  0.23913648  0.99494236  0.75111106  1
  V  V5  1  0.23913648  0.50505764  0.25111106  1
  V  V6  1  0.76086352  0.00505764  0.24888894  1
  V  V7  1  0.76086352  0.49494236  0.74888894  1
  P  P8  1  0.83078944  0.78986585  0.55002230  1
  P  P9  1  0.83078944  0.71013415  0.05002230  1
  P  P10  1  0.16921056  0.21013415  0.44997770  1
  P  P11  1  0.58558086  0.23838040  0.95466305  1
  P  P12  1  0.41441914  0.76161960  0.04533695  1
  P  P13  1  0.58558086  0.26161960  0.45466305  1
  P  P14  1  0.16921056  0.28986585  0.94997770  1
  P  P15  1  0.41441914  0.73838040  0.54533695  1
  O  O16  1  0.18812101  0.19526598  0.61287888  1
  O  O17  1  0.81187899  0.80473402  0.38712112  1
  O  O18  1  0.11330188  0.38670979  0.39312683  1
  O  O19  1  0.29510567  0.86103399  0.59542920  1
  O  O20  1  0.61967629  0.83525186  0.56644028  1
  O  O21  1  0.68727920  0.20755930  0.12248119  1
  O  O22  1  0.95663764  0.92135322  0.65792521  1
  O  O23  1  0.46814910  0.91922899  0.14203514  1
  O  O24  1  0.68727920  0.29244070  0.62248119  1
  O  O25  1  0.31272080  0.70755930  0.37751881  1
  O  O26  1  0.11330188  0.11329021  0.89312683  1
  O  O27  1  0.04336236  0.42135322  0.84207479  1
  O  O28  1  0.61967629  0.66474814  0.06644028  1
  O  O29  1  0.95663764  0.57864678  0.15792521  1
  O  O30  1  0.88669812  0.88670979  0.10687317  1
  O  O31  1  0.53185090  0.08077101  0.85796486  1
  O  O32  1  0.18812101  0.30473402  0.11287888  1
  O  O33  1  0.38032371  0.16474814  0.43355972  1
  O  O34  1  0.29510567  0.63896601  0.09542920  1
  O  O35  1  0.88669812  0.61329021  0.60687317  1
  O  O36  1  0.70489433  0.36103399  0.90457080  1
  O  O37  1  0.38032371  0.33525186  0.93355972  1
  O  O38  1  0.31272080  0.79244070  0.87751881  1
  O  O39  1  0.53185090  0.41922899  0.35796486  1
  O  O40  1  0.81187899  0.69526598  0.88712112  1
  O  O41  1  0.70489433  0.13896601  0.40457080  1
  O  O42  1  0.04336236  0.07864678  0.34207479  1
  O  O43  1  0.46814910  0.58077101  0.64203514  1
