# generated using pymatgen
data_NaP(HO2)2
_symmetry_space_group_name_H-M   'P 1'
_cell_length_a   6.74172208
_cell_length_b   9.66801878
_cell_length_c   6.38944247
_cell_angle_alpha   103.17612669
_cell_angle_beta   107.19844667
_cell_angle_gamma   93.59049530
_symmetry_Int_Tables_number   1
_chemical_formula_structural   NaP(HO2)2
_chemical_formula_sum   'Na4 P4 H8 O16'
_cell_volume   383.55979510
_cell_formula_units_Z   4
loop_
 _symmetry_equiv_pos_site_id
 _symmetry_equiv_pos_as_xyz
  1  'x, y, z'
loop_
 _atom_site_type_symbol
 _atom_site_label
 _atom_site_symmetry_multiplicity
 _atom_site_fract_x
 _atom_site_fract_y
 _atom_site_fract_z
 _atom_site_occupancy
  Na  Na0  1  0.17808483  0.87370576  0.57793827  1
  Na  Na1  1  0.82191517  0.12629424  0.42206173  1
  Na  Na2  1  0.44291581  0.59577825  0.75975241  1
  Na  Na3  1  0.55708419  0.40422175  0.24024759  1
  P  P4  1  0.73257803  0.90972854  0.75499024  1
  P  P5  1  0.26742197  0.09027146  0.24500976  1
  P  P6  1  0.10137317  0.78705002  0.01316116  1
  P  P7  1  0.89862683  0.21294998  0.98683884  1
  H  H8  1  0.64756067  0.73077832  0.28554457  1
  H  H9  1  0.35243933  0.26922168  0.71445543  1
  H  H10  1  0.79300780  0.65931287  0.16070452  1
  H  H11  1  0.20699220  0.34068713  0.83929548  1
  H  H12  1  0.22015173  0.57714371  0.30190611  1
  H  H13  1  0.77984827  0.42285629  0.69809389  1
  H  H14  1  0.86539960  0.56864653  0.67022233  1
  H  H15  1  0.13460040  0.43135347  0.32977767  1
  O  O16  1  0.87896860  0.84908771  0.95773929  1
  O  O17  1  0.12103140  0.15091229  0.04226071  1
  O  O18  1  0.84029651  0.92022582  0.58272344  1
  O  O19  1  0.15970349  0.07977418  0.41727656  1
  O  O20  1  0.51831887  0.82854717  0.68178121  1
  O  O21  1  0.48168113  0.17145283  0.31821879  1
  O  O22  1  0.10709627  0.72370481  0.20887119  1
  O  O23  1  0.89290373  0.27629519  0.79112881  1
  O  O24  1  0.12892787  0.69840562  0.80054384  1
  O  O25  1  0.87107213  0.30159438  0.19945616  1
  O  O26  1  0.27474857  0.92991122  0.09597139  1
  O  O27  1  0.72525143  0.07008878  0.90402861  1
  O  O28  1  0.65287533  0.64313588  0.17505368  1
  O  O29  1  0.34712467  0.35686412  0.82494632  1
  O  O30  1  0.73356402  0.50652294  0.64102324  1
  O  O31  1  0.26643598  0.49347706  0.35897676  1
