# generated using pymatgen
data_Al24Tl10Cd7(SiO4)24
_symmetry_space_group_name_H-M   'P 1'
_cell_length_a   17.82653219
_cell_length_b   17.79522074
_cell_length_c   17.78995410
_cell_angle_alpha   60.02699041
_cell_angle_beta   60.05046492
_cell_angle_gamma   60.39030884
_symmetry_Int_Tables_number   1
_chemical_formula_structural   Al24Tl10Cd7(SiO4)24
_chemical_formula_sum   'Al24 Tl10 Cd7 Si24 O96'
_cell_volume   4004.51784137
_cell_formula_units_Z   1
loop_
 _symmetry_equiv_pos_site_id
 _symmetry_equiv_pos_as_xyz
  1  'x, y, z'
loop_
 _atom_site_type_symbol
 _atom_site_label
 _atom_site_symmetry_multiplicity
 _atom_site_fract_x
 _atom_site_fract_y
 _atom_site_fract_z
 _atom_site_occupancy
  Al  Al0  1  0.02789314  0.39798029  0.21075148  1
  Al  Al1  1  0.21028143  0.03285954  0.39526336  1
  Al  Al2  1  0.39757439  0.21320172  0.02907740  1
  Al  Al3  1  0.03224517  0.20987787  0.86274832  1
  Al  Al4  1  0.20990592  0.86291564  0.03023688  1
  Al  Al5  1  0.02954917  0.86374639  0.39704901  1
  Al  Al6  1  0.13826123  0.78704410  0.60498721  1
  Al  Al7  1  0.21317312  0.39808388  0.86028219  1
  Al  Al8  1  0.39778923  0.02908131  0.86200750  1
  Al  Al9  1  0.13844923  0.60492671  0.97099368  1
  Al  Al10  1  0.39756933  0.86137219  0.21002669  1
  Al  Al11  1  0.86275897  0.03463980  0.20920765  1
  Al  Al12  1  0.13898194  0.97067902  0.78520578  1
  Al  Al13  1  0.60529120  0.13958546  0.78414405  1
  Al  Al14  1  0.86184548  0.39415157  0.03483970  1
  Al  Al15  1  0.60649094  0.96882043  0.14018810  1
  Al  Al16  1  0.78513832  0.60504457  0.13982739  1
  Al  Al17  1  0.86309574  0.20909372  0.39314052  1
  Al  Al18  1  0.97083521  0.13894916  0.60475188  1
  Al  Al19  1  0.78683498  0.13946444  0.96901467  1
  Al  Al20  1  0.96980064  0.78610241  0.13918628  1
  Al  Al21  1  0.60580193  0.78380602  0.97069664  1
  Al  Al22  1  0.78563512  0.96891615  0.60497737  1
  Al  Al23  1  0.96893769  0.60571064  0.78625216  1
  Tl  Tl24  1  0.73413916  0.25531835  0.25523642  1
  Tl  Tl25  1  0.25090934  0.74550446  0.75148494  1
  Tl  Tl26  1  0.40800118  0.84268604  0.40848333  1
  Tl  Tl27  1  0.74727337  0.25106623  0.75099834  1
  Tl  Tl28  1  0.83706389  0.40799010  0.40685720  1
  Tl  Tl29  1  0.75110788  0.74876086  0.24953777  1
  Tl  Tl30  1  0.40799378  0.84216762  0.84080689  1
  Tl  Tl31  1  0.83763453  0.40687569  0.84802688  1
  Tl  Tl32  1  0.83580807  0.84833378  0.40849067  1
  Tl  Tl33  1  0.75103113  0.74855371  0.75087693  1
  Cd  Cd34  1  0.99492931  0.99841531  0.99712023  1
  Cd  Cd35  1  0.99684811  0.50809591  0.99756471  1
  Cd  Cd36  1  0.99457661  0.99847984  0.50958523  1
  Cd  Cd37  1  0.22235847  0.22392828  0.21386353  1
  Cd  Cd38  1  0.51169645  0.99817308  0.99509617  1
  Cd  Cd39  1  0.21905376  0.83937133  0.22077330  1
  Cd  Cd40  1  0.22175560  0.22449560  0.83987363  1
  Si  Si41  1  0.03427533  0.21007345  0.39386640  1
  Si  Si42  1  0.20970836  0.39687032  0.03418180  1
  Si  Si43  1  0.39621365  0.03299914  0.20939133  1
  Si  Si44  1  0.03234493  0.86249571  0.21006935  1
  Si  Si45  1  0.21013442  0.03447951  0.86100780  1
  Si  Si46  1  0.03258577  0.39618622  0.86199675  1
  Si  Si47  1  0.14197660  0.60484646  0.78930294  1
  Si  Si48  1  0.20998808  0.86211654  0.39514135  1
  Si  Si49  1  0.39589990  0.86040600  0.03352047  1
  Si  Si50  1  0.14419470  0.96337571  0.60335411  1
  Si  Si51  1  0.39640187  0.20984949  0.85939302  1
  Si  Si52  1  0.86095047  0.20952835  0.03510686  1
  Si  Si53  1  0.14385003  0.79043846  0.96194453  1
  Si  Si54  1  0.60400675  0.78877486  0.14459458  1
  Si  Si55  1  0.86053986  0.03488747  0.39491475  1
  Si  Si56  1  0.60474197  0.14248685  0.96371234  1
  Si  Si57  1  0.79050608  0.14477543  0.60229835  1
  Si  Si58  1  0.85917140  0.39554446  0.20963632  1
  Si  Si59  1  0.96151805  0.60457007  0.14432029  1
  Si  Si60  1  0.78984646  0.96216782  0.14565353  1
  Si  Si61  1  0.96384623  0.14394861  0.78883580  1
  Si  Si62  1  0.60455292  0.96091653  0.78959612  1
  Si  Si63  1  0.78920001  0.60243236  0.96322395  1
  Si  Si64  1  0.96222789  0.78947238  0.60386914  1
  O  O65  1  0.01899890  0.31288741  0.31944828  1
  O  O66  1  0.02647211  0.59288931  0.04063028  1
  O  O67  1  0.04138820  0.02841030  0.59035557  1
  O  O68  1  0.00537757  0.21603691  0.49280471  1
  O  O69  1  0.14697788  0.15216196  0.35331813  1
  O  O70  1  0.14626411  0.35922659  0.14641045  1
  O  O71  1  0.21446683  0.49510984  0.00771802  1
  O  O72  1  0.02895124  0.04051328  0.83965606  1
  O  O73  1  0.04147035  0.84038774  0.02860161  1
  O  O74  1  0.30700648  0.31440798  0.03028004  1
  O  O75  1  0.32019469  0.01826909  0.31245273  1
  O  O76  1  0.00173994  0.78666400  0.21827015  1
  O  O77  1  0.35845927  0.14391311  0.15023430  1
  O  O78  1  0.02114875  0.84886737  0.31193892  1
  O  O79  1  0.02125043  0.31888818  0.84861960  1
  O  O80  1  0.49439676  0.00091293  0.21805631  1
  O  O81  1  0.21715280  0.00381789  0.78579821  1
  O  O82  1  0.59556788  0.03702414  0.02836597  1
  O  O83  1  0.14510052  0.84787283  0.14999233  1
  O  O84  1  0.00155474  0.49431810  0.78659414  1
  O  O85  1  0.15285532  0.14637254  0.84735470  1
  O  O86  1  0.31390322  0.01668334  0.84886107  1
  O  O87  1  0.14389213  0.35981866  0.84736951  1
  O  O88  1  0.02852309  0.84056383  0.58976047  1
  O  O89  1  0.03730434  0.59458234  0.84060314  1
  O  O90  1  0.15015933  0.84753539  0.35719409  1
  O  O91  1  0.31909023  0.84854261  0.01964826  1
  O  O92  1  0.15302341  0.68036251  0.68816190  1
  O  O93  1  0.15707425  0.96723005  0.39972252  1
  O  O94  1  0.15793983  0.40363106  0.97422558  1
  O  O95  1  0.35663368  0.84598213  0.14615670  1
  O  O96  1  0.21798713  0.78697076  0.49358351  1
  O  O97  1  0.35770549  0.14686605  0.84832615  1
  O  O98  1  0.21741079  0.50522480  0.78313829  1
  O  O99  1  0.83895263  0.02894366  0.04168126  1
  O  O100  1  0.49357850  0.78562961  0.00262216  1
  O  O101  1  0.78823176  0.21967667  0.99841352  1
  O  O102  1  0.31254190  0.84887373  0.31860859  1
  O  O103  1  0.31457329  0.30732829  0.84859128  1
  O  O104  1  0.15303056  0.63719807  0.85415421  1
  O  O105  1  0.15330552  0.85571653  0.63799397  1
  O  O106  1  0.22217350  0.98964023  0.50157237  1
  O  O107  1  0.40375488  0.15754932  0.96444507  1
  O  O108  1  0.40170399  0.97553507  0.15545446  1
  O  O109  1  0.15534384  0.98020335  0.67709803  1
  O  O110  1  0.15401703  0.68901765  0.97860855  1
  O  O111  1  0.84323125  0.15222009  0.14518224  1
  O  O112  1  0.49454163  0.21382564  0.78289837  1
  O  O113  1  0.50250594  0.78603285  0.22288804  1
  O  O114  1  0.15345954  0.85422688  0.85415014  1
  O  O115  1  0.85029311  0.31417604  0.01472839  1
  O  O116  1  0.85064332  0.01367813  0.32123319  1
  O  O117  1  0.59330725  0.02681288  0.83868758  1
  O  O118  1  0.59105927  0.83859148  0.04133596  1
  O  O119  1  0.78786507  0.99710338  0.49389081  1
  O  O120  1  0.84333596  0.14465679  0.35936795  1
  O  O121  1  0.84156962  0.35996236  0.15275299  1
  O  O122  1  0.67784381  0.68775493  0.15575981  1
  O  O123  1  0.68860033  0.15607766  0.67664373  1
  O  O124  1  0.22262519  0.78754745  0.98719350  1
  O  O125  1  0.50484955  0.21684426  0.99498389  1
  O  O126  1  0.15628304  0.97705447  0.96659002  1
  O  O127  1  0.78677048  0.49407855  0.22035138  1
  O  O128  1  0.63835296  0.85256223  0.15456171  1
  O  O129  1  0.79000517  0.22210868  0.50050946  1
  O  O130  1  0.63668674  0.15293240  0.85576591  1
  O  O131  1  0.83839937  0.59117889  0.02913021  1
  O  O132  1  0.83859224  0.04104090  0.59075248  1
  O  O133  1  0.84963163  0.32111856  0.31421789  1
  O  O134  1  0.68022868  0.15355978  0.97839755  1
  O  O135  1  0.85451259  0.15320103  0.63762505  1
  O  O136  1  0.96504619  0.40199873  0.15549069  1
  O  O137  1  0.97723043  0.15603318  0.39941669  1
  O  O138  1  0.85386836  0.63961054  0.15351731  1
  O  O139  1  0.68798117  0.97727634  0.15868904  1
  O  O140  1  0.85380401  0.85488748  0.15321583  1
  O  O141  1  0.98605023  0.50379194  0.22299940  1
  O  O142  1  0.85632054  0.15255372  0.85251607  1
  O  O143  1  0.40181901  0.96547473  0.97683004  1
  O  O144  1  0.78960669  0.98628376  0.22358738  1
  O  O145  1  0.50349608  0.98558377  0.78727179  1
  O  O146  1  0.97799979  0.67847092  0.15612575  1
  O  O147  1  0.98067895  0.15463823  0.68720482  1
  O  O148  1  0.63852883  0.85338779  0.85398225  1
  O  O149  1  0.99094344  0.22101423  0.78651778  1
  O  O150  1  0.67799290  0.97743544  0.68725040  1
  O  O151  1  0.68758345  0.67632819  0.97877758  1
  O  O152  1  0.96698217  0.15621045  0.97654044  1
  O  O153  1  0.97680293  0.96762985  0.15617931  1
  O  O154  1  0.78840375  0.50073730  0.98798897  1
  O  O155  1  0.85237298  0.63827224  0.85489027  1
  O  O156  1  0.85502605  0.85303235  0.63921636  1
  O  O157  1  0.98745780  0.78704758  0.50259516  1
  O  O158  1  0.96658618  0.97725233  0.40065595  1
  O  O159  1  0.97575651  0.40072989  0.96781225  1
  O  O160  1  0.97771683  0.68830407  0.67807107  1
