# generated using pymatgen
data_ZnP3H12NO13
_symmetry_space_group_name_H-M   'P 1'
_cell_length_a   8.80266554
_cell_length_b   10.37906067
_cell_length_c   7.46840656
_cell_angle_alpha   104.46049968
_cell_angle_beta   110.80318759
_cell_angle_gamma   71.38827032
_symmetry_Int_Tables_number   1
_chemical_formula_structural   ZnP3H12NO13
_chemical_formula_sum   'Zn2 P6 H24 N2 O26'
_cell_volume   597.29294330
_cell_formula_units_Z   2
loop_
 _symmetry_equiv_pos_site_id
 _symmetry_equiv_pos_as_xyz
  1  'x, y, z'
loop_
 _atom_site_type_symbol
 _atom_site_label
 _atom_site_symmetry_multiplicity
 _atom_site_fract_x
 _atom_site_fract_y
 _atom_site_fract_z
 _atom_site_occupancy
  Zn  Zn0  1  0.00000000  0.00000000  0.00000000  1
  Zn  Zn1  1  0.50000000  0.50000000  0.50000000  1
  P  P2  1  0.22458597  0.93206198  0.70011086  1
  P  P3  1  0.77541403  0.06793802  0.29988914  1
  P  P4  1  0.87855588  0.77500905  0.12648479  1
  P  P5  1  0.12144412  0.22499095  0.87351521  1
  P  P6  1  0.52644349  0.75721644  0.92532770  1
  P  P7  1  0.47355651  0.24278356  0.07467230  1
  H  H8  1  0.33085080  0.93508123  0.18394922  1
  H  H9  1  0.66914920  0.06491877  0.81605078  1
  H  H10  1  0.22843312  0.95669297  0.33076964  1
  H  H11  1  0.77156688  0.04330703  0.66923036  1
  H  H12  1  0.77942474  0.58286845  0.57287514  1
  H  H13  1  0.22057526  0.41713155  0.42712486  1
  H  H14  1  0.15762067  0.56471509  0.36409784  1
  H  H15  1  0.84237933  0.43528491  0.63590216  1
  H  H16  1  0.34180065  0.74589463  0.40498199  1
  H  H17  1  0.65819935  0.25410537  0.59501801  1
  H  H18  1  0.47628748  0.69662843  0.28658733  1
  H  H19  1  0.52371252  0.30337157  0.71341267  1
  H  H20  1  0.86308148  0.72493589  0.47965973  1
  H  H21  1  0.13691852  0.27506411  0.52034027  1
  H  H22  1  0.83665932  0.79956882  0.68122689  1
  H  H23  1  0.16334068  0.20043118  0.31877311  1
  H  H24  1  0.12687643  0.66449429  0.82146817  1
  H  H25  1  0.87312357  0.33550571  0.17853183  1
  H  H26  1  0.24828421  0.60908301  0.02966991  1
  H  H27  1  0.75171579  0.39091699  0.97033009  1
  H  H28  1  0.82345147  0.50488950  0.16646149  1
  H  H29  1  0.17654853  0.49511050  0.83353851  1
  H  H30  1  0.32518461  0.57204996  0.83883377  1
  H  H31  1  0.67481539  0.42795004  0.16116623  1
  N  N32  1  0.22047836  0.58349923  0.88102636  1
  N  N33  1  0.77952164  0.41650077  0.11897364  1
  O  O34  1  0.20949821  0.87754519  0.49011963  1
  O  O35  1  0.79050179  0.12245481  0.50988037  1
  O  O36  1  0.12354871  0.89222386  0.79363823  1
  O  O37  1  0.87645129  0.10777614  0.20636177  1
  O  O38  1  0.81100767  0.90332359  0.27808955  1
  O  O39  1  0.18899233  0.09667641  0.72191045  1
  O  O40  1  0.42142978  0.89445719  0.82570323  1
  O  O41  1  0.57857022  0.10554281  0.17429677  1
  O  O42  1  0.93638129  0.64909197  0.22262145  1
  O  O43  1  0.06361871  0.35090803  0.77737855  1
  O  O44  1  0.99606803  0.80863776  0.05105002  1
  O  O45  1  0.00393197  0.19136224  0.94894998  1
  O  O46  1  0.71139055  0.76638389  0.94378941  1
  O  O47  1  0.28860945  0.23361611  0.05621059  1
  O  O48  1  0.49023595  0.63018418  0.78384605  1
  O  O49  1  0.50976405  0.36981582  0.21615395  1
  O  O50  1  0.50401172  0.77608027  0.12096966  1
  O  O51  1  0.49598828  0.22391973  0.87903034  1
  O  O52  1  0.76594134  0.00250651  0.77423596  1
  O  O53  1  0.23405866  0.99749349  0.22576404  1
  O  O54  1  0.74898023  0.49302477  0.54623624  1
  O  O55  1  0.25101977  0.50697523  0.45376376  1
  O  O56  1  0.41311386  0.66303447  0.34388321  1
  O  O57  1  0.58688614  0.33696553  0.65611679  1
  O  O58  1  0.86493409  0.70878931  0.60455124  1
  O  O59  1  0.13506591  0.29121069  0.39544876  1
