# generated using pymatgen
data_LiFeP2O7
_symmetry_space_group_name_H-M   'P 1'
_cell_length_a   7.19284423
_cell_length_b   8.05507243
_cell_length_c   9.60371705
_cell_angle_alpha   90.00000000
_cell_angle_beta   110.84506230
_cell_angle_gamma   90.00000000
_symmetry_Int_Tables_number   1
_chemical_formula_structural   LiFeP2O7
_chemical_formula_sum   'Li4 Fe4 P8 O28'
_cell_volume   520.00819847
_cell_formula_units_Z   4
loop_
 _symmetry_equiv_pos_site_id
 _symmetry_equiv_pos_as_xyz
  1  'x, y, z'
loop_
 _atom_site_type_symbol
 _atom_site_label
 _atom_site_symmetry_multiplicity
 _atom_site_fract_x
 _atom_site_fract_y
 _atom_site_fract_z
 _atom_site_occupancy
  Li  Li0  1  0.30785693  0.47775171  0.27481748  1
  Li  Li1  1  0.69214307  0.52224829  0.72518252  1
  Li  Li2  1  0.69214307  0.97775171  0.22518252  1
  Li  Li3  1  0.30785693  0.02224829  0.77481748  1
  Fe  Fe4  1  0.25874327  0.00538134  0.25102535  1
  Fe  Fe5  1  0.74125673  0.99461866  0.74897465  1
  Fe  Fe6  1  0.74125673  0.50538134  0.24897465  1
  Fe  Fe7  1  0.25874327  0.49461866  0.75102535  1
  P  P8  1  0.08482827  0.23857909  0.95476850  1
  P  P9  1  0.08482827  0.26142091  0.45476850  1
  P  P10  1  0.66964141  0.21142499  0.45021312  1
  P  P11  1  0.66964141  0.28857501  0.95021312  1
  P  P12  1  0.91517173  0.76142091  0.04523150  1
  P  P13  1  0.91517173  0.73857909  0.54523150  1
  P  P14  1  0.33035859  0.78857501  0.54978688  1
  P  P15  1  0.33035859  0.71142499  0.04978688  1
  O  O16  1  0.68714481  0.29937660  0.11301883  1
  O  O17  1  0.19168021  0.29170653  0.62134844  1
  O  O18  1  0.45690859  0.57822749  0.15504526  1
  O  O19  1  0.20131385  0.13726531  0.39997776  1
  O  O20  1  0.11866574  0.66230585  0.06457880  1
  O  O21  1  0.31285519  0.79937660  0.38698117  1
  O  O22  1  0.02848835  0.41871691  0.35769256  1
  O  O23  1  0.54309141  0.42177251  0.84495474  1
  O  O24  1  0.79868615  0.86273469  0.60002224  1
  O  O25  1  0.02848835  0.08128309  0.85769256  1
  O  O26  1  0.19168021  0.20829347  0.12134844  1
  O  O27  1  0.38327154  0.88878496  0.11043108  1
  O  O28  1  0.97151165  0.58128309  0.64230744  1
  O  O29  1  0.61672846  0.38878496  0.38956892  1
  O  O30  1  0.79868615  0.63726531  0.10002224  1
  O  O31  1  0.20131385  0.36273469  0.89997776  1
  O  O32  1  0.54309141  0.07822749  0.34495474  1
  O  O33  1  0.11866574  0.83769415  0.56457880  1
  O  O34  1  0.31285519  0.70062340  0.88698117  1
  O  O35  1  0.61672846  0.11121504  0.88956892  1
  O  O36  1  0.97151165  0.91871691  0.14230744  1
  O  O37  1  0.80831979  0.79170653  0.87865156  1
  O  O38  1  0.88133426  0.33769415  0.93542120  1
  O  O39  1  0.80831979  0.70829347  0.37865156  1
  O  O40  1  0.38327154  0.61121504  0.61043108  1
  O  O41  1  0.88133426  0.16230585  0.43542120  1
  O  O42  1  0.45690859  0.92177251  0.65504526  1
  O  O43  1  0.68714481  0.20062340  0.61301883  1
