# generated using pymatgen
data_CaCuSiH2O5
_symmetry_space_group_name_H-M   'P 1'
_cell_length_a   5.08733672
_cell_length_b   16.30152777
_cell_length_c   5.39650895
_cell_angle_alpha   90.00000000
_cell_angle_beta   102.91715984
_cell_angle_gamma   90.00000000
_symmetry_Int_Tables_number   1
_chemical_formula_structural   CaCuSiH2O5
_chemical_formula_sum   'Ca4 Cu4 Si4 H8 O20'
_cell_volume   436.21451707
_cell_formula_units_Z   4
loop_
 _symmetry_equiv_pos_site_id
 _symmetry_equiv_pos_as_xyz
  1  'x, y, z'
loop_
 _atom_site_type_symbol
 _atom_site_label
 _atom_site_symmetry_multiplicity
 _atom_site_fract_x
 _atom_site_fract_y
 _atom_site_fract_z
 _atom_site_occupancy
  Ca  Ca0  1  0.34831541  0.82351351  0.65606704  1
  Ca  Ca1  1  0.34831541  0.67648649  0.15606704  1
  Ca  Ca2  1  0.65168459  0.32351351  0.84393296  1
  Ca  Ca3  1  0.65168459  0.17648649  0.34393296  1
  Cu  Cu4  1  0.00000000  0.00000000  0.50000000  1
  Cu  Cu5  1  0.00000000  0.50000000  0.00000000  1
  Cu  Cu6  1  0.50000000  0.50000000  0.50000000  1
  Cu  Cu7  1  0.50000000  0.00000000  0.00000000  1
  Si  Si8  1  0.01892225  0.61021296  0.53124829  1
  Si  Si9  1  0.01892225  0.88978704  0.03124829  1
  Si  Si10  1  0.98107775  0.11021296  0.96875171  1
  Si  Si11  1  0.98107775  0.38978704  0.46875171  1
  H  H12  1  0.16980386  0.24422607  0.57400807  1
  H  H13  1  0.33599621  0.17234056  0.75213468  1
  H  H14  1  0.16980386  0.25577393  0.07400807  1
  H  H15  1  0.33599621  0.32765944  0.25213468  1
  H  H16  1  0.66400379  0.67234056  0.74786532  1
  H  H17  1  0.83019614  0.74422607  0.92599193  1
  H  H18  1  0.66400379  0.82765944  0.24786532  1
  H  H19  1  0.83019614  0.75577393  0.42599193  1
  O  O20  1  0.09946451  0.79518016  0.97577149  1
  O  O21  1  0.15270127  0.58569752  0.82851836  1
  O  O22  1  0.15775215  0.94589617  0.83193451  1
  O  O23  1  0.09946451  0.70481984  0.47577149  1
  O  O24  1  0.15270127  0.91430248  0.32851836  1
  O  O25  1  0.15775215  0.55410383  0.33193451  1
  O  O26  1  0.31340101  0.39721936  0.53533823  1
  O  O27  1  0.35019386  0.21232437  0.61792918  1
  O  O28  1  0.31340101  0.10278064  0.03533823  1
  O  O29  1  0.35019386  0.28767563  0.11792918  1
  O  O30  1  0.64980614  0.71232437  0.88207082  1
  O  O31  1  0.68659899  0.89721936  0.96466177  1
  O  O32  1  0.64980614  0.78767563  0.38207082  1
  O  O33  1  0.68659899  0.60278064  0.46466177  1
  O  O34  1  0.84224785  0.44589617  0.66806549  1
  O  O35  1  0.84729873  0.08569752  0.67148164  1
  O  O36  1  0.90053549  0.29518016  0.52422851  1
  O  O37  1  0.84224785  0.05410383  0.16806549  1
  O  O38  1  0.84729873  0.41430248  0.17148164  1
  O  O39  1  0.90053549  0.20481984  0.02422851  1
