# generated using pymatgen
data_CrPO4
_symmetry_space_group_name_H-M   'P 1'
_cell_length_a   9.57206439
_cell_length_b   5.66458166
_cell_length_c   6.40504305
_cell_angle_alpha   99.31862022
_cell_angle_beta   105.16176925
_cell_angle_gamma   76.61484657
_symmetry_Int_Tables_number   1
_chemical_formula_structural   CrPO4
_chemical_formula_sum   'Cr4 P4 O16'
_cell_volume   324.19203481
_cell_formula_units_Z   4
loop_
 _symmetry_equiv_pos_site_id
 _symmetry_equiv_pos_as_xyz
  1  'x, y, z'
loop_
 _atom_site_type_symbol
 _atom_site_label
 _atom_site_symmetry_multiplicity
 _atom_site_fract_x
 _atom_site_fract_y
 _atom_site_fract_z
 _atom_site_occupancy
  Cr  Cr0  1  0.06076489  0.25789464  0.33194499  1
  Cr  Cr1  1  0.31201114  0.87543351  0.59372221  1
  Cr  Cr2  1  0.68798886  0.12456649  0.40627779  1
  Cr  Cr3  1  0.93923511  0.74210536  0.66805501  1
  O  O4  1  0.03517256  0.37372248  0.65088396  1
  O  O5  1  0.12637384  0.93205277  0.72908194  1
  O  O6  1  0.07078844  0.26966241  0.03358930  1
  O  O7  1  0.12870373  0.88540812  0.28289761  1
  O  O8  1  0.27573963  0.21100388  0.44952779  1
  O  O9  1  0.40977569  0.11403145  0.80642810  1
  O  O10  1  0.34921063  0.56840113  0.72982118  1
  O  O11  1  0.45522295  0.73472482  0.42435107  1
  O  O12  1  0.54477705  0.26527518  0.57564893  1
  O  O13  1  0.65078937  0.43159887  0.27017882  1
  O  O14  1  0.59022431  0.88596855  0.19357190  1
  O  O15  1  0.72426037  0.78899612  0.55047221  1
  O  O16  1  0.87129627  0.11459188  0.71710239  1
  O  O17  1  0.92921156  0.73033759  0.96641070  1
  O  O18  1  0.87362616  0.06794723  0.27091806  1
  O  O19  1  0.96482744  0.62627752  0.34911604  1
  P  P20  1  0.02792280  0.17972059  0.79543997  1
  P  P21  1  0.40144408  0.30214855  0.64836827  1
  P  P22  1  0.59855592  0.69785145  0.35163173  1
  P  P23  1  0.97207720  0.82027941  0.20456003  1
