# generated using pymatgen
data_MgH8(NF2)2
_symmetry_space_group_name_H-M   'P 1'
_cell_length_a   5.88588658
_cell_length_b   5.77036408
_cell_length_c   13.84429988
_cell_angle_alpha   90.00000000
_cell_angle_beta   88.69114044
_cell_angle_gamma   90.00000000
_symmetry_Int_Tables_number   1
_chemical_formula_structural   MgH8(NF2)2
_chemical_formula_sum   'Mg4 H32 N8 F16'
_cell_volume   470.08108405
_cell_formula_units_Z   4
loop_
 _symmetry_equiv_pos_site_id
 _symmetry_equiv_pos_as_xyz
  1  'x, y, z'
loop_
 _atom_site_type_symbol
 _atom_site_label
 _atom_site_symmetry_multiplicity
 _atom_site_fract_x
 _atom_site_fract_y
 _atom_site_fract_z
 _atom_site_occupancy
  Mg  Mg0  1  0.00000000  0.50000000  0.50000000  1
  Mg  Mg1  1  0.00000000  0.00000000  0.00000000  1
  Mg  Mg2  1  0.50000000  0.00000000  0.50000000  1
  Mg  Mg3  1  0.50000000  0.50000000  0.00000000  1
  H  H4  1  0.35357210  0.56368360  0.62961010  1
  H  H5  1  0.64642790  0.06368360  0.87038990  1
  H  H6  1  0.64642790  0.43631640  0.37038990  1
  H  H7  1  0.35357210  0.93631640  0.12961010  1
  H  H8  1  0.49548029  0.31439912  0.64308273  1
  H  H9  1  0.50451971  0.81439912  0.85691727  1
  H  H10  1  0.50451971  0.68560088  0.35691727  1
  H  H11  1  0.49548029  0.18560088  0.14308273  1
  H  H12  1  0.49901522  0.51008318  0.73442631  1
  H  H13  1  0.50098478  0.01008318  0.76557369  1
  H  H14  1  0.50098478  0.48991682  0.26557369  1
  H  H15  1  0.49901522  0.98991682  0.23442631  1
  H  H16  1  0.63537062  0.56762674  0.62549543  1
  H  H17  1  0.36462938  0.06762674  0.87450457  1
  H  H18  1  0.36462938  0.43237326  0.37450457  1
  H  H19  1  0.63537062  0.93237326  0.12549543  1
  H  H20  1  0.98921121  0.98607316  0.73482816  1
  H  H21  1  0.01078879  0.48607316  0.76517184  1
  H  H22  1  0.01078879  0.01392684  0.26517184  1
  H  H23  1  0.98921121  0.51392684  0.23482816  1
  H  H24  1  0.82225172  0.96368595  0.63590674  1
  H  H25  1  0.17774828  0.46368595  0.86409326  1
  H  H26  1  0.17774828  0.03631405  0.36409326  1
  H  H27  1  0.82225172  0.53631405  0.13590674  1
  H  H28  1  0.99669055  0.19150348  0.64654670  1
  H  H29  1  0.00330945  0.69150348  0.85345330  1
  H  H30  1  0.00330945  0.80849652  0.35345330  1
  H  H31  1  0.99669055  0.30849652  0.14654670  1
  H  H32  1  0.10133522  0.92390195  0.62090541  1
  H  H33  1  0.89866478  0.42390195  0.87909459  1
  H  H34  1  0.89866478  0.07609805  0.37909459  1
  H  H35  1  0.10133522  0.57609805  0.12090541  1
  N  N36  1  0.49580461  0.49111098  0.65909711  1
  N  N37  1  0.50419539  0.99111098  0.84090289  1
  N  N38  1  0.50419539  0.50888902  0.34090289  1
  N  N39  1  0.49580461  0.00888902  0.15909711  1
  N  N40  1  0.97905978  0.01344091  0.66022845  1
  N  N41  1  0.02094022  0.51344091  0.83977155  1
  N  N42  1  0.02094022  0.98655909  0.33977155  1
  N  N43  1  0.97905978  0.48655909  0.16022845  1
  F  F44  1  0.00000046  0.47680575  0.64330785  1
  F  F45  1  -0.00000046  0.97680575  0.85669215  1
  F  F46  1  -0.00000046  0.52319425  0.35669215  1
  F  F47  1  0.00000046  0.02319425  0.14330785  1
  F  F48  1  0.49430203  0.02050648  0.64560494  1
  F  F49  1  0.50569797  0.52050648  0.85439506  1
  F  F50  1  0.50569797  0.97949352  0.35439506  1
  F  F51  1  0.49430203  0.47949352  0.14560494  1
  F  F52  1  0.75630346  0.24240009  0.48629806  1
  F  F53  1  0.24369654  0.74240009  0.01370194  1
  F  F54  1  0.24369654  0.75759991  0.51370194  1
  F  F55  1  0.75630346  0.25759991  0.98629806  1
  F  F56  1  0.25855228  0.25724030  0.48936946  1
  F  F57  1  0.74144772  0.75724030  0.01063054  1
  F  F58  1  0.74144772  0.74275970  0.51063054  1
  F  F59  1  0.25855228  0.24275970  0.98936946  1
