# generated using pymatgen
data_CaRe2H6C(NO5)2
_symmetry_space_group_name_H-M   'P 1'
_cell_length_a   7.44432437
_cell_length_b   9.25117325
_cell_length_c   9.31243193
_cell_angle_alpha   111.56349895
_cell_angle_beta   91.29683141
_cell_angle_gamma   104.93102690
_symmetry_Int_Tables_number   1
_chemical_formula_structural   CaRe2H6C(NO5)2
_chemical_formula_sum   'Ca2 Re4 H12 C2 N4 O20'
_cell_volume   571.37725599
_cell_formula_units_Z   2
loop_
 _symmetry_equiv_pos_site_id
 _symmetry_equiv_pos_as_xyz
  1  'x, y, z'
loop_
 _atom_site_type_symbol
 _atom_site_label
 _atom_site_symmetry_multiplicity
 _atom_site_fract_x
 _atom_site_fract_y
 _atom_site_fract_z
 _atom_site_occupancy
  Ca  Ca0  1  0.41893814  0.78389846  0.51618877  1
  Ca  Ca1  1  0.58106186  0.21610154  0.48381123  1
  Re  Re2  1  0.16272359  0.38450608  0.63903513  1
  Re  Re3  1  0.83727641  0.61549392  0.36096487  1
  Re  Re4  1  0.28305078  0.32671242  0.17106119  1
  Re  Re5  1  0.71694922  0.67328758  0.82893881  1
  H  H6  1  0.15698773  0.72012030  0.01442059  1
  H  H7  1  0.84301227  0.27987970  0.98557941  1
  H  H8  1  0.37395233  0.72596023  0.09287934  1
  H  H9  1  0.62604767  0.27403977  0.90712066  1
  H  H10  1  0.98186684  0.88078479  0.17038972  1
  H  H11  1  0.01813316  0.11921521  0.82961028  1
  H  H12  1  0.07488551  0.00868849  0.36307118  1
  H  H13  1  0.92511449  0.99131151  0.63692882  1
  H  H14  1  0.14928630  0.85266600  0.76961371  1
  H  H15  1  0.85071370  0.14733400  0.23038629  1
  H  H16  1  0.34345543  0.98437675  0.83958323  1
  H  H17  1  0.65654457  0.01562325  0.16041677  1
  C  C18  1  0.24578230  0.87865833  0.24426025  1
  C  C19  1  0.75421770  0.12134167  0.75573975  1
  N  N20  1  0.26177582  0.77103918  0.10490331  1
  N  N21  1  0.73822418  0.22896082  0.89509669  1
  N  N22  1  0.08777207  0.92555637  0.25863451  1
  N  N23  1  0.91222793  0.07444363  0.74136549  1
  O  O24  1  0.27190310  0.53195951  0.56821472  1
  O  O25  1  0.72809690  0.46804049  0.43178528  1
  O  O26  1  0.26690552  0.22476972  0.57549238  1
  O  O27  1  0.73309448  0.77523028  0.42450762  1
  O  O28  1  0.92344951  0.30722506  0.56506361  1
  O  O29  1  0.07655049  0.69277494  0.43493639  1
  O  O30  1  0.18746046  0.46962222  0.84233058  1
  O  O31  1  0.81253954  0.53037778  0.15766942  1
  O  O32  1  0.37477471  0.53890440  0.25627843  1
  O  O33  1  0.62522529  0.46109560  0.74372157  1
  O  O34  1  0.37920520  0.23819941  0.27869138  1
  O  O35  1  0.62079480  0.76180059  0.72130862  1
  O  O36  1  0.03658296  0.26931225  0.16350278  1
  O  O37  1  0.96341704  0.73068775  0.83649722  1
  O  O38  1  0.33602196  0.25039156  0.98046454  1
  O  O39  1  0.66397804  0.74960844  0.01953546  1
  O  O40  1  0.26731171  0.90717157  0.74143731  1
  O  O41  1  0.73268829  0.09282843  0.25856269  1
  O  O42  1  0.37615604  0.93459703  0.35905958  1
  O  O43  1  0.62384396  0.06540297  0.64094042  1
