# generated using pymatgen
data_LiFe4P7O24
_symmetry_space_group_name_H-M   'P 1'
_cell_length_a   10.24311864
_cell_length_b   10.31467681
_cell_length_c   10.96477360
_cell_angle_alpha   112.32523428
_cell_angle_beta   109.43929346
_cell_angle_gamma   105.20850092
_symmetry_Int_Tables_number   1
_chemical_formula_structural   LiFe4P7O24
_chemical_formula_sum   'Li2 Fe8 P14 O48'
_cell_volume   904.64780978
_cell_formula_units_Z   2
loop_
 _symmetry_equiv_pos_site_id
 _symmetry_equiv_pos_as_xyz
  1  'x, y, z'
loop_
 _atom_site_type_symbol
 _atom_site_label
 _atom_site_symmetry_multiplicity
 _atom_site_fract_x
 _atom_site_fract_y
 _atom_site_fract_z
 _atom_site_occupancy
  Li  Li0  1  0.88117827  0.57646733  0.32991858  1
  Li  Li1  1  0.11882173  0.42353267  0.67008142  1
  Fe  Fe2  1  0.57740190  0.41562527  0.59219894  1
  Fe  Fe3  1  0.42259810  0.58437473  0.40780106  1
  Fe  Fe4  1  0.37650536  0.22846664  0.88886848  1
  Fe  Fe5  1  0.62349464  0.77153336  0.11113152  1
  Fe  Fe6  1  0.07596063  0.69320607  0.07585939  1
  Fe  Fe7  1  0.75656412  0.15637448  0.25676176  1
  Fe  Fe8  1  0.24343588  0.84362552  0.74323824  1
  Fe  Fe9  1  0.92403937  0.30679393  0.92414061  1
  P  P10  1  0.76212239  0.19048699  0.56740856  1
  P  P11  1  0.93455284  0.67916152  0.73823047  1
  P  P12  1  0.06544716  0.32083848  0.26176953  1
  P  P13  1  0.50223333  0.27788500  0.24272121  1
  P  P14  1  0.29954984  0.50956189  0.04868024  1
  P  P15  1  0.61367251  0.06100503  0.88212431  1
  P  P16  1  0.49776667  0.72211500  0.75727879  1
  P  P17  1  0.38632749  0.93899497  0.11787569  1
  P  P18  1  0.99726458  0.00657057  0.22522426  1
  P  P19  1  0.00273542  0.99342943  0.77477574  1
  P  P20  1  0.70045016  0.49043811  0.95131976  1
  P  P21  1  0.72773010  0.86886175  0.47817515  1
  P  P22  1  0.23787761  0.80951301  0.43259144  1
  P  P23  1  0.27226990  0.13113825  0.52182485  1
  O  O24  1  0.58801252  0.35896226  0.95268838  1
  O  O25  1  0.03430380  0.67634943  0.65934484  1
  O  O26  1  0.32688040  0.69022777  0.70343509  1
  O  O27  1  0.00292553  0.66581736  0.87534161  1
  O  O28  1  0.73452805  0.64512340  0.08385684  1
  O  O29  1  0.93198524  0.85049028  0.79463824  1
  O  O30  1  0.68968030  0.10993789  0.04700727  1
  O  O31  1  0.13746804  0.51173182  0.00967805  1
  O  O32  1  0.48942270  0.39573822  0.37075769  1
  O  O33  1  0.67311960  0.30977223  0.29656491  1
  O  O34  1  0.44319920  0.04105475  0.82316987  1
  O  O35  1  0.77011387  0.55759113  0.62439467  1
  O  O36  1  0.01436288  0.87271327  0.12767062  1
  O  O37  1  0.27731692  0.17897177  0.67148953  1
  O  O38  1  0.62933695  0.23413702  0.53929837  1
  O  O39  1  0.68415031  0.01001500  0.53088267  1
  O  O40  1  0.59505863  0.88890039  0.78160906  1
  O  O41  1  0.55680080  0.95894525  0.17683013  1
  O  O42  1  0.57032492  0.73278080  0.90739343  1
  O  O43  1  0.31584969  0.98998500  0.46911733  1
  O  O44  1  0.72268308  0.82102823  0.32851047  1
  O  O45  1  0.51057730  0.60426178  0.62924231  1
  O  O46  1  0.70766813  0.16059378  0.84123100  1
  O  O47  1  0.36734807  0.52383302  0.20282782  1
  O  O48  1  0.99707447  0.33418264  0.12465839  1
  O  O49  1  0.36202296  0.25927073  0.50618492  1
  O  O50  1  0.37066305  0.76586298  0.46070163  1
  O  O51  1  0.83314151  0.98003889  0.19822352  1
  O  O52  1  0.96569620  0.32365057  0.34065516  1
  O  O53  1  0.89548327  0.28987156  0.72971233  1
  O  O54  1  0.63265193  0.47616698  0.79717218  1
  O  O55  1  0.16461895  0.80946250  0.53423366  1
  O  O56  1  0.10451673  0.71012844  0.27028767  1
  O  O57  1  0.06801476  0.14950972  0.20536176  1
  O  O58  1  0.83538105  0.19053750  0.46576634  1
  O  O59  1  0.90792113  0.93672642  0.59879834  1
  O  O60  1  0.22988613  0.44240887  0.37560533  1
  O  O61  1  0.16685849  0.01996111  0.80177648  1
  O  O62  1  0.31031970  0.89006211  0.95299273  1
  O  O63  1  0.41198748  0.64103774  0.04731162  1
  O  O64  1  0.40494137  0.11109961  0.21839094  1
  O  O65  1  0.42967508  0.26721920  0.09260657  1
  O  O66  1  0.98563712  0.12728673  0.87232938  1
  O  O67  1  0.29233187  0.83940622  0.15876900  1
  O  O68  1  0.09207887  0.06327358  0.40120166  1
  O  O69  1  0.63797704  0.74072927  0.49381508  1
  O  O70  1  0.86253196  0.48826818  0.99032195  1
  O  O71  1  0.26547195  0.35487660  0.91614316  1
