# generated using pymatgen
data_Sr6Co4Bi2O15
_symmetry_space_group_name_H-M   'P 1'
_cell_length_a   5.58319599
_cell_length_b   16.69490425
_cell_length_c   16.69490441
_cell_angle_alpha   90.12962023
_cell_angle_beta   90.00000000
_cell_angle_gamma   90.00000000
_symmetry_Int_Tables_number   1
_chemical_formula_structural   Sr6Co4Bi2O15
_chemical_formula_sum   'Sr24 Co16 Bi8 O60'
_cell_volume   1556.14345800
_cell_formula_units_Z   4
loop_
 _symmetry_equiv_pos_site_id
 _symmetry_equiv_pos_as_xyz
  1  'x, y, z'
loop_
 _atom_site_type_symbol
 _atom_site_label
 _atom_site_symmetry_multiplicity
 _atom_site_fract_x
 _atom_site_fract_y
 _atom_site_fract_z
 _atom_site_occupancy
  Sr  Sr0  1  0.74871091  0.77144097  0.87762257  1
  Sr  Sr1  1  0.25128909  0.12237743  0.22855903  1
  Sr  Sr2  1  0.24813367  0.27776880  0.38809757  1
  Sr  Sr3  1  0.24951333  0.73084933  0.37663228  1
  Sr  Sr4  1  0.74651047  0.22433394  0.88736756  1
  Sr  Sr5  1  0.24813367  0.72223120  0.61190243  1
  Sr  Sr6  1  0.24076145  0.49278268  0.84025245  1
  Sr  Sr7  1  0.25128909  0.87762257  0.77144097  1
  Sr  Sr8  1  0.75186633  0.38809757  0.27776880  1
  Sr  Sr9  1  0.75048667  0.62336772  0.26915067  1
  Sr  Sr10  1  0.25348953  0.88736756  0.22433394  1
  Sr  Sr11  1  0.74871091  0.22855903  0.12237743  1
  Sr  Sr12  1  0.75186633  0.61190243  0.72223120  1
  Sr  Sr13  1  0.25348953  0.11263244  0.77566606  1
  Sr  Sr14  1  0.75171735  0.00380442  0.33998905  1
  Sr  Sr15  1  0.75171735  0.99619558  0.66001095  1
  Sr  Sr16  1  0.74651047  0.77566606  0.11263244  1
  Sr  Sr17  1  0.75048667  0.37663228  0.73084933  1
  Sr  Sr18  1  0.24828265  0.33998905  0.00380442  1
  Sr  Sr19  1  0.24951333  0.26915067  0.62336772  1
  Sr  Sr20  1  0.24828265  0.66001095  0.99619558  1
  Sr  Sr21  1  0.75923855  0.84025245  0.49278268  1
  Sr  Sr22  1  0.75923855  0.15974755  0.50721732  1
  Sr  Sr23  1  0.24076145  0.50721732  0.15974755  1
  Co  Co24  1  0.25281408  0.91799377  0.41318571  1
  Co  Co25  1  0.75291829  0.79736482  0.68481455  1
  Co  Co26  1  0.24708171  0.68481455  0.79736482  1
  Co  Co27  1  0.73973454  0.41492692  0.09045274  1
  Co  Co28  1  0.26026546  0.09045274  0.41492692  1
  Co  Co29  1  0.75092990  0.81524388  0.29783223  1
  Co  Co30  1  0.73973454  0.58507308  0.90954726  1
  Co  Co31  1  0.25281408  0.08200623  0.58681429  1
  Co  Co32  1  0.24907010  0.29783223  0.81524388  1
  Co  Co33  1  0.74718592  0.41318571  0.91799377  1
  Co  Co34  1  0.75092990  0.18475612  0.70216777  1
  Co  Co35  1  0.24708171  0.31518545  0.20263518  1
  Co  Co36  1  0.74718592  0.58681429  0.08200623  1
  Co  Co37  1  0.26026546  0.90954726  0.58507308  1
  Co  Co38  1  0.24907010  0.70216777  0.18475612  1
  Co  Co39  1  0.75291829  0.20263518  0.31518545  1
  Bi  Bi40  1  0.77045046  0.00495178  0.11785366  1
  Bi  Bi41  1  0.73030768  0.61763360  0.49390269  1
  Bi  Bi42  1  0.22954954  0.11785366  0.00495178  1
  Bi  Bi43  1  0.26969232  0.49390269  0.61763360  1
  Bi  Bi44  1  0.77045046  0.99504822  0.88214634  1
  Bi  Bi45  1  0.73030768  0.38236640  0.50609731  1
  Bi  Bi46  1  0.22954954  0.88214634  0.99504822  1
  Bi  Bi47  1  0.26969232  0.50609731  0.38236640  1
  O  O48  1  0.50000000  0.74283797  0.74283797  1
  O  O49  1  0.84886194  0.87064253  0.99376770  1
  O  O50  1  0.22397124  0.59661634  0.29341527  1
  O  O51  1  0.75994798  0.50513776  0.16337728  1
  O  O52  1  0.99350119  0.12921417  0.63966045  1
  O  O53  1  0.48379779  0.36462334  0.86773003  1
  O  O54  1  0.00000000  0.24278304  0.75721696  1
  O  O55  1  0.01084651  0.63300408  0.86383579  1
  O  O56  1  0.77602876  0.70658473  0.40338366  1
  O  O57  1  0.22722827  0.59296014  0.70374182  1
  O  O58  1  0.51620221  0.13226997  0.63537666  1
  O  O59  1  0.27242423  0.20381743  0.90765204  1
  O  O60  1  0.22397124  0.40338366  0.70658473  1
  O  O61  1  0.25543696  0.99641916  0.66340715  1
  O  O62  1  0.24005202  0.16337728  0.50513776  1
  O  O63  1  0.50000000  0.24767829  0.75232171  1
  O  O64  1  0.99350119  0.87078583  0.36033955  1
  O  O65  1  0.00649881  0.63966045  0.12921417  1
  O  O66  1  0.00000000  0.74851785  0.74851785  1
  O  O67  1  0.77602876  0.29341527  0.59661634  1
  O  O68  1  0.51766809  0.86203937  0.62717405  1
  O  O69  1  0.51620221  0.86773003  0.36462334  1
  O  O70  1  0.34949734  0.37062286  0.50651930  1
  O  O71  1  0.77277173  0.70374182  0.59296014  1
  O  O72  1  0.00000000  0.75721696  0.24278304  1
  O  O73  1  0.84886194  0.12935747  0.00623230  1
  O  O74  1  0.34949734  0.62937714  0.49348070  1
  O  O75  1  0.98915349  0.86383579  0.63300408  1
  O  O76  1  0.24005202  0.83662272  0.49486224  1
  O  O77  1  0.25756894  0.00000000  0.50000000  1
  O  O78  1  0.72757577  0.90765204  0.20381743  1
  O  O79  1  0.00000000  0.25148215  0.25148215  1
  O  O80  1  0.75994798  0.49486224  0.83662272  1
  O  O81  1  0.51766809  0.13796063  0.37282595  1
  O  O82  1  0.15113806  0.00623230  0.12935747  1
  O  O83  1  0.27242423  0.79618257  0.09234796  1
  O  O84  1  0.72757577  0.09234796  0.79618257  1
  O  O85  1  0.74456304  0.66340715  0.99641916  1
  O  O86  1  0.48379779  0.63537666  0.13226997  1
  O  O87  1  0.27512921  0.20679217  0.09699716  1
  O  O88  1  0.15113806  0.99376770  0.87064253  1
  O  O89  1  0.77277173  0.29625818  0.40703986  1
  O  O90  1  0.75728256  0.00000000  0.50000000  1
  O  O91  1  0.24271744  0.50000000  0.00000000  1
  O  O92  1  0.72487079  0.90300284  0.79320783  1
  O  O93  1  0.50000000  0.25716203  0.25716203  1
  O  O94  1  0.22722827  0.40703986  0.29625818  1
  O  O95  1  0.48233191  0.37282595  0.13796063  1
  O  O96  1  0.50000000  0.75232171  0.24767829  1
  O  O97  1  0.74456304  0.33659285  0.00358084  1
  O  O98  1  0.00649881  0.36033955  0.87078583  1
  O  O99  1  0.27512921  0.79320783  0.90300284  1
  O  O100  1  0.48233191  0.62717405  0.86203937  1
  O  O101  1  0.98915349  0.13616421  0.36699592  1
  O  O102  1  0.74243106  0.50000000  0.00000000  1
  O  O103  1  0.01084651  0.36699592  0.13616421  1
  O  O104  1  0.25543696  0.00358084  0.33659285  1
  O  O105  1  0.65050266  0.50651930  0.37062286  1
  O  O106  1  0.72487079  0.09699716  0.20679217  1
  O  O107  1  0.65050266  0.49348070  0.62937714  1
