# generated using pymatgen
data_Mn2Mo3O8
_symmetry_space_group_name_H-M   'P 1'
_cell_length_a   5.90422840
_cell_length_b   5.90422830
_cell_length_c   10.44008767
_cell_angle_alpha   90.00000000
_cell_angle_beta   90.00000000
_cell_angle_gamma   120.00000055
_symmetry_Int_Tables_number   1
_chemical_formula_structural   Mn2Mo3O8
_chemical_formula_sum   'Mn4 Mo6 O16'
_cell_volume   315.18175290
_cell_formula_units_Z   2
loop_
 _symmetry_equiv_pos_site_id
 _symmetry_equiv_pos_as_xyz
  1  'x, y, z'
loop_
 _atom_site_type_symbol
 _atom_site_label
 _atom_site_symmetry_multiplicity
 _atom_site_fract_x
 _atom_site_fract_y
 _atom_site_fract_z
 _atom_site_occupancy
  Mn  Mn0  1  0.33333300  0.66666700  0.95000284  1
  Mn  Mn1  1  0.66666700  0.33333300  0.45000284  1
  Mn  Mn2  1  0.33333300  0.66666700  0.51439816  1
  Mn  Mn3  1  0.66666700  0.33333300  0.01439816  1
  Mo  Mo4  1  0.14585900  0.85414100  0.24932310  1
  Mo  Mo5  1  0.29171801  0.14585900  0.74932310  1
  Mo  Mo6  1  0.85414100  0.70828199  0.74932310  1
  Mo  Mo7  1  0.14585900  0.29171801  0.24932310  1
  Mo  Mo8  1  0.70828199  0.85414100  0.24932310  1
  Mo  Mo9  1  0.85414100  0.14585900  0.74932310  1
  O  O10  1  0.00000000  0.00000000  0.38803739  1
  O  O11  1  0.00000000  0.00000000  0.88803739  1
  O  O12  1  0.33333300  0.66666700  0.14779397  1
  O  O13  1  0.66666700  0.33333300  0.64779397  1
  O  O14  1  0.48695215  0.51304785  0.35871360  1
  O  O15  1  0.97390431  0.48695215  0.85871360  1
  O  O16  1  0.51304785  0.02609569  0.85871360  1
  O  O17  1  0.48695215  0.97390431  0.35871360  1
  O  O18  1  0.02609569  0.51304785  0.35871360  1
  O  O19  1  0.51304785  0.48695215  0.85871360  1
  O  O20  1  0.16466874  0.83533126  0.63521918  1
  O  O21  1  0.32933748  0.16466874  0.13521918  1
  O  O22  1  0.83533126  0.67066252  0.13521918  1
  O  O23  1  0.16466874  0.32933748  0.63521918  1
  O  O24  1  0.67066252  0.83533126  0.63521918  1
  O  O25  1  0.83533126  0.16466874  0.13521918  1
