# generated using pymatgen
data_NaPH4O5
_symmetry_space_group_name_H-M   'P 1'
_cell_length_a   7.87855719
_cell_length_b   9.59431671
_cell_length_c   10.89374127
_cell_angle_alpha   113.02341019
_cell_angle_beta   106.12801497
_cell_angle_gamma   88.69553948
_symmetry_Int_Tables_number   1
_chemical_formula_structural   NaPH4O5
_chemical_formula_sum   'Na6 P6 H24 O30'
_cell_volume   724.58982954
_cell_formula_units_Z   6
loop_
 _symmetry_equiv_pos_site_id
 _symmetry_equiv_pos_as_xyz
  1  'x, y, z'
loop_
 _atom_site_type_symbol
 _atom_site_label
 _atom_site_symmetry_multiplicity
 _atom_site_fract_x
 _atom_site_fract_y
 _atom_site_fract_z
 _atom_site_occupancy
  Na  Na0  1  0.62359887  0.90858587  0.07448192  1
  Na  Na1  1  0.37640113  0.09141413  0.92551808  1
  Na  Na2  1  0.65375462  0.25484318  0.79779973  1
  Na  Na3  1  0.34624538  0.74515682  0.20220027  1
  Na  Na4  1  0.64582695  0.06909020  0.42943834  1
  Na  Na5  1  0.35417305  0.93090980  0.57056166  1
  P  P6  1  0.73568994  0.88800004  0.79160134  1
  P  P7  1  0.26431006  0.11199996  0.20839866  1
  P  P8  1  0.70481167  0.74759429  0.49435231  1
  P  P9  1  0.29518833  0.25240571  0.50564769  1
  P  P10  1  0.96624731  0.00821226  0.68084289  1
  P  P11  1  0.03375269  0.99178774  0.31915711  1
  H  H12  1  0.73193249  0.40940517  0.44823195  1
  H  H13  1  0.26806751  0.59059483  0.55176805  1
  H  H14  1  0.87866598  0.30143162  0.46149894  1
  H  H15  1  0.12133402  0.69856838  0.53850106  1
  H  H16  1  0.68088987  0.60225924  0.81569793  1
  H  H17  1  0.31911013  0.39774076  0.18430207  1
  H  H18  1  0.50437770  0.49306200  0.73160786  1
  H  H19  1  0.49562230  0.50693800  0.26839214  1
  H  H20  1  0.69983079  0.64866829  0.13475421  1
  H  H21  1  0.30016921  0.35133171  0.86524579  1
  H  H22  1  0.56893927  0.60053507  0.98529637  1
  H  H23  1  0.43106073  0.39946493  0.01470363  1
  H  H24  1  0.91958254  0.40605659  0.08865467  1
  H  H25  1  0.08041746  0.59394341  0.91134533  1
  H  H26  1  0.99679958  0.24804910  0.03183086  1
  H  H27  1  0.00320042  0.75195090  0.96816914  1
  H  H28  1  0.68862685  0.22254798  0.21412198  1
  H  H29  1  0.31137315  0.77745202  0.78587802  1
  H  H30  1  0.74262927  0.21341196  0.08227681  1
  H  H31  1  0.25737073  0.78658804  0.91772319  1
  H  H32  1  0.86433340  0.58386369  0.29521259  1
  H  H33  1  0.13566660  0.41613631  0.70478741  1
  H  H34  1  0.00052442  0.68010963  0.26802651  1
  H  H35  1  0.99947558  0.31989037  0.73197349  1
  O  O36  1  0.69196326  0.74467241  0.63925170  1
  O  O37  1  0.30803674  0.25532759  0.36074830  1
  O  O38  1  0.89749966  0.84450691  0.54526403  1
  O  O39  1  0.10250034  0.15549309  0.45473597  1
  O  O40  1  0.92280337  0.96595590  0.80083776  1
  O  O41  1  0.07719663  0.03404410  0.19916224  1
  O  O42  1  0.59429825  0.99560863  0.78693892  1
  O  O43  1  0.40570175  0.00439137  0.21306108  1
  O  O44  1  0.77476296  0.81940167  0.89728629  1
  O  O45  1  0.22523704  0.18059833  0.10271371  1
  O  O46  1  0.72444628  0.58637790  0.40348161  1
  O  O47  1  0.27555372  0.41362210  0.59651839  1
  O  O48  1  0.56162468  0.83173786  0.43929045  1
  O  O49  1  0.43837532  0.16826214  0.56070955  1
  O  O50  1  0.85376788  0.13021198  0.65809348  1
  O  O51  1  0.14623212  0.86978802  0.34190652  1
  O  O52  1  0.16194644  0.02876103  0.71182483  1
  O  O53  1  0.83805356  0.97123897  0.28817517  1
  O  O54  1  0.75006635  0.30227797  0.43164671  1
  O  O55  1  0.24993365  0.69772203  0.56835329  1
  O  O56  1  0.61943462  0.50734838  0.80272905  1
  O  O57  1  0.38056538  0.49265162  0.19727095  1
  O  O58  1  0.58319208  0.66832210  0.08370863  1
  O  O59  1  0.41680792  0.33167790  0.91629137  1
  O  O60  1  0.88781197  0.29950066  0.01776900  1
  O  O61  1  0.11218803  0.70049934  0.98223100  1
  O  O62  1  0.65140067  0.17529862  0.11167610  1
  O  O63  1  0.34859933  0.82470138  0.88832390  1
  O  O64  1  0.91720134  0.58685866  0.22354388  1
  O  O65  1  0.08279866  0.41314134  0.77645612  1
