# generated using pymatgen
data_NaH2SO4
_symmetry_space_group_name_H-M   'P 1'
_cell_length_a   6.51440776
_cell_length_b   10.85899841
_cell_length_c   10.81764924
_cell_angle_alpha   90.00000000
_cell_angle_beta   90.00000000
_cell_angle_gamma   90.00000000
_symmetry_Int_Tables_number   1
_chemical_formula_structural   NaH2SO4
_chemical_formula_sum   'Na8 H16 S8 O32'
_cell_volume   765.23989613
_cell_formula_units_Z   8
loop_
 _symmetry_equiv_pos_site_id
 _symmetry_equiv_pos_as_xyz
  1  'x, y, z'
loop_
 _atom_site_type_symbol
 _atom_site_label
 _atom_site_symmetry_multiplicity
 _atom_site_fract_x
 _atom_site_fract_y
 _atom_site_fract_z
 _atom_site_occupancy
  Na  Na0  1  0.56861082  0.06350623  0.65135324  1
  Na  Na1  1  0.06861082  0.43649377  0.84864676  1
  Na  Na2  1  0.43138918  0.56350623  0.34864676  1
  Na  Na3  1  0.93138918  0.93649377  0.15135324  1
  Na  Na4  1  0.43138918  0.93649377  0.34864676  1
  Na  Na5  1  0.93138918  0.56350623  0.15135324  1
  Na  Na6  1  0.56861082  0.43649377  0.65135324  1
  Na  Na7  1  0.06861082  0.06350623  0.84864676  1
  H  H8  1  0.82449892  0.05426465  0.38433017  1
  H  H9  1  0.32449892  0.44573535  0.11566983  1
  H  H10  1  0.17550108  0.55426465  0.61566983  1
  H  H11  1  0.67550108  0.94573535  0.88433017  1
  H  H12  1  0.17550108  0.94573535  0.61566983  1
  H  H13  1  0.67550108  0.55426465  0.88433017  1
  H  H14  1  0.82449892  0.44573535  0.38433017  1
  H  H15  1  0.32449892  0.05426465  0.11566983  1
  H  H16  1  0.72693583  0.12050520  0.26889975  1
  H  H17  1  0.22693583  0.37949480  0.23110025  1
  H  H18  1  0.27306417  0.62050520  0.73110025  1
  H  H19  1  0.77306417  0.87949480  0.76889975  1
  H  H20  1  0.27306417  0.87949480  0.73110025  1
  H  H21  1  0.77306417  0.62050520  0.76889975  1
  H  H22  1  0.72693583  0.37949480  0.26889975  1
  H  H23  1  0.22693583  0.12050520  0.23110025  1
  S  S24  1  0.75108873  0.25000000  0.04249090  1
  S  S25  1  0.25108873  0.25000000  0.45750910  1
  S  S26  1  0.24891127  0.75000000  0.95750910  1
  S  S27  1  0.74891127  0.75000000  0.54249090  1
  S  S28  1  0.49639167  0.25000000  0.90885155  1
  S  S29  1  0.99639167  0.25000000  0.59114845  1
  S  S30  1  0.50360833  0.75000000  0.09114845  1
  S  S31  1  0.00360833  0.75000000  0.40885155  1
  O  O32  1  0.86621189  0.13630411  0.01792363  1
  O  O33  1  0.36621189  0.36369589  0.48207637  1
  O  O34  1  0.13378811  0.63630411  0.98207637  1
  O  O35  1  0.63378811  0.86369589  0.51792363  1
  O  O36  1  0.13378811  0.86369589  0.98207637  1
  O  O37  1  0.63378811  0.63630411  0.51792363  1
  O  O38  1  0.86621189  0.36369589  0.01792363  1
  O  O39  1  0.36621189  0.13630411  0.48207637  1
  O  O40  1  0.64688493  0.25000000  0.16367434  1
  O  O41  1  0.14688493  0.25000000  0.33632566  1
  O  O42  1  0.35311507  0.75000000  0.83632566  1
  O  O43  1  0.85311507  0.75000000  0.66367434  1
  O  O44  1  0.38458035  0.13591989  0.93725994  1
  O  O45  1  0.88458035  0.36408011  0.56274006  1
  O  O46  1  0.61541965  0.63591989  0.06274006  1
  O  O47  1  0.11541965  0.86408011  0.43725994  1
  O  O48  1  0.61541965  0.86408011  0.06274006  1
  O  O49  1  0.11541965  0.63591989  0.43725994  1
  O  O50  1  0.38458035  0.36408011  0.93725994  1
  O  O51  1  0.88458035  0.13591989  0.56274006  1
  O  O52  1  0.59325588  0.25000000  0.78605553  1
  O  O53  1  0.09325588  0.25000000  0.71394447  1
  O  O54  1  0.40674412  0.75000000  0.21394447  1
  O  O55  1  0.90674412  0.75000000  0.28605553  1
  O  O56  1  0.74973995  0.03945772  0.30717383  1
  O  O57  1  0.24973995  0.46054228  0.19282617  1
  O  O58  1  0.25026005  0.53945772  0.69282617  1
  O  O59  1  0.75026005  0.96054228  0.80717383  1
  O  O60  1  0.25026005  0.96054228  0.69282617  1
  O  O61  1  0.75026005  0.53945772  0.80717383  1
  O  O62  1  0.74973995  0.46054228  0.30717383  1
  O  O63  1  0.24973995  0.03945772  0.19282617  1
