# generated using pymatgen
data_LiV4P7O24
_symmetry_space_group_name_H-M   'P 1'
_cell_length_a   10.24086651
_cell_length_b   10.37780240
_cell_length_c   11.00093498
_cell_angle_alpha   112.62189172
_cell_angle_beta   109.28018685
_cell_angle_gamma   104.78212117
_symmetry_Int_Tables_number   1
_chemical_formula_structural   LiV4P7O24
_chemical_formula_sum   'Li2 V8 P14 O48'
_cell_volume   915.46586595
_cell_formula_units_Z   2
loop_
 _symmetry_equiv_pos_site_id
 _symmetry_equiv_pos_as_xyz
  1  'x, y, z'
loop_
 _atom_site_type_symbol
 _atom_site_label
 _atom_site_symmetry_multiplicity
 _atom_site_fract_x
 _atom_site_fract_y
 _atom_site_fract_z
 _atom_site_occupancy
  Li  Li0  1  0.87339278  0.57430143  0.32803075  1
  Li  Li1  1  0.12660722  0.42569857  0.67196925  1
  V  V2  1  0.62556933  0.77658221  0.11379849  1
  V  V3  1  0.07403304  0.68917102  0.07504912  1
  V  V4  1  0.92596696  0.31082898  0.92495088  1
  V  V5  1  0.42640843  0.58186038  0.41122110  1
  V  V6  1  0.57359157  0.41813962  0.58877890  1
  V  V7  1  0.37443067  0.22341779  0.88620151  1
  V  V8  1  0.24459695  0.84906078  0.74393418  1
  V  V9  1  0.75540305  0.15093922  0.25606582  1
  P  P10  1  0.93563907  0.67859952  0.73715750  1
  P  P11  1  0.72813221  0.86926818  0.47935689  1
  P  P12  1  0.99878947  0.00741454  0.22541460  1
  P  P13  1  0.27186779  0.13073182  0.52064311  1
  P  P14  1  0.50239168  0.27501667  0.24203140  1
  P  P15  1  0.38387821  0.93807466  0.11650227  1
  P  P16  1  0.61612179  0.06192534  0.88349773  1
  P  P17  1  0.00121053  0.99258546  0.77458540  1
  P  P18  1  0.75884791  0.18855573  0.56609794  1
  P  P19  1  0.06436093  0.32140048  0.26284250  1
  P  P20  1  0.24115209  0.81144427  0.43390206  1
  P  P21  1  0.49760832  0.72498333  0.75796860  1
  P  P22  1  0.30223413  0.51089501  0.05133486  1
  P  P23  1  0.69776587  0.48910499  0.94866514  1
  O  O24  1  0.50935341  0.60685614  0.62818667  1
  O  O25  1  0.03345355  0.67394022  0.65757816  1
  O  O26  1  0.16594003  0.02048961  0.80113082  1
  O  O27  1  0.49064659  0.39314386  0.37181333  1
  O  O28  1  0.63248879  0.47346407  0.79464110  1
  O  O29  1  0.22922972  0.43953684  0.37310427  1
  O  O30  1  0.70842365  0.15996416  0.84262598  1
  O  O31  1  0.16807028  0.81426786  0.53633521  1
  O  O32  1  0.37252945  0.76786153  0.46199332  1
  O  O33  1  0.29157635  0.84003584  0.15737402  1
  O  O34  1  0.26681643  0.35502756  0.92018626  1
  O  O35  1  0.13875471  0.51220785  0.01039159  1
  O  O36  1  0.58702556  0.36088165  0.95221686  1
  O  O37  1  0.44695755  0.04517087  0.82626384  1
  O  O38  1  0.10769618  0.71140698  0.27219210  1
  O  O39  1  0.69037830  0.10754272  0.04646845  1
  O  O40  1  0.36016115  0.25921997  0.50659162  1
  O  O41  1  0.63983885  0.74078003  0.49340838  1
  O  O42  1  0.43255566  0.26928214  0.09607977  1
  O  O43  1  0.93372173  0.85129248  0.79501913  1
  O  O44  1  0.67285560  0.30618160  0.29653799  1
  O  O45  1  0.77077028  0.56046316  0.62689573  1
  O  O46  1  0.32714440  0.69381840  0.70346201  1
  O  O47  1  0.83192972  0.18573214  0.46366479  1
  O  O48  1  0.96654645  0.32605978  0.34242184  1
  O  O49  1  0.72389948  0.82115418  0.33068045  1
  O  O50  1  0.30962170  0.89245728  0.95353155  1
  O  O51  1  0.62747055  0.23213847  0.53800668  1
  O  O52  1  0.01511156  0.87319035  0.12867526  1
  O  O53  1  0.55304245  0.95482913  0.17373616  1
  O  O54  1  0.31584984  0.99014334  0.46762747  1
  O  O55  1  0.36751121  0.52653593  0.20535890  1
  O  O56  1  0.89230382  0.28859302  0.72780790  1
  O  O57  1  0.41297444  0.63911835  0.04778314  1
  O  O58  1  0.99788501  0.33399804  0.12565203  1
  O  O59  1  0.98488844  0.12680965  0.87132474  1
  O  O60  1  0.27610052  0.17884582  0.66931955  1
  O  O61  1  0.59533511  0.88934923  0.78176167  1
  O  O62  1  0.83405997  0.97951039  0.19886918  1
  O  O63  1  0.00211499  0.66600196  0.87434797  1
  O  O64  1  0.40466489  0.11065077  0.21823833  1
  O  O65  1  0.09242927  0.06403337  0.40062483  1
  O  O66  1  0.86124529  0.48779215  0.98960841  1
  O  O67  1  0.06627827  0.14870752  0.20498087  1
  O  O68  1  0.68415016  0.00985666  0.53237253  1
  O  O69  1  0.73318357  0.64497244  0.07981374  1
  O  O70  1  0.56744434  0.73071786  0.90392023  1
  O  O71  1  0.90757073  0.93596663  0.59937517  1
