# generated using pymatgen
data_Al2Si4O11
_symmetry_space_group_name_H-M   'P 1'
_cell_length_a   5.32912746
_cell_length_b   5.22775152
_cell_length_c   9.72032170
_cell_angle_alpha   85.01722486
_cell_angle_beta   93.99170183
_cell_angle_gamma   59.42554036
_symmetry_Int_Tables_number   1
_chemical_formula_structural   Al2Si4O11
_chemical_formula_sum   'Al2 Si4 O11'
_cell_volume   230.21769535
_cell_formula_units_Z   1
loop_
 _symmetry_equiv_pos_site_id
 _symmetry_equiv_pos_as_xyz
  1  'x, y, z'
loop_
 _atom_site_type_symbol
 _atom_site_label
 _atom_site_symmetry_multiplicity
 _atom_site_fract_x
 _atom_site_fract_y
 _atom_site_fract_z
 _atom_site_occupancy
  Al  Al0  1  0.31309170  0.37334406  0.99995036  1
  Al  Al1  1  0.68690830  0.62665594  0.00004964  1
  Si  Si2  1  0.28502099  0.73889941  0.71200865  1
  Si  Si3  1  0.71497901  0.26110059  0.28799135  1
  Si  Si4  1  0.93398730  0.43938406  0.71165378  1
  Si  Si5  1  0.06601270  0.56061594  0.28834622  1
  O  O6  1  0.50000000  0.00000000  0.00000000  1
  O  O7  1  0.38123552  0.61398930  0.88034093  1
  O  O8  1  0.61876448  0.38601070  0.11965907  1
  O  O9  1  0.95859815  0.45839055  0.88044280  1
  O  O10  1  0.04140185  0.54160945  0.11955720  1
  O  O11  1  0.58771311  0.65357211  0.64642600  1
  O  O12  1  0.41228689  0.34642789  0.35357400  1
  O  O13  1  0.13087838  0.56639406  0.64625351  1
  O  O14  1  0.86912162  0.43360594  0.35374649  1
  O  O15  1  0.05380712  0.09902520  0.67873834  1
  O  O16  1  0.94619288  0.90097480  0.32126166  1
