# generated using pymatgen
data_Fe11O12
_symmetry_space_group_name_H-M   'P 1'
_cell_length_a   6.24220610
_cell_length_b   11.04309993
_cell_length_c   8.09288147
_cell_angle_alpha   38.52294026
_cell_angle_beta   55.18839967
_cell_angle_gamma   45.87787889
_symmetry_Int_Tables_number   1
_chemical_formula_structural   Fe11O12
_chemical_formula_sum   'Fe11 O12'
_cell_volume   248.99530531
_cell_formula_units_Z   1
loop_
 _symmetry_equiv_pos_site_id
 _symmetry_equiv_pos_as_xyz
  1  'x, y, z'
loop_
 _atom_site_type_symbol
 _atom_site_label
 _atom_site_symmetry_multiplicity
 _atom_site_fract_x
 _atom_site_fract_y
 _atom_site_fract_z
 _atom_site_occupancy
  Fe  Fe0  1  0.50000000  0.00000000  0.00000000  1
  Fe  Fe1  1  0.34781477  0.32832159  0.99687561  1
  Fe  Fe2  1  0.40328700  0.16263005  0.51679971  1
  Fe  Fe3  1  0.16008400  0.67737608  0.99896363  1
  Fe  Fe4  1  0.83991600  0.32262392  0.00103637  1
  Fe  Fe5  1  0.24148491  0.51984210  0.47962999  1
  Fe  Fe6  1  0.91557653  0.16366203  0.51195273  1
  Fe  Fe7  1  0.65218523  0.67167841  0.00312439  1
  Fe  Fe8  1  0.08442347  0.83633797  0.48804727  1
  Fe  Fe9  1  0.75851509  0.48015790  0.52037001  1
  Fe  Fe10  1  0.59671300  0.83736995  0.48320029  1
  O  O11  1  0.22277464  0.07397427  0.26174976  1
  O  O12  1  0.06810064  0.40475070  0.25342473  1
  O  O13  1  0.68290249  0.08106579  0.28010653  1
  O  O14  1  0.13901753  0.26284326  0.73028784  1
  O  O15  1  0.54624577  0.40238981  0.25566851  1
  O  O16  1  0.59530719  0.26586911  0.73783432  1
  O  O17  1  0.40469281  0.73413089  0.26216568  1
  O  O18  1  0.45375423  0.59761019  0.74433149  1
  O  O19  1  0.86098247  0.73715674  0.26971216  1
  O  O20  1  0.31709751  0.91893421  0.71989347  1
  O  O21  1  0.93189936  0.59524930  0.74657527  1
  O  O22  1  0.77722536  0.92602573  0.73825024  1
