# generated using pymatgen
data_NaZn(H3O2)3
_symmetry_space_group_name_H-M   'P 1'
_cell_length_a   3.46694391
_cell_length_b   8.20129278
_cell_length_c   11.18130932
_cell_angle_alpha   94.39771168
_cell_angle_beta   98.25184784
_cell_angle_gamma   92.22320055
_symmetry_Int_Tables_number   1
_chemical_formula_structural   NaZn(H3O2)3
_chemical_formula_sum   'Na2 Zn2 H18 O12'
_cell_volume   313.30527138
_cell_formula_units_Z   2
loop_
 _symmetry_equiv_pos_site_id
 _symmetry_equiv_pos_as_xyz
  1  'x, y, z'
loop_
 _atom_site_type_symbol
 _atom_site_label
 _atom_site_symmetry_multiplicity
 _atom_site_fract_x
 _atom_site_fract_y
 _atom_site_fract_z
 _atom_site_occupancy
  Na  Na0  1  0.29456520  0.77729154  0.71583286  1
  Na  Na1  1  0.70543480  0.22270846  0.28416714  1
  Zn  Zn2  1  0.73128735  0.40959596  0.82241234  1
  Zn  Zn3  1  0.26871265  0.59040404  0.17758766  1
  H  H4  1  0.28125369  0.60586087  0.92185049  1
  H  H5  1  0.71874631  0.39413913  0.07814951  1
  H  H6  1  0.48625832  0.19852258  0.94023714  1
  H  H7  1  0.51374168  0.80147742  0.05976286  1
  H  H8  1  0.91235867  0.30604251  0.62460548  1
  H  H9  1  0.08764133  0.69395749  0.37539452  1
  H  H10  1  0.70229781  0.54395168  0.60485369  1
  H  H11  1  0.29770219  0.45604832  0.39514631  1
  H  H12  1  0.60543775  0.67410058  0.50959837  1
  H  H13  1  0.39456225  0.32589942  0.49040163  1
  H  H14  1  0.82520819  0.01742981  0.87473549  1
  H  H15  1  0.17479181  0.98257019  0.12526451  1
  H  H16  1  0.98266172  0.85457336  0.92769677  1
  H  H17  1  0.01733828  0.14542664  0.07230323  1
  H  H18  1  0.54878757  0.87052658  0.38516528  1
  H  H19  1  0.45121243  0.12947342  0.61483472  1
  H  H20  1  0.88002737  0.93904261  0.32255817  1
  H  H21  1  0.11997263  0.06095739  0.67744183  1
  O  O22  1  0.25336787  0.53411951  0.84589205  1
  O  O23  1  0.74663213  0.46588049  0.15410795  1
  O  O24  1  0.75751837  0.23094543  0.93529065  1
  O  O25  1  0.24248163  0.76905457  0.06470935  1
  O  O26  1  0.66028434  0.34000669  0.64435677  1
  O  O27  1  0.33971566  0.65999331  0.35564323  1
  O  O28  1  0.72900397  0.66304635  0.59382115  1
  O  O29  1  0.27099603  0.33695365  0.40617885  1
  O  O30  1  0.86030325  0.89974666  0.85227566  1
  O  O31  1  0.13969675  0.10025334  0.14772434  1
  O  O32  1  0.68765850  0.97435851  0.37405788  1
  O  O33  1  0.31234150  0.02564149  0.62594212  1
