# generated using pymatgen
data_Fe23O25
_symmetry_space_group_name_H-M   'P 1'
_cell_length_a   15.46298625
_cell_length_b   21.53389827
_cell_length_c   15.46102626
_cell_angle_alpha   16.93723516
_cell_angle_beta   25.60297016
_cell_angle_gamma   38.12743274
_symmetry_Int_Tables_number   1
_chemical_formula_structural   Fe23O25
_chemical_formula_sum   'Fe23 O25'
_cell_volume   516.46862796
_cell_formula_units_Z   1
loop_
 _symmetry_equiv_pos_site_id
 _symmetry_equiv_pos_as_xyz
  1  'x, y, z'
loop_
 _atom_site_type_symbol
 _atom_site_label
 _atom_site_symmetry_multiplicity
 _atom_site_fract_x
 _atom_site_fract_y
 _atom_site_fract_z
 _atom_site_occupancy
  Fe  Fe0  1  0.00122390  0.01250579  0.98770562  1
  Fe  Fe1  1  0.08264911  0.20334893  0.99225795  1
  Fe  Fe2  1  0.29740458  0.20073753  0.98199984  1
  Fe  Fe3  1  0.14412765  0.38397331  0.03470024  1
  Fe  Fe4  1  0.47877610  0.18749421  0.01229438  1
  Fe  Fe5  1  0.06677000  0.62171529  0.95011641  1
  Fe  Fe6  1  0.36999792  0.41246252  0.97468125  1
  Fe  Fe7  1  0.68158457  0.20048558  0.00327169  1
  Fe  Fe8  1  0.24000000  0.60000000  0.00000000  1
  Fe  Fe9  1  0.56679130  0.38696013  0.01200549  1
  Fe  Fe10  1  0.11000208  0.78753748  0.02531875  1
  Fe  Fe11  1  0.41323000  0.57828471  0.04988359  1
  Fe  Fe12  1  0.77030492  0.39929645  0.98907966  1
  Fe  Fe13  1  0.33587235  0.81602669  0.96529976  1
  Fe  Fe14  1  0.64760345  0.61998332  0.96419362  1
  Fe  Fe15  1  0.18259542  -0.00073753  0.01800016  1
  Fe  Fe16  1  0.95452166  0.39492512  0.01570037  1
  Fe  Fe17  1  0.52547834  0.80507488  0.98429963  1
  Fe  Fe18  1  0.83239655  0.58001668  0.03580638  1
  Fe  Fe19  1  0.39735089  0.99665107  0.00774205  1
  Fe  Fe20  1  0.70969508  0.80070355  0.01092034  1
  Fe  Fe21  1  0.91320870  0.81303987  0.98799451  1
  Fe  Fe22  1  0.79841543  0.99951442  0.99672831  1
  O  O23  1  0.15043350  0.10851431  0.48210835  1
  O  O24  1  0.01611686  0.31129947  0.48197888  1
  O  O25  1  0.32956650  0.09148569  0.51789165  1
  O  O26  1  0.23162832  0.30755928  0.47945594  1
  O  O27  1  0.52784015  0.11181527  0.50414137  1
  O  O28  1  0.10032323  0.50300221  0.49886982  1
  O  O29  1  0.43482960  0.31796964  0.45652954  1
  O  O30  1  0.74000000  0.10000000  0.50000000  1
  O  O31  1  0.28793828  0.49131236  0.52136193  1
  O  O32  1  0.61730469  0.31814566  0.46713648  1
  O  O33  1  0.19206172  0.70868764  0.47863807  1
  O  O34  1  0.04517040  0.88203036  0.54347046  1
  O  O35  1  0.95215985  0.08818473  0.49585863  1
  O  O36  1  0.50089271  0.51238307  0.48886947  1
  O  O37  1  0.85061737  0.33769200  0.43017813  1
  O  O38  1  0.37967677  0.69699779  0.50113018  1
  O  O39  1  0.71023962  0.51495953  0.46120782  1
  O  O40  1  0.24837168  0.89244072  0.52054406  1
  O  O41  1  0.57014234  0.67359265  0.55341580  1
  O  O42  1  0.90985766  0.52640735  0.44658420  1
  O  O43  1  0.46388314  0.88870053  0.51802112  1
  O  O44  1  0.76976038  0.68504047  0.53879218  1
  O  O45  1  0.62938263  0.86230800  0.56982187  1
  O  O46  1  0.97910729  0.68761693  0.51113053  1
  O  O47  1  0.86269531  0.88185434  0.53286352  1
