# generated using pymatgen
data_CuH16(IO8)2
_symmetry_space_group_name_H-M   'P 1'
_cell_length_a   10.63753707
_cell_length_b   5.60239959
_cell_length_c   11.73796425
_cell_angle_alpha   90.00000000
_cell_angle_beta   111.71972466
_cell_angle_gamma   90.00000000
_symmetry_Int_Tables_number   1
_chemical_formula_structural   CuH16(IO8)2
_chemical_formula_sum   'Cu2 H32 I4 O32'
_cell_volume   649.86943045
_cell_formula_units_Z   2
loop_
 _symmetry_equiv_pos_site_id
 _symmetry_equiv_pos_as_xyz
  1  'x, y, z'
loop_
 _atom_site_type_symbol
 _atom_site_label
 _atom_site_symmetry_multiplicity
 _atom_site_fract_x
 _atom_site_fract_y
 _atom_site_fract_z
 _atom_site_occupancy
  Cu  Cu0  1  0.00000000  0.50000000  0.50000000  1
  Cu  Cu1  1  0.00000000  0.00000000  0.00000000  1
  H  H2  1  0.48613767  0.15738129  0.17677350  1
  H  H3  1  0.51386233  0.65738129  0.32322650  1
  H  H4  1  0.51386233  0.84261871  0.82322650  1
  H  H5  1  0.48613767  0.34261871  0.67677350  1
  H  H6  1  0.63261234  0.91657119  0.10247490  1
  H  H7  1  0.36738766  0.41657119  0.39752510  1
  H  H8  1  0.36738766  0.08342881  0.89752510  1
  H  H9  1  0.63261234  0.58342881  0.60247490  1
  H  H10  1  0.75246517  0.39506226  0.39266315  1
  H  H11  1  0.24753483  0.89506226  0.10733685  1
  H  H12  1  0.24753483  0.60493774  0.60733685  1
  H  H13  1  0.75246517  0.10493774  0.89266315  1
  H  H14  1  0.80733027  0.25724057  0.52478056  1
  H  H15  1  0.19266973  0.75724057  0.97521944  1
  H  H16  1  0.19266973  0.74275943  0.47521944  1
  H  H17  1  0.80733027  0.24275943  0.02478056  1
  H  H18  1  0.79385211  0.79088486  0.33848005  1
  H  H19  1  0.20614789  0.29088486  0.16151995  1
  H  H20  1  0.20614789  0.20911514  0.66151995  1
  H  H21  1  0.79385211  0.70911514  0.83848005  1
  H  H22  1  0.89708178  0.99303154  0.40048185  1
  H  H23  1  0.10291822  0.49303154  0.09951815  1
  H  H24  1  0.10291822  0.00696846  0.59951815  1
  H  H25  1  0.89708178  0.50696846  0.90048185  1
  H  H26  1  0.94855324  0.36853280  0.27441418  1
  H  H27  1  0.05144676  0.86853280  0.22558582  1
  H  H28  1  0.05144676  0.63146720  0.72558582  1
  H  H29  1  0.94855324  0.13146720  0.77441418  1
  H  H30  1  0.10917609  0.34379505  0.34383936  1
  H  H31  1  0.89082391  0.84379505  0.15616064  1
  H  H32  1  0.89082391  0.65620495  0.65616064  1
  H  H33  1  0.10917609  0.15620495  0.84383936  1
  I  I34  1  0.62551166  0.47934314  0.12332544  1
  I  I35  1  0.37448834  0.97934314  0.37667456  1
  I  I36  1  0.37448834  0.52065686  0.87667456  1
  I  I37  1  0.62551166  0.02065686  0.62332544  1
  O  O38  1  0.56252200  0.16155547  0.14535310  1
  O  O39  1  0.43747800  0.66155547  0.35464690  1
  O  O40  1  0.43747800  0.83844453  0.85464690  1
  O  O41  1  0.56252200  0.33844453  0.64535310  1
  O  O42  1  0.68864053  0.78519810  0.08681065  1
  O  O43  1  0.31135947  0.28519810  0.41318935  1
  O  O44  1  0.31135947  0.21480190  0.91318935  1
  O  O45  1  0.68864053  0.71480190  0.58681065  1
  O  O46  1  0.64411226  0.57420044  0.27914540  1
  O  O47  1  0.35588774  0.07420044  0.22085460  1
  O  O48  1  0.35588774  0.42579956  0.72085460  1
  O  O49  1  0.64411226  0.92579956  0.77914540  1
  O  O50  1  0.78904945  0.34963643  0.14436637  1
  O  O51  1  0.21095055  0.84963643  0.35563363  1
  O  O52  1  0.21095055  0.65036357  0.85563363  1
  O  O53  1  0.78904945  0.15036357  0.64436637  1
  O  O54  1  0.43628443  0.59960715  0.05786890  1
  O  O55  1  0.56371557  0.09960715  0.44213110  1
  O  O56  1  0.56371557  0.40039285  0.94213110  1
  O  O57  1  0.43628443  0.90039285  0.55786890  1
  O  O58  1  0.83163407  0.30956075  0.45276047  1
  O  O59  1  0.16836593  0.80956075  0.04723953  1
  O  O60  1  0.16836593  0.69043925  0.54723953  1
  O  O61  1  0.83163407  0.19043925  0.95276047  1
  O  O62  1  0.89092284  0.82807941  0.37047918  1
  O  O63  1  0.10907716  0.32807941  0.12952082  1
  O  O64  1  0.10907716  0.17192059  0.62952082  1
  O  O65  1  0.89092284  0.67192059  0.87047918  1
  O  O66  1  0.02194388  0.33575336  0.35482531  1
  O  O67  1  0.97805612  0.83575336  0.14517469  1
  O  O68  1  0.97805612  0.66424664  0.64517469  1
  O  O69  1  0.02194388  0.16424664  0.85482531  1
