# generated using pymatgen
data_Ca6La14Mg7Ti13O60
_symmetry_space_group_name_H-M   'P 1'
_cell_length_a   5.56732566
_cell_length_b   5.60201888
_cell_length_c   39.41593421
_cell_angle_alpha   90.12871049
_cell_angle_beta   90.02359602
_cell_angle_gamma   89.61422345
_symmetry_Int_Tables_number   1
_chemical_formula_structural   Ca6La14Mg7Ti13O60
_chemical_formula_sum   'Ca6 La14 Mg7 Ti13 O60'
_cell_volume   1229.28347717
_cell_formula_units_Z   1
loop_
 _symmetry_equiv_pos_site_id
 _symmetry_equiv_pos_as_xyz
  1  'x, y, z'
loop_
 _atom_site_type_symbol
 _atom_site_label
 _atom_site_symmetry_multiplicity
 _atom_site_fract_x
 _atom_site_fract_y
 _atom_site_fract_z
 _atom_site_occupancy
  Ca  Ca0  1  0.48629047  0.45903818  0.35152450  1
  Ca  Ca1  1  0.48753602  0.46082906  0.15213852  1
  Ca  Ca2  1  0.99181801  0.03565475  0.24949306  1
  Ca  Ca3  1  0.99176516  0.03401982  0.44916782  1
  Ca  Ca4  1  0.00037781  0.03056032  0.65387593  1
  Ca  Ca5  1  0.00043626  0.03122295  0.84728344  1
  La  La6  1  0.00566269  0.97359765  0.15349644  1
  La  La7  1  0.00586701  0.97385346  0.35263372  1
  La  La8  1  0.00365646  0.97504808  0.55458481  1
  La  La9  1  0.99972882  0.97502031  0.75064531  1
  La  La10  1  0.99681010  0.97798656  0.94487492  1
  La  La11  1  0.49159472  0.46979355  0.55312722  1
  La  La12  1  0.48434853  0.45599802  0.75059222  1
  La  La13  1  0.48888876  0.45891576  0.94696179  1
  La  La14  1  0.50877843  0.52924621  0.04764767  1
  La  La15  1  0.50975823  0.53631188  0.24809155  1
  La  La16  1  0.50981235  0.55240033  0.65283911  1
  La  La17  1  0.50863729  0.53477287  0.44723505  1
  La  La18  1  0.51121627  0.55355838  0.84826084  1
  La  La19  1  0.99630335  0.02558711  0.04674990  1
  Mg  Mg20  1  0.50021432  0.99941492  0.99869038  1
  Mg  Mg21  1  0.50024338  0.00173792  0.20067452  1
  Mg  Mg22  1  0.49849266  0.00207808  0.60233714  1
  Mg  Mg23  1  0.49964469  0.00119753  0.89813782  1
  Mg  Mg24  1  0.50057606  0.00130329  0.39985738  1
  Mg  Mg25  1  0.49970000  0.00313583  0.69970560  1
  Mg  Mg26  1  0.49993706  0.00273889  0.80078371  1
  Ti  Ti27  1  -0.00046848  0.50224475  0.99744533  1
  Ti  Ti28  1  0.00348311  0.50210365  0.10103544  1
  Ti  Ti29  1  0.00082096  0.49897164  0.20059799  1
  Ti  Ti30  1  0.00381990  0.50410844  0.30080106  1
  Ti  Ti31  1  0.00093504  0.49885884  0.40025740  1
  Ti  Ti32  1  0.00301171  0.50118039  0.50026258  1
  Ti  Ti33  1  0.00011320  0.49738538  0.60357490  1
  Ti  Ti34  1  0.99585477  0.49904172  0.70118768  1
  Ti  Ti35  1  0.99666395  0.49938050  0.80009958  1
  Ti  Ti36  1  0.00100214  0.49897578  0.89616038  1
  Ti  Ti37  1  0.50308754  0.00332837  0.10106062  1
  Ti  Ti38  1  0.50415346  0.00708242  0.29961880  1
  Ti  Ti39  1  0.50301591  0.00287487  0.49884708  1
  O  O40  1  0.07985252  0.48754700  0.05294252  1
  O  O41  1  0.08243234  0.47893503  0.25079206  1
  O  O42  1  0.08137139  0.47879280  0.44991460  1
  O  O43  1  0.08410093  0.47425110  0.64889796  1
  O  O44  1  0.08750131  0.47382122  0.85031526  1
  O  O45  1  0.21551392  0.22887575  0.19126632  1
  O  O46  1  0.22644304  0.22637729  0.10929872  1
  O  O47  1  0.22506929  0.22659903  0.30889133  1
  O  O48  1  0.21489648  0.22872045  0.39068178  1
  O  O49  1  0.22756160  0.23037863  0.50813680  1
  O  O50  1  0.22155833  0.23570409  0.58868771  1
  O  O51  1  0.21147526  0.22983593  0.70908904  1
  O  O52  1  0.21245977  0.23040135  0.79064370  1
  O  O53  1  0.21829705  0.23513208  0.91044089  1
  O  O54  1  0.21248296  0.23033488  0.99373477  1
  O  O55  1  0.27267614  0.70915266  0.19099387  1
  O  O56  1  0.27224214  0.71730561  0.30930178  1
  O  O57  1  0.27217457  0.70863228  0.39051399  1
  O  O58  1  0.27028780  0.72415859  0.10980988  1
  O  O59  1  0.26518124  0.71429411  0.58879976  1
  O  O60  1  0.26977113  0.72164133  0.50800031  1
  O  O61  1  0.26813045  0.70990012  0.91076115  1
  O  O62  1  0.27041866  0.70654335  0.70931056  1
  O  O63  1  0.26936781  0.70757503  0.79058421  1
  O  O64  1  0.26444478  0.71678786  0.99410361  1
  O  O65  1  0.42227245  0.98480551  0.05295790  1
  O  O66  1  0.41055656  0.97592622  0.25261300  1
  O  O67  1  0.40178543  0.95754013  0.65013669  1
  O  O68  1  0.41013816  0.97738509  0.45184480  1
  O  O69  1  0.40185717  0.95818279  0.84994562  1
  O  O70  1  0.58220588  0.02014994  0.34729986  1
  O  O71  1  0.58178452  0.02083455  0.14818728  1
  O  O72  1  0.57499840  0.01149090  0.54692697  1
  O  O73  1  0.59215263  0.02792438  0.75010603  1
  O  O74  1  0.58895185  0.02809838  0.94979446  1
  O  O75  1  0.73519749  0.28255222  0.01093348  1
  O  O76  1  0.73129608  0.27040760  0.09131290  1
  O  O77  1  0.73248484  0.28657609  0.20845925  1
  O  O78  1  0.72634530  0.27393015  0.29026876  1
  O  O79  1  0.73229243  0.28739168  0.60543532  1
  O  O80  1  0.73206794  0.28627884  0.40792102  1
  O  O81  1  0.72511942  0.27444352  0.49025364  1
  O  O82  1  0.73313224  0.29112252  0.89262071  1
  O  O83  1  0.73135239  0.29109109  0.69042155  1
  O  O84  1  0.73173613  0.29152394  0.80922129  1
  O  O85  1  0.77766070  0.76482131  0.01096674  1
  O  O86  1  0.77467899  0.77353030  0.09173768  1
  O  O87  1  0.79371893  0.77535206  0.20918634  1
  O  O88  1  0.77878654  0.77522691  0.29046014  1
  O  O89  1  0.79328860  0.77491105  0.40867621  1
  O  O90  1  0.77178943  0.77251613  0.49002260  1
  O  O91  1  0.79275538  0.77255283  0.60629994  1
  O  O92  1  0.79277861  0.77104974  0.69021769  1
  O  O93  1  0.79626483  0.77383924  0.89193912  1
  O  O94  1  0.79353657  0.77181145  0.80949157  1
  O  O95  1  0.91004484  0.51607364  0.14934538  1
  O  O96  1  0.90912779  0.51582245  0.34835353  1
  O  O97  1  0.91973758  0.51201414  0.54675872  1
  O  O98  1  0.91198717  0.51575019  0.74987280  1
  O  O99  1  0.91681772  0.51481700  0.95173924  1
