# generated using pymatgen
data_TeP4H26(NO5)4
_symmetry_space_group_name_H-M   'P 1'
_cell_length_a   7.88843747
_cell_length_b   22.32792809
_cell_length_c   6.88645533
_cell_angle_alpha   90.00000000
_cell_angle_beta   115.31226667
_cell_angle_gamma   90.00000000
_symmetry_Int_Tables_number   1
_chemical_formula_structural   TeP4H26(NO5)4
_chemical_formula_sum   'Te2 P8 H52 N8 O40'
_cell_volume   1096.47635379
_cell_formula_units_Z   2
loop_
 _symmetry_equiv_pos_site_id
 _symmetry_equiv_pos_as_xyz
  1  'x, y, z'
loop_
 _atom_site_type_symbol
 _atom_site_label
 _atom_site_symmetry_multiplicity
 _atom_site_fract_x
 _atom_site_fract_y
 _atom_site_fract_z
 _atom_site_occupancy
  Te  Te0  1  0.50000000  0.50000000  0.50000000  1
  Te  Te1  1  -0.00000000  0.00000000  -0.00000000  1
  P  P2  1  0.98285933  0.28655038  0.49380378  1
  P  P3  1  0.48285933  0.21344962  0.99380378  1
  P  P4  1  0.01714067  0.71344962  0.50619622  1
  P  P5  1  0.51714067  0.78655038  0.00619622  1
  P  P6  1  0.86325350  0.37861314  0.14724462  1
  P  P7  1  0.36325350  0.12138686  0.64724462  1
  P  P8  1  0.13674650  0.62138686  0.85275538  1
  P  P9  1  0.63674650  0.87861314  0.35275538  1
  H  H10  1  0.46347745  0.29176304  0.60739637  1
  H  H11  1  0.96347745  0.20823596  0.10739637  1
  H  H12  1  0.53652255  0.70823596  0.39260363  1
  H  H13  1  0.03652255  0.79176404  0.89260363  1
  H  H14  1  0.51771234  0.63272641  0.42417599  1
  H  H15  1  0.01771234  0.86727359  0.92417599  1
  H  H16  1  0.48228766  0.36727359  0.57582401  1
  H  H17  1  0.98228766  0.13272641  0.07582401  1
  H  H18  1  0.32617404  0.32670997  0.37180310  1
  H  H19  1  0.82617404  0.17329003  0.87180310  1
  H  H20  1  0.67382596  0.67329003  0.62819690  1
  H  H21  1  0.17382596  0.82670997  0.12819690  1
  H  H22  1  0.94404977  0.81665844  0.05648002  1
  H  H23  1  0.44404977  0.68334156  0.55648002  1
  H  H24  1  0.05595023  0.18334156  0.94351998  1
  H  H25  1  0.55595023  0.31665844  0.44351998  1
  H  H26  1  0.01947076  0.55157990  0.26918155  1
  H  H27  1  0.51947076  0.94842010  0.76918155  1
  H  H28  1  0.98052924  0.44842010  0.73081845  1
  H  H29  1  0.48052924  0.05157990  0.23081845  1
  H  H30  1  0.60654026  0.07850182  0.48091693  1
  H  H31  1  0.10654026  0.42149818  0.98091693  1
  H  H32  1  0.39345974  0.92149818  0.51908307  1
  H  H33  1  0.89345974  0.57850182  0.01908307  1
  H  H34  1  0.78388464  0.54429268  0.15467453  1
  H  H35  1  0.28388464  0.95570732  0.65467453  1
  H  H36  1  0.21611536  0.45570732  0.84532547  1
  H  H37  1  0.71611536  0.04429268  0.34532547  1
  H  H38  1  0.88115492  0.61400300  0.22965054  1
  H  H39  1  0.38115492  0.88599700  0.72965054  1
  H  H40  1  0.11884508  0.38599700  0.77034946  1
  H  H41  1  0.61884508  0.11400300  0.27034946  1
  H  H42  1  0.16939132  0.46413405  0.32203850  1
  H  H43  1  0.66939132  0.03586595  0.82203850  1
  H  H44  1  0.83060868  0.53586595  0.67796150  1
  H  H45  1  0.33060868  0.96413405  0.17796150  1
  H  H46  1  0.41721455  0.56370421  0.16146785  1
  H  H47  1  0.91721455  0.93629579  0.66146785  1
  H  H48  1  0.58278545  0.43629579  0.83853215  1
  H  H49  1  0.08278545  0.06370421  0.33853215  1
  H  H50  1  0.57647161  0.43995177  0.23577069  1
  H  H51  1  0.07647161  0.06004823  0.73577069  1
  H  H52  1  0.42352839  0.56004823  0.76422931  1
  H  H53  1  0.92352839  0.93995177  0.26422931  1
  H  H54  1  0.75470407  0.72423861  0.10004871  1
  H  H55  1  0.25470407  0.77576139  0.60004871  1
  H  H56  1  0.24529593  0.27576139  0.89995129  1
  H  H57  1  0.74529593  0.22423861  0.39995129  1
  H  H58  1  0.28369282  0.70109364  0.05783552  1
  H  H59  1  0.78369282  0.79890636  0.55783552  1
  H  H60  1  0.71630718  0.29890636  0.94216448  1
  H  H61  1  0.21630718  0.20109364  0.44216448  1
  N  N62  1  0.95635287  0.17494252  0.99845358  1
  N  N63  1  0.45635287  0.32505748  0.49845358  1
  N  N64  1  0.04364713  0.82505748  0.00154642  1
  N  N65  1  0.54364713  0.67494252  0.50154642  1
  N  N66  1  0.89284869  0.57163584  0.16936047  1
  N  N67  1  0.39284869  0.92836416  0.66936047  1
  N  N68  1  0.10715131  0.42836416  0.83063953  1
  N  N69  1  0.60715131  0.07163584  0.33063953  1
  O  O70  1  0.22618103  0.50479866  0.37741377  1
  O  O71  1  0.72618103  0.99520134  0.87741377  1
  O  O72  1  0.77381897  0.49520134  0.62258623  1
  O  O73  1  0.27381897  0.00479866  0.12258623  1
  O  O74  1  0.98593628  0.06548612  0.18266846  1
  O  O75  1  0.48593628  0.43451388  0.68266846  1
  O  O76  1  0.01406372  0.93451388  0.81733154  1
  O  O77  1  0.51406372  0.56548612  0.31733154  1
  O  O78  1  0.47258661  0.44015209  0.28298876  1
  O  O79  1  0.97258661  0.05984791  0.78298876  1
  O  O80  1  0.52741339  0.55984791  0.71701124  1
  O  O81  1  0.02741339  0.94015209  0.21701124  1
  O  O82  1  0.62172767  0.18763046  0.20523267  1
  O  O83  1  0.12172767  0.31236954  0.70523267  1
  O  O84  1  0.37827233  0.81236954  0.79476733  1
  O  O85  1  0.87827233  0.68763046  0.29476733  1
  O  O86  1  0.06376350  0.25164251  0.36457019  1
  O  O87  1  0.56376350  0.24835749  0.86457019  1
  O  O88  1  0.93623650  0.74835749  0.63542981  1
  O  O89  1  0.43623650  0.75164251  0.13542981  1
  O  O90  1  0.82923650  0.24948689  0.53262078  1
  O  O91  1  0.32923650  0.25051311  0.03262078  1
  O  O92  1  0.17076350  0.75051311  0.46737922  1
  O  O93  1  0.67076350  0.74948689  0.96737922  1
  O  O94  1  0.79078709  0.92520467  0.40752366  1
  O  O95  1  0.29078709  0.57479533  0.90752366  1
  O  O96  1  0.20921291  0.07479533  0.59247634  1
  O  O97  1  0.70921291  0.42520467  0.09247634  1
  O  O98  1  0.05905634  0.40184291  0.20307630  1
  O  O99  1  0.55905634  0.09815709  0.70307630  1
  O  O100  1  0.94094366  0.59815709  0.79692370  1
  O  O101  1  0.44094366  0.90184291  0.29692370  1
  O  O102  1  0.81785186  0.33015663  0.96490257  1
  O  O103  1  0.31785186  0.16984337  0.46490257  1
  O  O104  1  0.18214814  0.66984337  0.03509743  1
  O  O105  1  0.68214814  0.83015663  0.53509743  1
  O  O106  1  0.85960448  0.34272972  0.35189361  1
  O  O107  1  0.35960448  0.15727028  0.85189361  1
  O  O108  1  0.14039552  0.65727028  0.64810639  1
  O  O109  1  0.64039552  0.84272972  0.14810639  1
