# generated using pymatgen
data_NaLiP2(H4O5)2
_symmetry_space_group_name_H-M   'P 1'
_cell_length_a   15.27945717
_cell_length_b   15.27945717
_cell_length_c   15.27945736
_cell_angle_alpha   40.53497768
_cell_angle_beta   40.53497768
_cell_angle_gamma   40.53497820
_symmetry_Int_Tables_number   1
_chemical_formula_structural   NaLiP2(H4O5)2
_chemical_formula_sum   'Na6 Li6 P12 H48 O60'
_cell_volume   1359.00165668
_cell_formula_units_Z   6
loop_
 _symmetry_equiv_pos_site_id
 _symmetry_equiv_pos_as_xyz
  1  'x, y, z'
loop_
 _atom_site_type_symbol
 _atom_site_label
 _atom_site_symmetry_multiplicity
 _atom_site_fract_x
 _atom_site_fract_y
 _atom_site_fract_z
 _atom_site_occupancy
  Na  Na0  1  0.36756664  0.36756664  0.36756664  1
  Na  Na1  1  0.86756664  0.86756664  0.86756664  1
  Na  Na2  1  0.63243336  0.63243336  0.63243336  1
  Na  Na3  1  0.13243336  0.13243336  0.13243336  1
  Na  Na4  1  0.25000000  0.25000000  0.25000000  1
  Na  Na5  1  0.75000000  0.75000000  0.75000000  1
  Li  Li6  1  0.74436507  0.75563493  0.25000000  1
  Li  Li7  1  0.75563493  0.25000000  0.74436507  1
  Li  Li8  1  0.25000000  0.74436507  0.75563493  1
  Li  Li9  1  0.24436507  0.75000000  0.25563493  1
  Li  Li10  1  0.75000000  0.25563493  0.24436507  1
  Li  Li11  1  0.25563493  0.24436507  0.75000000  1
  P  P12  1  0.71647114  0.20155284  0.12168993  1
  P  P13  1  0.20155284  0.12168993  0.71647114  1
  P  P14  1  0.12168993  0.71647114  0.20155284  1
  P  P15  1  0.21647114  0.62168993  0.70155284  1
  P  P16  1  0.62168993  0.70155284  0.21647114  1
  P  P17  1  0.70155284  0.21647114  0.62168993  1
  P  P18  1  0.28352886  0.79844716  0.87831007  1
  P  P19  1  0.79844716  0.87831007  0.28352886  1
  P  P20  1  0.87831007  0.28352886  0.79844716  1
  P  P21  1  0.78352886  0.37831007  0.29844716  1
  P  P22  1  0.37831007  0.29844716  0.78352886  1
  P  P23  1  0.29844716  0.78352886  0.37831007  1
  H  H24  1  0.74561713  0.03542951  0.00076301  1
  H  H25  1  0.03542951  0.00076301  0.74561713  1
  H  H26  1  0.00076301  0.74561713  0.03542951  1
  H  H27  1  0.24561713  0.50076301  0.53542951  1
  H  H28  1  0.50076301  0.53542951  0.24561713  1
  H  H29  1  0.53542951  0.24561713  0.50076301  1
  H  H30  1  0.25438287  0.96457049  0.99923699  1
  H  H31  1  0.96457049  0.99923699  0.25438287  1
  H  H32  1  0.99923699  0.25438287  0.96457049  1
  H  H33  1  0.75438287  0.49923699  0.46457049  1
  H  H34  1  0.49923699  0.46457049  0.75438287  1
  H  H35  1  0.46457049  0.75438287  0.49923699  1
  H  H36  1  0.38560885  0.90859427  0.01009591  1
  H  H37  1  0.90859427  0.01009591  0.38560885  1
  H  H38  1  0.01009591  0.38560885  0.90859427  1
  H  H39  1  0.88560885  0.51009591  0.40859427  1
  H  H40  1  0.51009591  0.40859427  0.88560885  1
  H  H41  1  0.40859427  0.88560885  0.51009591  1
  H  H42  1  0.61439115  0.09140573  0.98990409  1
  H  H43  1  0.09140573  0.98990409  0.61439115  1
  H  H44  1  0.98990409  0.61439115  0.09140573  1
  H  H45  1  0.11439115  0.48990409  0.59140573  1
  H  H46  1  0.48990409  0.59140573  0.11439115  1
  H  H47  1  0.59140573  0.11439115  0.48990409  1
  H  H48  1  0.88340777  0.55783975  0.65460075  1
  H  H49  1  0.55783975  0.65460075  0.88340777  1
  H  H50  1  0.65460075  0.88340777  0.55783975  1
  H  H51  1  0.38340777  0.15460075  0.05783975  1
  H  H52  1  0.15460075  0.05783975  0.38340777  1
  H  H53  1  0.05783975  0.38340777  0.15460075  1
  H  H54  1  0.11659223  0.44216025  0.34539925  1
  H  H55  1  0.44216025  0.34539925  0.11659223  1
  H  H56  1  0.34539925  0.11659223  0.44216025  1
  H  H57  1  0.61659223  0.84539925  0.94216025  1
  H  H58  1  0.84539925  0.94216025  0.61659223  1
  H  H59  1  0.94216025  0.61659223  0.84539925  1
  H  H60  1  0.44971318  0.00537708  0.17718015  1
  H  H61  1  0.00537708  0.17718015  0.44971318  1
  H  H62  1  0.17718015  0.44971318  0.00537708  1
  H  H63  1  0.94971318  0.67718015  0.50537708  1
  H  H64  1  0.67718015  0.50537708  0.94971318  1
  H  H65  1  0.50537708  0.94971318  0.67718015  1
  H  H66  1  0.55028682  0.99462292  0.82281985  1
  H  H67  1  0.99462292  0.82281985  0.55028682  1
  H  H68  1  0.82281985  0.55028682  0.99462292  1
  H  H69  1  0.05028682  0.32281985  0.49462292  1
  H  H70  1  0.32281985  0.49462292  0.05028682  1
  H  H71  1  0.49462292  0.05028682  0.32281985  1
  O  O72  1  0.22385464  0.72199475  0.91789497  1
  O  O73  1  0.72199475  0.91789497  0.22385464  1
  O  O74  1  0.91789497  0.22385464  0.72199475  1
  O  O75  1  0.72385464  0.41789497  0.22199475  1
  O  O76  1  0.41789497  0.22199475  0.72385464  1
  O  O77  1  0.22199475  0.72385464  0.41789497  1
  O  O78  1  0.77614536  0.27800525  0.08210503  1
  O  O79  1  0.27800525  0.08210503  0.77614536  1
  O  O80  1  0.08210503  0.77614536  0.27800525  1
  O  O81  1  0.27614536  0.58210503  0.77800525  1
  O  O82  1  0.58210503  0.77800525  0.27614536  1
  O  O83  1  0.77800525  0.27614536  0.58210503  1
  O  O84  1  0.47454372  0.70143874  0.28209707  1
  O  O85  1  0.70143874  0.28209707  0.47454372  1
  O  O86  1  0.28209707  0.47454372  0.70143874  1
  O  O87  1  0.97454372  0.78209707  0.20143874  1
  O  O88  1  0.78209707  0.20143874  0.97454372  1
  O  O89  1  0.20143874  0.97454372  0.78209707  1
  O  O90  1  0.52545628  0.29856126  0.71790293  1
  O  O91  1  0.29856126  0.71790293  0.52545628  1
  O  O92  1  0.71790293  0.52545628  0.29856126  1
  O  O93  1  0.02545628  0.21790293  0.79856126  1
  O  O94  1  0.21790293  0.79856126  0.02545628  1
  O  O95  1  0.79856126  0.02545628  0.21790293  1
  O  O96  1  0.25249287  0.20153741  0.55082194  1
  O  O97  1  0.20153741  0.55082194  0.25249287  1
  O  O98  1  0.55082194  0.25249287  0.20153741  1
  O  O99  1  0.75249287  0.05082194  0.70153741  1
  O  O100  1  0.05082194  0.70153741  0.75249287  1
  O  O101  1  0.70153741  0.75249287  0.05082194  1
  O  O102  1  0.74750713  0.79846259  0.44917806  1
  O  O103  1  0.79846259  0.44917806  0.74750713  1
  O  O104  1  0.44917806  0.74750713  0.79846259  1
  O  O105  1  0.24750713  0.94917806  0.29846259  1
  O  O106  1  0.94917806  0.29846259  0.24750713  1
  O  O107  1  0.29846259  0.24750713  0.94917806  1
  O  O108  1  0.92963333  0.06832841  0.27815084  1
  O  O109  1  0.06832841  0.27815084  0.92963333  1
  O  O110  1  0.27815084  0.92963333  0.06832841  1
  O  O111  1  0.42963333  0.77815084  0.56832841  1
  O  O112  1  0.77815084  0.56832841  0.42963333  1
  O  O113  1  0.56832841  0.42963333  0.77815084  1
  O  O114  1  0.07036667  0.93167159  0.72184916  1
  O  O115  1  0.93167159  0.72184916  0.07036667  1
  O  O116  1  0.72184916  0.07036667  0.93167159  1
  O  O117  1  0.57036667  0.22184916  0.43167159  1
  O  O118  1  0.22184916  0.43167159  0.57036667  1
  O  O119  1  0.43167159  0.57036667  0.22184916  1
  O  O120  1  0.88975315  0.88998413  0.56689331  1
  O  O121  1  0.88998413  0.56689331  0.88975314  1
  O  O122  1  0.56689331  0.88975315  0.88998413  1
  O  O123  1  0.38975315  0.06689331  0.38998413  1
  O  O124  1  0.06689331  0.38998413  0.38975314  1
  O  O125  1  0.38998413  0.38975315  0.06689331  1
  O  O126  1  0.11024685  0.11001587  0.43310669  1
  O  O127  1  0.11001587  0.43310669  0.11024686  1
  O  O128  1  0.43310669  0.11024685  0.11001587  1
  O  O129  1  0.61024685  0.93310669  0.61001587  1
  O  O130  1  0.93310669  0.61001587  0.61024686  1
  O  O131  1  0.61001587  0.61024685  0.93310669  1
