# generated using pymatgen
data_MnPH5CO4
_symmetry_space_group_name_H-M   'P 1'
_cell_length_a   17.70578982
_cell_length_b   4.93428648
_cell_length_c   5.88915109
_cell_angle_alpha   90.00000000
_cell_angle_beta   90.00000000
_cell_angle_gamma   90.00000000
_symmetry_Int_Tables_number   1
_chemical_formula_structural   MnPH5CO4
_chemical_formula_sum   'Mn4 P4 H20 C4 O16'
_cell_volume   514.50827224
_cell_formula_units_Z   4
loop_
 _symmetry_equiv_pos_site_id
 _symmetry_equiv_pos_as_xyz
  1  'x, y, z'
loop_
 _atom_site_type_symbol
 _atom_site_label
 _atom_site_symmetry_multiplicity
 _atom_site_fract_x
 _atom_site_fract_y
 _atom_site_fract_z
 _atom_site_occupancy
  Mn  Mn0  1  0.73669881  0.66730502  0.28227369  1
  Mn  Mn1  1  0.26330119  0.33269498  0.78227369  1
  Mn  Mn2  1  0.76330119  0.16730502  0.78227369  1
  Mn  Mn3  1  0.23669881  0.83269498  0.28227369  1
  P  P4  1  0.65242923  0.72569296  0.78277261  1
  P  P5  1  0.34757077  0.27430704  0.28277261  1
  P  P6  1  0.84757077  0.22569296  0.28277261  1
  P  P7  1  0.15242923  0.77430704  0.78277261  1
  H  H8  1  0.53109179  0.71776442  0.60645560  1
  H  H9  1  0.46890821  0.28223558  0.10645560  1
  H  H10  1  0.96890821  0.21776442  0.10645560  1
  H  H11  1  0.03109179  0.78223558  0.60645560  1
  H  H12  1  0.52181500  0.68759080  0.90718926  1
  H  H13  1  0.47818500  0.31240920  0.40718926  1
  H  H14  1  0.97818500  0.18759080  0.40718926  1
  H  H15  1  0.02181500  0.81240920  0.90718926  1
  H  H16  1  0.54254242  0.01074583  0.78214051  1
  H  H17  1  0.45745758  0.98925417  0.28214051  1
  H  H18  1  0.95745758  0.51074583  0.28214051  1
  H  H19  1  0.04254242  0.48925417  0.78214051  1
  H  H20  1  0.64497281  0.24049481  0.42015471  1
  H  H21  1  0.35502719  0.75950519  0.92015471  1
  H  H22  1  0.85502719  0.74049481  0.92015471  1
  H  H23  1  0.14497281  0.25950519  0.42015471  1
  H  H24  1  0.64691686  0.23089272  0.15339597  1
  H  H25  1  0.35308314  0.76910728  0.65339597  1
  H  H26  1  0.85308314  0.73089272  0.65339597  1
  H  H27  1  0.14691686  0.26910728  0.15339597  1
  C  C28  1  0.55242004  0.79143385  0.77041026  1
  C  C29  1  0.44757996  0.20856615  0.27041026  1
  C  C30  1  0.94757996  0.29143385  0.27041026  1
  C  C31  1  0.05242004  0.70856615  0.77041026  1
  O  O32  1  0.66499541  0.41902664  0.78411091  1
  O  O33  1  0.33500459  0.58097336  0.28411091  1
  O  O34  1  0.83500459  0.91902664  0.28411091  1
  O  O35  1  0.16499541  0.08097336  0.78411091  1
  O  O36  1  0.64308578  0.35504873  0.28338241  1
  O  O37  1  0.35691422  0.64495127  0.78338241  1
  O  O38  1  0.85691422  0.85504873  0.78338241  1
  O  O39  1  0.14308578  0.14495127  0.28338241  1
  O  O40  1  0.68905901  0.86873922  0.57254601  1
  O  O41  1  0.31094099  0.13126078  0.07254601  1
  O  O42  1  0.81094099  0.36873922  0.07254601  1
  O  O43  1  0.18905901  0.63126078  0.57254601  1
  O  O44  1  0.68704417  0.86984326  0.99536807  1
  O  O45  1  0.31295583  0.13015674  0.49536807  1
  O  O46  1  0.81295583  0.36984326  0.49536807  1
  O  O47  1  0.18704417  0.63015674  0.99536807  1
