# generated using pymatgen
data_Fe3P2H3O11
_symmetry_space_group_name_H-M   'P 1'
_cell_length_a   8.13736115
_cell_length_b   9.61858781
_cell_length_c   9.89886819
_cell_angle_alpha   90.00000000
_cell_angle_beta   90.00000000
_cell_angle_gamma   90.00000000
_symmetry_Int_Tables_number   1
_chemical_formula_structural   Fe3P2H3O11
_chemical_formula_sum   'Fe12 P8 H12 O44'
_cell_volume   774.78364867
_cell_formula_units_Z   4
loop_
 _symmetry_equiv_pos_site_id
 _symmetry_equiv_pos_as_xyz
  1  'x, y, z'
loop_
 _atom_site_type_symbol
 _atom_site_label
 _atom_site_symmetry_multiplicity
 _atom_site_fract_x
 _atom_site_fract_y
 _atom_site_fract_z
 _atom_site_occupancy
  Fe  Fe0  1  0.00000000  0.00000000  0.00000000  1
  Fe  Fe1  1  0.50000000  0.50000000  0.00000000  1
  Fe  Fe2  1  0.00000000  0.00000000  0.50000000  1
  Fe  Fe3  1  0.50000000  0.50000000  0.50000000  1
  Fe  Fe4  1  0.63703334  0.04934380  0.11241093  1
  Fe  Fe5  1  0.13703334  0.45065620  0.88758907  1
  Fe  Fe6  1  0.36296666  0.04934380  0.38758907  1
  Fe  Fe7  1  0.86296666  0.45065620  0.61241093  1
  Fe  Fe8  1  0.36296666  0.95065620  0.88758907  1
  Fe  Fe9  1  0.86296666  0.54934380  0.11241093  1
  Fe  Fe10  1  0.63703334  0.95065620  0.61241093  1
  Fe  Fe11  1  0.13703334  0.54934380  0.38758907  1
  P  P12  1  0.28578820  0.20869288  0.10498312  1
  P  P13  1  0.78578820  0.29130712  0.89501688  1
  P  P14  1  0.71421180  0.20869288  0.39501688  1
  P  P15  1  0.21421180  0.29130712  0.60498312  1
  P  P16  1  0.71421180  0.79130712  0.89501688  1
  P  P17  1  0.21421180  0.70869288  0.10498312  1
  P  P18  1  0.28578820  0.79130712  0.60498312  1
  P  P19  1  0.78578820  0.70869288  0.39501688  1
  O  O20  1  0.33201086  0.21160272  0.25753921  1
  O  O21  1  0.83201086  0.28839728  0.74246079  1
  O  O22  1  0.66798914  0.21160272  0.24246079  1
  O  O23  1  0.16798914  0.28839728  0.75753921  1
  O  O24  1  0.66798914  0.78839728  0.74246079  1
  O  O25  1  0.16798914  0.71160272  0.25753921  1
  O  O26  1  0.33201086  0.78839728  0.75753921  1
  O  O27  1  0.83201086  0.71160272  0.24246079  1
  O  O28  1  0.41393961  0.11217234  0.03006037  1
  O  O29  1  0.91393961  0.38782766  0.96993963  1
  O  O30  1  0.58606039  0.11217234  0.46993963  1
  O  O31  1  0.08606039  0.38782766  0.53006037  1
  O  O32  1  0.58606039  0.88782766  0.96993963  1
  O  O33  1  0.08606039  0.61217234  0.03006037  1
  O  O34  1  0.41393961  0.88782766  0.53006037  1
  O  O35  1  0.91393961  0.61217234  0.46993963  1
  O  O36  1  0.29748023  0.35841401  0.04339690  1
  O  O37  1  0.79748023  0.14158599  0.95660310  1
  O  O38  1  0.70251977  0.35841401  0.45660310  1
  O  O39  1  0.20251977  0.14158599  0.54339690  1
  O  O40  1  0.70251977  0.64158599  0.95660310  1
  O  O41  1  0.20251977  0.85841401  0.04339690  1
  O  O42  1  0.29748023  0.64158599  0.54339690  1
  O  O43  1  0.79748023  0.85841401  0.45660310  1
  O  O44  1  0.11016323  0.15687582  0.08912830  1
  O  O45  1  0.61016323  0.34312418  0.91087170  1
  O  O46  1  0.88983677  0.15687582  0.41087170  1
  O  O47  1  0.38983677  0.34312418  0.58912830  1
  O  O48  1  0.88983677  0.84312418  0.91087170  1
  O  O49  1  0.38983677  0.65687582  0.08912830  1
  O  O50  1  0.11016323  0.84312418  0.58912830  1
  O  O51  1  0.61016323  0.65687582  0.41087170  1
  O  O52  1  0.50000000  0.94896246  0.25000000  1
  O  O53  1  0.00000000  0.55103754  0.75000000  1
  O  O54  1  0.50000000  0.05103754  0.75000000  1
  O  O55  1  0.00000000  0.44896246  0.25000000  1
  O  O56  1  0.15156660  0.96776031  0.34552312  1
  O  O57  1  0.65156660  0.53223969  0.65447688  1
  O  O58  1  0.84843340  0.96776031  0.15447688  1
  O  O59  1  0.34843340  0.53223969  0.84552312  1
  O  O60  1  0.84843340  0.03223969  0.65447688  1
  O  O61  1  0.34843340  0.46776031  0.34552312  1
  O  O62  1  0.15156660  0.03223969  0.84552312  1
  O  O63  1  0.65156660  0.46776031  0.15447688  1
  H  H64  1  0.50000000  0.84732773  0.25000000  1
  H  H65  1  0.00000000  0.65267227  0.75000000  1
  H  H66  1  0.50000000  0.15267227  0.75000000  1
  H  H67  1  0.00000000  0.34732773  0.25000000  1
  H  H68  1  0.15546134  0.87022022  0.31065004  1
  H  H69  1  0.65546134  0.62977978  0.68934996  1
  H  H70  1  0.84453866  0.87022022  0.18934996  1
  H  H71  1  0.34453866  0.62977978  0.81065004  1
  H  H72  1  0.84453866  0.12977978  0.68934996  1
  H  H73  1  0.34453866  0.37022022  0.31065004  1
  H  H74  1  0.15546134  0.12977978  0.81065004  1
  H  H75  1  0.65546134  0.37022022  0.18934996  1
