# generated using pymatgen
data_FeH8C4(S2N3)2
_symmetry_space_group_name_H-M   'P 1'
_cell_length_a   3.94080591
_cell_length_b   7.74239893
_cell_length_c   10.27554574
_cell_angle_alpha   93.46976998
_cell_angle_beta   98.71065185
_cell_angle_gamma   101.86561727
_symmetry_Int_Tables_number   1
_chemical_formula_structural   FeH8C4(S2N3)2
_chemical_formula_sum   'Fe1 H8 C4 S4 N6'
_cell_volume   301.91749169
_cell_formula_units_Z   1
loop_
 _symmetry_equiv_pos_site_id
 _symmetry_equiv_pos_as_xyz
  1  'x, y, z'
loop_
 _atom_site_type_symbol
 _atom_site_label
 _atom_site_symmetry_multiplicity
 _atom_site_fract_x
 _atom_site_fract_y
 _atom_site_fract_z
 _atom_site_occupancy
  Fe  Fe0  1  0.00000000  0.00000000  0.00000000  1
  S  S1  1  0.02201111  0.29504241  0.42061738  1
  S  S2  1  0.97798889  0.70495759  0.57938262  1
  S  S3  1  0.58679831  0.22361339  0.96694245  1
  S  S4  1  0.41320169  0.77638661  0.03305755  1
  N  N5  1  0.09224316  0.10253560  0.18939166  1
  N  N6  1  0.90775684  0.89746440  0.81060834  1
  N  N7  1  0.39539725  0.44018435  0.79366173  1
  N  N8  1  0.60460275  0.55981565  0.20633827  1
  N  N9  1  0.52892713  0.18655832  0.70360819  1
  N  N10  1  0.47107287  0.81344168  0.29639181  1
  C  C11  1  0.06468508  0.18461083  0.28789565  1
  C  C12  1  0.93531492  0.81538917  0.71210435  1
  C  C13  1  0.49845459  0.28803729  0.80873912  1
  C  C14  1  0.50154541  0.71196271  0.19126088  1
  H  H15  1  0.33258095  0.48348303  0.70306315  1
  H  H16  1  0.66741905  0.51651697  0.29693685  1
  H  H17  1  0.39262343  0.52336219  0.87457632  1
  H  H18  1  0.60737657  0.47663781  0.12542368  1
  H  H19  1  0.45677283  0.21699416  0.60931949  1
  H  H20  1  0.54322717  0.78300584  0.39068051  1
  H  H21  1  0.60285395  0.06964878  0.71794578  1
  H  H22  1  0.39714605  0.93035122  0.28205422  1
