# generated using pymatgen
data_SbH24C6(NCl2)3
_symmetry_space_group_name_H-M   'P 1'
_cell_length_a   9.58707939
_cell_length_b   10.24301696
_cell_length_c   11.24403110
_cell_angle_alpha   64.92450333
_cell_angle_beta   77.73886604
_cell_angle_gamma   77.12544529
_symmetry_Int_Tables_number   1
_chemical_formula_structural   SbH24C6(NCl2)3
_chemical_formula_sum   'Sb2 H48 C12 N6 Cl12'
_cell_volume   966.22494022
_cell_formula_units_Z   2
loop_
 _symmetry_equiv_pos_site_id
 _symmetry_equiv_pos_as_xyz
  1  'x, y, z'
loop_
 _atom_site_type_symbol
 _atom_site_label
 _atom_site_symmetry_multiplicity
 _atom_site_fract_x
 _atom_site_fract_y
 _atom_site_fract_z
 _atom_site_occupancy
  Sb  Sb0  1  0.17311078  0.48569440  0.34888924  1
  Sb  Sb1  1  0.82688922  0.51430560  0.65111076  1
  H  H2  1  0.70167112  0.34816134  0.35705123  1
  H  H3  1  0.29832888  0.65183866  0.64294877  1
  H  H4  1  0.57452684  0.49754110  0.32891517  1
  H  H5  1  0.42547316  0.50245890  0.67108483  1
  H  H6  1  0.74804702  0.51147476  0.32033226  1
  H  H7  1  0.25195298  0.48852524  0.67966774  1
  H  H8  1  0.12071095  0.87306448  0.42252300  1
  H  H9  1  0.87928905  0.12693552  0.57747700  1
  H  H10  1  0.00146647  0.83860817  0.35139932  1
  H  H11  1  0.99853353  0.16139183  0.64860068  1
  H  H12  1  0.96220975  0.98431935  0.38879103  1
  H  H13  1  0.03779025  0.01568065  0.61120897  1
  H  H14  1  0.52967633  0.11411447  0.57869005  1
  H  H15  1  0.47032367  0.88588553  0.42130995  1
  H  H16  1  0.35958428  0.16774255  0.64267241  1
  H  H17  1  0.64041572  0.83225745  0.35732759  1
  H  H18  1  0.39826486  0.01011653  0.62414328  1
  H  H19  1  0.60173514  0.98988347  0.37585672  1
  H  H20  1  0.82106514  0.44119999  0.13603209  1
  H  H21  1  0.17893486  0.55880001  0.86396791  1
  H  H22  1  0.64058452  0.41479523  0.14610555  1
  H  H23  1  0.35941548  0.58520477  0.85389445  1
  H  H24  1  0.70013693  0.64666964  0.96080098  1
  H  H25  1  0.29986307  0.35333036  0.03919902  1
  H  H26  1  0.73188345  0.71234518  0.07453578  1
  H  H27  1  0.26811655  0.28765482  0.92546422  1
  H  H28  1  0.55537822  0.68166105  0.07751441  1
  H  H29  1  0.44462178  0.31833895  0.92248559  1
  H  H30  1  0.17114867  0.08530694  0.23650097  1
  H  H31  1  0.82885133  0.91469306  0.76349903  1
  H  H32  1  0.20207767  0.93344487  0.18998494  1
  H  H33  1  0.79792233  0.06655513  0.81001506  1
  H  H34  1  0.06387528  0.14888815  0.02451584  1
  H  H35  1  0.93612472  0.85111185  0.97548416  1
  H  H36  1  0.92692891  0.16369386  0.15366340  1
  H  H37  1  0.07307109  0.83630614  0.84633660  1
  H  H38  1  0.95838426  0.00717601  0.11495447  1
  H  H39  1  0.04161574  0.99282399  0.88504553  1
  H  H40  1  0.57562353  0.91672542  0.77949520  1
  H  H41  1  0.42437647  0.08327458  0.22050480  1
  H  H42  1  0.53176672  0.08601103  0.79882035  1
  H  H43  1  0.46823328  0.91398897  0.20117965  1
  H  H44  1  0.40813506  0.90239699  0.98924175  1
  H  H45  1  0.59186494  0.09760301  0.01075825  1
  H  H46  1  0.32559454  0.85826367  0.88747273  1
  H  H47  1  0.67440546  0.14173633  0.11252727  1
  H  H48  1  0.27588742  0.03365672  0.89397967  1
  H  H49  1  0.72411258  0.96634328  0.10602033  1
  C  C50  1  0.70696457  0.48301736  0.15621209  1
  C  C51  1  0.29303543  0.51698264  0.84378791  1
  C  C52  1  0.67096304  0.64053433  0.06263866  1
  C  C53  1  0.32903696  0.35946567  0.93736134  1
  C  C54  1  0.11919038  0.00953937  0.22101711  1
  C  C55  1  0.88080962  0.99046063  0.77898289  1
  C  C56  1  0.01080065  0.08714469  0.12351179  1
  C  C57  1  0.98919935  0.91285531  0.87648821  1
  C  C58  1  0.48791735  0.00441913  0.78418035  1
  C  C59  1  0.51208265  0.99558087  0.21581965  1
  C  C60  1  0.36665918  0.94673013  0.89372140  1
  C  C61  1  0.63334082  0.05326987  0.10627860  1
  N  N62  1  0.68016682  0.45982956  0.29960249  1
  N  N63  1  0.31983318  0.54017044  0.70039751  1
  N  N64  1  0.04721500  0.92038348  0.35449923  1
  N  N65  1  0.95278500  0.07961652  0.64550077  1
  N  N66  1  0.44066003  0.07932402  0.64945089  1
  N  N67  1  0.55933997  0.92067598  0.35054911  1
  Cl  Cl68  1  0.13986518  0.30811677  0.65950541  1
  Cl  Cl69  1  0.86013482  0.69188323  0.34049459  1
  Cl  Cl70  1  0.38997436  0.30850369  0.33502431  1
  Cl  Cl71  1  0.61002564  0.69149631  0.66497569  1
  Cl  Cl72  1  0.35811912  0.65003210  0.36487802  1
  Cl  Cl73  1  0.64188088  0.34996790  0.63512198  1
  Cl  Cl74  1  0.03029473  0.31672796  0.32798310  1
  Cl  Cl75  1  0.96970527  0.68327204  0.67201690  1
  Cl  Cl76  1  0.20222876  0.62380555  0.10935712  1
  Cl  Cl77  1  0.79777124  0.37619445  0.89064288  1
  Cl  Cl78  1  0.73606204  0.09819255  0.43891209  1
  Cl  Cl79  1  0.26393796  0.90180745  0.56108791  1
