# generated using pymatgen
data_Cu3Mo2(HO5)2
_symmetry_space_group_name_H-M   'P 1'
_cell_length_a   5.46982595
_cell_length_b   14.20494643
_cell_length_c   5.70950291
_cell_angle_alpha   90.00000000
_cell_angle_beta   97.40539979
_cell_angle_gamma   90.00000000
_symmetry_Int_Tables_number   1
_chemical_formula_structural   Cu3Mo2(HO5)2
_chemical_formula_sum   'Cu6 Mo4 H4 O20'
_cell_volume   439.92006742
_cell_formula_units_Z   2
loop_
 _symmetry_equiv_pos_site_id
 _symmetry_equiv_pos_as_xyz
  1  'x, y, z'
loop_
 _atom_site_type_symbol
 _atom_site_label
 _atom_site_symmetry_multiplicity
 _atom_site_fract_x
 _atom_site_fract_y
 _atom_site_fract_z
 _atom_site_occupancy
  Cu  Cu0  1  0.50000000  0.50000000  0.50000000  1
  Cu  Cu1  1  0.00000000  0.00000000  0.00000000  1
  Cu  Cu2  1  0.63314026  0.59620453  0.01075598  1
  Cu  Cu3  1  0.13314026  0.90379547  0.51075598  1
  Cu  Cu4  1  0.36685974  0.40379547  0.98924402  1
  Cu  Cu5  1  0.86685974  0.09620453  0.48924402  1
  Mo  Mo6  1  0.04303898  0.65390897  0.62192638  1
  Mo  Mo7  1  0.54303898  0.84609103  0.12192638  1
  Mo  Mo8  1  0.95696102  0.34609103  0.37807362  1
  Mo  Mo9  1  0.45696102  0.15390897  0.87807362  1
  H  H10  1  0.20894820  0.55802391  0.14003760  1
  H  H11  1  0.70894820  0.94197609  0.64003760  1
  H  H12  1  0.79105180  0.44197609  0.85996240  1
  H  H13  1  0.29105180  0.05802391  0.35996240  1
  O  O14  1  0.51831826  0.72244095  0.06363756  1
  O  O15  1  0.01831826  0.77755905  0.56363756  1
  O  O16  1  0.48168174  0.27755905  0.93636244  1
  O  O17  1  0.98168174  0.22244095  0.43636244  1
  O  O18  1  0.84879682  0.59160779  0.40159728  1
  O  O19  1  0.34879682  0.90839221  0.90159728  1
  O  O20  1  0.15120318  0.40839221  0.59840272  1
  O  O21  1  0.65120318  0.09160779  0.09840272  1
  O  O22  1  0.94760058  0.62786925  0.90891974  1
  O  O23  1  0.44760058  0.87213075  0.40891974  1
  O  O24  1  0.05239942  0.37213075  0.09108026  1
  O  O25  1  0.55239942  0.12786925  0.59108026  1
  O  O26  1  0.35669631  0.61282911  0.61846757  1
  O  O27  1  0.85669631  0.88717089  0.11846757  1
  O  O28  1  0.64330369  0.38717089  0.38153243  1
  O  O29  1  0.14330369  0.11282911  0.88153243  1
  O  O30  1  0.37113322  0.52694423  0.16237030  1
  O  O31  1  0.87113322  0.97305577  0.66237030  1
  O  O32  1  0.62886678  0.47305577  0.83762970  1
  O  O33  1  0.12886678  0.02694423  0.33762970  1
