# generated using pymatgen
data_La5CoRe3O16
_symmetry_space_group_name_H-M   'P 1'
_cell_length_a   5.68551458
_cell_length_b   5.67167616
_cell_length_c   10.25499267
_cell_angle_alpha   86.75491934
_cell_angle_beta   93.60176847
_cell_angle_gamma   89.52737235
_symmetry_Int_Tables_number   1
_chemical_formula_structural   La5CoRe3O16
_chemical_formula_sum   'La5 Co1 Re3 O16'
_cell_volume   329.48107240
_cell_formula_units_Z   1
loop_
 _symmetry_equiv_pos_site_id
 _symmetry_equiv_pos_as_xyz
  1  'x, y, z'
loop_
 _atom_site_type_symbol
 _atom_site_label
 _atom_site_symmetry_multiplicity
 _atom_site_fract_x
 _atom_site_fract_y
 _atom_site_fract_z
 _atom_site_occupancy
  La  La0  1  0.02831027  0.48243697  0.19904959  1
  La  La1  1  0.97168973  0.51756303  0.80095041  1
  La  La2  1  0.51090394  0.96499904  0.20352901  1
  La  La3  1  0.48909606  0.03500096  0.79647099  1
  La  La4  1  0.00000000  0.00000000  0.50000000  1
  Co  Co5  1  0.50000000  0.50000000  0.00000000  1
  Re  Re6  1  0.44494631  0.55527877  0.60571211  1
  Re  Re7  1  0.55505369  0.44472123  0.39428789  1
  Re  Re8  1  0.00000000  0.00000000  0.00000000  1
  O  O9  1  0.30270003  0.68728150  0.43359154  1
  O  O10  1  0.69729997  0.31271850  0.56640846  1
  O  O11  1  0.21933812  0.77725494  0.67650954  1
  O  O12  1  0.78066188  0.22274506  0.32349046  1
  O  O13  1  0.54761065  0.45563932  0.80018609  1
  O  O14  1  0.45238935  0.54436068  0.19981391  1
  O  O15  1  0.92224712  0.06520281  0.81766485  1
  O  O16  1  0.07775288  0.93479719  0.18233515  1
  O  O17  1  0.22598795  0.29682062  0.63602503  1
  O  O18  1  0.77401205  0.70317938  0.36397497  1
  O  O19  1  0.69605171  0.78055611  0.63504699  1
  O  O20  1  0.30394829  0.21944389  0.36495301  1
  O  O21  1  0.81000757  0.70245921  0.00187667  1
  O  O22  1  0.18999243  0.29754079  0.99812333  1
  O  O23  1  0.71368560  0.18560477  0.03474131  1
  O  O24  1  0.28631440  0.81439523  0.96525869  1
