# generated using pymatgen
data_K3Mo4H6O16F
_symmetry_space_group_name_H-M   'P 1'
_cell_length_a   10.71918703
_cell_length_b   10.60426603
_cell_length_c   8.12404701
_cell_angle_alpha   106.42890101
_cell_angle_beta   96.59668925
_cell_angle_gamma   103.98709911
_symmetry_Int_Tables_number   1
_chemical_formula_structural   K3Mo4H6O16F
_chemical_formula_sum   'K6 Mo8 H12 O32 F2'
_cell_volume   842.66590740
_cell_formula_units_Z   2
loop_
 _symmetry_equiv_pos_site_id
 _symmetry_equiv_pos_as_xyz
  1  'x, y, z'
loop_
 _atom_site_type_symbol
 _atom_site_label
 _atom_site_symmetry_multiplicity
 _atom_site_fract_x
 _atom_site_fract_y
 _atom_site_fract_z
 _atom_site_occupancy
  K  K0  1  0.53018801  0.85757779  0.18086119  1
  K  K1  1  0.46981199  0.14242221  0.81913881  1
  K  K2  1  0.16870468  0.89677661  0.31940893  1
  K  K3  1  0.83129532  0.10322339  0.68059107  1
  K  K4  1  0.82103884  0.47312850  0.08397382  1
  K  K5  1  0.17896116  0.52687150  0.91602618  1
  Mo  Mo6  1  0.51128302  0.52067186  0.72536647  1
  Mo  Mo7  1  0.48871698  0.47932814  0.27463353  1
  Mo  Mo8  1  0.82255772  0.75390758  0.85688650  1
  Mo  Mo9  1  0.17744228  0.24609242  0.14311350  1
  Mo  Mo10  1  0.50320756  0.21245208  0.39471111  1
  Mo  Mo11  1  0.49679244  0.78754792  0.60528889  1
  Mo  Mo12  1  0.79341173  0.43864230  0.59437514  1
  Mo  Mo13  1  0.20658827  0.56135770  0.40562486  1
  H  H14  1  0.30009202  0.82649598  0.91104858  1
  H  H15  1  0.69990798  0.17350402  0.08895142  1
  H  H16  1  0.16076664  0.81489694  0.95166374  1
  H  H17  1  0.83923336  0.18510306  0.04833626  1
  H  H18  1  0.91451971  0.73945629  0.29876906  1
  H  H19  1  0.08548029  0.26054371  0.70123094  1
  H  H20  1  0.87469993  0.75022970  0.47858999  1
  H  H21  1  0.12530007  0.24977030  0.52141001  1
  H  H22  1  0.10578716  0.97463773  0.68773309  1
  H  H23  1  0.89421284  0.02536227  0.31226691  1
  H  H24  1  0.10757974  0.82347890  0.62992442  1
  H  H25  1  0.89242026  0.17652110  0.37007558  1
  O  O26  1  0.44606501  0.58760163  0.90575857  1
  O  O27  1  0.55393499  0.41239837  0.09424143  1
  O  O28  1  0.94971397  0.73908152  0.00244019  1
  O  O29  1  0.05028603  0.26091848  0.99755981  1
  O  O30  1  0.88170206  0.91108500  0.82495384  1
  O  O31  1  0.11829794  0.08891500  0.17504616  1
  O  O32  1  0.56336628  0.14014513  0.20817224  1
  O  O33  1  0.43663372  0.85985487  0.79182776  1
  O  O34  1  0.40801134  0.07022383  0.43661517  1
  O  O35  1  0.59198866  0.92977617  0.56338483  1
  O  O36  1  0.84538140  0.39387033  0.39631422  1
  O  O37  1  0.15461860  0.60612967  0.60368578  1
  O  O38  1  0.91069025  0.41937930  0.74901400  1
  O  O39  1  0.08930975  0.58062070  0.25098600  1
  O  O40  1  0.44041929  0.33971184  0.65827248  1
  O  O41  1  0.55958071  0.66028816  0.34172752  1
  O  O42  1  0.84912239  0.63910500  0.63846619  1
  O  O43  1  0.15087761  0.36089500  0.36153381  1
  O  O44  1  0.66304754  0.26590815  0.57219625  1
  O  O45  1  0.33695246  0.73409185  0.42780375  1
  O  O46  1  0.62384256  0.71923259  0.70958904  1
  O  O47  1  0.37615744  0.28076741  0.29041096  1
  O  O48  1  0.69053399  0.53606126  0.81177252  1
  O  O49  1  0.30946601  0.46393874  0.18822748  1
  O  O50  1  0.59665778  0.44019538  0.45651309  1
  O  O51  1  0.40334222  0.55980462  0.54348691  1
  O  O52  1  0.24580096  0.80626158  0.99611258  1
  O  O53  1  0.75419904  0.19373842  0.00388742  1
  O  O54  1  0.90421790  0.80522159  0.40353561  1
  O  O55  1  0.09578210  0.19477841  0.59646439  1
  O  O56  1  0.16509481  0.91778139  0.67288326  1
  O  O57  1  0.83490519  0.08221861  0.32711674  1
  F  F58  1  0.72608461  0.80262076  0.04426281  1
  F  F59  1  0.27391539  0.19737924  0.95573719  1
