# generated using pymatgen
data_Na4P4(H2O5)3
_symmetry_space_group_name_H-M   'P 1'
_cell_length_a   6.69445398
_cell_length_b   10.08207722
_cell_length_c   11.31572459
_cell_angle_alpha   103.98280622
_cell_angle_beta   101.08267203
_cell_angle_gamma   90.98928826
_symmetry_Int_Tables_number   1
_chemical_formula_structural   Na4P4(H2O5)3
_chemical_formula_sum   'Na8 P8 H12 O30'
_cell_volume   725.66171086
_cell_formula_units_Z   2
loop_
 _symmetry_equiv_pos_site_id
 _symmetry_equiv_pos_as_xyz
  1  'x, y, z'
loop_
 _atom_site_type_symbol
 _atom_site_label
 _atom_site_symmetry_multiplicity
 _atom_site_fract_x
 _atom_site_fract_y
 _atom_site_fract_z
 _atom_site_occupancy
  Na  Na0  1  0.74908690  0.02737983  0.41300898  1
  Na  Na1  1  0.25091310  0.97262017  0.58699102  1
  Na  Na2  1  0.91928811  0.71597876  0.23559269  1
  Na  Na3  1  0.08071189  0.28402124  0.76440731  1
  Na  Na4  1  0.50631341  0.66044557  0.63597270  1
  Na  Na5  1  0.49368659  0.33955443  0.36402730  1
  Na  Na6  1  0.81569262  0.56063791  0.89298365  1
  Na  Na7  1  0.18430738  0.43936209  0.10701635  1
  P  P8  1  0.40320164  0.77371419  0.18950834  1
  P  P9  1  0.59679836  0.22628581  0.81049166  1
  P  P10  1  0.31862329  0.64295663  0.91184623  1
  P  P11  1  0.68137671  0.35704337  0.08815377  1
  P  P12  1  0.03223590  0.75484472  0.73891294  1
  P  P13  1  0.96776410  0.24515528  0.26108706  1
  P  P14  1  0.21885681  0.01913370  0.30193692  1
  P  P15  1  0.78114319  0.98086630  0.69806308  1
  H  H16  1  0.96054124  0.86016323  0.04116763  1
  H  H17  1  0.03945876  0.13983677  0.95883237  1
  H  H18  1  0.72655962  0.81835655  0.01610417  1
  H  H19  1  0.27344038  0.18164345  0.98389583  1
  H  H20  1  0.97903348  0.34343711  0.50710388  1
  H  H21  1  0.02096652  0.65656289  0.49289612  1
  H  H22  1  0.96177229  0.45982530  0.62573800  1
  H  H23  1  0.03822771  0.54017470  0.37426200  1
  H  H24  1  0.57580359  0.38517281  0.64244082  1
  H  H25  1  0.42419641  0.61482719  0.35755918  1
  H  H26  1  0.34102535  0.38885701  0.59594911  1
  H  H27  1  0.65897465  0.61114299  0.40405089  1
  O  O28  1  0.73258308  0.33241824  0.78618285  1
  O  O29  1  0.26741692  0.66758176  0.21381715  1
  O  O30  1  0.56148942  0.26767589  0.95235605  1
  O  O31  1  0.43851058  0.73232411  0.04764395  1
  O  O32  1  0.72515887  0.09097462  0.81710353  1
  O  O33  1  0.27484113  0.90902538  0.18289647  1
  O  O34  1  0.38968380  0.18496671  0.72916787  1
  O  O35  1  0.61031620  0.81503329  0.27083213  1
  O  O36  1  0.17842169  0.76293688  0.87271908  1
  O  O37  1  0.82157831  0.23706312  0.12728092  1
  O  O38  1  0.18306432  0.52781493  0.92270508  1
  O  O39  1  0.81693568  0.47218507  0.07729492  1
  O  O40  1  0.47637032  0.61536742  0.83359036  1
  O  O41  1  0.52362968  0.38463258  0.16640964  1
  O  O42  1  0.87352667  0.63731540  0.70816093  1
  O  O43  1  0.12647333  0.36268460  0.29183907  1
  O  O44  1  0.15802357  0.76456905  0.64385007  1
  O  O45  1  0.84197643  0.23543095  0.35614993  1
  O  O46  1  0.93085941  0.89892058  0.78356756  1
  O  O47  1  0.06914059  0.10107942  0.21643244  1
  O  O48  1  0.90677673  0.05159887  0.63133648  1
  O  O49  1  0.09322327  0.94840113  0.36866352  1
  O  O50  1  0.59410208  0.89295812  0.62531258  1
  O  O51  1  0.40589792  0.10704188  0.37468742  1
  O  O52  1  0.13806186  0.21289074  0.96072171  1
  O  O53  1  0.86193814  0.78710926  0.03927829  1
  O  O54  1  0.04295148  0.38307403  0.59537771  1
  O  O55  1  0.95704852  0.61692597  0.40462229  1
  O  O56  1  0.47452659  0.40996017  0.57780845  1
  O  O57  1  0.52547341  0.59003983  0.42219155  1
