# generated using pymatgen
data_TaGaO4
_symmetry_space_group_name_H-M   'P 1'
_cell_length_a   4.67097895
_cell_length_b   5.65089327
_cell_length_c   5.00790056
_cell_angle_alpha   90.00000000
_cell_angle_beta   90.00000000
_cell_angle_gamma   90.00000000
_symmetry_Int_Tables_number   1
_chemical_formula_structural   TaGaO4
_chemical_formula_sum   'Ta2 Ga2 O8'
_cell_volume   132.18455445
_cell_formula_units_Z   2
loop_
 _symmetry_equiv_pos_site_id
 _symmetry_equiv_pos_as_xyz
  1  'x, y, z'
loop_
 _atom_site_type_symbol
 _atom_site_label
 _atom_site_symmetry_multiplicity
 _atom_site_fract_x
 _atom_site_fract_y
 _atom_site_fract_z
 _atom_site_occupancy
  Ta  Ta0  1  0.00000000  0.82006591  0.75000000  1
  Ta  Ta1  1  0.50000000  0.32006591  0.75000000  1
  Ga  Ga2  1  0.00000000  0.16974184  0.25000000  1
  Ga  Ga3  1  0.50000000  0.66974184  0.25000000  1
  O  O4  1  0.22675350  0.11539289  0.58156432  1
  O  O5  1  0.22721657  0.88970323  0.07305151  1
  O  O6  1  0.27278343  0.38970323  0.07305151  1
  O  O7  1  0.27324650  0.61539289  0.58156432  1
  O  O8  1  0.72721657  0.38970323  0.42694849  1
  O  O9  1  0.72675350  0.61539289  0.91843568  1
  O  O10  1  0.77324650  0.11539289  0.91843568  1
  O  O11  1  0.77278343  0.88970323  0.42694849  1
