# generated using pymatgen
data_SrCa2I6
_symmetry_space_group_name_H-M   'P 1'
_cell_length_a   7.96056049
_cell_length_b   7.96069653
_cell_length_c   7.33017121
_cell_angle_alpha   90.00109630
_cell_angle_beta   89.99780728
_cell_angle_gamma   119.99943477
_symmetry_Int_Tables_number   1
_chemical_formula_structural   SrCa2I6
_chemical_formula_sum   'Sr1 Ca2 I6'
_cell_volume   402.29250245
_cell_formula_units_Z   1
loop_
 _symmetry_equiv_pos_site_id
 _symmetry_equiv_pos_as_xyz
  1  'x, y, z'
loop_
 _atom_site_type_symbol
 _atom_site_label
 _atom_site_symmetry_multiplicity
 _atom_site_fract_x
 _atom_site_fract_y
 _atom_site_fract_z
 _atom_site_occupancy
  Sr  Sr0  1  0.99998531  0.00000000  0.99999729  1
  Ca  Ca1  1  0.33331523  0.66667050  0.49999952  1
  Ca  Ca2  1  0.66664474  0.33332950  0.49999952  1
  I  I3  1  0.99998460  0.65341058  0.74346701  1
  I  I4  1  0.99999907  0.34660220  0.25655160  1
  I  I5  1  0.34657402  0.34658942  0.74346701  1
  I  I6  1  0.65339687  0.65339780  0.25655160  1
  I  I7  1  0.34660250  0.00000000  0.25653776  1
  I  I8  1  0.65339766  0.00000000  0.74342769  1
