# generated using pymatgen
data_Nb2O3F2
_symmetry_space_group_name_H-M   'P 1'
_cell_length_a   5.22157739
_cell_length_b   5.78254760
_cell_length_c   7.14397930
_cell_angle_alpha   74.95750136
_cell_angle_beta   113.95156791
_cell_angle_gamma   91.49587918
_symmetry_Int_Tables_number   1
_chemical_formula_structural   Nb2O3F2
_chemical_formula_sum   'Nb4 O6 F4'
_cell_volume   189.60666981
_cell_formula_units_Z   2
loop_
 _symmetry_equiv_pos_site_id
 _symmetry_equiv_pos_as_xyz
  1  'x, y, z'
loop_
 _atom_site_type_symbol
 _atom_site_label
 _atom_site_symmetry_multiplicity
 _atom_site_fract_x
 _atom_site_fract_y
 _atom_site_fract_z
 _atom_site_occupancy
  Nb  Nb0  1  0.12257542  0.32701983  0.19183488  1
  Nb  Nb1  1  0.39624118  0.19339207  0.82134328  1
  Nb  Nb2  1  0.60375882  0.80660793  0.17865672  1
  Nb  Nb3  1  0.87742458  0.67298017  0.80816512  1
  O  O4  1  0.15559279  0.35439619  0.90188052  1
  O  O5  1  0.25443001  0.85065885  0.90606915  1
  O  O6  1  0.58125018  0.48313640  0.72710932  1
  O  O7  1  0.41874982  0.51686360  0.27289068  1
  O  O8  1  0.74556999  0.14934115  0.09393085  1
  O  O9  1  0.84440721  0.64560381  0.09811948  1
  F  F10  1  0.88794062  0.75437425  0.50216782  1
  F  F11  1  0.36155538  0.99739041  0.28366747  1
  F  F12  1  0.63844462  0.00260959  0.71633253  1
  F  F13  1  0.11205938  0.24562575  0.49783218  1
