# generated using pymatgen
data_SrLiNb2O6F
_symmetry_space_group_name_H-M   'P 1'
_cell_length_a   3.87468048
_cell_length_b   10.79997406
_cell_length_c   3.87468048
_cell_angle_alpha   79.66613082
_cell_angle_beta   90.00000000
_cell_angle_gamma   100.33386918
_symmetry_Int_Tables_number   1
_chemical_formula_structural   SrLiNb2O6F
_chemical_formula_sum   'Sr1 Li1 Nb2 O6 F1'
_cell_volume   156.83737627
_cell_formula_units_Z   1
loop_
 _symmetry_equiv_pos_site_id
 _symmetry_equiv_pos_as_xyz
  1  'x, y, z'
loop_
 _atom_site_type_symbol
 _atom_site_label
 _atom_site_symmetry_multiplicity
 _atom_site_fract_x
 _atom_site_fract_y
 _atom_site_fract_z
 _atom_site_occupancy
  Sr  Sr0  1  0.00000000  0.00000000  0.00000000  1
  Li  Li1  1  0.25000000  0.50000000  0.25000000  1
  Nb  Nb2  1  0.61782703  0.23565407  0.38217297  1
  Nb  Nb3  1  0.38217297  0.76434593  0.61782703  1
  O  O4  1  0.70413779  0.40827657  0.29586221  1
  O  O5  1  0.09294500  0.18589000  0.40705500  1
  O  O6  1  0.40705500  0.81411000  0.09294500  1
  O  O7  1  0.29586221  0.59172343  0.70413779  1
  O  O8  1  0.59182431  0.18364763  0.90817569  1
  O  O9  1  0.90817569  0.81635237  0.59182431  1
  F  F10  1  0.50000000  0.00000000  0.50000000  1
