# generated using pymatgen
data_CrP2H14(NO3)3
_symmetry_space_group_name_H-M   'P 1'
_cell_length_a   8.79770760
_cell_length_b   10.49844390
_cell_length_c   12.15342164
_cell_angle_alpha   90.00000000
_cell_angle_beta   98.07560093
_cell_angle_gamma   90.00000000
_symmetry_Int_Tables_number   1
_chemical_formula_structural   CrP2H14(NO3)3
_chemical_formula_sum   'Cr4 P8 H56 N12 O36'
_cell_volume   1111.38587861
_cell_formula_units_Z   4
loop_
 _symmetry_equiv_pos_site_id
 _symmetry_equiv_pos_as_xyz
  1  'x, y, z'
loop_
 _atom_site_type_symbol
 _atom_site_label
 _atom_site_symmetry_multiplicity
 _atom_site_fract_x
 _atom_site_fract_y
 _atom_site_fract_z
 _atom_site_occupancy
  Cr  Cr0  1  0.11696611  0.61900754  0.34684330  1
  Cr  Cr1  1  0.88303389  0.11900754  0.15315670  1
  Cr  Cr2  1  0.88303389  0.38099246  0.65315670  1
  Cr  Cr3  1  0.11696611  0.88099246  0.84684330  1
  P  P4  1  0.29385159  0.34984860  0.41802921  1
  P  P5  1  0.70614841  0.84984860  0.08197079  1
  P  P6  1  0.70614841  0.65015140  0.58197079  1
  P  P7  1  0.29385159  0.15015140  0.91802921  1
  P  P8  1  0.19928866  0.51251217  0.60088919  1
  P  P9  1  0.80071134  0.01251217  0.89911081  1
  P  P10  1  0.80071134  0.48748783  0.39911081  1
  P  P11  1  0.19928866  0.98748783  0.10088919  1
  H  H12  1  0.43650360  0.60407928  0.62521160  1
  H  H13  1  0.56349640  0.10407928  0.87478840  1
  H  H14  1  0.56349640  0.39592072  0.37478840  1
  H  H15  1  0.43650360  0.89592072  0.12521160  1
  H  H16  1  0.90710482  0.77688464  0.39581707  1
  H  H17  1  0.09289518  0.27688464  0.10418293  1
  H  H18  1  0.09289518  0.22311536  0.60418293  1
  H  H19  1  0.90710482  0.72311536  0.89581707  1
  H  H20  1  0.06875113  0.86018886  0.39726643  1
  H  H21  1  0.93124887  0.36018886  0.10273357  1
  H  H22  1  0.93124887  0.13981114  0.60273357  1
  H  H23  1  0.06875113  0.63981114  0.89726643  1
  H  H24  1  0.95762945  0.82715678  0.27782352  1
  H  H25  1  0.04237055  0.32715678  0.22217648  1
  H  H26  1  0.04237055  0.17284322  0.72217648  1
  H  H27  1  0.95762945  0.67284322  0.77782352  1
  H  H28  1  0.97702782  0.66019508  0.14789421  1
  H  H29  1  0.02297218  0.16019508  0.35210579  1
  H  H30  1  0.02297218  0.33980492  0.85210579  1
  H  H31  1  0.97702782  0.83980492  0.64789421  1
  H  H32  1  0.15119039  0.71925133  0.15148703  1
  H  H33  1  0.84880961  0.21925133  0.34851297  1
  H  H34  1  0.84880961  0.28074867  0.84851297  1
  H  H35  1  0.15119039  0.78074867  0.65148703  1
  H  H36  1  0.12861489  0.56626073  0.13377256  1
  H  H37  1  0.87138511  0.06626073  0.36622744  1
  H  H38  1  0.87138511  0.43373927  0.86622744  1
  H  H39  1  0.12861489  0.93373927  0.63377256  1
  H  H40  1  0.38144707  0.68242127  0.29447284  1
  H  H41  1  0.61855293  0.18242127  0.20552716  1
  H  H42  1  0.61855293  0.31757873  0.70552716  1
  H  H43  1  0.38144707  0.81757873  0.79447284  1
  H  H44  1  0.38937820  0.70640287  0.43094082  1
  H  H45  1  0.61062180  0.20640287  0.06905918  1
  H  H46  1  0.61062180  0.29359713  0.56905918  1
  H  H47  1  0.38937820  0.79359713  0.93094082  1
  H  H48  1  0.30833500  0.81477116  0.34129841  1
  H  H49  1  0.69166500  0.31477116  0.15870159  1
  H  H50  1  0.69166500  0.18522884  0.65870159  1
  H  H51  1  0.30833500  0.68522884  0.84129841  1
  H  H52  1  0.53915155  0.96916465  0.70693653  1
  H  H53  1  0.46084845  0.46916465  0.79306347  1
  H  H54  1  0.46084845  0.03083535  0.29306347  1
  H  H55  1  0.53915155  0.53083535  0.20693653  1
  H  H56  1  0.53752090  0.84330868  0.63799370  1
  H  H57  1  0.46247910  0.34330868  0.86200630  1
  H  H58  1  0.46247910  0.15669132  0.36200630  1
  H  H59  1  0.53752090  0.65669132  0.13799370  1
  H  H60  1  0.24373997  0.07049223  0.45841813  1
  H  H61  1  0.75626003  0.57049223  0.04158187  1
  H  H62  1  0.75626003  0.92950777  0.54158187  1
  H  H63  1  0.24373997  0.42950777  0.95841813  1
  H  H64  1  0.33173011  0.96916181  0.54177823  1
  H  H65  1  0.66826989  0.46916181  0.95822177  1
  H  H66  1  0.66826989  0.03083819  0.45822177  1
  H  H67  1  0.33173011  0.53083819  0.04177823  1
  N  N68  1  0.99942605  0.79216760  0.35483872  1
  N  N69  1  0.00057395  0.29216760  0.14516128  1
  N  N70  1  0.00057395  0.20783240  0.64516128  1
  N  N71  1  0.99942605  0.70783240  0.85483872  1
  N  N72  1  0.09184871  0.64275592  0.17564066  1
  N  N73  1  0.90815129  0.14275592  0.32435934  1
  N  N74  1  0.90815129  0.35724408  0.82435934  1
  N  N75  1  0.09184871  0.85724408  0.67564066  1
  N  N76  1  0.32283388  0.71901623  0.35487576  1
  N  N77  1  0.67716612  0.21901623  0.14512424  1
  N  N78  1  0.67716612  0.28098377  0.64512424  1
  N  N79  1  0.32283388  0.78098377  0.85487576  1
  O  O80  1  0.23303424  0.45721699  0.33848195  1
  O  O81  1  0.76696576  0.95721699  0.16151805  1
  O  O82  1  0.76696576  0.54278301  0.66151805  1
  O  O83  1  0.23303424  0.04278301  0.83848195  1
  O  O84  1  0.22216981  0.22124756  0.38904541  1
  O  O85  1  0.77783019  0.72124756  0.11095459  1
  O  O86  1  0.77783019  0.77875244  0.61095459  1
  O  O87  1  0.22216981  0.27875244  0.88904541  1
  O  O88  1  0.47063698  0.34340880  0.43500434  1
  O  O89  1  0.52936302  0.84340880  0.06499566  1
  O  O90  1  0.52936302  0.65659120  0.56499566  1
  O  O91  1  0.47063698  0.15659120  0.93500434  1
  O  O92  1  0.24735364  0.38394789  0.54207085  1
  O  O93  1  0.75264636  0.88394789  0.95792915  1
  O  O94  1  0.75264636  0.61605211  0.45792915  1
  O  O95  1  0.24735364  0.11605211  0.04207085  1
  O  O96  1  0.13942236  0.61074677  0.51275098  1
  O  O97  1  0.86057764  0.11074677  0.98724902  1
  O  O98  1  0.86057764  0.38925323  0.48724902  1
  O  O99  1  0.13942236  0.88925323  0.01275098  1
  O  O100  1  0.08497349  0.47573516  0.67751827  1
  O  O101  1  0.91502651  0.97573516  0.82248173  1
  O  O102  1  0.91502651  0.52426484  0.32248173  1
  O  O103  1  0.08497349  0.02426484  0.17751827  1
  O  O104  1  0.34627570  0.56427956  0.67452482  1
  O  O105  1  0.65372430  0.06427956  0.82547518  1
  O  O106  1  0.65372430  0.43572044  0.32547518  1
  O  O107  1  0.34627570  0.93572044  0.17452482  1
  O  O108  1  0.47020272  0.90914975  0.66166237  1
  O  O109  1  0.52979728  0.40914975  0.83833763  1
  O  O110  1  0.52979728  0.09085025  0.33833763  1
  O  O111  1  0.47020272  0.59085025  0.16166237  1
  O  O112  1  0.23581382  0.98427633  0.49048609  1
  O  O113  1  0.76418618  0.48427633  0.00951391  1
  O  O114  1  0.76418618  0.01572367  0.50951391  1
  O  O115  1  0.23581382  0.51572367  0.99048609  1
