# generated using pymatgen
data_SrV2P2(H4O7)2
_symmetry_space_group_name_H-M   'P 1'
_cell_length_a   6.43782075
_cell_length_b   6.43782075
_cell_length_c   13.13046351
_cell_angle_alpha   82.54071121
_cell_angle_beta   97.45928879
_cell_angle_gamma   89.96486644
_symmetry_Int_Tables_number   1
_chemical_formula_structural   SrV2P2(H4O7)2
_chemical_formula_sum   'Sr2 V4 P4 H16 O28'
_cell_volume   534.94290024
_cell_formula_units_Z   2
loop_
 _symmetry_equiv_pos_site_id
 _symmetry_equiv_pos_as_xyz
  1  'x, y, z'
loop_
 _atom_site_type_symbol
 _atom_site_label
 _atom_site_symmetry_multiplicity
 _atom_site_fract_x
 _atom_site_fract_y
 _atom_site_fract_z
 _atom_site_occupancy
  Sr  Sr0  1  0.54457636  0.06791133  0.77915484  1
  Sr  Sr1  1  0.93208867  0.45542364  0.27915484  1
  V  V2  1  0.75265089  0.02647340  0.48123549  1
  V  V3  1  0.97352660  0.24734911  0.98123549  1
  V  V4  1  0.26273800  0.49761739  0.56539791  1
  V  V5  1  0.50238261  0.73726200  0.06539791  1
  P  P6  1  0.26633755  0.01129585  0.52514232  1
  P  P7  1  0.98870415  0.73366245  0.02514232  1
  P  P8  1  0.75923450  0.51192545  0.52326425  1
  P  P9  1  0.48807455  0.24076550  0.02326425  1
  H  H10  1  0.63853127  0.06984951  0.23216469  1
  H  H11  1  0.93015049  0.36146873  0.73216469  1
  H  H12  1  0.86296565  0.99023620  0.28213710  1
  H  H13  1  0.00976380  0.13703435  0.78213710  1
  H  H14  1  0.28697416  0.40262913  0.83225636  1
  H  H15  1  0.59737087  0.71302584  0.33225636  1
  H  H16  1  0.29024937  0.61999774  0.76367385  1
  H  H17  1  0.38000226  0.70975063  0.26367385  1
  H  H18  1  0.07217136  0.83741503  0.83027984  1
  H  H19  1  0.16258497  0.92782864  0.33027984  1
  H  H20  1  0.07394333  0.88583633  0.70849747  1
  H  H21  1  0.11416367  0.92605667  0.20849747  1
  H  H22  1  0.69044107  0.68886719  0.69430932  1
  H  H23  1  0.31113281  0.30955893  0.19430932  1
  H  H24  1  0.62695992  0.59983702  0.80057536  1
  H  H25  1  0.40016298  0.37304008  0.30057536  1
  O  O26  1  0.78487401  0.99972090  0.60882312  1
  O  O27  1  0.00027910  0.21512599  0.10882312  1
  O  O28  1  0.44052769  0.01964368  0.45446032  1
  O  O29  1  0.98035632  0.55947231  0.95446032  1
  O  O30  1  0.05634568  0.04936870  0.45248772  1
  O  O31  1  0.95063130  0.94365432  0.95248772  1
  O  O32  1  0.74289852  0.34458336  0.44719479  1
  O  O33  1  0.65541664  0.25710148  0.94719479  1
  O  O34  1  0.75376434  0.72361802  0.44971347  1
  O  O35  1  0.27638198  0.24623566  0.94971347  1
  O  O36  1  0.20728011  0.51681132  0.43904116  1
  O  O37  1  0.48318868  0.79271989  0.93904116  1
  O  O38  1  0.26791844  0.79662193  0.59496457  1
  O  O39  1  0.20337807  0.73208156  0.09496457  1
  O  O40  1  0.96375432  0.48547396  0.60124704  1
  O  O41  1  0.51452604  0.03624568  0.10124704  1
  O  O42  1  0.57948452  0.49859406  0.59119518  1
  O  O43  1  0.50140594  0.42051548  0.09119518  1
  O  O44  1  0.29745552  0.17834822  0.60261144  1
  O  O45  1  0.82165178  0.70254448  0.10261144  1
  O  O46  1  0.74764537  0.08631074  0.29146848  1
  O  O47  1  0.91368926  0.25235463  0.79146848  1
  O  O48  1  0.32863744  0.47140140  0.76519814  1
  O  O49  1  0.52859860  0.67136256  0.26519814  1
  O  O50  1  0.15296939  0.90263026  0.77617315  1
  O  O51  1  0.09736974  0.84703061  0.27617315  1
  O  O52  1  0.70111846  0.71644913  0.76640263  1
  O  O53  1  0.28355087  0.29888154  0.26640263  1
