# generated using pymatgen
data_EuSi6
_symmetry_space_group_name_H-M   'P 1'
_cell_length_a   4.49882127
_cell_length_b   5.56710403
_cell_length_c   11.54863297
_cell_angle_alpha   90.00000000
_cell_angle_beta   90.00000000
_cell_angle_gamma   113.83185938
_symmetry_Int_Tables_number   1
_chemical_formula_structural   EuSi6
_chemical_formula_sum   'Eu2 Si12'
_cell_volume   264.57817465
_cell_formula_units_Z   2
loop_
 _symmetry_equiv_pos_site_id
 _symmetry_equiv_pos_as_xyz
  1  'x, y, z'
loop_
 _atom_site_type_symbol
 _atom_site_label
 _atom_site_symmetry_multiplicity
 _atom_site_fract_x
 _atom_site_fract_y
 _atom_site_fract_z
 _atom_site_occupancy
  Eu  Eu0  1  0.27298628  0.54597256  0.75000000  1
  Eu  Eu1  1  0.72701372  0.45402744  0.25000000  1
  Si  Si2  1  0.24715256  0.49430512  0.46273844  1
  Si  Si3  1  0.75284744  0.50569488  0.53726156  1
  Si  Si4  1  0.75284744  0.50569488  0.96273844  1
  Si  Si5  1  0.24715256  0.49430512  0.03726156  1
  Si  Si6  1  0.55634796  0.11269592  0.64704959  1
  Si  Si7  1  0.44365204  0.88730408  0.35295041  1
  Si  Si8  1  0.44365204  0.88730408  0.14704959  1
  Si  Si9  1  0.55634796  0.11269592  0.85295041  1
  Si  Si10  1  0.02213362  0.04426725  0.39732859  1
  Si  Si11  1  0.97786638  0.95573275  0.60267141  1
  Si  Si12  1  0.97786638  0.95573275  0.89732859  1
  Si  Si13  1  0.02213362  0.04426725  0.10267141  1
