# generated using pymatgen
data_SrNd2O4
_symmetry_space_group_name_H-M   'P 1'
_cell_length_a   7.19580554
_cell_length_b   7.20796428
_cell_length_c   7.19580554
_cell_angle_alpha   60.05578476
_cell_angle_beta   90.00000000
_cell_angle_gamma   119.94421524
_symmetry_Int_Tables_number   1
_chemical_formula_structural   SrNd2O4
_chemical_formula_sum   'Sr2 Nd4 O8'
_cell_volume   264.35480208
_cell_formula_units_Z   2
loop_
 _symmetry_equiv_pos_site_id
 _symmetry_equiv_pos_as_xyz
  1  'x, y, z'
loop_
 _atom_site_type_symbol
 _atom_site_label
 _atom_site_symmetry_multiplicity
 _atom_site_fract_x
 _atom_site_fract_y
 _atom_site_fract_z
 _atom_site_occupancy
  Sr  Sr0  1  0.62500000  0.75000000  0.12500000  1
  Sr  Sr1  1  0.37500000  0.25000000  0.87500000  1
  Nd  Nd2  1  0.00000000  0.50000000  0.00000000  1
  Nd  Nd3  1  0.50000000  0.00000000  0.50000000  1
  Nd  Nd4  1  0.00000000  0.00000000  0.50000000  1
  Nd  Nd5  1  0.00000000  0.50000000  0.50000000  1
  O  O6  1  0.76500450  0.03037040  0.26353066  1
  O  O7  1  0.76353166  0.46962960  0.26536590  1
  O  O8  1  0.20609793  0.46962960  0.26500450  1
  O  O9  1  0.23463410  0.96962960  0.29390207  1
  O  O10  1  0.76536590  0.03037040  0.70609793  1
  O  O11  1  0.79390207  0.53037040  0.73499550  1
  O  O12  1  0.23646834  0.53037040  0.73463410  1
  O  O13  1  0.23499550  0.96962960  0.73646834  1
