# generated using pymatgen
data_Ce2S2O
_symmetry_space_group_name_H-M   'P 1'
_cell_length_a   8.49993359
_cell_length_b   7.21498984
_cell_length_c   7.00455271
_cell_angle_alpha   90.00000000
_cell_angle_beta   97.54687233
_cell_angle_gamma   90.00000000
_symmetry_Int_Tables_number   1
_chemical_formula_structural   Ce2S2O
_chemical_formula_sum   'Ce8 S8 O4'
_cell_volume   425.84672132
_cell_formula_units_Z   4
loop_
 _symmetry_equiv_pos_site_id
 _symmetry_equiv_pos_as_xyz
  1  'x, y, z'
loop_
 _atom_site_type_symbol
 _atom_site_label
 _atom_site_symmetry_multiplicity
 _atom_site_fract_x
 _atom_site_fract_y
 _atom_site_fract_z
 _atom_site_occupancy
  Ce  Ce0  1  0.13927270  0.55644297  0.75252239  1
  Ce  Ce1  1  0.13927270  0.94355703  0.25252239  1
  Ce  Ce2  1  0.41483572  0.12680602  0.69468026  1
  Ce  Ce3  1  0.41483572  0.37319398  0.19468026  1
  Ce  Ce4  1  0.58516428  0.62680602  0.80531974  1
  Ce  Ce5  1  0.58516428  0.87319398  0.30531974  1
  Ce  Ce6  1  0.86072730  0.05644297  0.74747761  1
  Ce  Ce7  1  0.86072730  0.44355703  0.24747761  1
  S  S8  1  0.08090411  0.23029753  0.52638455  1
  S  S9  1  0.08090411  0.26970247  0.02638455  1
  S  S10  1  0.33146416  0.84233673  0.95126069  1
  S  S11  1  0.33146416  0.65766327  0.45126069  1
  S  S12  1  0.66853584  0.34233673  0.54873931  1
  S  S13  1  0.66853584  0.15766327  0.04873931  1
  S  S14  1  0.91909589  0.73029753  0.97361545  1
  S  S15  1  0.91909589  0.76970247  0.47361545  1
  O  O16  1  0.38460554  0.41110670  0.85061191  1
  O  O17  1  0.38460554  0.08889330  0.35061191  1
  O  O18  1  0.61539446  0.91110670  0.64938809  1
  O  O19  1  0.61539446  0.58889330  0.14938809  1
