# generated using pymatgen
data_Ca4Zr3TaO12
_symmetry_space_group_name_H-M   'P 1'
_cell_length_a   5.79975151
_cell_length_b   8.06478303
_cell_length_c   5.62978957
_cell_angle_alpha   89.95538694
_cell_angle_beta   89.88705946
_cell_angle_gamma   90.45980238
_symmetry_Int_Tables_number   1
_chemical_formula_structural   Ca4Zr3TaO12
_chemical_formula_sum   'Ca4 Zr3 Ta1 O12'
_cell_volume   263.31722617
_cell_formula_units_Z   1
loop_
 _symmetry_equiv_pos_site_id
 _symmetry_equiv_pos_as_xyz
  1  'x, y, z'
loop_
 _atom_site_type_symbol
 _atom_site_label
 _atom_site_symmetry_multiplicity
 _atom_site_fract_x
 _atom_site_fract_y
 _atom_site_fract_z
 _atom_site_occupancy
  Ca  Ca0  1  0.05279203  0.25191402  0.98788679  1
  Ca  Ca1  1  0.44930401  0.74804886  0.49005121  1
  Ca  Ca2  1  0.55069599  0.25195114  0.50994879  1
  Ca  Ca3  1  0.94720797  0.74808598  0.01211321  1
  Zr  Zr4  1  0.00000000  0.00000000  0.50000000  1
  Zr  Zr5  1  0.00000000  0.50000000  0.50000000  1
  Zr  Zr6  1  0.50000000  0.00000000  0.00000000  1
  Ta  Ta7  1  0.50000000  0.50000000  0.00000000  1
  O  O8  1  0.03857957  0.74902404  0.60715053  1
  O  O9  1  0.21188049  0.55346979  0.19331689  1
  O  O10  1  0.19658170  0.94362375  0.19293568  1
  O  O11  1  0.30501963  0.05717540  0.69346719  1
  O  O12  1  0.30340184  0.44856789  0.70733346  1
  O  O13  1  0.46439314  0.25757229  0.09957660  1
  O  O14  1  0.53560686  0.74242771  0.90042340  1
  O  O15  1  0.69659816  0.55143211  0.29266654  1
  O  O16  1  0.69498037  0.94282460  0.30653281  1
  O  O17  1  0.80341830  0.05637625  0.80706432  1
  O  O18  1  0.78811951  0.44653021  0.80668311  1
  O  O19  1  0.96142043  0.25097596  0.39284947  1
