# generated using pymatgen
data_La2ZnO4
_symmetry_space_group_name_H-M   'P 1'
_cell_length_a   11.44931479
_cell_length_b   11.12164341
_cell_length_c   3.85060037
_cell_angle_alpha   90.00000000
_cell_angle_beta   90.00000000
_cell_angle_gamma   90.00000000
_symmetry_Int_Tables_number   1
_chemical_formula_structural   La2ZnO4
_chemical_formula_sum   'La8 Zn4 O16'
_cell_volume   490.31695431
_cell_formula_units_Z   4
loop_
 _symmetry_equiv_pos_site_id
 _symmetry_equiv_pos_as_xyz
  1  'x, y, z'
loop_
 _atom_site_type_symbol
 _atom_site_label
 _atom_site_symmetry_multiplicity
 _atom_site_fract_x
 _atom_site_fract_y
 _atom_site_fract_z
 _atom_site_occupancy
  La  La0  1  0.09757359  0.68786221  0.75000000  1
  La  La1  1  0.11227181  0.09028972  0.75000000  1
  La  La2  1  0.38772819  0.59028972  0.25000000  1
  La  La3  1  0.40242641  0.18786221  0.25000000  1
  La  La4  1  0.59757359  0.81213779  0.75000000  1
  La  La5  1  0.61227181  0.40971028  0.75000000  1
  La  La6  1  0.88772819  0.90971028  0.25000000  1
  La  La7  1  0.90242641  0.31213779  0.25000000  1
  Zn  Zn8  1  0.19007153  0.38140236  0.75000000  1
  Zn  Zn9  1  0.30992847  0.88140236  0.25000000  1
  Zn  Zn10  1  0.69007153  0.11859764  0.75000000  1
  Zn  Zn11  1  0.80992847  0.61859764  0.25000000  1
  O  O12  1  0.01741033  0.88968922  0.75000000  1
  O  O13  1  0.02839857  0.33991903  0.75000000  1
  O  O14  1  0.22270238  0.73465133  0.25000000  1
  O  O15  1  0.25791766  0.53452589  0.75000000  1
  O  O16  1  0.24208234  0.03452589  0.25000000  1
  O  O17  1  0.27729762  0.23465133  0.75000000  1
  O  O18  1  0.47160143  0.83991903  0.25000000  1
  O  O19  1  0.48258967  0.38968922  0.25000000  1
  O  O20  1  0.51741033  0.61031078  0.75000000  1
  O  O21  1  0.52839857  0.16008097  0.75000000  1
  O  O22  1  0.72270238  0.76534867  0.25000000  1
  O  O23  1  0.75791766  0.96547411  0.75000000  1
  O  O24  1  0.74208234  0.46547411  0.25000000  1
  O  O25  1  0.77729762  0.26534867  0.75000000  1
  O  O26  1  0.97160143  0.66008097  0.25000000  1
  O  O27  1  0.98258967  0.11031078  0.25000000  1
