# generated using pymatgen
data_Rb2O
_symmetry_space_group_name_H-M   'P 1'
_cell_length_a   7.30363888
_cell_length_b   4.73641630
_cell_length_c   8.81385254
_cell_angle_alpha   90.00000000
_cell_angle_beta   90.00000000
_cell_angle_gamma   90.00000000
_symmetry_Int_Tables_number   1
_chemical_formula_structural   Rb2O
_chemical_formula_sum   'Rb8 O4'
_cell_volume   304.89825526
_cell_formula_units_Z   4
loop_
 _symmetry_equiv_pos_site_id
 _symmetry_equiv_pos_as_xyz
  1  'x, y, z'
loop_
 _atom_site_type_symbol
 _atom_site_label
 _atom_site_symmetry_multiplicity
 _atom_site_fract_x
 _atom_site_fract_y
 _atom_site_fract_z
 _atom_site_occupancy
  Rb  Rb0  1  0.00984864  0.25000000  0.15417776  1
  Rb  Rb1  1  0.13499084  0.25000000  0.58890184  1
  Rb  Rb2  1  0.36500916  0.75000000  0.08890184  1
  Rb  Rb3  1  0.49015136  0.75000000  0.65417776  1
  Rb  Rb4  1  0.50984864  0.25000000  0.34582224  1
  Rb  Rb5  1  0.63499084  0.25000000  0.91109816  1
  Rb  Rb6  1  0.86500916  0.75000000  0.41109816  1
  Rb  Rb7  1  0.99015136  0.75000000  0.84582224  1
  O  O8  1  0.25801755  0.75000000  0.40794490  1
  O  O9  1  0.24198245  0.25000000  0.90794490  1
  O  O10  1  0.75801755  0.75000000  0.09205510  1
  O  O11  1  0.74198245  0.25000000  0.59205510  1
