# generated using pymatgen
data_NbNO
_symmetry_space_group_name_H-M   'P 1'
_cell_length_a   3.90364257
_cell_length_b   6.90693783
_cell_length_c   6.84775043
_cell_angle_alpha   73.21354687
_cell_angle_beta   90.05858313
_cell_angle_gamma   73.61132149
_symmetry_Int_Tables_number   1
_chemical_formula_structural   NbNO
_chemical_formula_sum   'Nb4 N4 O4'
_cell_volume   168.89546776
_cell_formula_units_Z   4
loop_
 _symmetry_equiv_pos_site_id
 _symmetry_equiv_pos_as_xyz
  1  'x, y, z'
loop_
 _atom_site_type_symbol
 _atom_site_label
 _atom_site_symmetry_multiplicity
 _atom_site_fract_x
 _atom_site_fract_y
 _atom_site_fract_z
 _atom_site_occupancy
  Nb  Nb0  1  0.10620966  0.79287482  0.71650297  1
  Nb  Nb1  1  0.18689461  0.62644651  0.31186742  1
  Nb  Nb2  1  0.81562504  0.37253984  0.69055051  1
  Nb  Nb3  1  0.89522118  0.20568306  0.28631469  1
  N  N4  1  0.05102479  0.89261160  0.36265929  1
  N  N5  1  0.25961287  0.48371064  0.64951734  1
  N  N6  1  0.74263304  0.51592932  0.35432425  1
  N  N7  1  0.95028247  0.10624603  0.64017357  1
  O  O8  1  0.63344110  0.73625366  0.71135300  1
  O  O9  1  0.14066651  0.72206002  0.01008203  1
  O  O10  1  0.86275899  0.27936351  0.99326333  1
  O  O11  1  0.36799074  0.26457298  0.29302161  1
