# generated using pymatgen
data_Li3Nb3TeO12
_symmetry_space_group_name_H-M   'P 1'
_cell_length_a   5.50854332
_cell_length_b   11.06362119
_cell_length_c   9.77678780
_cell_angle_alpha   28.08308964
_cell_angle_beta   51.15956039
_cell_angle_gamma   56.33872020
_symmetry_Int_Tables_number   1
_chemical_formula_structural   Li3Nb3TeO12
_chemical_formula_sum   'Li3 Nb3 Te1 O12'
_cell_volume   218.47395508
_cell_formula_units_Z   1
loop_
 _symmetry_equiv_pos_site_id
 _symmetry_equiv_pos_as_xyz
  1  'x, y, z'
loop_
 _atom_site_type_symbol
 _atom_site_label
 _atom_site_symmetry_multiplicity
 _atom_site_fract_x
 _atom_site_fract_y
 _atom_site_fract_z
 _atom_site_occupancy
  Li  Li0  1  0.74315526  0.49829498  0.75104493  1
  Li  Li1  1  0.74603052  0.00040921  0.74500809  1
  Li  Li2  1  0.24895953  0.99798320  0.25350937  1
  Nb  Nb3  1  0.45048109  0.50867481  0.45836182  1
  Nb  Nb4  1  0.95789295  0.49646734  0.97835088  1
  Nb  Nb5  1  0.46926029  0.99924305  0.46644615  1
  Te  Te6  1  0.95936745  0.00113720  0.95778023  1
  O  O7  1  0.32731882  0.81719605  0.06991689  1
  O  O8  1  0.60239612  0.68418156  0.80657190  1
  O  O9  1  0.19398862  0.61856987  0.58265993  1
  O  O10  1  0.33146388  0.30655254  0.07725667  1
  O  O11  1  0.08036000  0.82340040  0.68265980  1
  O  O12  1  0.69455512  0.87026564  0.32578264  1
  O  O13  1  0.59355279  0.18439994  0.82735492  1
  O  O14  1  0.81464833  0.71450824  0.17650331  1
  O  O15  1  0.18615412  0.10848947  0.60397005  1
  O  O16  1  0.07354752  0.30527561  0.71534612  1
  O  O17  1  0.70345443  0.37146178  0.33504911  1
  O  O18  1  0.83001313  0.19349111  0.19302921  1
