# generated using pymatgen
data_Na2LiFeO4
_symmetry_space_group_name_H-M   'P 1'
_cell_length_a   8.53815812
_cell_length_b   7.74026652
_cell_length_c   6.33711028
_cell_angle_alpha   90.00000000
_cell_angle_beta   90.00000000
_cell_angle_gamma   90.00000000
_symmetry_Int_Tables_number   1
_chemical_formula_structural   Na2LiFeO4
_chemical_formula_sum   'Na8 Li4 Fe4 O16'
_cell_volume   418.80453253
_cell_formula_units_Z   4
loop_
 _symmetry_equiv_pos_site_id
 _symmetry_equiv_pos_as_xyz
  1  'x, y, z'
loop_
 _atom_site_type_symbol
 _atom_site_label
 _atom_site_symmetry_multiplicity
 _atom_site_fract_x
 _atom_site_fract_y
 _atom_site_fract_z
 _atom_site_occupancy
  Fe  Fe0  1  0.13139440  0.21086945  0.00000000  1
  Fe  Fe1  1  0.36860560  0.71086945  0.50000000  1
  Fe  Fe2  1  0.63139440  0.28913055  0.50000000  1
  Fe  Fe3  1  0.86860560  0.78913055  0.00000000  1
  Li  Li4  1  0.08492537  0.83824952  0.50000000  1
  Li  Li5  1  0.41507463  0.33824952  0.00000000  1
  Li  Li6  1  0.58492537  0.66175048  0.00000000  1
  Li  Li7  1  0.91507463  0.16175048  0.50000000  1
  Na  Na8  1  0.00000000  0.50000000  0.26143750  1
  Na  Na9  1  0.24152163  0.75884471  0.00000000  1
  Na  Na10  1  0.25847837  0.25884471  0.50000000  1
  Na  Na11  1  0.50000000  0.00000000  0.76143750  1
  Na  Na12  1  0.50000000  0.00000000  0.23856250  1
  Na  Na13  1  0.74152163  0.74115529  0.50000000  1
  Na  Na14  1  0.75847837  0.24115529  0.00000000  1
  Na  Na15  1  0.00000000  0.50000000  0.73856250  1
  O  O16  1  0.03477700  0.20121118  0.24433304  1
  O  O17  1  0.03477700  0.20121118  0.75566696  1
  O  O18  1  0.20286754  0.58058792  0.50000000  1
  O  O19  1  0.19893381  0.42516578  0.00000000  1
  O  O20  1  0.30106619  0.92516578  0.50000000  1
  O  O21  1  0.29713246  0.08058792  0.00000000  1
  O  O22  1  0.46522300  0.70121118  0.74433304  1
  O  O23  1  0.46522300  0.70121118  0.25566696  1
  O  O24  1  0.53477700  0.29878882  0.25566696  1
  O  O25  1  0.53477700  0.29878882  0.74433304  1
  O  O26  1  0.70286754  0.91941208  0.00000000  1
  O  O27  1  0.69893381  0.07483422  0.50000000  1
  O  O28  1  0.80106619  0.57483422  0.00000000  1
  O  O29  1  0.79713246  0.41941208  0.50000000  1
  O  O30  1  0.96522300  0.79878882  0.24433304  1
  O  O31  1  0.96522300  0.79878882  0.75566696  1
