# generated using pymatgen
data_Sr3(AsO4)2
_symmetry_space_group_name_H-M   'P 1'
_cell_length_a   5.98998422
_cell_length_b   10.20888093
_cell_length_c   8.51010910
_cell_angle_alpha   90.00000000
_cell_angle_beta   91.59664758
_cell_angle_gamma   90.00000000
_symmetry_Int_Tables_number   1
_chemical_formula_structural   Sr3(AsO4)2
_chemical_formula_sum   'Sr6 As4 O16'
_cell_volume   520.19993700
_cell_formula_units_Z   2
loop_
 _symmetry_equiv_pos_site_id
 _symmetry_equiv_pos_as_xyz
  1  'x, y, z'
loop_
 _atom_site_type_symbol
 _atom_site_label
 _atom_site_symmetry_multiplicity
 _atom_site_fract_x
 _atom_site_fract_y
 _atom_site_fract_z
 _atom_site_occupancy
  Sr  Sr0  1  0.00000000  0.00000000  0.50000000  1
  Sr  Sr1  1  0.08419902  0.35548100  0.63319536  1
  Sr  Sr2  1  0.41579998  0.85548100  0.86680464  1
  Sr  Sr3  1  0.50000000  0.50000000  0.00000000  1
  Sr  Sr4  1  0.58420002  0.14451900  0.13319536  1
  Sr  Sr5  1  0.91579998  0.64451900  0.36680464  1
  As  As6  1  0.03816464  0.30837374  0.20084198  1
  As  As7  1  0.46183536  0.80837374  0.29915802  1
  As  As8  1  0.53816464  0.19162626  0.70084198  1
  As  As9  1  0.96183536  0.69162626  0.79915802  1
  O  O10  1  0.02845747  0.84776988  0.73885404  1
  O  O11  1  0.04608898  0.41696516  0.35618744  1
  O  O12  1  0.17491611  0.64821913  0.92877193  1
  O  O13  1  0.20681710  0.81074770  0.38445280  1
  O  O14  1  0.32508389  0.14821913  0.57122807  1
  O  O15  1  0.47154253  0.34776988  0.76114596  1
  O  O16  1  0.29318290  0.31074770  0.11554720  1
  O  O17  1  0.45391102  0.91696516  0.14381256  1
  O  O18  1  0.54608898  0.08303484  0.85618744  1
  O  O19  1  0.70681710  0.68925230  0.88445280  1
  O  O20  1  0.52845747  0.65223012  0.23885404  1
  O  O21  1  0.67491611  0.85178087  0.42877193  1
  O  O22  1  0.79318290  0.18925230  0.61554720  1
  O  O23  1  0.82508389  0.35178087  0.07122807  1
  O  O24  1  0.95391102  0.58303484  0.64381256  1
  O  O25  1  0.97154253  0.15223012  0.26114596  1
