# generated using pymatgen
data_PrBrO
_symmetry_space_group_name_H-M   'P 1'
_cell_length_a   10.51645427
_cell_length_b   10.51645427
_cell_length_c   10.51645421
_cell_angle_alpha   22.33696486
_cell_angle_beta   22.33696486
_cell_angle_gamma   22.33696721
_symmetry_Int_Tables_number   1
_chemical_formula_structural   PrBrO
_chemical_formula_sum   'Pr2 Br2 O2'
_cell_volume   147.32980720
_cell_formula_units_Z   2
loop_
 _symmetry_equiv_pos_site_id
 _symmetry_equiv_pos_as_xyz
  1  'x, y, z'
loop_
 _atom_site_type_symbol
 _atom_site_label
 _atom_site_symmetry_multiplicity
 _atom_site_fract_x
 _atom_site_fract_y
 _atom_site_fract_z
 _atom_site_occupancy
  Pr  Pr0  1  0.21562841  0.21562841  0.21562841  1
  Pr  Pr1  1  0.78437159  0.78437159  0.78437159  1
  Br  Br2  1  0.38675409  0.38675409  0.38675409  1
  Br  Br3  1  0.61324591  0.61324591  0.61324591  1
  O  O4  1  0.13759396  0.13759396  0.13759396  1
  O  O5  1  0.86240604  0.86240604  0.86240604  1
