# generated using pymatgen
data_Na5CuHO4
_symmetry_space_group_name_H-M   'P 1'
_cell_length_a   9.99159872
_cell_length_b   9.94330061
_cell_length_c   12.13696216
_cell_angle_alpha   90.00000000
_cell_angle_beta   90.00000000
_cell_angle_gamma   90.00000000
_symmetry_Int_Tables_number   1
_chemical_formula_structural   Na5CuHO4
_chemical_formula_sum   'Na40 Cu8 H8 O32'
_cell_volume   1205.80075373
_cell_formula_units_Z   8
loop_
 _symmetry_equiv_pos_site_id
 _symmetry_equiv_pos_as_xyz
  1  'x, y, z'
loop_
 _atom_site_type_symbol
 _atom_site_label
 _atom_site_symmetry_multiplicity
 _atom_site_fract_x
 _atom_site_fract_y
 _atom_site_fract_z
 _atom_site_occupancy
  Na  Na0  1  0.97675328  0.59083119  0.20856606  1
  Na  Na1  1  0.97675328  0.90916881  0.20856606  1
  Na  Na2  1  0.07232702  0.07030169  0.41526252  1
  Na  Na3  1  0.07232702  0.42969831  0.41526252  1
  Na  Na4  1  0.08302431  0.75000000  0.44999547  1
  Na  Na5  1  0.11734679  0.25000000  0.98508265  1
  Na  Na6  1  0.12944120  0.56876213  0.99099925  1
  Na  Na7  1  0.12944120  0.93123787  0.99099925  1
  Na  Na8  1  0.21911672  0.57588169  0.67970651  1
  Na  Na9  1  0.21911672  0.92411831  0.67970651  1
  Na  Na10  1  0.28088328  0.07588169  0.17970651  1
  Na  Na11  1  0.28088328  0.42411831  0.17970651  1
  Na  Na12  1  0.37055880  0.06876213  0.49099925  1
  Na  Na13  1  0.37055880  0.43123787  0.49099925  1
  Na  Na14  1  0.38265321  0.75000000  0.48508265  1
  Na  Na15  1  0.41697569  0.25000000  0.94999547  1
  Na  Na16  1  0.42767298  0.57030169  0.91526252  1
  Na  Na17  1  0.42767298  0.92969831  0.91526252  1
  Na  Na18  1  0.52324672  0.09083119  0.70856606  1
  Na  Na19  1  0.52324672  0.40916881  0.70856606  1
  Na  Na20  1  0.47675328  0.59083119  0.29143394  1
  Na  Na21  1  0.47675328  0.90916881  0.29143394  1
  Na  Na22  1  0.57232702  0.07030169  0.08473748  1
  Na  Na23  1  0.57232702  0.42969831  0.08473748  1
  Na  Na24  1  0.58302431  0.75000000  0.05000453  1
  Na  Na25  1  0.61734679  0.25000000  0.51491735  1
  Na  Na26  1  0.62944120  0.56876213  0.50900075  1
  Na  Na27  1  0.62944120  0.93123787  0.50900075  1
  Na  Na28  1  0.71911672  0.57588169  0.82029349  1
  Na  Na29  1  0.71911672  0.92411831  0.82029349  1
  Na  Na30  1  0.78088328  0.07588169  0.32029349  1
  Na  Na31  1  0.78088328  0.42411831  0.32029349  1
  Na  Na32  1  0.87055880  0.06876213  0.00900075  1
  Na  Na33  1  0.87055880  0.43123787  0.00900075  1
  Na  Na34  1  0.88265321  0.75000000  0.01491735  1
  Na  Na35  1  0.91697569  0.25000000  0.55000453  1
  Na  Na36  1  0.92767298  0.92969831  0.58473748  1
  Na  Na37  1  0.92767298  0.57030169  0.58473748  1
  Na  Na38  1  0.02324672  0.09083119  0.79143394  1
  Na  Na39  1  0.02324672  0.40916881  0.79143394  1
  Cu  Cu40  1  0.01188766  0.25000000  0.21050313  1
  Cu  Cu41  1  0.20752808  0.25000000  0.61834460  1
  Cu  Cu42  1  0.29247192  0.75000000  0.11834460  1
  Cu  Cu43  1  0.48811234  0.75000000  0.71050313  1
  Cu  Cu44  1  0.51188766  0.25000000  0.28949687  1
  Cu  Cu45  1  0.70752808  0.25000000  0.88165540  1
  Cu  Cu46  1  0.79247192  0.75000000  0.38165540  1
  Cu  Cu47  1  0.98811234  0.75000000  0.78949687  1
  H  H48  1  0.21028874  0.61746668  0.31480544  1
  H  H49  1  0.21028874  0.88253332  0.31480544  1
  H  H50  1  0.28971126  0.11746668  0.81480544  1
  H  H51  1  0.28971126  0.38253332  0.81480544  1
  H  H52  1  0.71028874  0.61746668  0.18519456  1
  H  H53  1  0.71028874  0.88253332  0.18519456  1
  H  H54  1  0.78971126  0.11746668  0.68519456  1
  H  H55  1  0.78971126  0.38253332  0.68519456  1
  O  O56  1  0.06229005  0.75000000  0.64786045  1
  O  O57  1  0.06187157  0.40121068  0.12183346  1
  O  O58  1  0.06187157  0.09878932  0.12183346  1
  O  O59  1  0.08730010  0.39923240  0.60703928  1
  O  O60  1  0.08730010  0.10076760  0.60703928  1
  O  O61  1  0.10504463  0.75000000  0.11691796  1
  O  O62  1  0.24454162  0.07258757  0.87549058  1
  O  O63  1  0.24454162  0.42741243  0.87549058  1
  O  O64  1  0.25545838  0.57258757  0.37549058  1
  O  O65  1  0.25545838  0.92741243  0.37549058  1
  O  O66  1  0.39495537  0.25000000  0.61691796  1
  O  O67  1  0.41269990  0.60076760  0.10703928  1
  O  O68  1  0.41269990  0.89923240  0.10703928  1
  O  O69  1  0.43812843  0.59878932  0.62183346  1
  O  O70  1  0.43812843  0.90121068  0.62183346  1
  O  O71  1  0.43770995  0.25000000  0.14786045  1
  O  O72  1  0.56229005  0.75000000  0.85213955  1
  O  O73  1  0.56187157  0.09878932  0.37816654  1
  O  O74  1  0.56187157  0.40121068  0.37816654  1
  O  O75  1  0.58730010  0.10076760  0.89296072  1
  O  O76  1  0.58730010  0.39923240  0.89296072  1
  O  O77  1  0.60504463  0.75000000  0.38308204  1
  O  O78  1  0.74454162  0.07258757  0.62450942  1
  O  O79  1  0.74454162  0.42741243  0.62450942  1
  O  O80  1  0.75545838  0.57258757  0.12450942  1
  O  O81  1  0.75545838  0.92741243  0.12450942  1
  O  O82  1  0.89495537  0.25000000  0.88308204  1
  O  O83  1  0.91269990  0.89923240  0.39296072  1
  O  O84  1  0.91269990  0.60076760  0.39296072  1
  O  O85  1  0.93812843  0.90121068  0.87816654  1
  O  O86  1  0.93812843  0.59878932  0.87816654  1
  O  O87  1  0.93770995  0.25000000  0.35213955  1
