# generated using pymatgen
data_Li2Cu2F7
_symmetry_space_group_name_H-M   'P 1'
_cell_length_a   8.52145187
_cell_length_b   6.71603933
_cell_length_c   5.19783174
_cell_angle_alpha   86.48613978
_cell_angle_beta   103.44329710
_cell_angle_gamma   108.85387206
_symmetry_Int_Tables_number   1
_chemical_formula_structural   Li2Cu2F7
_chemical_formula_sum   'Li4 Cu4 F14'
_cell_volume   273.76902156
_cell_formula_units_Z   2
loop_
 _symmetry_equiv_pos_site_id
 _symmetry_equiv_pos_as_xyz
  1  'x, y, z'
loop_
 _atom_site_type_symbol
 _atom_site_label
 _atom_site_symmetry_multiplicity
 _atom_site_fract_x
 _atom_site_fract_y
 _atom_site_fract_z
 _atom_site_occupancy
  Li  Li0  1  0.09423128  0.75730742  0.32012714  1
  Li  Li1  1  0.25968392  0.98908468  0.86586589  1
  Li  Li2  1  0.74031608  0.01091532  0.13413411  1
  Li  Li3  1  0.90576872  0.24269258  0.67987286  1
  Cu  Cu4  1  0.18134043  0.28451933  0.29039582  1
  Cu  Cu5  1  0.33240210  0.52058369  0.81512635  1
  Cu  Cu6  1  0.66759790  0.47941631  0.18487365  1
  Cu  Cu7  1  0.81865957  0.71548067  0.70960418  1
  F  F8  1  0.04545852  0.81688063  0.63631868  1
  F  F9  1  0.10218692  0.37709901  0.94234543  1
  F  F10  1  0.22293417  0.56765764  0.45023473  1
  F  F11  1  0.37685646  0.79138222  0.93207216  1
  F  F12  1  0.29425580  0.24590275  0.65714925  1
  F  F13  1  0.18447233  0.02067222  0.17386596  1
  F  F14  1  0.40991474  0.41507839  0.17829107  1
  F  F15  1  0.59008526  0.58492161  0.82170893  1
  F  F16  1  0.81552767  0.97932778  0.82613404  1
  F  F17  1  0.70574420  0.75409725  0.34285075  1
  F  F18  1  0.62314354  0.20861778  0.06792784  1
  F  F19  1  0.77706583  0.43234236  0.54976527  1
  F  F20  1  0.89781308  0.62290099  0.05765457  1
  F  F21  1  0.95454148  0.18311937  0.36368132  1
