# generated using pymatgen
data_Nb3O7F
_symmetry_space_group_name_H-M   'P 1'
_cell_length_a   16.02879129
_cell_length_b   10.52278240
_cell_length_c   3.88590649
_cell_angle_alpha   90.00000000
_cell_angle_beta   90.00000000
_cell_angle_gamma   90.00000000
_symmetry_Int_Tables_number   1
_chemical_formula_structural   Nb3O7F
_chemical_formula_sum   'Nb12 O28 F4'
_cell_volume   655.42606637
_cell_formula_units_Z   4
loop_
 _symmetry_equiv_pos_site_id
 _symmetry_equiv_pos_as_xyz
  1  'x, y, z'
loop_
 _atom_site_type_symbol
 _atom_site_label
 _atom_site_symmetry_multiplicity
 _atom_site_fract_x
 _atom_site_fract_y
 _atom_site_fract_z
 _atom_site_occupancy
  Nb  Nb0  1  0.03607502  0.25000000  0.45537901  1
  Nb  Nb1  1  0.16684955  0.55052417  0.49850022  1
  Nb  Nb2  1  0.16684955  0.94947583  0.49850022  1
  Nb  Nb3  1  0.33315045  0.05052417  0.99850022  1
  Nb  Nb4  1  0.33315045  0.44947583  0.99850022  1
  Nb  Nb5  1  0.46392498  0.75000000  0.95537901  1
  Nb  Nb6  1  0.53607502  0.25000000  0.04462099  1
  Nb  Nb7  1  0.66684955  0.55052417  0.00149978  1
  Nb  Nb8  1  0.66684955  0.94947583  0.00149978  1
  Nb  Nb9  1  0.83315045  0.05052417  0.50149978  1
  Nb  Nb10  1  0.83315045  0.44947583  0.50149978  1
  Nb  Nb11  1  0.96392498  0.75000000  0.54462099  1
  O  O12  1  0.02908614  0.25000000  0.98448004  1
  O  O13  1  0.06359301  0.62467698  0.50820946  1
  O  O14  1  0.06359301  0.87532302  0.50820946  1
  O  O15  1  0.12006817  0.11339255  0.49095104  1
  O  O16  1  0.12006817  0.38660745  0.49095104  1
  O  O17  1  0.20320229  0.95682543  0.99730587  1
  O  O18  1  0.20320229  0.54317457  0.99730587  1
  O  O19  1  0.29679771  0.04317457  0.49730587  1
  O  O20  1  0.29679771  0.45682543  0.49730587  1
  O  O21  1  0.37993183  0.61339255  0.99095104  1
  O  O22  1  0.37993183  0.88660745  0.99095104  1
  O  O23  1  0.43640699  0.12467698  0.00820946  1
  O  O24  1  0.43640699  0.37532302  0.00820946  1
  O  O25  1  0.47091386  0.75000000  0.48448004  1
  O  O26  1  0.52908614  0.25000000  0.51551996  1
  O  O27  1  0.56359301  0.62467698  0.99179054  1
  O  O28  1  0.56359301  0.87532302  0.99179054  1
  O  O29  1  0.62006817  0.11339255  0.00904896  1
  O  O30  1  0.62006817  0.38660745  0.00904896  1
  O  O31  1  0.70320229  0.54317457  0.50269413  1
  O  O32  1  0.70320229  0.95682543  0.50269413  1
  O  O33  1  0.79679771  0.04317457  0.00269413  1
  O  O34  1  0.79679771  0.45682543  0.00269413  1
  O  O35  1  0.87993183  0.61339255  0.50904896  1
  O  O36  1  0.87993183  0.88660745  0.50904896  1
  O  O37  1  0.93640699  0.12467698  0.49179054  1
  O  O38  1  0.93640699  0.37532302  0.49179054  1
  O  O39  1  0.97091386  0.75000000  0.01551996  1
  F  F40  1  0.21346176  0.75000000  0.49474648  1
  F  F41  1  0.28653824  0.25000000  0.99474648  1
  F  F42  1  0.71346176  0.75000000  0.00525352  1
  F  F43  1  0.78653824  0.25000000  0.50525352  1
