# generated using pymatgen
data_Na2CuP2O7
_symmetry_space_group_name_H-M   'P 1'
_cell_length_a   9.00653912
_cell_length_b   8.83659494
_cell_length_c   5.16027948
_cell_angle_alpha   107.06139838
_cell_angle_beta   90.05392947
_cell_angle_gamma   66.21965095
_symmetry_Int_Tables_number   1
_chemical_formula_structural   Na2CuP2O7
_chemical_formula_sum   'Na4 Cu2 P4 O14'
_cell_volume   356.03570370
_cell_formula_units_Z   2
loop_
 _symmetry_equiv_pos_site_id
 _symmetry_equiv_pos_as_xyz
  1  'x, y, z'
loop_
 _atom_site_type_symbol
 _atom_site_label
 _atom_site_symmetry_multiplicity
 _atom_site_fract_x
 _atom_site_fract_y
 _atom_site_fract_z
 _atom_site_occupancy
  Na  Na0  1  0.56699756  0.11655196  0.94749139  1
  Na  Na1  1  0.06918958  0.11338801  0.67527969  1
  Na  Na2  1  0.92813972  0.88925777  0.32693234  1
  Na  Na3  1  0.42898320  0.88742367  0.05203095  1
  Cu  Cu4  1  0.49793360  0.50219015  0.00142528  1
  Cu  Cu5  1  0.00083041  0.50194350  0.00161846  1
  P  P6  1  0.81147622  0.31846367  0.26501654  1
  P  P7  1  0.31193882  0.31655896  0.55770664  1
  P  P8  1  0.68686176  0.68650624  0.44493342  1
  P  P9  1  0.18758155  0.68337368  0.73416465  1
  O  O10  1  0.87710066  0.16993428  0.38387826  1
  O  O11  1  0.37723045  0.16645592  0.29361484  1
  O  O12  1  0.94218890  0.32004847  0.07451930  1
  O  O13  1  0.65914278  0.31936981  0.12296464  1
  O  O14  1  0.44223800  0.32033318  0.75051389  1
  O  O15  1  0.15998806  0.31826861  0.70199299  1
  O  O16  1  0.74892804  0.50334299  0.51807617  1
  O  O17  1  0.25133572  0.49804426  0.48274212  1
  O  O18  1  0.83879794  0.68454546  0.30024875  1
  O  O19  1  0.55575841  0.68478614  0.25342025  1
  O  O20  1  0.33823991  0.68291142  0.87976818  1
  O  O21  1  0.05593312  0.68175437  0.92383996  1
  O  O22  1  0.62207093  0.83510553  0.71283156  1
  O  O23  1  0.12428367  0.83100194  0.61469473  1
