# generated using pymatgen
data_TiNb2O7
_symmetry_space_group_name_H-M   'P 1'
_cell_length_a   11.46526137
_cell_length_b   10.56089084
_cell_length_c   7.67665984
_cell_angle_alpha   100.47392282
_cell_angle_beta   99.63425292
_cell_angle_gamma   66.87256213
_symmetry_Int_Tables_number   1
_chemical_formula_structural   TiNb2O7
_chemical_formula_sum   'Ti6 Nb12 O42'
_cell_volume   835.82533303
_cell_formula_units_Z   6
loop_
 _symmetry_equiv_pos_site_id
 _symmetry_equiv_pos_as_xyz
  1  'x, y, z'
loop_
 _atom_site_type_symbol
 _atom_site_label
 _atom_site_symmetry_multiplicity
 _atom_site_fract_x
 _atom_site_fract_y
 _atom_site_fract_z
 _atom_site_occupancy
  Ti  Ti0  1  0.00228824  0.36867373  0.59150164  1
  Ti  Ti1  1  0.35951118  0.47881098  0.45878204  1
  Ti  Ti2  1  0.63677876  0.78058543  0.35362010  1
  Ti  Ti3  1  0.62738315  0.79106157  0.85531905  1
  Ti  Ti4  1  0.37309175  0.21846420  0.14796058  1
  Ti  Ti5  1  0.62717758  0.14443580  0.94323917  1
  Nb  Nb6  1  0.36710059  0.85931906  0.05739053  1
  Nb  Nb7  1  0.37109699  0.83940434  0.55151183  1
  Nb  Nb8  1  0.01603655  0.35970707  0.09541185  1
  Nb  Nb9  1  0.36106214  0.48163550  0.96237167  1
  Nb  Nb10  1  0.98407098  0.00409417  0.99709334  1
  Nb  Nb11  1  0.99889422  0.01126467  0.50254524  1
  Nb  Nb12  1  0.36481665  0.21642430  0.64516941  1
  Nb  Nb13  1  0.64017158  0.51903302  0.03897657  1
  Nb  Nb14  1  0.63952003  0.51923871  0.54036303  1
  Nb  Nb15  1  0.99772698  0.63619155  0.40963945  1
  Nb  Nb16  1  0.98465687  0.63489517  0.90336564  1
  Nb  Nb17  1  0.62961234  0.14397726  0.44253971  1
  O  O18  1  0.19632556  0.91235806  0.02673217  1
  O  O19  1  0.19760677  0.90876856  0.52703438  1
  O  O20  1  0.99733870  0.58301352  0.14549647  1
  O  O21  1  0.99708147  0.58158381  0.64415114  1
  O  O22  1  0.19041891  0.55297042  0.43571617  1
  O  O23  1  0.18735237  0.55564818  0.93625078  1
  O  O24  1  0.41883085  0.83411213  0.31378982  1
  O  O25  1  0.42175060  0.83421726  0.81342204  1
  O  O26  1  0.00657875  0.18616618  0.04825592  1
  O  O27  1  0.00657037  0.19222460  0.54974980  1
  O  O28  1  0.61117173  0.96682637  0.39464766  1
  O  O29  1  0.61174382  0.96911429  0.89498153  1
  O  O30  1  0.41385795  0.63638021  0.01304963  1
  O  O31  1  0.41292676  0.63187715  0.51096725  1
  O  O32  1  0.19967458  0.29461536  0.12312167  1
  O  O33  1  0.19079347  0.29635573  0.62196599  1
  O  O34  1  0.00404563  0.99653141  0.24983099  1
  O  O35  1  0.00343145  0.99739695  0.75053797  1
  O  O36  1  0.59858552  0.75175285  0.08717589  1
  O  O37  1  0.59772107  0.75041394  0.58738947  1
  O  O38  1  0.37652271  0.42631579  0.20287593  1
  O  O39  1  0.37620068  0.42704294  0.69905956  1
  O  O40  1  0.62245233  0.57715604  0.30033912  1
  O  O41  1  0.62205988  0.57472024  0.79861683  1
  O  O42  1  0.40370919  0.24947022  0.41226923  1
  O  O43  1  0.40317869  0.25007300  0.91434355  1
  O  O44  1  0.80547614  0.70450029  0.37750036  1
  O  O45  1  0.80230475  0.70559254  0.87686258  1
  O  O46  1  0.58660474  0.36622719  0.48758359  1
  O  O47  1  0.58581266  0.36674043  0.98876463  1
  O  O48  1  0.38845297  0.03693553  0.10682526  1
  O  O49  1  0.39049555  0.02862273  0.60439960  1
  O  O50  1  0.99487212  0.81315127  0.45329706  1
  O  O51  1  0.99631129  0.80901835  0.95013212  1
  O  O52  1  0.57991739  0.16632237  0.18475793  1
  O  O53  1  0.58179527  0.16591426  0.68871346  1
  O  O54  1  0.81350201  0.44320282  0.06391147  1
  O  O55  1  0.81431940  0.44315139  0.56443935  1
  O  O56  1  0.00406181  0.41263624  0.35554023  1
  O  O57  1  0.00370714  0.41478105  0.85354150  1
  O  O58  1  0.79889354  0.08932990  0.97293935  1
  O  O59  1  0.80454781  0.08955285  0.47221672  1
