# generated using pymatgen
data_Ba4Ti11O26
_symmetry_space_group_name_H-M   'P 1'
_cell_length_a   7.97803712
_cell_length_b   7.84610870
_cell_length_c   10.03883225
_cell_angle_alpha   67.02347324
_cell_angle_beta   91.86954333
_cell_angle_gamma   75.80958926
_symmetry_Int_Tables_number   1
_chemical_formula_structural   Ba4Ti11O26
_chemical_formula_sum   'Ba4 Ti11 O26'
_cell_volume   555.06261898
_cell_formula_units_Z   1
loop_
 _symmetry_equiv_pos_site_id
 _symmetry_equiv_pos_as_xyz
  1  'x, y, z'
loop_
 _atom_site_type_symbol
 _atom_site_label
 _atom_site_symmetry_multiplicity
 _atom_site_fract_x
 _atom_site_fract_y
 _atom_site_fract_z
 _atom_site_occupancy
  Ba  Ba0  1  0.09057259  0.08334884  0.77240032  1
  Ba  Ba1  1  0.09471755  0.59795434  0.77191557  1
  Ba  Ba2  1  0.89380482  0.91215136  0.20998479  1
  Ba  Ba3  1  0.89377027  0.43148810  0.21006760  1
  Ti  Ti4  1  0.23700110  0.64318030  0.09491927  1
  Ti  Ti5  1  0.23964824  0.14298359  0.09683546  1
  Ti  Ti6  1  0.33528917  0.94607831  0.44263336  1
  Ti  Ti7  1  0.33735340  0.44131140  0.44616016  1
  Ti  Ti8  1  0.49776631  0.74522312  0.78171786  1
  Ti  Ti9  1  0.49548183  0.22457777  0.78170983  1
  Ti  Ti10  1  0.52050443  0.75385741  0.22933693  1
  Ti  Ti11  1  0.52560025  0.25375522  0.23460188  1
  Ti  Ti12  1  0.66588665  0.04815508  0.56943991  1
  Ti  Ti13  1  0.65597094  0.55561372  0.56253022  1
  Ti  Ti14  1  0.75703590  0.36120423  0.90000209  1
  O  O15  1  0.02230820  0.73997280  0.00748631  1
  O  O16  1  0.00165230  0.24949106  0.00010746  1
  O  O17  1  0.14619520  0.06449725  0.29439364  1
  O  O18  1  0.14976396  0.56413973  0.29984584  1
  O  O19  1  0.25960607  0.87584332  0.61655922  1
  O  O20  1  0.25763699  0.37714663  0.61941562  1
  O  O21  1  0.34396821  0.70909877  0.91417417  1
  O  O22  1  0.33765317  0.20511046  0.91615758  1
  O  O23  1  0.27478869  0.87624265  0.11418173  1
  O  O24  1  0.27496821  0.37199872  0.11364753  1
  O  O25  1  0.40293002  0.68143665  0.43635636  1
  O  O26  1  0.39667404  0.18751877  0.42518432  1
  O  O27  1  0.50546644  0.00505723  0.73791961  1
  O  O28  1  0.51965986  0.49163428  0.75720892  1
  O  O29  1  0.47519934  0.01191381  0.24116072  1
  O  O30  1  0.48478843  0.50318503  0.24800735  1
  O  O31  1  0.59665648  0.81343201  0.57369448  1
  O  O32  1  0.59612787  0.31381160  0.57543146  1
  O  O33  1  0.71900161  0.61450656  0.88725468  1
  O  O34  1  0.71619988  0.13940274  0.88678059  1
  O  O35  1  0.66390201  0.29005890  0.08802278  1
  O  O36  1  0.66208443  0.78279654  0.10320424  1
  O  O37  1  0.73760346  0.62296611  0.38830323  1
  O  O38  1  0.72740298  0.12774692  0.37603352  1
  O  O39  1  0.85227298  0.43494137  0.70417988  1
  O  O40  1  0.87489670  0.94804732  0.66536353  1
