# generated using pymatgen
data_Bi2O3
_symmetry_space_group_name_H-M   'P 1'
_cell_length_a   10.41362084
_cell_length_b   10.41362084
_cell_length_c   10.41362084
_cell_angle_alpha   90.04988895
_cell_angle_beta   90.04988895
_cell_angle_gamma   90.04988895
_symmetry_Int_Tables_number   1
_chemical_formula_structural   Bi2O3
_chemical_formula_sum   'Bi26 O39'
_cell_volume   1129.28819763
_cell_formula_units_Z   13
loop_
 _symmetry_equiv_pos_site_id
 _symmetry_equiv_pos_as_xyz
  1  'x, y, z'
loop_
 _atom_site_type_symbol
 _atom_site_label
 _atom_site_symmetry_multiplicity
 _atom_site_fract_x
 _atom_site_fract_y
 _atom_site_fract_z
 _atom_site_occupancy
  Bi  Bi0  1  0.98090547  0.33235228  0.18207785  1
  Bi  Bi1  1  0.98505157  0.68451024  0.82309221  1
  Bi  Bi2  1  0.81967478  0.01374106  0.32464024  1
  Bi  Bi3  1  0.82309221  0.98505157  0.68451024  1
  Bi  Bi4  1  0.81861154  0.67907318  0.49010362  1
  Bi  Bi5  1  0.81705815  0.32174175  0.51336260  1
  Bi  Bi6  1  0.68714071  0.17607051  0.01608846  1
  Bi  Bi7  1  0.68451024  0.82309221  0.98505157  1
  Bi  Bi8  1  0.67907318  0.49010362  0.81861154  1
  Bi  Bi9  1  0.67374603  0.51147411  0.17878318  1
  Bi  Bi10  1  0.51336260  0.81705815  0.32174175  1
  Bi  Bi11  1  0.51147411  0.17878318  0.67374603  1
  Bi  Bi12  1  0.50004233  0.50004233  0.50004233  1
  Bi  Bi13  1  0.48851101  0.18213440  0.32037716  1
  Bi  Bi14  1  0.49010362  0.81861154  0.67907318  1
  Bi  Bi15  1  0.32174175  0.51336260  0.81705815  1
  Bi  Bi16  1  0.32037716  0.48851101  0.18213440  1
  Bi  Bi17  1  0.33235228  0.18207785  0.98090547  1
  Bi  Bi18  1  0.32464024  0.81967478  0.01374106  1
  Bi  Bi19  1  0.17878318  0.67374603  0.51147411  1
  Bi  Bi20  1  0.18213440  0.32037716  0.48851101  1
  Bi  Bi21  1  0.18207785  0.98090547  0.33235228  1
  Bi  Bi22  1  0.17607051  0.01608846  0.68714071  1
  Bi  Bi23  1  0.01608846  0.68714071  0.17607051  1
  Bi  Bi24  1  0.01374106  0.32464024  0.81967478  1
  Bi  Bi25  1  0.01360455  0.01360455  0.01360455  1
  O  O26  1  0.00764338  0.25492516  0.36622098  1
  O  O27  1  0.00692371  0.74404371  0.63076655  1
  O  O28  1  0.88616060  0.88336518  0.10495098  1
  O  O29  1  0.88336518  0.10495098  0.88616060  1
  O  O30  1  0.86664859  0.49164533  0.24283441  1
  O  O31  1  0.87070085  0.50654636  0.75711980  1
  O  O32  1  0.81642264  0.18562227  0.18631291  1
  O  O33  1  0.80982162  0.80982162  0.80982162  1
  O  O34  1  0.75711980  0.87070085  0.50654636  1
  O  O35  1  0.75607807  0.12986664  0.49267340  1
  O  O36  1  0.74549805  0.36866774  0.99452891  1
  O  O37  1  0.74404371  0.63076655  0.00692371  1
  O  O38  1  0.68527235  0.68353356  0.31389315  1
  O  O39  1  0.68353356  0.31389315  0.68527235  1
  O  O40  1  0.63068556  0.99326776  0.25562998  1
  O  O41  1  0.63076655  0.00692371  0.74404371  1
  O  O42  1  0.62420199  0.37363685  0.37270241  1
  O  O43  1  0.62671956  0.62671956  0.62671956  1
  O  O44  1  0.49267340  0.75607807  0.12986664  1
  O  O45  1  0.49164533  0.24283441  0.86664859  1
  O  O46  1  0.50654636  0.75711980  0.87070085  1
  O  O47  1  0.50741985  0.24126282  0.12702618  1
  O  O48  1  0.37363685  0.37270241  0.62420199  1
  O  O49  1  0.37270241  0.62420199  0.37363685  1
  O  O50  1  0.36622098  0.00764338  0.25492516  1
  O  O51  1  0.36866774  0.99452891  0.74549805  1
  O  O52  1  0.31337215  0.31337215  0.31337215  1
  O  O53  1  0.31389315  0.68527235  0.68353356  1
  O  O54  1  0.25562998  0.63068556  0.99326776  1
  O  O55  1  0.25492516  0.36622098  0.00764338  1
  O  O56  1  0.24283441  0.86664859  0.49164533  1
  O  O57  1  0.24126282  0.12702618  0.50741985  1
  O  O58  1  0.18631291  0.81642264  0.18562227  1
  O  O59  1  0.18562227  0.18631291  0.81642264  1
  O  O60  1  0.12986664  0.49267340  0.75607807  1
  O  O61  1  0.12702618  0.50741985  0.24126282  1
  O  O62  1  0.10495098  0.88616060  0.88336518  1
  O  O63  1  0.99326776  0.25562998  0.63068556  1
  O  O64  1  0.99452891  0.74549805  0.36866774  1
