# generated using pymatgen
data_KZrPCO7
_symmetry_space_group_name_H-M   'P 1'
_cell_length_a   10.05060243
_cell_length_b   6.71411916
_cell_length_c   5.86252144
_cell_angle_alpha   90.00000000
_cell_angle_beta   89.23287030
_cell_angle_gamma   90.00000000
_symmetry_Int_Tables_number   1
_chemical_formula_structural   KZrPCO7
_chemical_formula_sum   'K2 Zr2 P2 C2 O14'
_cell_volume   395.57301257
_cell_formula_units_Z   2
loop_
 _symmetry_equiv_pos_site_id
 _symmetry_equiv_pos_as_xyz
  1  'x, y, z'
loop_
 _atom_site_type_symbol
 _atom_site_label
 _atom_site_symmetry_multiplicity
 _atom_site_fract_x
 _atom_site_fract_y
 _atom_site_fract_z
 _atom_site_occupancy
  K  K0  1  0.21776472  0.45125063  0.25339569  1
  K  K1  1  0.78223528  0.95125063  0.74660431  1
  Zr  Zr2  1  0.34768291  0.77600430  0.77780425  1
  Zr  Zr3  1  0.65231709  0.27600430  0.22219575  1
  P  P4  1  0.44979915  0.26977648  0.72863567  1
  P  P5  1  0.55020085  0.76977648  0.27136433  1
  C  C6  1  0.09429384  0.73060077  0.72225098  1
  C  C7  1  0.90570616  0.23060077  0.27774902  1
  O  O8  1  0.02550599  0.20701103  0.30491696  1
  O  O9  1  0.15489845  0.74126557  0.92564797  1
  O  O10  1  0.18504034  0.74878649  0.55171577  1
  O  O11  1  0.36037728  0.08499933  0.76847414  1
  O  O12  1  0.36429198  0.45671061  0.77080797  1
  O  O13  1  0.43226493  0.76195544  0.10396270  1
  O  O14  1  0.50469512  0.26948834  0.48028510  1
  O  O15  1  0.49530488  0.76948834  0.51971490  1
  O  O16  1  0.56773507  0.26195544  0.89603730  1
  O  O17  1  0.63570802  0.95671061  0.22919203  1
  O  O18  1  0.63962272  0.58499933  0.23152586  1
  O  O19  1  0.81495966  0.24878649  0.44828423  1
  O  O20  1  0.84510155  0.24126557  0.07435203  1
  O  O21  1  0.97449401  0.70701103  0.69508304  1
