# generated using pymatgen
data_In3Cu3O8
_symmetry_space_group_name_H-M   'P 1'
_cell_length_a   6.19008855
_cell_length_b   10.25796641
_cell_length_c   6.02600590
_cell_angle_alpha   89.82762436
_cell_angle_beta   69.91403962
_cell_angle_gamma   89.95840404
_symmetry_Int_Tables_number   1
_chemical_formula_structural   In3Cu3O8
_chemical_formula_sum   'In6 Cu6 O16'
_cell_volume   359.36337209
_cell_formula_units_Z   2
loop_
 _symmetry_equiv_pos_site_id
 _symmetry_equiv_pos_as_xyz
  1  'x, y, z'
loop_
 _atom_site_type_symbol
 _atom_site_label
 _atom_site_symmetry_multiplicity
 _atom_site_fract_x
 _atom_site_fract_y
 _atom_site_fract_z
 _atom_site_occupancy
  In  In0  1  0.46014391  0.16670529  0.01512225  1
  In  In1  1  0.50010612  0.50002195  0.99988481  1
  In  In2  1  0.49993948  0.00000578  0.50008893  1
  In  In3  1  0.53954274  0.83316737  0.98502931  1
  In  In4  1  0.46017598  0.33331388  0.51514757  1
  In  In5  1  0.53995852  0.66662965  0.48475470  1
  Cu  Cu6  1  -0.00003906  0.00006917  -0.00003382  1
  Cu  Cu7  1  0.98472451  0.30745056  0.98441239  1
  Cu  Cu8  1  0.98488933  0.19262447  0.48425636  1
  Cu  Cu9  1  0.01542433  0.69252678  0.01528329  1
  Cu  Cu10  1  0.00003695  0.50009755  0.49999632  1
  Cu  Cu11  1  0.01503357  0.80726204  0.51612132  1
  O  O12  1  0.02089717  0.15511454  0.16134400  1
  O  O13  1  0.67346840  0.01006522  0.10880832  1
  O  O14  1  0.65756191  0.32866619  0.11594667  1
  O  O15  1  0.30508588  0.15959961  0.40928599  1
  O  O16  1  0.02072153  0.34419580  0.66085177  1
  O  O17  1  0.32647817  0.51017894  0.39117540  1
  O  O18  1  0.32632451  0.98986288  0.89127270  1
  O  O19  1  0.69483484  0.65939982  0.09064904  1
  O  O20  1  0.65777938  0.17133953  0.61592076  1
  O  O21  1  0.97936832  0.65605719  0.33918412  1
  O  O22  1  0.30512856  0.34057531  0.90915595  1
  O  O23  1  0.34182104  0.82852783  0.38454493  1
  O  O24  1  0.67366572  0.48977786  0.60868145  1
  O  O25  1  0.34256932  0.67127287  0.88382280  1
  O  O26  1  0.69520382  0.84029671  0.59090621  1
  O  O27  1  0.97915303  0.84516121  0.83828547  1
