# generated using pymatgen
data_AsP3H18C6(SO)6
_symmetry_space_group_name_H-M   'P 1'
_cell_length_a   8.63282991
_cell_length_b   9.28752030
_cell_length_c   15.15940459
_cell_angle_alpha   80.97972555
_cell_angle_beta   75.97627192
_cell_angle_gamma   87.39783001
_symmetry_Int_Tables_number   1
_chemical_formula_structural   AsP3H18C6(SO)6
_chemical_formula_sum   'As2 P6 H36 C12 S12 O12'
_cell_volume   1164.60035487
_cell_formula_units_Z   2
loop_
 _symmetry_equiv_pos_site_id
 _symmetry_equiv_pos_as_xyz
  1  'x, y, z'
loop_
 _atom_site_type_symbol
 _atom_site_label
 _atom_site_symmetry_multiplicity
 _atom_site_fract_x
 _atom_site_fract_y
 _atom_site_fract_z
 _atom_site_occupancy
  As  As0  1  0.49614461  0.20436120  0.26542913  1
  As  As1  1  0.50385539  0.79563880  0.73457087  1
  P  P2  1  0.23751753  0.55406781  0.84104341  1
  P  P3  1  0.25777459  0.27425525  0.45621545  1
  P  P4  1  0.74222541  0.72574475  0.54378455  1
  P  P5  1  0.45770968  0.92987097  0.16541615  1
  P  P6  1  0.54229032  0.07012903  0.83458385  1
  P  P7  1  0.76248247  0.44593219  0.15895659  1
  H  H8  1  0.76989795  0.01995150  0.05174907  1
  H  H9  1  0.29422062  0.00714038  0.58097005  1
  H  H10  1  0.14393782  0.64408094  0.45366821  1
  H  H11  1  0.34827156  0.58079887  0.43497223  1
  H  H12  1  0.70577938  0.99285962  0.41902995  1
  H  H13  1  0.85606218  0.35591906  0.54633179  1
  H  H14  1  0.20115819  0.13965879  0.86888010  1
  H  H15  1  0.64351141  0.44908632  0.99471044  1
  H  H16  1  0.81662753  0.53893147  0.91885371  1
  H  H17  1  0.14317380  0.82885486  0.27381596  1
  H  H18  1  0.19377499  0.96549663  0.49714071  1
  H  H19  1  0.23010205  0.98004850  0.94825093  1
  H  H20  1  0.35648859  0.55091368  0.00528956  1
  H  H21  1  0.18337247  0.46106853  0.08114629  1
  H  H22  1  0.79884181  0.86034121  0.13111990  1
  H  H23  1  0.06891623  0.81651033  0.17419260  1
  H  H24  1  0.08327518  0.97033352  0.61345285  1
  H  H25  1  0.85682620  0.17114514  0.72618404  1
  H  H26  1  0.18408564  0.15429589  0.98748150  1
  H  H27  1  0.65172844  0.41920113  0.56502777  1
  H  H28  1  0.80622501  0.03450337  0.50285929  1
  H  H29  1  0.91672482  0.02966648  0.38654715  1
  H  H30  1  0.83367536  0.35621067  0.97620483  1
  H  H31  1  0.11715976  0.36006045  0.68708631  1
  H  H32  1  0.76723559  0.43797463  0.64660314  1
  H  H33  1  0.93108377  0.18348967  0.82580740  1
  H  H34  1  0.16632464  0.64378933  0.02379517  1
  H  H35  1  0.30082135  0.45730089  0.66348566  1
  H  H36  1  0.69917865  0.54269911  0.33651434  1
  H  H37  1  0.88683961  0.44452395  0.32195864  1
  H  H38  1  0.88425858  0.00835971  0.80289178  1
  H  H39  1  0.23276441  0.56202537  0.35339686  1
  H  H40  1  0.11316039  0.55547605  0.67804136  1
  H  H41  1  0.11574142  0.99164029  0.19710822  1
  H  H42  1  0.81591436  0.84570411  0.01251850  1
  H  H43  1  0.88284024  0.63993955  0.31291369  1
  C  C44  1  0.22675993  0.53790611  0.01817027  1
  C  C45  1  0.81777116  0.98140893  0.44162318  1
  C  C46  1  0.17429503  0.45480637  0.70005140  1
  C  C47  1  0.75411532  0.90135883  0.06988554  1
  C  C48  1  0.24588468  0.09864117  0.93011446  1
  C  C49  1  0.77133417  0.43864335  0.57353605  1
  C  C50  1  0.77324007  0.46209389  0.98182973  1
  C  C51  1  0.85093424  0.12453560  0.79814972  1
  C  C52  1  0.14906576  0.87546440  0.20185028  1
  C  C53  1  0.22866583  0.56135665  0.42646395  1
  C  C54  1  0.82570497  0.54519363  0.29994860  1
  C  C55  1  0.18222884  0.01859107  0.55837682  1
  S  S56  1  0.55781432  0.84708689  0.87239233  1
  S  S57  1  0.51758911  0.45787859  0.20410029  1
  S  S58  1  0.48241089  0.54212141  0.79589971  1
  S  S59  1  0.48506076  0.26218635  0.45487676  1
  S  S60  1  0.16028601  0.75537179  0.81718405  1
  S  S61  1  0.83971399  0.24462821  0.18281595  1
  S  S62  1  0.48839002  0.88209656  0.29073308  1
  S  S63  1  0.51160998  0.11790344  0.70926692  1
  S  S64  1  0.44218568  0.15291311  0.12760767  1
  S  S65  1  0.51493924  0.73781365  0.54512324  1
  S  S66  1  0.21708824  0.23355771  0.33350438  1
  S  S67  1  0.78291176  0.76644229  0.66649562  1
  O  O68  1  0.18722464  0.47414285  0.94503635  1
  O  O69  1  0.14148190  0.17181724  0.53869683  1
  O  O70  1  0.81277536  0.52585715  0.05496365  1
  O  O71  1  0.15890887  0.43601940  0.79876402  1
  O  O72  1  0.30732736  0.85636185  0.14542487  1
  O  O73  1  0.41290371  0.13485772  0.91349647  1
  O  O74  1  0.85851810  0.82818276  0.46130317  1
  O  O75  1  0.69267264  0.14363815  0.85457513  1
  O  O76  1  0.58709629  0.86514228  0.08650353  1
  O  O77  1  0.84109113  0.56398060  0.20123598  1
  O  O78  1  0.16807808  0.42315093  0.47992128  1
  O  O79  1  0.83192192  0.57684907  0.52007872  1
