# generated using pymatgen
data_VFe3Sb2(PO4)6
_symmetry_space_group_name_H-M   'P 1'
_cell_length_a   8.88420823
_cell_length_b   8.68802114
_cell_length_c   8.68802149
_cell_angle_alpha   60.00000319
_cell_angle_beta   60.72783437
_cell_angle_gamma   60.72783829
_symmetry_Int_Tables_number   1
_chemical_formula_structural   VFe3Sb2(PO4)6
_chemical_formula_sum   'V1 Fe3 Sb2 P6 O24'
_cell_volume   479.33228670
_cell_formula_units_Z   1
loop_
 _symmetry_equiv_pos_site_id
 _symmetry_equiv_pos_as_xyz
  1  'x, y, z'
loop_
 _atom_site_type_symbol
 _atom_site_label
 _atom_site_symmetry_multiplicity
 _atom_site_fract_x
 _atom_site_fract_y
 _atom_site_fract_z
 _atom_site_occupancy
  V  V0  1  0.56611628  0.14462757  0.14462757  1
  Fe  Fe1  1  0.05053669  0.64982110  0.64982110  1
  Fe  Fe2  1  0.45673755  0.84775448  0.84775448  1
  Fe  Fe3  1  0.94577979  0.35140640  0.35140640  1
  Sb  Sb4  1  0.02774819  0.99075060  0.99075060  1
  Sb  Sb5  1  0.50298339  0.49900587  0.49900587  1
  P  P6  1  0.24842286  0.25095462  0.53956887  1
  P  P7  1  0.24842286  0.96105265  0.25095462  1
  P  P8  1  0.24842286  0.53956887  0.96105265  1
  P  P9  1  0.74951104  0.45795407  0.04383234  1
  P  P10  1  0.74951104  0.04383234  0.74870154  1
  P  P11  1  0.74951104  0.74870154  0.45795407  1
  O  O12  1  0.07101494  0.11552153  0.30322724  1
  O  O13  1  0.07101494  0.51023729  0.11552153  1
  O  O14  1  0.07101494  0.30322724  0.51023729  1
  O  O15  1  0.24403822  0.08118391  0.73528487  1
  O  O16  1  0.42213304  0.19209846  0.38805315  1
  O  O17  1  0.25352387  0.41666862  0.56183079  1
  O  O18  1  0.24403822  0.93949300  0.08118391  1
  O  O19  1  0.25352387  0.76797772  0.41666862  1
  O  O20  1  0.57512493  0.61871583  0.01010060  1
  O  O21  1  0.25352387  0.56183079  0.76797772  1
  O  O22  1  0.75226773  0.26781485  0.06678965  1
  O  O23  1  0.57512493  0.01010060  0.79605864  1
  O  O24  1  0.42213304  0.99771535  0.19209846  1
  O  O25  1  0.24403822  0.73528487  0.93949300  1
  O  O26  1  0.74320907  0.43951856  0.23670627  1
  O  O27  1  0.42213304  0.38805315  0.99771535  1
  O  O28  1  0.74320907  0.23670627  0.58056609  1
  O  O29  1  0.75226773  0.06678965  0.91312777  1
  O  O30  1  0.74320907  0.58056609  0.43951856  1
  O  O31  1  0.57512493  0.79605864  0.61871583  1
  O  O32  1  0.75226773  0.91312777  0.26781485  1
  O  O33  1  0.92412033  0.69823248  0.49229989  1
  O  O34  1  0.92412033  0.49229989  0.88534830  1
  O  O35  1  0.92412033  0.88534830  0.69823248  1
