# generated using pymatgen
data_Li2Cu3F11
_symmetry_space_group_name_H-M   'P 1'
_cell_length_a   9.13346434
_cell_length_b   7.29583904
_cell_length_c   6.20153966
_cell_angle_alpha   90.00000000
_cell_angle_beta   93.58824263
_cell_angle_gamma   90.00000000
_symmetry_Int_Tables_number   1
_chemical_formula_structural   Li2Cu3F11
_chemical_formula_sum   'Li4 Cu6 F22'
_cell_volume   412.43743516
_cell_formula_units_Z   2
loop_
 _symmetry_equiv_pos_site_id
 _symmetry_equiv_pos_as_xyz
  1  'x, y, z'
loop_
 _atom_site_type_symbol
 _atom_site_label
 _atom_site_symmetry_multiplicity
 _atom_site_fract_x
 _atom_site_fract_y
 _atom_site_fract_z
 _atom_site_occupancy
  Li  Li0  1  0.14118369  0.75000000  0.15251571  1
  Li  Li1  1  0.24418893  0.25000000  0.23996485  1
  Li  Li2  1  0.73996723  0.75000000  0.76389394  1
  Li  Li3  1  0.83985920  0.25000000  0.86932692  1
  Cu  Cu4  1  0.11750963  0.50092474  0.68285494  1
  Cu  Cu5  1  0.11750963  0.99907526  0.68285494  1
  Cu  Cu6  1  0.49291640  0.50015568  0.51851243  1
  Cu  Cu7  1  0.49291640  -0.00015568  0.51851243  1
  Cu  Cu8  1  0.86882226  0.49856282  0.34184318  1
  Cu  Cu9  1  0.86882226  0.00143718  0.34184318  1
  F  F10  1  0.05676184  0.25000000  0.75812865  1
  F  F11  1  0.14660551  0.95690656  0.97650961  1
  F  F12  1  0.14660551  0.54309344  0.97650961  1
  F  F13  1  0.15436156  0.75000000  0.58991384  1
  F  F14  1  0.08473304  0.05676771  0.37233626  1
  F  F15  1  0.08473304  0.44323229  0.37233626  1
  F  F16  1  0.31856336  0.05579410  0.66693074  1
  F  F17  1  0.31856336  0.44420590  0.66693074  1
  F  F18  1  0.43375109  0.75000000  0.47064439  1
  F  F19  1  0.39355129  0.05786265  0.26476259  1
  F  F20  1  0.39355129  0.44213735  0.26476259  1
  F  F21  1  0.55099232  0.25000000  0.56710615  1
  F  F22  1  0.59230831  0.55765396  0.77050540  1
  F  F23  1  0.59230831  0.94234604  0.77050540  1
  F  F24  1  0.66842395  0.55892494  0.37268323  1
  F  F25  1  0.66842395  0.94107506  0.37268323  1
  F  F26  1  0.90208881  0.55528817  0.65212546  1
  F  F27  1  0.90208881  0.94471183  0.65212546  1
  F  F28  1  0.82835686  0.25000000  0.43352985  1
  F  F29  1  0.83626562  0.04584754  0.04976918  1
  F  F30  1  0.83626562  0.45415246  0.04976918  1
  F  F31  1  0.92838095  0.75000000  0.26265869  1
