# generated using pymatgen
data_Sc2V2O7
_symmetry_space_group_name_H-M   'P 1'
_cell_length_a   5.52456777
_cell_length_b   5.52456777
_cell_length_c   5.19295792
_cell_angle_alpha   84.28516552
_cell_angle_beta   95.71483448
_cell_angle_gamma   69.73220463
_symmetry_Int_Tables_number   1
_chemical_formula_structural   Sc2V2O7
_chemical_formula_sum   'Sc2 V2 O7'
_cell_volume   146.40716341
_cell_formula_units_Z   1
loop_
 _symmetry_equiv_pos_site_id
 _symmetry_equiv_pos_as_xyz
  1  'x, y, z'
loop_
 _atom_site_type_symbol
 _atom_site_label
 _atom_site_symmetry_multiplicity
 _atom_site_fract_x
 _atom_site_fract_y
 _atom_site_fract_z
 _atom_site_occupancy
  Sc  Sc0  1  0.31397442  0.31397442  0.50000000  1
  Sc  Sc1  1  0.68602558  0.68602558  0.50000000  1
  V  V2  1  0.25361236  0.74638764  0.89247136  1
  V  V3  1  0.74638764  0.25361236  0.10752864  1
  O  O4  1  0.05461226  0.60461396  0.69757022  1
  O  O5  1  0.39538604  0.94538774  0.69757022  1
  O  O6  1  0.43072381  0.56927619  0.22984698  1
  O  O7  1  0.56927619  0.43072381  0.77015302  1
  O  O8  1  0.00000000  0.00000000  0.00000000  1
  O  O9  1  0.60461396  0.05461226  0.30242978  1
  O  O10  1  0.94538774  0.39538604  0.30242978  1
