# generated using pymatgen
data_LiFeSi3O8
_symmetry_space_group_name_H-M   'P 1'
_cell_length_a   7.72669113
_cell_length_b   7.68264083
_cell_length_c   7.10227537
_cell_angle_alpha   82.47375067
_cell_angle_beta   108.96343642
_cell_angle_gamma   61.95795281
_symmetry_Int_Tables_number   1
_chemical_formula_structural   LiFeSi3O8
_chemical_formula_sum   'Li2 Fe2 Si6 O16'
_cell_volume   330.95258956
_cell_formula_units_Z   2
loop_
 _symmetry_equiv_pos_site_id
 _symmetry_equiv_pos_as_xyz
  1  'x, y, z'
loop_
 _atom_site_type_symbol
 _atom_site_label
 _atom_site_symmetry_multiplicity
 _atom_site_fract_x
 _atom_site_fract_y
 _atom_site_fract_z
 _atom_site_occupancy
  Li  Li0  1  0.26605569  0.74676476  0.12507690  1
  Li  Li1  1  0.73394431  0.25323524  0.87492310  1
  Fe  Fe2  1  0.45748888  0.78132652  0.64200957  1
  Fe  Fe3  1  0.54251112  0.21867348  0.35799043  1
  Si  Si4  1  0.22758444  0.56097893  0.70525785  1
  Si  Si5  1  0.85067220  0.85538264  0.79521568  1
  Si  Si6  1  0.15119210  0.20497957  0.76143975  1
  Si  Si7  1  0.84880790  0.79502043  0.23856025  1
  Si  Si8  1  0.14932780  0.14461736  0.20478432  1
  Si  Si9  1  0.77241556  0.43902107  0.29474215  1
  O  O10  1  0.10020097  0.73275558  0.80819380  1
  O  O11  1  0.30935490  0.98742244  0.74095301  1
  O  O12  1  0.08160030  0.64586403  0.44963994  1
  O  O13  1  0.28977923  0.89450213  0.33981303  1
  O  O14  1  0.08860344  0.15414657  0.95499002  1
  O  O15  1  0.46136155  0.53460117  0.75158658  1
  O  O16  1  0.26912581  0.33504593  0.81383895  1
  O  O17  1  0.73538372  0.73300289  0.71577512  1
  O  O18  1  0.26461628  0.26699711  0.28422488  1
  O  O19  1  0.73087419  0.66495407  0.18616105  1
  O  O20  1  0.53863845  0.46539883  0.24841342  1
  O  O21  1  0.91139656  0.84585343  0.04500998  1
  O  O22  1  0.71022077  0.10549787  0.66018697  1
  O  O23  1  0.91839970  0.35413597  0.55036006  1
  O  O24  1  0.69064510  0.01257756  0.25904699  1
  O  O25  1  0.89979903  0.26724442  0.19180620  1
