# generated using pymatgen
data_Li3FePCO7
_symmetry_space_group_name_H-M   'P 1'
_cell_length_a   5.01522270
_cell_length_b   6.48094960
_cell_length_c   8.61728322
_cell_angle_alpha   89.91064804
_cell_angle_beta   82.95222503
_cell_angle_gamma   90.08692031
_symmetry_Int_Tables_number   1
_chemical_formula_structural   Li3FePCO7
_chemical_formula_sum   'Li6 Fe2 P2 C2 O14'
_cell_volume   277.97398612
_cell_formula_units_Z   2
loop_
 _symmetry_equiv_pos_site_id
 _symmetry_equiv_pos_as_xyz
  1  'x, y, z'
loop_
 _atom_site_type_symbol
 _atom_site_label
 _atom_site_symmetry_multiplicity
 _atom_site_fract_x
 _atom_site_fract_y
 _atom_site_fract_z
 _atom_site_occupancy
  Li  Li0  1  0.05621021  0.11644608  0.10993285  1
  Li  Li1  1  0.41078650  0.61662503  0.97816072  1
  Li  Li2  1  0.49193848  0.49026882  0.34162580  1
  Li  Li3  1  0.49233359  0.01966217  0.33040354  1
  Li  Li4  1  0.97429540  0.98900400  0.74707687  1
  Li  Li5  1  0.97265245  0.51762646  0.75822822  1
  Fe  Fe6  1  0.01158892  0.75435578  0.37565604  1
  Fe  Fe7  1  0.45477493  0.25453915  0.71206568  1
  P  P8  1  0.96889701  0.25955219  0.44835434  1
  P  P9  1  0.49750145  0.75956937  0.63935041  1
  C  C10  1  0.58959678  0.21307670  0.00423093  1
  C  C11  1  0.87775865  0.71307253  0.08320155  1
  O  O12  1  0.11925510  0.77974200  0.10135578  1
  O  O13  1  0.70416250  0.69884500  0.20905820  1
  O  O14  1  0.65620573  0.16625539  0.13904665  1
  O  O15  1  0.07137088  0.06705429  0.34915266  1
  O  O16  1  0.08984018  0.44683879  0.35277352  1
  O  O17  1  0.40381146  0.75699728  0.47503516  1
  O  O18  1  0.65363881  0.26286961  0.46912372  1
  O  O19  1  0.81277798  0.76266953  0.61836535  1
  O  O20  1  0.06260154  0.25597007  0.61240830  1
  O  O21  1  0.39377459  0.56669566  0.73843338  1
  O  O22  1  0.37779259  0.94634188  0.73490907  1
  O  O23  1  0.81124008  0.66736032  0.94885617  1
  O  O24  1  0.76329673  0.20012182  0.87877094  1
  O  O25  1  0.34823646  0.27908109  0.98651714  1
