# generated using pymatgen
data_Li3V(PO4)2
_symmetry_space_group_name_H-M   'P 1'
_cell_length_a   4.76042300
_cell_length_b   5.20267212
_cell_length_c   13.23153296
_cell_angle_alpha   83.08649277
_cell_angle_beta   90.01952268
_cell_angle_gamma   62.88130444
_symmetry_Int_Tables_number   1
_chemical_formula_structural   Li3V(PO4)2
_chemical_formula_sum   'Li6 V2 P4 O16'
_cell_volume   288.99126512
_cell_formula_units_Z   2
loop_
 _symmetry_equiv_pos_site_id
 _symmetry_equiv_pos_as_xyz
  1  'x, y, z'
loop_
 _atom_site_type_symbol
 _atom_site_label
 _atom_site_symmetry_multiplicity
 _atom_site_fract_x
 _atom_site_fract_y
 _atom_site_fract_z
 _atom_site_occupancy
  Li  Li0  1  0.62997814  0.66970580  0.64621172  1
  Li  Li1  1  0.70504083  0.66041946  0.14806214  1
  Li  Li2  1  0.29742485  0.33970899  0.85144468  1
  Li  Li3  1  0.36744255  0.33760726  0.35023102  1
  Li  Li4  1  0.94149263  0.00635172  0.74941908  1
  Li  Li5  1  0.05404758  0.00197424  0.24860201  1
  V  V6  1  0.99960716  0.00123897  0.49930199  1
  V  V7  1  0.00060481  0.00137096  0.99880203  1
  P  P8  1  0.63782237  0.68287714  0.88356514  1
  P  P9  1  0.68102492  0.68181219  0.38375087  1
  P  P10  1  0.31800431  0.32100640  0.61521014  1
  P  P11  1  0.36258164  0.32038461  0.11384880  1
  O  O12  1  0.27480262  0.90262113  0.86780131  1
  O  O13  1  0.82260204  0.90353901  0.36767276  1
  O  O14  1  0.77568755  0.77432924  0.97128458  1
  O  O15  1  0.45056255  0.77440304  0.47099173  1
  O  O16  1  0.81460994  0.68504271  0.78667562  1
  O  O17  1  0.03802292  0.63164276  0.58453788  1
  O  O18  1  0.50320155  0.68033496  0.28711335  1
  O  O19  1  0.33111020  0.63213973  0.08446545  1
  O  O20  1  0.67049859  0.37077965  0.91352398  1
  O  O21  1  0.49374914  0.32196658  0.71221630  1
  O  O22  1  0.96162898  0.37108221  0.41383906  1
  O  O23  1  0.18394641  0.31900871  0.21051037  1
  O  O24  1  0.55010380  0.22880377  0.52839348  1
  O  O25  1  0.22514504  0.22942175  0.02600017  1
  O  O26  1  0.17654956  0.09907299  0.63058738  1
  O  O27  1  0.72506429  0.09997801  0.13026497  1
