# generated using pymatgen
data_Li3V(Si2O5)3
_symmetry_space_group_name_H-M   'P 1'
_cell_length_a   11.02754850
_cell_length_b   11.02754850
_cell_length_c   10.19935585
_cell_angle_alpha   90.00000000
_cell_angle_beta   90.00000000
_cell_angle_gamma   80.06037800
_symmetry_Int_Tables_number   1
_chemical_formula_structural   Li3V(Si2O5)3
_chemical_formula_sum   'Li12 V4 Si24 O60'
_cell_volume   1221.69446101
_cell_formula_units_Z   4
loop_
 _symmetry_equiv_pos_site_id
 _symmetry_equiv_pos_as_xyz
  1  'x, y, z'
loop_
 _atom_site_type_symbol
 _atom_site_label
 _atom_site_symmetry_multiplicity
 _atom_site_fract_x
 _atom_site_fract_y
 _atom_site_fract_z
 _atom_site_occupancy
  Li  Li0  1  0.23566586  0.76433414  0.00000000  1
  Li  Li1  1  0.47718767  0.97718767  0.25000000  1
  Li  Li2  1  0.02281233  0.52281233  0.75000000  1
  Li  Li3  1  0.26433414  0.73566586  0.50000000  1
  Li  Li4  1  0.06213662  0.06213662  0.79764770  1
  Li  Li5  1  0.56213662  0.56213662  0.70235230  1
  Li  Li6  1  0.43786338  0.43786338  0.29764770  1
  Li  Li7  1  0.93786338  0.93786338  0.20235230  1
  Li  Li8  1  0.73566586  0.26433414  0.50000000  1
  Li  Li9  1  0.52281233  0.02281233  0.75000000  1
  Li  Li10  1  0.97718767  0.47718767  0.25000000  1
  Li  Li11  1  0.76433414  0.23566586  0.00000000  1
  V  V12  1  0.15546403  0.65546403  0.25000000  1
  V  V13  1  0.34453597  0.84453597  0.75000000  1
  V  V14  1  0.84453597  0.34453597  0.75000000  1
  V  V15  1  0.65546403  0.15546403  0.25000000  1
  Si  Si16  1  0.04110088  0.81091860  0.80639172  1
  Si  Si17  1  0.18908140  0.95889912  0.19360828  1
  Si  Si18  1  0.31091860  0.54110088  0.69360828  1
  Si  Si19  1  0.45889912  0.68908140  0.30639172  1
  Si  Si20  1  0.01743186  0.23537416  0.48379819  1
  Si  Si21  1  0.26462584  0.48256814  0.98379819  1
  Si  Si22  1  0.76462584  0.98256814  0.51620181  1
  Si  Si23  1  0.51743186  0.73537416  0.01620181  1
  Si  Si24  1  0.20115720  0.41960210  0.45442287  1
  Si  Si25  1  0.70115720  0.91960210  0.04557713  1
  Si  Si26  1  0.08039790  0.29884280  0.95442287  1
  Si  Si27  1  0.58039790  0.79884280  0.54557713  1
  Si  Si28  1  0.41960210  0.20115720  0.45442287  1
  Si  Si29  1  0.29884280  0.08039790  0.95442287  1
  Si  Si30  1  0.91960210  0.70115720  0.04557713  1
  Si  Si31  1  0.79884280  0.58039790  0.54557713  1
  Si  Si32  1  0.73537416  0.51743186  0.01620181  1
  Si  Si33  1  0.23537416  0.01743186  0.48379819  1
  Si  Si34  1  0.48256814  0.26462584  0.98379819  1
  Si  Si35  1  0.98256814  0.76462584  0.51620181  1
  Si  Si36  1  0.54110088  0.31091860  0.69360828  1
  Si  Si37  1  0.68908140  0.45889912  0.30639172  1
  Si  Si38  1  0.81091860  0.04110088  0.80639172  1
  Si  Si39  1  0.95889912  0.18908140  0.19360828  1
  O  O40  1  0.28171144  0.98673436  0.07599763  1
  O  O41  1  0.01326564  0.71828856  0.92400237  1
  O  O42  1  0.02983313  0.73387839  0.67006972  1
  O  O43  1  0.26612161  0.97016687  0.32993028  1
  O  O44  1  0.16825552  0.85843134  0.83271002  1
  O  O45  1  0.14156866  0.83174448  0.16728998  1
  O  O46  1  0.09724260  0.74421232  0.41865524  1
  O  O47  1  0.25578768  0.90275740  0.58134476  1
  O  O48  1  0.14037117  0.48809134  0.32630537  1
  O  O49  1  0.01190866  0.35962883  0.82630537  1
  O  O50  1  0.64037117  0.98809134  0.17369463  1
  O  O51  1  0.51190866  0.85962883  0.67369463  1
  O  O52  1  0.24421232  0.59724260  0.08134476  1
  O  O53  1  0.40275740  0.75578768  0.91865524  1
  O  O54  1  0.35843134  0.66825552  0.66728998  1
  O  O55  1  0.33174448  0.64156866  0.33271002  1
  O  O56  1  0.47016687  0.76612161  0.17006972  1
  O  O57  1  0.23387839  0.52983313  0.82993028  1
  O  O58  1  0.21828856  0.51326564  0.57599763  1
  O  O59  1  0.48673436  0.78171144  0.42400237  1
  O  O60  1  0.17262311  0.38461044  0.01556366  1
  O  O61  1  0.11538956  0.32737689  0.51556366  1
  O  O62  1  0.61538956  0.82737689  0.98443634  1
  O  O63  1  0.67262311  0.88461044  0.48443634  1
  O  O64  1  0.59320514  0.59320514  0.00759969  1
  O  O65  1  0.34122886  0.34122886  0.41733366  1
  O  O66  1  0.06344338  0.06344338  0.19487458  1
  O  O67  1  0.09320514  0.09320514  0.49240031  1
  O  O68  1  0.15877114  0.15877114  0.91733366  1
  O  O69  1  0.43655662  0.43655662  0.69487458  1
  O  O70  1  0.84122886  0.84122886  0.08266634  1
  O  O71  1  0.40679486  0.40679486  0.99240031  1
  O  O72  1  0.65877114  0.65877114  0.58266634  1
  O  O73  1  0.93655662  0.93655662  0.80512542  1
  O  O74  1  0.56344338  0.56344338  0.30512542  1
  O  O75  1  0.90679486  0.90679486  0.50759969  1
  O  O76  1  0.32737689  0.11538956  0.51556366  1
  O  O77  1  0.88461044  0.67262311  0.48443634  1
  O  O78  1  0.38461044  0.17262311  0.01556366  1
  O  O79  1  0.82737689  0.61538956  0.98443634  1
  O  O80  1  0.51326564  0.21828856  0.57599763  1
  O  O81  1  0.78171144  0.48673436  0.42400237  1
  O  O82  1  0.52983313  0.23387839  0.82993028  1
  O  O83  1  0.76612161  0.47016687  0.17006972  1
  O  O84  1  0.64156866  0.33174448  0.33271002  1
  O  O85  1  0.66825552  0.35843134  0.66728998  1
  O  O86  1  0.59724260  0.24421232  0.08134476  1
  O  O87  1  0.75578768  0.40275740  0.91865524  1
  O  O88  1  0.35962883  0.01190866  0.82630537  1
  O  O89  1  0.48809134  0.14037117  0.32630537  1
  O  O90  1  0.98809134  0.64037117  0.17369463  1
  O  O91  1  0.85962883  0.51190866  0.67369463  1
  O  O92  1  0.74421232  0.09724260  0.41865524  1
  O  O93  1  0.90275740  0.25578768  0.58134476  1
  O  O94  1  0.85843134  0.16825552  0.83271002  1
  O  O95  1  0.83174448  0.14156866  0.16728998  1
  O  O96  1  0.73387839  0.02983313  0.67006972  1
  O  O97  1  0.97016687  0.26612161  0.32993028  1
  O  O98  1  0.71828856  0.01326564  0.92400237  1
  O  O99  1  0.98673436  0.28171144  0.07599763  1
