# generated using pymatgen
data_CeH16C4Cl3O4
_symmetry_space_group_name_H-M   'P 1'
_cell_length_a   8.62372984
_cell_length_b   9.04076959
_cell_length_c   18.82356505
_cell_angle_alpha   90.00000000
_cell_angle_beta   90.00000000
_cell_angle_gamma   109.18891554
_symmetry_Int_Tables_number   1
_chemical_formula_structural   CeH16C4Cl3O4
_chemical_formula_sum   'Ce4 H64 C16 Cl12 O16'
_cell_volume   1386.04325549
_cell_formula_units_Z   4
loop_
 _symmetry_equiv_pos_site_id
 _symmetry_equiv_pos_as_xyz
  1  'x, y, z'
loop_
 _atom_site_type_symbol
 _atom_site_label
 _atom_site_symmetry_multiplicity
 _atom_site_fract_x
 _atom_site_fract_y
 _atom_site_fract_z
 _atom_site_occupancy
  Ce  Ce0  1  0.37177935  0.82481177  0.41154096  1
  Ce  Ce1  1  0.12822065  0.17518823  0.91154096  1
  Ce  Ce2  1  0.62822065  0.17518823  0.58845904  1
  Ce  Ce3  1  0.87177935  0.82481177  0.08845904  1
  H  H4  1  0.46371713  0.54770270  0.59125621  1
  H  H5  1  0.08132649  0.38180671  0.32108042  1
  H  H6  1  0.61614144  0.49392445  0.06431164  1
  H  H7  1  0.73503854  0.55935540  0.37476568  1
  H  H8  1  0.93042513  0.95594259  0.56535237  1
  H  H9  1  0.29901308  0.46564594  0.31205096  1
  H  H10  1  0.81662880  0.89691465  0.90438901  1
  H  H11  1  0.06957487  0.04405741  0.43464763  1
  H  H12  1  0.31662880  0.89691465  0.59561099  1
  H  H13  1  0.17233804  0.60925762  0.04045544  1
  H  H14  1  0.75471282  0.23436259  0.30830667  1
  H  H15  1  0.42656846  0.84984457  0.05914188  1
  H  H16  1  0.92656846  0.84984457  0.44085812  1
  H  H17  1  0.92397784  0.96772172  0.36450179  1
  H  H18  1  0.74528718  0.76563741  0.80830667  1
  H  H19  1  0.11614144  0.49392445  0.43568836  1
  H  H20  1  0.96317727  0.82220120  0.79743418  1
  H  H21  1  0.57614148  0.83486925  0.17603198  1
  H  H22  1  0.62213483  0.71467278  0.32730714  1
  H  H23  1  0.18337120  0.10308535  0.09561099  1
  H  H24  1  0.12213483  0.71467278  0.17269286  1
  H  H25  1  0.96371713  0.54770270  0.90874379  1
  H  H26  1  0.37786517  0.28532722  0.67269286  1
  H  H27  1  0.79901308  0.46564594  0.18794904  1
  H  H28  1  0.07602216  0.03227828  0.63549821  1
  H  H29  1  0.42397784  0.96772172  0.13549821  1
  H  H30  1  0.56957487  0.04405741  0.06535237  1
  H  H31  1  0.21356231  0.31066540  0.37519289  1
  H  H32  1  0.70098692  0.53435406  0.68794904  1
  H  H33  1  0.71356231  0.31066540  0.12480711  1
  H  H34  1  0.91867351  0.61819329  0.67891958  1
  H  H35  1  0.26496146  0.44064460  0.62523432  1
  H  H36  1  0.07343154  0.15015543  0.55914188  1
  H  H37  1  0.25471282  0.23436259  0.19169333  1
  H  H38  1  0.57343154  0.15015543  0.94085812  1
  H  H39  1  0.24528718  0.76563741  0.69169333  1
  H  H40  1  0.87786517  0.28532722  0.82730714  1
  H  H41  1  0.68337120  0.10308535  0.40438901  1
  H  H42  1  0.53682273  0.17779880  0.29743418  1
  H  H43  1  0.28643769  0.68933460  0.87519289  1
  H  H44  1  0.03682273  0.17779880  0.20256582  1
  H  H45  1  0.67233804  0.60925762  0.45954456  1
  H  H46  1  0.88385856  0.50607555  0.56431164  1
  H  H47  1  0.38385856  0.50607555  0.93568836  1
  H  H48  1  0.78643769  0.68933460  0.62480711  1
  H  H49  1  0.35113576  0.93543158  0.74357432  1
  H  H50  1  0.03628287  0.45229730  0.09125621  1
  H  H51  1  0.64886424  0.06456842  0.25642568  1
  H  H52  1  0.42385852  0.16513075  0.82396802  1
  H  H53  1  0.20098692  0.53435406  0.81205096  1
  H  H54  1  0.58132649  0.38180671  0.17891958  1
  H  H55  1  0.32766196  0.39074238  0.54045544  1
  H  H56  1  0.82766196  0.39074238  0.95954456  1
  H  H57  1  0.46317727  0.82220120  0.70256582  1
  H  H58  1  0.14886424  0.06456842  0.24357432  1
  H  H59  1  0.76496146  0.44064460  0.87476568  1
  H  H60  1  0.07614148  0.83486925  0.32396802  1
  H  H61  1  0.41867351  0.61819329  0.82108042  1
  H  H62  1  0.85113576  0.93543158  0.75642568  1
  H  H63  1  0.92385852  0.16513075  0.67603198  1
  H  H64  1  0.57602216  0.03227828  0.86450179  1
  H  H65  1  0.43042513  0.95594259  0.93464763  1
  H  H66  1  0.53628287  0.45229730  0.40874379  1
  H  H67  1  0.23503854  0.55935540  0.12523432  1
  C  C68  1  0.00211950  0.93937473  0.40447834  1
  C  C69  1  0.35875546  0.86577625  0.69695801  1
  C  C70  1  0.85875546  0.86577625  0.80304199  1
  C  C71  1  0.30104762  0.58544857  0.84961213  1
  C  C72  1  0.49788050  0.06062527  0.90447834  1
  C  C73  1  0.69895238  0.41455143  0.15038787  1
  C  C74  1  0.13089667  0.56829898  0.09430585  1
  C  C75  1  0.63089667  0.56829898  0.40569415  1
  C  C76  1  0.36910333  0.43170102  0.59430585  1
  C  C77  1  0.99788050  0.06062527  0.59552166  1
  C  C78  1  0.80104762  0.58544857  0.65038787  1
  C  C79  1  0.14124454  0.13422375  0.19695801  1
  C  C80  1  0.86910333  0.43170102  0.90569415  1
  C  C81  1  0.50211950  0.93937473  0.09552166  1
  C  C82  1  0.64124454  0.13422375  0.30304199  1
  C  C83  1  0.19895238  0.41455143  0.34961213  1
  Cl  Cl84  1  0.88872675  0.12345761  0.02273486  1
  Cl  Cl85  1  0.83553228  0.78207789  0.23919950  1
  Cl  Cl86  1  0.38872675  0.12345761  0.47726514  1
  Cl  Cl87  1  0.61127325  0.87654239  0.52273486  1
  Cl  Cl88  1  0.66446772  0.21792211  0.73919950  1
  Cl  Cl89  1  0.11127325  0.87654239  0.97726514  1
  Cl  Cl90  1  0.83932434  0.28461322  0.46925315  1
  Cl  Cl91  1  0.66067566  0.71538678  0.96925315  1
  Cl  Cl92  1  0.16446772  0.21792211  0.76080050  1
  Cl  Cl93  1  0.33932434  0.28461322  0.03074685  1
  Cl  Cl94  1  0.16067566  0.71538678  0.53074685  1
  Cl  Cl95  1  0.33553228  0.78207789  0.26080050  1
  O  O96  1  0.29327126  0.46677004  0.90189696  1
  O  O97  1  0.79327126  0.46677004  0.59810304  1
  O  O98  1  0.37822917  0.11661669  0.86926161  1
  O  O99  1  0.87802225  0.96401474  0.86480259  1
  O  O100  1  0.93598881  0.32189133  0.87233694  1
  O  O101  1  0.37802225  0.96401474  0.63519741  1
  O  O102  1  0.12177083  0.88338331  0.36926161  1
  O  O103  1  0.62177083  0.88338331  0.13073839  1
  O  O104  1  0.43598881  0.32189133  0.62766306  1
  O  O105  1  0.70672874  0.53322996  0.09810304  1
  O  O106  1  0.12197775  0.03598526  0.13519741  1
  O  O107  1  0.20672874  0.53322996  0.40189696  1
  O  O108  1  0.06401119  0.67810867  0.12766306  1
  O  O109  1  0.87822917  0.11661669  0.63073839  1
  O  O110  1  0.62197775  0.03598526  0.36480259  1
  O  O111  1  0.56401119  0.67810867  0.37233694  1
