# generated using pymatgen
data_Na2Ti2O5
_symmetry_space_group_name_H-M   'P 1'
_cell_length_a   9.31399915
_cell_length_b   12.14954207
_cell_length_c   5.49714806
_cell_angle_alpha   90.00000000
_cell_angle_beta   90.55223693
_cell_angle_gamma   90.00000000
_symmetry_Int_Tables_number   1
_chemical_formula_structural   Na2Ti2O5
_chemical_formula_sum   'Na8 Ti8 O20'
_cell_volume   622.03291351
_cell_formula_units_Z   4
loop_
 _symmetry_equiv_pos_site_id
 _symmetry_equiv_pos_as_xyz
  1  'x, y, z'
loop_
 _atom_site_type_symbol
 _atom_site_label
 _atom_site_symmetry_multiplicity
 _atom_site_fract_x
 _atom_site_fract_y
 _atom_site_fract_z
 _atom_site_occupancy
  Na  Na0  1  0.11987011  0.97134728  0.20202276  1
  Na  Na1  1  0.12941617  0.50376758  0.71359483  1
  Na  Na2  1  0.37058383  0.00376758  0.78640517  1
  Na  Na3  1  0.38012989  0.47134728  0.29797724  1
  Na  Na4  1  0.61987011  0.52865272  0.70202276  1
  Na  Na5  1  0.62941617  0.99623242  0.21359483  1
  Na  Na6  1  0.87058383  0.49623242  0.28640517  1
  Na  Na7  1  0.88012989  0.02865272  0.79797724  1
  Ti  Ti8  1  0.05786355  0.80707909  0.68870026  1
  Ti  Ti9  1  0.17305740  0.67527879  0.19047417  1
  Ti  Ti10  1  0.32694260  0.17527879  0.30952583  1
  Ti  Ti11  1  0.44213645  0.30707909  0.81129974  1
  Ti  Ti12  1  0.55786355  0.69292091  0.18870026  1
  Ti  Ti13  1  0.67305740  0.82472121  0.69047417  1
  Ti  Ti14  1  0.82694260  0.32472121  0.80952583  1
  Ti  Ti15  1  0.94213645  0.19292091  0.31129974  1
  O  O16  1  0.07858863  0.78855326  0.35384108  1
  O  O17  1  0.13002562  0.93499898  0.77199911  1
  O  O18  1  0.11945874  0.54343295  0.27790582  1
  O  O19  1  0.14286055  0.69034509  0.85615195  1
  O  O20  1  0.13381311  0.18185833  0.23465297  1
  O  O21  1  0.35713945  0.19034509  0.64384805  1
  O  O22  1  0.36618689  0.68185833  0.26534703  1
  O  O23  1  0.38054126  0.04343295  0.22209418  1
  O  O24  1  0.36997438  0.43499898  0.72800089  1
  O  O25  1  0.42141137  0.28855326  0.14615892  1
  O  O26  1  0.57858863  0.71144674  0.85384108  1
  O  O27  1  0.63002562  0.56500102  0.27199911  1
  O  O28  1  0.61945874  0.95656705  0.77790582  1
  O  O29  1  0.63381311  0.31814167  0.73465297  1
  O  O30  1  0.64286055  0.80965491  0.35615195  1
  O  O31  1  0.86618689  0.81814167  0.76534703  1
  O  O32  1  0.85713945  0.30965491  0.14384805  1
  O  O33  1  0.88054126  0.45656705  0.72209418  1
  O  O34  1  0.86997438  0.06500102  0.22800089  1
  O  O35  1  0.92141137  0.21144674  0.64615892  1
