# generated using pymatgen
data_LiCuF3
_symmetry_space_group_name_H-M   'P 1'
_cell_length_a   5.26451409
_cell_length_b   4.99932634
_cell_length_c   8.60058769
_cell_angle_alpha   89.73426800
_cell_angle_beta   89.96622637
_cell_angle_gamma   89.97557620
_symmetry_Int_Tables_number   1
_chemical_formula_structural   LiCuF3
_chemical_formula_sum   'Li4 Cu4 F12'
_cell_volume   226.35657941
_cell_formula_units_Z   4
loop_
 _symmetry_equiv_pos_site_id
 _symmetry_equiv_pos_as_xyz
  1  'x, y, z'
loop_
 _atom_site_type_symbol
 _atom_site_label
 _atom_site_symmetry_multiplicity
 _atom_site_fract_x
 _atom_site_fract_y
 _atom_site_fract_z
 _atom_site_occupancy
  Li  Li0  1  0.00198942  0.50147588  0.68784903  1
  Li  Li1  1  0.99716409  0.00008108  0.66918499  1
  Li  Li2  1  0.48372447  0.50839336  0.16783273  1
  Li  Li3  1  0.50269399  0.00375896  0.19826025  1
  Cu  Cu4  1  0.00114458  0.99869361  0.34853789  1
  Cu  Cu5  1  0.00045940  0.99830137  0.99524776  1
  Cu  Cu6  1  0.50144540  0.49901755  0.49596095  1
  Cu  Cu7  1  0.50191411  0.49850921  0.84868970  1
  F  F8  1  0.13967314  0.77757537  0.83296965  1
  F  F9  1  0.14481012  0.77811667  0.50955064  1
  F  F10  1  0.17942165  0.81774873  0.17283803  1
  F  F11  1  0.32587105  0.31810563  0.67181692  1
  F  F12  1  0.35103932  0.28034771  0.00854806  1
  F  F13  1  0.35926714  0.27769208  0.33438284  1
  F  F14  1  0.64143244  0.72176412  0.33374887  1
  F  F15  1  0.64849286  0.71750464  0.00823222  1
  F  F16  1  0.67572948  0.68145718  0.67154773  1
  F  F17  1  0.82789208  0.17779523  0.17222182  1
  F  F18  1  0.85531228  0.22041025  0.50780289  1
  F  F19  1  0.86032297  0.22330536  0.83263203  1
