# generated using pymatgen
data_Li4Ti7O16
_symmetry_space_group_name_H-M   'P 1'
_cell_length_a   5.84963015
_cell_length_b   9.70109277
_cell_length_c   5.84963015
_cell_angle_alpha   90.02713867
_cell_angle_beta   60.98300989
_cell_angle_gamma   90.02713867
_symmetry_Int_Tables_number   1
_chemical_formula_structural   Li4Ti7O16
_chemical_formula_sum   'Li4 Ti7 O16'
_cell_volume   290.28544200
_cell_formula_units_Z   1
loop_
 _symmetry_equiv_pos_site_id
 _symmetry_equiv_pos_as_xyz
  1  'x, y, z'
loop_
 _atom_site_type_symbol
 _atom_site_label
 _atom_site_symmetry_multiplicity
 _atom_site_fract_x
 _atom_site_fract_y
 _atom_site_fract_z
 _atom_site_occupancy
  Li  Li0  1  0.33974559  0.03894706  0.08974559  1
  Li  Li1  1  0.35761396  0.35609410  0.10761396  1
  Li  Li2  1  0.83876614  0.45644996  0.09507809  1
  Li  Li3  1  0.34507809  0.45644996  0.58876614  1
  Ti  Ti4  1  0.13995965  0.63290588  0.37501944  1
  Ti  Ti5  1  0.86075256  0.14263518  0.09781770  1
  Ti  Ti6  1  0.34781770  0.14263518  0.61075256  1
  Ti  Ti7  1  0.11765204  0.85475852  0.86765204  1
  Ti  Ti8  1  0.65424311  0.86705269  0.40424311  1
  Ti  Ti9  1  0.85537387  0.35822824  0.60537387  1
  Ti  Ti10  1  0.62501944  0.63290588  0.88995965  1
  O  O11  1  0.01336732  0.47022403  0.29125759  1
  O  O12  1  0.28423551  0.72122683  0.03423551  1
  O  O13  1  0.21053077  0.28149472  0.49721407  1
  O  O14  1  0.48169007  0.54516779  0.23169007  1
  O  O15  1  0.52773651  0.03613886  0.27773651  1
  O  O16  1  0.02006466  0.03063349  0.77006466  1
  O  O17  1  0.78374529  0.77423721  0.04326534  1
  O  O18  1  0.29326534  0.77423721  0.53374529  1
  O  O19  1  0.71279714  0.22697849  0.46279714  1
  O  O20  1  0.21664454  0.20445400  0.96664454  1
  O  O21  1  0.98040373  0.96059787  0.21757972  1
  O  O22  1  0.46757972  0.96059787  0.73040373  1
  O  O23  1  0.54125759  0.47022403  0.76336732  1
  O  O24  1  0.79322978  0.72877184  0.54322978  1
  O  O25  1  0.74721407  0.28149472  0.96053077  1
  O  O26  1  0.98215682  0.53558742  0.73215682  1
