# generated using pymatgen
data_Li2Fe4Si4O13
_symmetry_space_group_name_H-M   'P 1'
_cell_length_a   10.22283166
_cell_length_b   7.92022325
_cell_length_c   6.92203892
_cell_angle_alpha   79.12659355
_cell_angle_beta   89.61559340
_cell_angle_gamma   110.32078227
_symmetry_Int_Tables_number   1
_chemical_formula_structural   Li2Fe4Si4O13
_chemical_formula_sum   'Li4 Fe8 Si8 O26'
_cell_volume   514.55080455
_cell_formula_units_Z   2
loop_
 _symmetry_equiv_pos_site_id
 _symmetry_equiv_pos_as_xyz
  1  'x, y, z'
loop_
 _atom_site_type_symbol
 _atom_site_label
 _atom_site_symmetry_multiplicity
 _atom_site_fract_x
 _atom_site_fract_y
 _atom_site_fract_z
 _atom_site_occupancy
  Li  Li0  1  0.11982884  0.59970616  0.22196224  1
  Li  Li1  1  0.41592255  0.41969018  0.74991007  1
  Li  Li2  1  0.58407745  0.58030982  0.25008993  1
  Li  Li3  1  0.88017116  0.40029384  0.77803776  1
  Fe  Fe4  1  0.00096316  0.81021735  0.91750047  1
  Fe  Fe5  1  0.00544195  0.80693928  0.42813509  1
  Fe  Fe6  1  0.38564213  0.80920920  0.42380876  1
  Fe  Fe7  1  0.39298495  0.80526134  0.92192844  1
  Fe  Fe8  1  0.60701505  0.19473866  0.07807156  1
  Fe  Fe9  1  0.61435787  0.19079080  0.57619124  1
  Fe  Fe10  1  0.99455805  0.19306072  0.57186491  1
  Fe  Fe11  1  0.99903684  0.18978265  0.08249953  1
  Si  Si12  1  0.17566235  0.58223281  0.73131825  1
  Si  Si13  1  0.29386599  0.39949219  0.28324922  1
  Si  Si14  1  0.27815011  0.09945729  0.62629518  1
  Si  Si15  1  0.27791095  0.09081002  0.07574793  1
  Si  Si16  1  0.72208905  0.90918998  0.92425207  1
  Si  Si17  1  0.72184989  0.90054271  0.37370482  1
  Si  Si18  1  0.70613401  0.60050781  0.71675078  1
  Si  Si19  1  0.82433765  0.41776719  0.26868175  1
  O  O20  1  0.11151077  0.99484196  0.13803389  1
  O  O21  1  0.06810947  0.36549876  0.78273383  1
  O  O22  1  0.16089704  0.67507905  0.50023257  1
  O  O23  1  0.15381618  0.69098937  0.90726757  1
  O  O24  1  0.12627758  0.34963477  0.28274502  1
  O  O25  1  0.11362848  0.99910798  0.60421511  1
  O  O26  1  0.38171411  0.97330628  0.12949615  1
  O  O27  1  0.39037138  0.00016170  0.60302900  1
  O  O28  1  0.34635961  0.61588243  0.73847937  1
  O  O29  1  0.38913138  0.61897940  0.22874003  1
  O  O30  1  0.29778844  0.16099081  0.83894190  1
  O  O31  1  0.33949543  0.31584539  0.49844301  1
  O  O32  1  0.35017834  0.29202018  0.13726405  1
  O  O33  1  0.64982166  0.70797982  0.86273595  1
  O  O34  1  0.66050457  0.68415461  0.50155699  1
  O  O35  1  0.70221156  0.83900919  0.16105810  1
  O  O36  1  0.61086862  0.38102060  0.77125997  1
  O  O37  1  0.65364039  0.38411757  0.26152063  1
  O  O38  1  0.60962862  -0.00016170  0.39697100  1
  O  O39  1  0.61828589  0.02669372  0.87050385  1
  O  O40  1  0.88637152  0.00089202  0.39578489  1
  O  O41  1  0.87372242  0.65036523  0.71725498  1
  O  O42  1  0.84618382  0.30901063  0.09273243  1
  O  O43  1  0.83910296  0.32492095  0.49976743  1
  O  O44  1  0.93189053  0.63450124  0.21726617  1
  O  O45  1  0.88848923  0.00515804  0.86196611  1
