# generated using pymatgen
data_LiP4WO12
_symmetry_space_group_name_H-M   'P 1'
_cell_length_a   9.60194054
_cell_length_b   13.21291190
_cell_length_c   7.60250753
_cell_angle_alpha   90.00000000
_cell_angle_beta   92.47925973
_cell_angle_gamma   90.00000000
_symmetry_Int_Tables_number   1
_chemical_formula_structural   LiP4WO12
_chemical_formula_sum   'Li4 P16 W4 O48'
_cell_volume   963.62419759
_cell_formula_units_Z   4
loop_
 _symmetry_equiv_pos_site_id
 _symmetry_equiv_pos_as_xyz
  1  'x, y, z'
loop_
 _atom_site_type_symbol
 _atom_site_label
 _atom_site_symmetry_multiplicity
 _atom_site_fract_x
 _atom_site_fract_y
 _atom_site_fract_z
 _atom_site_occupancy
  Li  Li0  1  0.99430278  0.79561013  0.60204032  1
  Li  Li1  1  0.50569722  0.29561013  0.89795968  1
  Li  Li2  1  0.49430278  0.70438987  0.10204032  1
  Li  Li3  1  0.00569722  0.20438987  0.39795968  1
  P  P4  1  0.21828856  0.39458108  0.39770995  1
  P  P5  1  0.22570521  0.61424587  0.30365012  1
  P  P6  1  0.26079591  0.13563353  0.58574645  1
  P  P7  1  0.25295150  0.91923529  0.70268465  1
  P  P8  1  0.24704850  0.41923529  0.79731535  1
  P  P9  1  0.23920409  0.63563353  0.91425355  1
  P  P10  1  0.27429479  0.11424587  0.19634988  1
  P  P11  1  0.28171144  0.89458108  0.10229005  1
  P  P12  1  0.71828856  0.10541892  0.89770995  1
  P  P13  1  0.72570521  0.88575413  0.80365012  1
  P  P14  1  0.76079591  0.36436647  0.08574645  1
  P  P15  1  0.75295150  0.58076471  0.20268465  1
  P  P16  1  0.74704850  0.08076471  0.29731535  1
  P  P17  1  0.73920409  0.86436647  0.41425355  1
  P  P18  1  0.77429479  0.38575413  0.69634988  1
  P  P19  1  0.78171144  0.60541892  0.60229005  1
  W  W20  1  0.02251763  0.22869567  0.89457584  1
  W  W21  1  0.47748237  0.72869567  0.60542416  1
  W  W22  1  0.52251763  0.27130433  0.39457584  1
  W  W23  1  0.97748237  0.77130433  0.10542416  1
  O  O24  1  0.10401960  0.68600399  0.29576044  1
  O  O25  1  0.09853158  0.91390995  0.68558184  1
  O  O26  1  0.13050878  0.17361163  0.66748792  1
  O  O27  1  0.12654309  0.31344177  0.32383163  1
  O  O28  1  0.16213880  0.50337558  0.32506334  1
  O  O29  1  0.11676805  0.70650400  0.91401137  1
  O  O30  1  0.12649548  0.89288550  0.12684372  1
  O  O31  1  0.18305134  0.40310842  0.60230502  1
  O  O32  1  0.16674302  0.35218288  0.91732109  1
  O  O33  1  0.18573505  0.53332474  0.82762156  1
  O  O34  1  0.20573641  0.10601695  0.38801752  1
  O  O35  1  0.16030762  0.13412756  0.06111536  1
  O  O36  1  0.33969238  0.63412756  0.43888464  1
  O  O37  1  0.31426495  0.03332474  0.67237844  1
  O  O38  1  0.29426359  0.60601695  0.11198248  1
  O  O39  1  0.33325698  0.85218288  0.58267891  1
  O  O40  1  0.31694866  0.90310842  0.89769498  1
  O  O41  1  0.37350452  0.39288550  0.37315628  1
  O  O42  1  0.38323195  0.20650400  0.58598863  1
  O  O43  1  0.33786120  0.00337558  0.17493666  1
  O  O44  1  0.36949122  0.67361163  0.83251208  1
  O  O45  1  0.37345691  0.81344177  0.17616837  1
  O  O46  1  0.40146842  0.41390995  0.81441816  1
  O  O47  1  0.39598040  0.18600399  0.20423956  1
  O  O48  1  0.60401960  0.81399601  0.79576044  1
  O  O49  1  0.59853158  0.58609005  0.18558184  1
  O  O50  1  0.62654309  0.18655823  0.82383163  1
  O  O51  1  0.63050878  0.32638837  0.16748792  1
  O  O52  1  0.66213880  0.99662442  0.82506334  1
  O  O53  1  0.61676805  0.79349600  0.41401137  1
  O  O54  1  0.62649548  0.60711450  0.62684372  1
  O  O55  1  0.68305134  0.09689158  0.10230502  1
  O  O56  1  0.66674302  0.14781712  0.41732109  1
  O  O57  1  0.70573641  0.39398305  0.88801752  1
  O  O58  1  0.68573505  0.96667526  0.32762156  1
  O  O59  1  0.66030762  0.36587244  0.56111536  1
  O  O60  1  0.83969238  0.86587244  0.93888464  1
  O  O61  1  0.79426359  0.89398305  0.61198248  1
  O  O62  1  0.81426495  0.46667526  0.17237844  1
  O  O63  1  0.83325698  0.64781712  0.08267891  1
  O  O64  1  0.81694866  0.59689158  0.39769498  1
  O  O65  1  0.87350452  0.10711450  0.87315628  1
  O  O66  1  0.88323195  0.29349600  0.08598863  1
  O  O67  1  0.83786120  0.49662442  0.67493666  1
  O  O68  1  0.87345691  0.68655823  0.67616837  1
  O  O69  1  0.86949122  0.82638837  0.33251208  1
  O  O70  1  0.90146842  0.08609005  0.31441816  1
  O  O71  1  0.89598040  0.31399601  0.70423956  1
