# generated using pymatgen
data_Li4CrCo3(PO4)4
_symmetry_space_group_name_H-M   'P 1'
_cell_length_a   4.76521144
_cell_length_b   10.25517599
_cell_length_c   6.09027450
_cell_angle_alpha   90.00000000
_cell_angle_beta   90.00000000
_cell_angle_gamma   90.58948089
_symmetry_Int_Tables_number   1
_chemical_formula_structural   Li4CrCo3(PO4)4
_chemical_formula_sum   'Li4 Cr1 Co3 P4 O16'
_cell_volume   297.60428170
_cell_formula_units_Z   1
loop_
 _symmetry_equiv_pos_site_id
 _symmetry_equiv_pos_as_xyz
  1  'x, y, z'
loop_
 _atom_site_type_symbol
 _atom_site_label
 _atom_site_symmetry_multiplicity
 _atom_site_fract_x
 _atom_site_fract_y
 _atom_site_fract_z
 _atom_site_occupancy
  Li  Li0  1  0.00702281  0.99774202  0.99739229  1
  Li  Li1  1  0.00702281  0.99774202  0.50260771  1
  Li  Li2  1  0.49850562  0.50076034  0.50365986  1
  Li  Li3  1  0.49850562  0.50076034  0.99634014  1
  Cr  Cr4  1  0.95746692  0.28281926  0.25000000  1
  Co  Co5  1  0.02077391  0.72058655  0.75000000  1
  Co  Co6  1  0.48243103  0.21798230  0.75000000  1
  Co  Co7  1  0.51317036  0.77834714  0.25000000  1
  P  P8  1  0.08052306  0.59550088  0.25000000  1
  P  P9  1  0.41863190  0.09483045  0.25000000  1
  P  P10  1  0.58806097  0.90430738  0.75000000  1
  P  P11  1  0.91467984  0.40691778  0.75000000  1
  O  O12  1  0.19673329  0.45371772  0.25000000  1
  O  O13  1  0.21946178  0.66584785  0.04683273  1
  O  O14  1  0.21946178  0.66584785  0.45316727  1
  O  O15  1  0.23609314  0.40312428  0.75000000  1
  O  O16  1  0.26596463  0.89890700  0.75000000  1
  O  O17  1  0.28695058  0.16251252  0.04404945  1
  O  O18  1  0.28695058  0.16251252  0.45595055  1
  O  O19  1  0.30083571  0.95215779  0.25000000  1
  O  O20  1  0.70895626  0.04612809  0.75000000  1
  O  O21  1  0.72502451  0.83471225  0.54684442  1
  O  O22  1  0.72502451  0.83471225  0.95315558  1
  O  O23  1  0.74243107  0.10263548  0.25000000  1
  O  O24  1  0.75819778  0.59846723  0.25000000  1
  O  O25  1  0.77198262  0.33616593  0.55071788  1
  O  O26  1  0.77198262  0.33616593  0.94928212  1
  O  O27  1  0.79715727  0.54808888  0.75000000  1
