# generated using pymatgen
data_LiNb(TeO4)3
_symmetry_space_group_name_H-M   'P 1'
_cell_length_a   7.44011922
_cell_length_b   7.44633288
_cell_length_c   7.44439124
_cell_angle_alpha   87.37895623
_cell_angle_beta   92.50978203
_cell_angle_gamma   92.29649837
_symmetry_Int_Tables_number   1
_chemical_formula_structural   LiNb(TeO4)3
_chemical_formula_sum   'Li2 Nb2 Te6 O24'
_cell_volume   411.30498847
_cell_formula_units_Z   2
loop_
 _symmetry_equiv_pos_site_id
 _symmetry_equiv_pos_as_xyz
  1  'x, y, z'
loop_
 _atom_site_type_symbol
 _atom_site_label
 _atom_site_symmetry_multiplicity
 _atom_site_fract_x
 _atom_site_fract_y
 _atom_site_fract_z
 _atom_site_occupancy
  Li  Li0  1  0.22332865  0.27283098  0.26910954  1
  Li  Li1  1  0.71637347  0.78737666  0.79239022  1
  Nb  Nb2  1  0.00487474  0.99982675  0.99827200  1
  Nb  Nb3  1  0.50090626  0.49561528  0.99872043  1
  Te  Te4  1  0.00034901  0.99489405  0.49873646  1
  Te  Te5  1  0.00092300  0.49992399  0.99453071  1
  Te  Te6  1  0.50041145  0.99951069  0.00055890  1
  Te  Te7  1  0.00087207  0.49871314  0.49911103  1
  Te  Te8  1  0.50125810  0.99820247  0.49660029  1
  Te  Te9  1  0.50468763  0.49862168  0.49969624  1
  O  O10  1  0.75045330  0.05901319  0.42921037  1
  O  O11  1  0.94361393  0.25396702  0.94439453  1
  O  O12  1  0.94720302  0.42862199  0.25020068  1
  O  O13  1  0.57410638  0.05091065  0.74457179  1
  O  O14  1  0.56011259  0.24279409  0.05808295  1
  O  O15  1  0.75348220  0.43509481  0.56641620  1
  O  O16  1  0.93850956  0.74636681  0.43004963  1
  O  O17  1  0.43916019  0.24709857  0.43043082  1
  O  O18  1  0.75737393  0.56394247  0.93639910  1
  O  O19  1  0.25748128  0.06242710  0.94462799  1
  O  O20  1  0.55836234  0.55452337  0.25522408  1
  O  O21  1  0.06366779  0.05735857  0.25657307  1
  O  O22  1  0.93909652  0.93428261  0.74011396  1
  O  O23  1  0.44673955  0.44057532  0.74099512  1
  O  O24  1  0.74687391  0.93410054  0.04189685  1
  O  O25  1  0.24572539  0.43440715  0.05541894  1
  O  O26  1  0.56787664  0.74886509  0.56527108  1
  O  O27  1  0.06945879  0.24711767  0.55525880  1
  O  O28  1  0.25233770  0.54871064  0.42610595  1
  O  O29  1  0.45198163  0.75400494  0.93706134  1
  O  O30  1  0.43377867  0.93456599  0.25099867  1
  O  O31  1  0.06897999  0.56348401  0.74379181  1
  O  O32  1  0.06114072  0.74371540  0.05103759  1
  O  O33  1  0.25304658  0.93468833  0.56507284  1
