# generated using pymatgen
data_Na2Ti2O5
_symmetry_space_group_name_H-M   'P 1'
_cell_length_a   5.46780675
_cell_length_b   23.98809799
_cell_length_c   8.86842019
_cell_angle_alpha   90.00000000
_cell_angle_beta   90.39576951
_cell_angle_gamma   90.00000000
_symmetry_Int_Tables_number   1
_chemical_formula_structural   Na2Ti2O5
_chemical_formula_sum   'Na16 Ti16 O40'
_cell_volume   1163.17449818
_cell_formula_units_Z   8
loop_
 _symmetry_equiv_pos_site_id
 _symmetry_equiv_pos_as_xyz
  1  'x, y, z'
loop_
 _atom_site_type_symbol
 _atom_site_label
 _atom_site_symmetry_multiplicity
 _atom_site_fract_x
 _atom_site_fract_y
 _atom_site_fract_z
 _atom_site_occupancy
  Na  Na0  1  0.19631401  0.26038257  0.52375084  1
  Na  Na1  1  0.19631401  0.23961743  0.02375084  1
  Na  Na2  1  0.21675202  0.72119592  0.72173807  1
  Na  Na3  1  0.21675202  0.77880408  0.22173807  1
  Na  Na4  1  0.27876464  0.47242808  0.90160011  1
  Na  Na5  1  0.27876464  0.02757192  0.40160011  1
  Na  Na6  1  0.30974840  0.98495468  0.84149127  1
  Na  Na7  1  0.30974840  0.51504532  0.34149127  1
  Na  Na8  1  0.69025160  0.48495468  0.65850873  1
  Na  Na9  1  0.69025160  0.01504532  0.15850873  1
  Na  Na10  1  0.72123536  0.97242808  0.59839989  1
  Na  Na11  1  0.72123536  0.52757192  0.09839989  1
  Na  Na12  1  0.78324798  0.22119592  0.77826193  1
  Na  Na13  1  0.78324798  0.27880408  0.27826193  1
  Na  Na14  1  0.80368599  0.76038257  0.97624916  1
  Na  Na15  1  0.80368599  0.73961743  0.47624916  1
  Ti  Ti16  1  0.17061276  0.40972494  0.54227083  1
  Ti  Ti17  1  0.17061276  0.09027506  0.04227083  1
  Ti  Ti18  1  0.19447145  0.88546999  0.51652224  1
  Ti  Ti19  1  0.19447145  0.61453001  0.01652224  1
  Ti  Ti20  1  0.30773131  0.13328323  0.69554936  1
  Ti  Ti21  1  0.30773131  0.36671677  0.19554936  1
  Ti  Ti22  1  0.32801032  0.83933601  0.86214580  1
  Ti  Ti23  1  0.32801032  0.66066399  0.36214580  1
  Ti  Ti24  1  0.67198968  0.33933601  0.63785420  1
  Ti  Ti25  1  0.67198968  0.16066399  0.13785420  1
  Ti  Ti26  1  0.69226869  0.63328323  0.80445064  1
  Ti  Ti27  1  0.69226869  0.86671677  0.30445064  1
  Ti  Ti28  1  0.80552855  0.38546999  0.98347776  1
  Ti  Ti29  1  0.80552855  0.11453001  0.48347776  1
  Ti  Ti30  1  0.82938724  0.90972494  0.95772917  1
  Ti  Ti31  1  0.82938724  0.59027506  0.45772917  1
  O  O32  1  0.14227333  0.11055217  0.52163546  1
  O  O33  1  0.14227333  0.38944783  0.02163546  1
  O  O34  1  0.16495111  0.90149040  0.93248650  1
  O  O35  1  0.16495111  0.59850960  0.43248650  1
  O  O36  1  0.21098591  0.19982406  0.75096236  1
  O  O37  1  0.21098591  0.30017594  0.25096236  1
  O  O38  1  0.24643526  0.07952312  0.84030223  1
  O  O39  1  0.26711455  0.46874459  0.63913374  1
  O  O40  1  0.24643526  0.42047688  0.34030323  1
  O  O41  1  0.26711455  0.03125541  0.13913374  1
  O  O42  1  0.22863704  0.77890101  0.95282624  1
  O  O43  1  0.22863704  0.72109899  0.45282624  1
  O  O44  1  0.25299609  0.83079010  0.66005837  1
  O  O45  1  0.25299609  0.66920990  0.16005837  1
  O  O46  1  0.28994501  0.95192992  0.57628847  1
  O  O47  1  0.28994501  0.54807008  0.07628847  1
  O  O48  1  0.33548752  0.34650422  0.60877483  1
  O  O49  1  0.33548752  0.15349578  0.10877483  1
  O  O50  1  0.35726847  0.63633616  0.84282035  1
  O  O51  1  0.35726847  0.86366384  0.34282035  1
  O  O52  1  0.64273153  0.13633616  0.65717965  1
  O  O53  1  0.64273153  0.36366384  0.15717965  1
  O  O54  1  0.66451248  0.84650422  0.89122517  1
  O  O55  1  0.66451248  0.65349578  0.39122517  1
  O  O56  1  0.71005499  0.45192992  0.92371153  1
  O  O57  1  0.71005499  0.04807008  0.42371153  1
  O  O58  1  0.74700391  0.33079010  0.83994163  1
  O  O59  1  0.74700391  0.16920990  0.33994163  1
  O  O60  1  0.77136296  0.27890101  0.54717376  1
  O  O61  1  0.77136296  0.22109899  0.04717376  1
  O  O62  1  0.73288545  0.96874459  0.86086626  1
  O  O63  1  0.75356474  0.57952312  0.65969777  1
  O  O64  1  0.73288545  0.53125541  0.36086626  1
  O  O65  1  0.75356474  0.92047688  0.15969677  1
  O  O66  1  0.78901409  0.69982406  0.74903764  1
  O  O67  1  0.78901409  0.80017594  0.24903764  1
  O  O68  1  0.83504889  0.40149040  0.56751350  1
  O  O69  1  0.83504889  0.09850960  0.06751350  1
  O  O70  1  0.85772667  0.61055217  0.97836454  1
  O  O71  1  0.85772667  0.88944783  0.47836454  1
