# generated using pymatgen
data_H13C4NF2
_symmetry_space_group_name_H-M   'P 1'
_cell_length_a   5.44215158
_cell_length_b   6.63455737
_cell_length_c   8.82561314
_cell_angle_alpha   90.00000000
_cell_angle_beta   90.00000000
_cell_angle_gamma   90.00000000
_symmetry_Int_Tables_number   1
_chemical_formula_structural   H13C4NF2
_chemical_formula_sum   'H26 C8 N2 F4'
_cell_volume   318.65994336
_cell_formula_units_Z   2
loop_
 _symmetry_equiv_pos_site_id
 _symmetry_equiv_pos_as_xyz
  1  'x, y, z'
loop_
 _atom_site_type_symbol
 _atom_site_label
 _atom_site_symmetry_multiplicity
 _atom_site_fract_x
 _atom_site_fract_y
 _atom_site_fract_z
 _atom_site_occupancy
  H  H0  1  0.99066390  0.75000000  0.01203239  1
  H  H1  1  0.24529759  0.11367605  0.88762939  1
  H  H2  1  0.24529759  0.38632395  0.61237061  1
  H  H3  1  0.93326594  0.56657083  0.75000000  1
  H  H4  1  0.30086795  0.56773276  0.35216570  1
  H  H5  1  0.06673406  0.43342917  0.25000000  1
  H  H6  1  0.69913205  0.43226724  0.85216570  1
  H  H7  1  0.00933610  0.25000000  0.51203239  1
  H  H8  1  0.93326594  0.93342917  0.75000000  1
  H  H9  1  0.69913205  0.06773276  0.64783430  1
  H  H10  1  0.69913205  0.06773276  0.85216570  1
  H  H11  1  0.35773829  0.75000000  0.75000000  1
  H  H12  1  0.30086795  0.56773276  0.14783430  1
  H  H13  1  0.30086795  0.93226724  0.35216570  1
  H  H14  1  0.00933610  0.25000000  0.98796761  1
  H  H15  1  0.06673406  0.06657083  0.25000000  1
  H  H16  1  0.69913205  0.43226724  0.64783430  1
  H  H17  1  0.99066390  0.75000000  0.48796761  1
  H  H18  1  0.75470241  0.61367605  0.11237061  1
  H  H19  1  0.30086795  0.93226724  0.14783430  1
  H  H20  1  0.24529759  0.38632395  0.88762939  1
  H  H21  1  0.75470241  0.61367605  0.38762939  1
  H  H22  1  0.24529759  0.11367605  0.61237061  1
  H  H23  1  0.75470241  0.88632395  0.11237061  1
  H  H24  1  0.64226171  0.25000000  0.25000000  1
  H  H25  1  0.75470241  0.88632395  0.38762939  1
  C  C26  1  0.86846768  0.75000000  0.11090572  1
  C  C27  1  0.13153232  0.25000000  0.88909428  1
  C  C28  1  0.18690549  0.93416980  0.25000000  1
  C  C29  1  0.18690549  0.56583020  0.25000000  1
  C  C30  1  0.81309451  0.06583020  0.75000000  1
  C  C31  1  0.86846768  0.75000000  0.38909428  1
  C  C32  1  0.81309451  0.43416980  0.75000000  1
  C  C33  1  0.13153232  0.25000000  0.61090572  1
  N  N34  1  0.97283643  0.25000000  0.75000000  1
  N  N35  1  0.02716357  0.75000000  0.25000000  1
  F  F36  1  0.35359876  0.75000000  0.61931015  1
  F  F37  1  0.64640124  0.25000000  0.11931015  1
  F  F38  1  0.35359876  0.75000000  0.88068985  1
  F  F39  1  0.64640124  0.25000000  0.38068985  1
