# generated using pymatgen
data_LiVH2OF5
_symmetry_space_group_name_H-M   'P 1'
_cell_length_a   5.71229159
_cell_length_b   5.71229222
_cell_length_c   7.77117049
_cell_angle_alpha   86.29095176
_cell_angle_beta   93.70905192
_cell_angle_gamma   111.09104439
_symmetry_Int_Tables_number   1
_chemical_formula_structural   LiVH2OF5
_chemical_formula_sum   'Li2 V2 H4 O2 F10'
_cell_volume   235.85918945
_cell_formula_units_Z   2
loop_
 _symmetry_equiv_pos_site_id
 _symmetry_equiv_pos_as_xyz
  1  'x, y, z'
loop_
 _atom_site_type_symbol
 _atom_site_label
 _atom_site_symmetry_multiplicity
 _atom_site_fract_x
 _atom_site_fract_y
 _atom_site_fract_z
 _atom_site_occupancy
  Li  Li0  1  0.25966400  0.71218143  0.49454264  1
  Li  Li1  1  0.71218143  0.25966400  0.00545736  1
  V  V2  1  0.23349704  0.23349704  0.25000000  1
  V  V3  1  0.76815524  0.76815524  0.75000000  1
  H  H4  1  0.13431020  0.20411001  0.84260406  1
  H  H5  1  0.20411001  0.13431020  0.65739594  1
  H  H6  1  0.79422975  0.86927948  0.34154335  1
  H  H7  1  0.86927948  0.79422975  0.15845665  1
  O  O8  1  0.08285769  0.08285769  0.75000000  1
  O  O9  1  0.91859249  0.91859249  0.25000000  1
  F  F10  1  0.07486464  0.41246007  0.36313423  1
  F  F11  1  0.09401494  0.31285110  0.03945875  1
  F  F12  1  0.63408144  0.96741413  0.85519673  1
  F  F13  1  0.48313257  0.48313257  0.75000000  1
  F  F14  1  0.31285110  0.09401494  0.46054125  1
  F  F15  1  0.64256233  0.85539723  0.53085741  1
  F  F16  1  0.51586721  0.51586721  0.25000000  1
  F  F17  1  0.41246007  0.07486464  0.13686577  1
  F  F18  1  0.85539723  0.64256233  0.96914259  1
  F  F19  1  0.96741413  0.63408144  0.64480327  1
