# generated using pymatgen
data_Li5(NiO2)8
_symmetry_space_group_name_H-M   'P 1'
_cell_length_a   7.60254376
_cell_length_b   6.49874089
_cell_length_c   12.38059389
_cell_angle_alpha   99.84247438
_cell_angle_beta   88.24516928
_cell_angle_gamma   65.68129302
_symmetry_Int_Tables_number   1
_chemical_formula_structural   Li5(NiO2)8
_chemical_formula_sum   'Li10 Ni16 O32'
_cell_volume   545.72036321
_cell_formula_units_Z   2
loop_
 _symmetry_equiv_pos_site_id
 _symmetry_equiv_pos_as_xyz
  1  'x, y, z'
loop_
 _atom_site_type_symbol
 _atom_site_label
 _atom_site_symmetry_multiplicity
 _atom_site_fract_x
 _atom_site_fract_y
 _atom_site_fract_z
 _atom_site_occupancy
  Li  Li0  1  0.24388948  0.12713142  0.87499784  1
  Li  Li1  1  0.13537685  0.81254055  0.18241437  1
  Li  Li2  1  0.25945076  0.63080582  0.37247713  1
  Li  Li3  1  0.35990390  0.43676625  0.56053010  1
  Li  Li4  1  0.49408406  0.24448985  0.75392064  1
  Li  Li5  1  0.37424316  0.93942236  0.06100551  1
  Li  Li6  1  0.77757528  0.38480368  0.61474908  1
  Li  Li7  1  0.87411441  0.18179400  0.82140796  1
  Li  Li8  1  0.75412714  0.87815541  0.11417845  1
  Li  Li9  1  0.84349425  0.67580030  0.32397395  1
  Ni  Ni10  1  0.06682382  0.39909974  0.09356251  1
  Ni  Ni11  1  0.19011979  0.21455137  0.28219151  1
  Ni  Ni12  1  0.31033353  0.03150141  0.47000978  1
  Ni  Ni13  1  0.06285974  0.90435077  0.59343401  1
  Ni  Ni14  1  0.19536867  0.71609955  0.78158837  1
  Ni  Ni15  1  0.31351542  0.52829508  0.96775209  1
  Ni  Ni16  1  0.43605822  0.34573529  0.15724498  1
  Ni  Ni17  1  0.56177957  0.15639579  0.34244127  1
  Ni  Ni18  1  0.43222966  0.85218277  0.65917446  1
  Ni  Ni19  1  0.55783745  0.66236091  0.84529139  1
  Ni  Ni20  1  0.68581399  0.46813347  0.03166749  1
  Ni  Ni21  1  0.80896771  0.28722672  0.21973929  1
  Ni  Ni22  1  0.92922322  0.09416611  0.40419931  1
  Ni  Ni23  1  0.68919836  0.96592343  0.53016415  1
  Ni  Ni24  1  0.81663222  0.77777512  0.71797600  1
  Ni  Ni25  1  0.93851786  0.59587630  0.90452179  1
  O  O26  1  0.02441207  0.16611364  0.53332904  1
  O  O27  1  0.10107939  0.13046927  0.15226078  1
  O  O28  1  0.04081398  0.66716617  0.03981169  1
  O  O29  1  0.17988902  0.48558728  0.22698397  1
  O  O30  1  0.10464975  0.63933407  0.65056538  1
  O  O31  1  0.22398000  0.45009371  0.83629645  1
  O  O32  1  0.32772844  0.25505816  0.03066050  1
  O  O33  1  0.30308847  0.29552128  0.40679363  1
  O  O34  1  0.43848513  0.12198781  0.60075334  1
  O  O35  1  0.47388212  0.07866325  0.20913726  1
  O  O36  1  0.18164436  0.94833350  0.33538862  1
  O  O37  1  0.17020803  0.98385396  0.73613379  1
  O  O38  1  0.40430878  0.60787139  0.09976898  1
  O  O39  1  0.32680548  0.76463529  0.53108564  1
  O  O40  1  0.30037830  0.80474831  0.90982491  1
  O  O41  1  0.52646839  0.42261380  0.28902768  1
  O  O42  1  0.45770674  0.57064758  0.71893283  1
  O  O43  1  0.69730984  0.21527044  0.09259502  1
  O  O44  1  0.66646453  0.22719951  0.47436505  1
  O  O45  1  0.58294511  0.39513700  0.89260185  1
  O  O46  1  0.82129430  0.01922999  0.27463579  1
  O  O47  1  0.79605028  0.04403306  0.65996821  1
  O  O48  1  0.52769520  0.92904510  0.79106589  1
  O  O49  1  0.59060190  0.89645283  0.40019853  1
  O  O50  1  0.70294408  0.71274109  0.59215919  1
  O  O51  1  0.65004740  0.73508650  0.98001599  1
  O  O52  1  0.81151365  0.54631660  0.16340039  1
  O  O53  1  0.91032627  0.35492504  0.34879420  1
  O  O54  1  0.81549824  0.52036257  0.77709325  1
  O  O55  1  0.96196944  0.33107352  0.95454547  1
  O  O56  1  0.93327646  0.84920344  0.84302885  1
  O  O57  1  0.94445138  0.82946937  0.45151638  1
