# generated using pymatgen
data_S5N2(O2F)4
_symmetry_space_group_name_H-M   'P 1'
_cell_length_a   6.89680761
_cell_length_b   13.12015545
_cell_length_c   13.99979579
_cell_angle_alpha   91.40429651
_cell_angle_beta   90.00000000
_cell_angle_gamma   90.00000000
_symmetry_Int_Tables_number   1
_chemical_formula_structural   S5N2(O2F)4
_chemical_formula_sum   'S20 N8 O32 F16'
_cell_volume   1266.42167561
_cell_formula_units_Z   4
loop_
 _symmetry_equiv_pos_site_id
 _symmetry_equiv_pos_as_xyz
  1  'x, y, z'
loop_
 _atom_site_type_symbol
 _atom_site_label
 _atom_site_symmetry_multiplicity
 _atom_site_fract_x
 _atom_site_fract_y
 _atom_site_fract_z
 _atom_site_occupancy
  S  S0  1  0.86565066  0.35976615  0.27599469  1
  S  S1  1  0.71998721  0.64029912  0.50933501  1
  S  S2  1  0.68284227  0.13700518  0.79537591  1
  S  S3  1  0.28001279  0.35970088  0.49066499  1
  S  S4  1  0.78001279  0.64029912  0.00933501  1
  S  S5  1  0.63434934  0.35976615  0.77599469  1
  S  S6  1  0.18284227  0.86299482  0.70462409  1
  S  S7  1  0.73666840  0.86363924  0.99399432  1
  S  S8  1  0.21998721  0.35970088  0.99066499  1
  S  S9  1  0.23666840  0.13636076  0.50600568  1
  S  S10  1  0.36565066  0.64023385  0.22400531  1
  S  S11  1  0.26333160  0.13636076  0.00600568  1
  S  S12  1  0.29043891  0.22979679  0.81568797  1
  S  S13  1  0.20956109  0.22979679  0.31568797  1
  S  S14  1  0.79043891  0.77020321  0.68431203  1
  S  S15  1  0.70956109  0.77020321  0.18431203  1
  S  S16  1  0.13434934  0.64023385  0.72400531  1
  S  S17  1  0.76333160  0.86363924  0.49399432  1
  S  S18  1  0.31715773  0.86299482  0.20462409  1
  S  S19  1  0.81715773  0.13700518  0.29537591  1
  N  N20  1  0.75809894  0.75861059  0.56464251  1
  N  N21  1  0.25809894  0.24138941  0.93535749  1
  N  N22  1  0.46860787  0.75792473  0.20358412  1
  N  N23  1  0.74190106  0.75861059  0.06464251  1
  N  N24  1  0.03139213  0.75792473  0.70358412  1
  N  N25  1  0.53139213  0.24207527  0.79641588  1
  N  N26  1  0.96860787  0.24207527  0.29641588  1
  N  N27  1  0.24190106  0.24138941  0.43535749  1
  O  O28  1  0.32978113  0.16145913  0.59412829  1
  O  O29  1  0.85288919  0.16030541  0.84923992  1
  O  O30  1  0.83451125  0.63235896  0.42518543  1
  O  O31  1  0.18400503  0.65661080  0.26955648  1
  O  O32  1  0.64711081  0.16030541  0.34923992  1
  O  O33  1  0.77991374  0.95112853  0.05139601  1
  O  O34  1  0.82978113  0.83854087  0.90587171  1
  O  O35  1  0.81599497  0.34338920  0.73044352  1
  O  O36  1  0.35288919  0.83969459  0.65076008  1
  O  O37  1  0.72008626  0.95112853  0.55139601  1
  O  O38  1  0.31599497  0.65661080  0.76955648  1
  O  O39  1  0.33451125  0.36764104  0.07481457  1
  O  O40  1  0.68400503  0.34338920  0.23044352  1
  O  O41  1  0.43492367  0.94993683  0.18967903  1
  O  O42  1  0.78340520  0.56746378  0.08261160  1
  O  O43  1  0.67021887  0.83854087  0.40587171  1
  O  O44  1  0.48610114  0.42503825  0.74344138  1
  O  O45  1  0.01389886  0.42503825  0.24344138  1
  O  O46  1  0.93492367  0.05006317  0.31032097  1
  O  O47  1  0.16548875  0.36764104  0.57481457  1
  O  O48  1  0.17021887  0.16145913  0.09412829  1
  O  O49  1  0.71659480  0.56746378  0.58261160  1
  O  O50  1  0.27991374  0.04887147  0.44860399  1
  O  O51  1  0.06507633  0.94993683  0.68967903  1
  O  O52  1  0.66548875  0.63235896  0.92518543  1
  O  O53  1  0.14711081  0.83969459  0.15076008  1
  O  O54  1  0.98610114  0.57496175  0.75655862  1
  O  O55  1  0.21659480  0.43253622  0.91738840  1
  O  O56  1  0.28340520  0.43253622  0.41738840  1
  O  O57  1  0.22008626  0.04887147  0.94860399  1
  O  O58  1  0.56507633  0.05006317  0.81032097  1
  O  O59  1  0.51389886  0.57496175  0.25655862  1
  F  F60  1  0.50163231  0.65657011  0.47693592  1
  F  F61  1  0.75766526  0.13512272  0.18663398  1
  F  F62  1  0.51000585  0.86580062  0.97303555  1
  F  F63  1  0.82155340  0.39219664  0.38425204  1
  F  F64  1  0.25766526  0.86487728  0.31336602  1
  F  F65  1  0.98999415  0.86580062  0.47303555  1
  F  F66  1  0.24233474  0.86487728  0.81336602  1
  F  F67  1  0.74233474  0.13512272  0.68663398  1
  F  F68  1  0.67844660  0.39219664  0.88425204  1
  F  F69  1  0.17844660  0.60780336  0.61574796  1
  F  F70  1  0.32155340  0.60780336  0.11574796  1
  F  F71  1  -0.00163231  0.65657011  0.97693592  1
  F  F72  1  1.00163231  0.34342989  0.02306408  1
  F  F73  1  0.48999415  0.13419938  0.02696445  1
  F  F74  1  0.01000585  0.13419938  0.52696445  1
  F  F75  1  0.49836769  0.34342989  0.52306408  1
