# generated using pymatgen
data_Li9Co13O28
_symmetry_space_group_name_H-M   'P 1'
_cell_length_a   8.09455051
_cell_length_b   8.53722894
_cell_length_c   7.44119238
_cell_angle_alpha   104.39464447
_cell_angle_beta   105.16888864
_cell_angle_gamma   101.57677409
_symmetry_Int_Tables_number   1
_chemical_formula_structural   Li9Co13O28
_chemical_formula_sum   'Li9 Co13 O28'
_cell_volume   460.89731201
_cell_formula_units_Z   1
loop_
 _symmetry_equiv_pos_site_id
 _symmetry_equiv_pos_as_xyz
  1  'x, y, z'
loop_
 _atom_site_type_symbol
 _atom_site_label
 _atom_site_symmetry_multiplicity
 _atom_site_fract_x
 _atom_site_fract_y
 _atom_site_fract_z
 _atom_site_occupancy
  Li  Li0  1  0.27339940  0.20809209  0.92521788  1
  Li  Li1  1  0.20246630  0.29340322  0.58466080  1
  Li  Li2  1  0.13562609  0.35150028  0.20735144  1
  Li  Li3  1  0.35445916  0.13161522  0.28807616  1
  Li  Li4  1  0.64986374  0.86403338  0.70135173  1
  Li  Li5  1  0.49930899  0.99631397  0.00014162  1
  Li  Li6  1  0.87104650  0.64276022  0.76962197  1
  Li  Li7  1  0.71984617  0.79286549  0.08676394  1
  Li  Li8  1  0.93300893  0.57094316  0.16144549  1
  Co  Co9  1  0.13972995  0.86008283  0.71698646  1
  Co  Co10  1  0.07388490  0.93292120  0.35510633  1
  Co  Co11  1  0.21360595  0.79028494  0.07093262  1
  Co  Co12  1  0.35018182  0.63910024  0.78266027  1
  Co  Co13  1  0.29197823  0.71992665  0.43215269  1
  Co  Co14  1  0.42909905  0.57241460  0.14360545  1
  Co  Co15  1  0.50051517  0.49990878  0.49959451  1
  Co  Co16  1  0.56877133  0.42608575  0.85560077  1
  Co  Co17  1  0.71137664  0.28127262  0.56972065  1
  Co  Co18  1  0.64951420  0.36204370  0.21759455  1
  Co  Co19  1  0.79041999  0.21106906  0.92720128  1
  Co  Co20  1  0.92397546  0.06517703  0.64152099  1
  Co  Co21  1  0.85964053  0.14105122  0.28065360  1
  O  O22  1  0.00264410  0.20239856  0.90412197  1
  O  O23  1  0.12498522  0.66666513  0.79873503  1
  O  O24  1  0.06799495  0.74341870  0.44245646  1
  O  O25  1  0.24755937  0.97521681  0.98902344  1
  O  O26  1  0.09028275  0.13569635  0.30095767  1
  O  O27  1  0.15431083  0.05700959  0.63136706  1
  O  O28  1  0.37222980  0.83485477  0.70552046  1
  O  O29  1  0.30110276  0.91189808  0.34445665  1
  O  O30  1  0.27164328  0.52030779  0.50536631  1
  O  O31  1  0.34412608  0.44073935  0.86716584  1
  O  O32  1  0.20276219  0.59592215  0.16217819  1
  O  O33  1  0.43767061  0.76375883  0.05323489  1
  O  O34  1  0.51172678  0.69483732  0.41892614  1
  O  O35  1  0.58699197  0.62351603  0.77723916  1
  O  O36  1  0.41317746  0.37282717  0.22387021  1
  O  O37  1  0.48410196  0.30381636  0.58111968  1
  O  O38  1  0.56061665  0.23805047  0.94565294  1
  O  O39  1  0.79332218  0.40728667  0.84270264  1
  O  O40  1  0.65755284  0.55319718  0.12253808  1
  O  O41  1  0.72778953  0.47457815  0.49446095  1
  O  O42  1  0.69947754  0.08860161  0.65559528  1
  O  O43  1  0.63122712  0.16631570  0.29604532  1
  O  O44  1  0.84526885  0.94817387  0.36241733  1
  O  O45  1  0.91794458  0.87004377  0.70661632  1
  O  O46  1  0.75304421  0.02582064  0.01722569  1
  O  O47  1  0.93286671  0.25698831  0.55275404  1
  O  O48  1  0.87843743  0.34020225  0.19866164  1
  O  O49  1  0.99186273  0.79195476  0.09869941  1
