# generated using pymatgen
data_V6CuO15
_symmetry_space_group_name_H-M   'P 1'
_cell_length_a   7.92697715
_cell_length_b   7.37323401
_cell_length_c   10.27277427
_cell_angle_alpha   89.99375638
_cell_angle_beta   106.67628386
_cell_angle_gamma   76.57610163
_symmetry_Int_Tables_number   1
_chemical_formula_structural   V6CuO15
_chemical_formula_sum   'V12 Cu2 O30'
_cell_volume   558.01431390
_cell_formula_units_Z   2
loop_
 _symmetry_equiv_pos_site_id
 _symmetry_equiv_pos_as_xyz
  1  'x, y, z'
loop_
 _atom_site_type_symbol
 _atom_site_label
 _atom_site_symmetry_multiplicity
 _atom_site_fract_x
 _atom_site_fract_y
 _atom_site_fract_z
 _atom_site_occupancy
  V  V0  1  0.33466721  0.16651576  0.90884877  1
  V  V1  1  0.32976024  0.66636218  0.90265528  1
  V  V2  1  0.22524809  0.94148705  0.11964843  1
  V  V3  1  0.22906599  0.44226396  0.11814321  1
  V  V4  1  0.43145654  0.64442428  0.59400054  1
  V  V5  1  0.42409057  0.14409830  0.59286369  1
  V  V6  1  0.56787287  0.35810086  0.40593951  1
  V  V7  1  0.57673317  0.85756171  0.40729016  1
  V  V8  1  0.77480032  0.55405711  0.88242956  1
  V  V9  1  0.77070831  0.05657987  0.87961052  1
  V  V10  1  0.67056130  0.33300510  0.09690378  1
  V  V11  1  0.66457426  0.83326632  0.09118599  1
  Cu  Cu12  1  0.04612048  0.79007239  0.36791575  1
  Cu  Cu13  1  0.95338901  0.31203954  0.63210693  1
  O  O14  1  0.13228653  0.71804821  0.79147933  1
  O  O15  1  0.13162283  0.22047153  0.79173539  1
  O  O16  1  0.20662215  0.70577585  0.53608852  1
  O  O17  1  0.20329253  0.20086728  0.54297731  1
  O  O18  1  0.38124573  0.89697680  0.95806860  1
  O  O19  1  0.37046640  0.41531310  0.95254851  1
  O  O20  1  0.99963654  0.50002593  0.99903927  1
  O  O21  1  0.00052081  0.99978923  0.00100912  1
  O  O22  1  0.19269518  0.93523478  0.27182459  1
  O  O23  1  0.20279331  0.45643998  0.26994077  1
  O  O24  1  0.48225466  0.62909570  0.77869561  1
  O  O25  1  0.48526228  0.12912687  0.77586196  1
  O  O26  1  0.26336160  0.68372796  0.08043783  1
  O  O27  1  0.26536151  0.18338100  0.08526254  1
  O  O28  1  0.48590142  0.37996853  0.57235087  1
  O  O29  1  0.49048748  0.87722554  0.57409025  1
  O  O30  1  0.51311891  0.62155287  0.42750407  1
  O  O31  1  0.51050372  0.12383509  0.42618629  1
  O  O32  1  0.73684513  0.31464174  0.91937520  1
  O  O33  1  0.73440323  0.81576893  0.91479659  1
  O  O34  1  0.51436144  0.87066292  0.22484978  1
  O  O35  1  0.51819514  0.37130313  0.22078464  1
  O  O36  1  0.80289548  0.53257057  0.72819728  1
  O  O37  1  0.80246306  0.05643154  0.73039141  1
  O  O38  1  0.63217515  0.58432312  0.04714219  1
  O  O39  1  0.61620087  0.10367565  0.04219673  1
  O  O40  1  0.79760055  0.80416901  0.45717444  1
  O  O41  1  0.79281947  0.30765260  0.46402310  1
  O  O42  1  0.86785808  0.79050459  0.20794529  1
  O  O43  1  0.86769846  0.27870550  0.20848236  1
