# generated using pymatgen
data_Li4Mn(Ni2O5)2
_symmetry_space_group_name_H-M   'P 1'
_cell_length_a   5.77417264
_cell_length_b   10.01665934
_cell_length_c   6.52894917
_cell_angle_alpha   96.97779613
_cell_angle_beta   77.21660157
_cell_angle_gamma   73.28335099
_symmetry_Int_Tables_number   1
_chemical_formula_structural   Li4Mn(Ni2O5)2
_chemical_formula_sum   'Li8 Mn2 Ni8 O20'
_cell_volume   345.70008318
_cell_formula_units_Z   2
loop_
 _symmetry_equiv_pos_site_id
 _symmetry_equiv_pos_as_xyz
  1  'x, y, z'
loop_
 _atom_site_type_symbol
 _atom_site_label
 _atom_site_symmetry_multiplicity
 _atom_site_fract_x
 _atom_site_fract_y
 _atom_site_fract_z
 _atom_site_occupancy
  Li  Li0  1  0.10338775  0.60535861  0.39094140  1
  Li  Li1  1  0.20309505  0.19573022  0.80985499  1
  Li  Li2  1  0.40000000  0.40000000  0.60000000  1
  Li  Li3  1  0.00724506  0.99541687  0.00934166  1
  Li  Li4  1  0.59690495  0.60426978  0.39014501  1
  Li  Li5  1  0.69661225  0.19464139  0.80905860  1
  Li  Li6  1  0.90000000  0.40000000  0.60000000  1
  Li  Li7  1  0.79275494  0.80458313  0.19065834  1
  Mn  Mn8  1  0.40000000  0.90000000  0.60000000  1
  Mn  Mn9  1  0.90000000  0.90000000  0.60000000  1
  Ni  Ni10  1  0.10614474  0.09647146  0.38769209  1
  Ni  Ni11  1  0.30434657  0.29670668  0.19420352  1
  Ni  Ni12  1  0.20061652  0.69677104  0.80367442  1
  Ni  Ni13  1  0.49565343  0.50329332  0.00579648  1
  Ni  Ni14  1  0.59938348  0.10322896  0.39632558  1
  Ni  Ni15  1  0.80012064  0.30313267  0.19700292  1
  Ni  Ni16  1  0.69385526  0.70352854  0.81230791  1
  Ni  Ni17  1  0.99987936  0.49686733  0.00299708  1
  O  O18  1  0.11747285  0.17037755  0.11230279  1
  O  O19  1  0.06035538  0.03575542  0.68620368  1
  O  O20  1  0.13526086  0.63102164  0.09283545  1
  O  O21  1  0.27196347  0.24548224  0.46731719  1
  O  O22  1  0.05070143  0.54999932  0.73188281  1
  O  O23  1  0.46895096  0.44269768  0.27442415  1
  O  O24  1  0.66473914  0.16897836  0.10716455  1
  O  O25  1  0.56033237  0.03492824  0.69309728  1
  O  O26  1  0.23966763  0.76507176  0.50690272  1
  O  O27  1  0.33104904  0.35730232  0.92557585  1
  O  O28  1  0.45721573  0.95999682  0.33349593  1
  O  O29  1  0.68252715  0.62962245  0.08769721  1
  O  O30  1  0.52803653  0.55451776  0.73268281  1
  O  O31  1  0.74929857  0.25000068  0.46811719  1
  O  O32  1  0.34278427  0.84000318  0.86650407  1
  O  O33  1  0.94678422  0.44397412  0.27742302  1
  O  O34  1  0.73964462  0.76424458  0.51379632  1
  O  O35  1  0.85321578  0.35602588  0.92257698  1
  O  O36  1  0.91695463  0.96022069  0.32935784  1
  O  O37  1  0.88304537  0.83977931  0.87064216  1
