# generated using pymatgen
data_LiFeSiO4
_symmetry_space_group_name_H-M   'P 1'
_cell_length_a   8.49908906
_cell_length_b   5.33554025
_cell_length_c   8.28780138
_cell_angle_alpha   90.00000000
_cell_angle_beta   105.70427865
_cell_angle_gamma   90.00000000
_symmetry_Int_Tables_number   1
_chemical_formula_structural   LiFeSiO4
_chemical_formula_sum   'Li4 Fe4 Si4 O16'
_cell_volume   361.79973637
_cell_formula_units_Z   4
loop_
 _symmetry_equiv_pos_site_id
 _symmetry_equiv_pos_as_xyz
  1  'x, y, z'
loop_
 _atom_site_type_symbol
 _atom_site_label
 _atom_site_symmetry_multiplicity
 _atom_site_fract_x
 _atom_site_fract_y
 _atom_site_fract_z
 _atom_site_occupancy
  Li  Li0  1  0.07725771  0.85024829  0.97122747  1
  Li  Li1  1  0.28450062  0.33396055  0.50362789  1
  Li  Li2  1  0.57725771  0.14975171  0.97122747  1
  Li  Li3  1  0.78450062  0.66603945  0.50362789  1
  Fe  Fe4  1  0.21004212  0.33573197  0.86538969  1
  Fe  Fe5  1  0.38092971  0.82702868  0.36763529  1
  Fe  Fe6  1  0.71004212  0.66426803  0.86538969  1
  Fe  Fe7  1  0.88092971  0.17297132  0.36763529  1
  Si  Si8  1  0.00577143  0.67112690  0.24681718  1
  Si  Si9  1  0.33139477  0.83246606  0.74040208  1
  Si  Si10  1  0.50577143  0.32887310  0.24681718  1
  Si  Si11  1  0.83139477  0.16753394  0.74040208  1
  O  O12  1  0.01292713  0.18354270  0.87766725  1
  O  O13  1  0.04076838  0.38219796  0.31746497  1
  O  O14  1  0.19693503  0.68565735  0.81816822  1
  O  O15  1  0.28130336  0.13159930  0.70548272  1
  O  O16  1  0.17455335  0.78625278  0.21398713  1
  O  O17  1  0.34152394  0.69243517  0.56645946  1
  O  O18  1  0.51292713  0.81645730  0.87766725  1
  O  O19  1  0.43605553  0.17119406  0.38486289  1
  O  O20  1  0.37983593  0.29178049  0.05960775  1
  O  O21  1  0.54076838  0.61780204  0.31746497  1
  O  O22  1  0.69693503  0.31434265  0.81816822  1
  O  O23  1  0.78130336  0.86840070  0.70548272  1
  O  O24  1  0.67455335  0.21374722  0.21398713  1
  O  O25  1  0.84152394  0.30756483  0.56645946  1
  O  O26  1  0.93605553  0.82880594  0.38486289  1
  O  O27  1  0.87983593  0.70821951  0.05960775  1
