# generated using pymatgen
data_Cr4OF11
_symmetry_space_group_name_H-M   'P 1'
_cell_length_a   5.09968683
_cell_length_b   5.32902645
_cell_length_c   16.89029526
_cell_angle_alpha   92.42630507
_cell_angle_beta   98.66549146
_cell_angle_gamma   61.38974473
_symmetry_Int_Tables_number   1
_chemical_formula_structural   Cr4OF11
_chemical_formula_sum   'Cr8 O2 F22'
_cell_volume   398.13457310
_cell_formula_units_Z   2
loop_
 _symmetry_equiv_pos_site_id
 _symmetry_equiv_pos_as_xyz
  1  'x, y, z'
loop_
 _atom_site_type_symbol
 _atom_site_label
 _atom_site_symmetry_multiplicity
 _atom_site_fract_x
 _atom_site_fract_y
 _atom_site_fract_z
 _atom_site_occupancy
  Cr  Cr0  1  0.75437885  0.60856831  0.12153198  1
  Cr  Cr1  1  0.75095944  0.12045383  0.62421716  1
  Cr  Cr2  1  0.50000000  0.75000000  0.75000000  1
  Cr  Cr3  1  0.50000000  0.25000000  0.25000000  1
  Cr  Cr4  1  0.24562115  0.89143169  0.37846802  1
  Cr  Cr5  1  0.24904056  0.37954617  0.87578284  1
  Cr  Cr6  1  0.00940797  0.48196842  0.49627448  1
  Cr  Cr7  1  0.99059203  0.01803158  0.00372552  1
  O  O8  1  0.75191406  0.31292010  0.06253409  1
  O  O9  1  0.24808594  0.18707990  0.43746591  1
  F  F10  1  0.81805617  0.78206054  0.03266374  1
  F  F11  1  0.74166300  0.93258689  0.18620213  1
  F  F12  1  0.76071697  0.80540587  0.56074608  1
  F  F13  1  0.68433561  0.96825796  0.71754332  1
  F  F14  1  0.68302956  0.65714275  0.40765760  1
  F  F15  1  0.68601320  0.46710395  0.21675821  1
  F  F16  1  0.81384237  0.59382519  0.84295021  1
  F  F17  1  0.81346690  0.09274682  0.34316390  1
  F  F18  1  0.81322982  0.28147262  0.53155328  1
  F  F19  1  0.31697044  0.84285725  0.09234240  1
  F  F20  1  0.74890933  0.43543714  0.68721598  1
  F  F21  1  0.25833700  0.56741311  0.31379787  1
  F  F22  1  0.68600129  0.15806488  0.90836696  1
  F  F23  1  0.18615763  0.90617481  0.65704979  1
  F  F24  1  0.18653310  0.40725318  0.15683610  1
  F  F25  1  0.18194383  0.71793946  0.46733626  1
  F  F26  1  0.31566439  0.53174204  0.78245668  1
  F  F27  1  0.31399871  0.34193512  0.59163304  1
  F  F28  1  0.31398680  0.03289605  0.28324179  1
  F  F29  1  0.23928303  0.69459413  0.93925392  1
  F  F30  1  0.25109067  0.06456286  0.81278402  1
  F  F31  1  0.18677018  0.21852738  0.96844672  1
