# generated using pymatgen
data_Li5Fe11O16
_symmetry_space_group_name_H-M   'P 1'
_cell_length_a   6.06178503
_cell_length_b   6.04228042
_cell_length_c   10.45088716
_cell_angle_alpha   90.72730563
_cell_angle_beta   72.07602188
_cell_angle_gamma   119.48234862
_symmetry_Int_Tables_number   1
_chemical_formula_structural   Li5Fe11O16
_chemical_formula_sum   'Li5 Fe11 O16'
_cell_volume   312.56289170
_cell_formula_units_Z   1
loop_
 _symmetry_equiv_pos_site_id
 _symmetry_equiv_pos_as_xyz
  1  'x, y, z'
loop_
 _atom_site_type_symbol
 _atom_site_label
 _atom_site_symmetry_multiplicity
 _atom_site_fract_x
 _atom_site_fract_y
 _atom_site_fract_z
 _atom_site_occupancy
  Li  Li0  1  0.12673661  0.31270799  0.06219527  1
  Li  Li1  1  0.62379531  0.81304920  0.06236974  1
  Li  Li2  1  0.62467499  0.31291006  0.56389008  1
  Li  Li3  1  0.12667893  0.81481712  0.06042690  1
  Li  Li4  1  0.12229994  0.81358639  0.56380209  1
  Fe  Fe5  1  0.62721454  0.32643680  0.06044961  1
  Fe  Fe6  1  0.62584741  0.06274176  0.31315233  1
  Fe  Fe7  1  0.61515256  0.05321428  0.81761649  1
  Fe  Fe8  1  0.63021740  0.56869384  0.30769001  1
  Fe  Fe9  1  0.12461514  0.06321283  0.30847690  1
  Fe  Fe10  1  0.62632834  0.81059858  0.55912387  1
  Fe  Fe11  1  0.12139111  0.05357940  0.82118556  1
  Fe  Fe12  1  0.12723748  0.31204446  0.56631948  1
  Fe  Fe13  1  0.12211657  0.57137092  0.30888992  1
  Fe  Fe14  1  0.62670178  0.56097241  0.81266940  1
  Fe  Fe15  1  0.12506297  0.56349069  0.81812334  1
  O  O16  1  0.86790177  0.42139788  0.19179932  1
  O  O17  1  0.88349470  0.21075277  0.43275962  1
  O  O18  1  0.84887910  0.18295342  0.94071524  1
  O  O19  1  0.88002177  0.68682131  0.43479459  1
  O  O20  1  0.86004359  0.94074594  0.20208108  1
  O  O21  1  0.87932416  0.42499135  0.69243256  1
  O  O22  1  0.37317564  0.44077444  0.18588532  1
  O  O23  1  0.37234096  0.19585733  0.43197299  1
  O  O24  1  0.88316891  0.95841199  0.68364119  1
  O  O25  1  0.36272814  0.42111812  0.68035331  1
  O  O26  1  0.38725813  0.94076439  0.19499858  1
  O  O27  1  0.38951300  0.18540721  0.94231843  1
  O  O28  1  0.86591966  0.68142619  0.94656505  1
  O  O29  1  0.35703917  0.68471802  0.43475763  1
  O  O30  1  0.39706907  0.94379031  0.69021752  1
  O  O31  1  0.38804513  0.69554460  0.92504159  1
