# generated using pymatgen
data_Cr4OF11
_symmetry_space_group_name_H-M   'P 1'
_cell_length_a   5.06381557
_cell_length_b   5.33284885
_cell_length_c   16.90726307
_cell_angle_alpha   91.03478255
_cell_angle_beta   97.95648547
_cell_angle_gamma   62.06799286
_symmetry_Int_Tables_number   1
_chemical_formula_structural   Cr4OF11
_chemical_formula_sum   'Cr8 O2 F22'
_cell_volume   398.92979116
_cell_formula_units_Z   2
loop_
 _symmetry_equiv_pos_site_id
 _symmetry_equiv_pos_as_xyz
  1  'x, y, z'
loop_
 _atom_site_type_symbol
 _atom_site_label
 _atom_site_symmetry_multiplicity
 _atom_site_fract_x
 _atom_site_fract_y
 _atom_site_fract_z
 _atom_site_occupancy
  Cr  Cr0  1  0.74456326  0.61603045  0.12876242  1
  Cr  Cr1  1  0.74905374  0.12234682  0.62597624  1
  Cr  Cr2  1  0.49175108  0.73893117  0.75284239  1
  Cr  Cr3  1  0.50824892  0.26106883  0.24715761  1
  Cr  Cr4  1  0.25094626  0.87765318  0.37402376  1
  Cr  Cr5  1  0.25543674  0.38396955  0.87123758  1
  Cr  Cr6  1  0.00000000  0.50000000  0.50000000  1
  Cr  Cr7  1  0.00000000  0.00000000  0.00000000  1
  O  O8  1  0.68655949  0.46815031  0.21810815  1
  O  O9  1  0.31344051  0.53184969  0.78189185  1
  F  F10  1  0.81568882  0.78075645  0.03497717  1
  F  F11  1  0.74376816  0.93739129  0.18707484  1
  F  F12  1  0.75463104  0.81145904  0.56281589  1
  F  F13  1  0.75237471  0.31267444  0.06248178  1
  F  F14  1  0.68174663  0.96184118  0.71860370  1
  F  F15  1  0.68565840  0.65852706  0.40719446  1
  F  F16  1  0.81627933  0.59197554  0.84337508  1
  F  F17  1  0.81439721  0.09140127  0.34132807  1
  F  F18  1  0.81296326  0.28042156  0.53208442  1
  F  F19  1  0.31482375  0.84254492  0.09286727  1
  F  F20  1  0.74308885  0.43820405  0.68816642  1
  F  F21  1  0.25691115  0.56179595  0.31183358  1
  F  F22  1  0.68517625  0.15745408  0.90713273  1
  F  F23  1  0.18560279  0.90859873  0.65867193  1
  F  F24  1  0.18372067  0.40802446  0.15662492  1
  F  F25  1  0.18703674  0.71957844  0.46791558  1
  F  F26  1  0.31434160  0.34147294  0.59280554  1
  F  F27  1  0.31825337  0.03815882  0.28139630  1
  F  F28  1  0.24762529  0.68732556  0.93751822  1
  F  F29  1  0.24536896  0.18854096  0.43718411  1
  F  F30  1  0.25623184  0.06260871  0.81292516  1
  F  F31  1  0.18431118  0.21924355  0.96502283  1
