# generated using pymatgen
data_Fe19Co5O32
_symmetry_space_group_name_H-M   'P 1'
_cell_length_a   8.52149157
_cell_length_b   10.44163729
_cell_length_c   8.52149157
_cell_angle_alpha   65.54513685
_cell_angle_beta   89.91677418
_cell_angle_gamma   113.63727636
_symmetry_Int_Tables_number   1
_chemical_formula_structural   Fe19Co5O32
_chemical_formula_sum   'Fe19 Co5 O32'
_cell_volume   619.42281764
_cell_formula_units_Z   1
loop_
 _symmetry_equiv_pos_site_id
 _symmetry_equiv_pos_as_xyz
  1  'x, y, z'
loop_
 _atom_site_type_symbol
 _atom_site_label
 _atom_site_symmetry_multiplicity
 _atom_site_fract_x
 _atom_site_fract_y
 _atom_site_fract_z
 _atom_site_occupancy
  Fe  Fe0  1  0.50246280  0.00404320  0.49959336  1
  Fe  Fe1  1  0.00363656  0.00404320  -0.00158139  1
  Fe  Fe2  1  0.68750000  0.12500000  0.06250000  1
  Fe  Fe3  1  0.87253720  0.24595680  0.62540664  1
  Fe  Fe4  1  0.37136344  0.24595680  0.12658139  1
  Fe  Fe5  1  0.31279007  0.37488925  0.68335604  1
  Fe  Fe6  1  0.06163946  0.37670818  0.93759123  1
  Fe  Fe7  1  0.81429942  0.37670818  0.18493127  1
  Fe  Fe8  1  0.55824529  0.37488925  0.43790082  1
  Fe  Fe9  1  0.24268948  0.49093095  0.25175853  1
  Fe  Fe10  1  0.74682636  0.49873806  0.74808830  1
  Fe  Fe11  1  0.43718607  0.62500000  0.81281393  1
  Fe  Fe12  1  0.93781393  0.62500000  0.31218607  1
  Fe  Fe13  1  0.13231052  0.75906905  0.87324147  1
  Fe  Fe14  1  0.62817364  0.75126194  0.37691170  1
  Fe  Fe15  1  0.31336054  0.87329182  0.18740877  1
  Fe  Fe16  1  0.81675471  0.87511075  0.68709918  1
  Fe  Fe17  1  0.56070058  0.87329182  0.94006873  1
  Fe  Fe18  1  0.06220993  0.87511075  0.44164396  1
  Co  Co19  1  0.43767010  0.12592626  0.81174484  1
  Co  Co20  1  0.18750000  0.12500000  0.56250000  1
  Co  Co21  1  0.93732990  0.12407374  0.31325516  1
  Co  Co22  1  0.68750000  0.62500000  0.06250000  1
  Co  Co23  1  0.18750000  0.62500000  0.56250000  1
  O  O24  1  0.67475683  0.12248925  0.82187488  1
  O  O25  1  0.44436512  0.12248925  0.05226659  1
  O  O26  1  0.93687069  0.12022316  0.55227334  1
  O  O27  1  0.17249649  0.12022316  0.31664654  1
  O  O28  1  0.70024317  0.12751075  0.30312512  1
  O  O29  1  0.93063488  0.12751075  0.07273341  1
  O  O30  1  0.43812931  0.12977684  0.57272666  1
  O  O31  1  0.20250351  0.12977684  0.80835346  1
  O  O32  1  0.81552187  0.35872814  0.95679274  1
  O  O33  1  0.54074368  0.35346360  0.68728008  1
  O  O34  1  0.32241662  0.36815590  0.45426072  1
  O  O35  1  0.03844750  0.35304964  0.18539786  1
  O  O36  1  0.06720355  0.36822764  0.70073124  1
  O  O37  1  0.56895888  0.36822764  0.19897591  1
  O  O38  1  0.30931702  0.38142951  0.92962831  1
  O  O39  1  0.81105782  0.38142951  0.42788752  1
  O  O40  1  0.92394107  0.60815063  0.08269035  1
  O  O41  1  0.42360439  0.60725612  0.58469714  1
  O  O42  1  0.19084198  0.60815063  0.81579044  1
  O  O43  1  0.69195326  0.60725612  0.31634726  1
  O  O44  1  0.68304674  0.64274388  0.80865274  1
  O  O45  1  0.18415802  0.64184937  0.30920956  1
  O  O46  1  0.45105893  0.64184937  0.04230965  1
  O  O47  1  0.95139561  0.64274388  0.54030286  1
  O  O48  1  0.56394218  0.86857049  0.69711248  1
  O  O49  1  0.06568298  0.86857049  0.19537169  1
  O  O50  1  0.80604112  0.88177236  0.92602409  1
  O  O51  1  0.30779645  0.88177236  0.42426876  1
  O  O52  1  0.33655250  0.89695036  0.93960214  1
  O  O53  1  0.55947813  0.89127186  0.16820726  1
  O  O54  1  0.05258338  0.88184410  0.67073928  1
  O  O55  1  0.83425632  0.89653640  0.43771992  1
