# generated using pymatgen
data_Cr4OF11
_symmetry_space_group_name_H-M   'P 1'
_cell_length_a   5.06940169
_cell_length_b   5.34797176
_cell_length_c   16.92883948
_cell_angle_alpha   91.46320489
_cell_angle_beta   98.71765266
_cell_angle_gamma   61.83810142
_symmetry_Int_Tables_number   1
_chemical_formula_structural   Cr4OF11
_chemical_formula_sum   'Cr8 O2 F22'
_cell_volume   399.39334279
_cell_formula_units_Z   2
loop_
 _symmetry_equiv_pos_site_id
 _symmetry_equiv_pos_as_xyz
  1  'x, y, z'
loop_
 _atom_site_type_symbol
 _atom_site_label
 _atom_site_symmetry_multiplicity
 _atom_site_fract_x
 _atom_site_fract_y
 _atom_site_fract_z
 _atom_site_occupancy
  Cr  Cr0  1  0.73579588  0.62019126  0.12858093  1
  Cr  Cr1  1  0.74912080  0.12620245  0.62469282  1
  Cr  Cr2  1  0.50259937  0.74961268  0.75092046  1
  Cr  Cr3  1  0.50334032  0.26481629  0.24650259  1
  Cr  Cr4  1  0.24691639  0.88233164  0.37357604  1
  Cr  Cr5  1  0.27032430  0.36433358  0.87843020  1
  Cr  Cr6  1  0.99800313  0.50408776  0.49944210  1
  Cr  Cr7  1  0.97569461  0.00776092  0.99623310  1
  O  O8  1  0.68278626  0.47073817  0.21740584  1
  O  O9  1  0.68380094  0.15791566  0.90745106  1
  F  F10  1  0.81274589  0.78083787  0.03433295  1
  F  F11  1  0.73873017  0.94131807  0.18610929  1
  F  F12  1  0.75101769  0.81553673  0.56167129  1
  F  F13  1  0.74642968  0.31458350  0.06208000  1
  F  F14  1  0.68420252  0.97032139  0.71785414  1
  F  F15  1  0.68187328  0.66038429  0.40646305  1
  F  F16  1  0.82548384  0.58696114  0.84251501  1
  F  F17  1  0.80958145  0.09830357  0.34140040  1
  F  F18  1  0.81245900  0.28436794  0.53156017  1
  F  F19  1  0.30889729  0.84551754  0.08999768  1
  F  F20  1  0.74137775  0.43917815  0.68745278  1
  F  F21  1  0.25139031  0.56844850  0.31021853  1
  F  F22  1  0.18576802  0.90803863  0.65751598  1
  F  F23  1  0.17706085  0.40967318  0.15590673  1
  F  F24  1  0.18306197  0.72495630  0.46739147  1
  F  F25  1  0.31406282  0.53554600  0.78456222  1
  F  F26  1  0.31203354  0.34142332  0.59261487  1
  F  F27  1  0.31807096  0.03937244  0.28129535  1
  F  F28  1  0.23961244  0.68966547  0.93798540  1
  F  F29  1  0.24321449  0.19389801  0.43640868  1
  F  F30  1  0.25648254  0.06512478  0.81305426  1
  F  F31  1  0.18404950  0.21478177  0.96902963  1
