# generated using pymatgen
data_CsYMg30O32
_symmetry_space_group_name_H-M   'P 1'
_cell_length_a   8.69551580
_cell_length_b   8.69551580
_cell_length_c   8.85703093
_cell_angle_alpha   90.00000000
_cell_angle_beta   90.00000000
_cell_angle_gamma   90.00000000
_symmetry_Int_Tables_number   1
_chemical_formula_structural   CsYMg30O32
_chemical_formula_sum   'Cs1 Y1 Mg30 O32'
_cell_volume   669.69777864
_cell_formula_units_Z   1
loop_
 _symmetry_equiv_pos_site_id
 _symmetry_equiv_pos_as_xyz
  1  'x, y, z'
loop_
 _atom_site_type_symbol
 _atom_site_label
 _atom_site_symmetry_multiplicity
 _atom_site_fract_x
 _atom_site_fract_y
 _atom_site_fract_z
 _atom_site_occupancy
  Cs  Cs0  1  -0.00000000  -0.00000000  0.50000000  1
  Y  Y1  1  -0.00000000  -0.00000000  -0.00000000  1
  Mg  Mg2  1  -0.00000000  0.50000000  -0.00000000  1
  Mg  Mg3  1  -0.00000000  0.50000000  0.50000000  1
  Mg  Mg4  1  0.50000000  -0.00000000  -0.00000000  1
  Mg  Mg5  1  0.50000000  -0.00000000  0.50000000  1
  Mg  Mg6  1  0.50000000  0.50000000  -0.00000000  1
  Mg  Mg7  1  0.50000000  0.50000000  0.50000000  1
  Mg  Mg8  1  -0.00000000  0.26075476  0.25343068  1
  Mg  Mg9  1  -0.00000000  0.26075476  0.74656932  1
  Mg  Mg10  1  -0.00000000  0.73924524  0.25343068  1
  Mg  Mg11  1  -0.00000000  0.73924524  0.74656932  1
  Mg  Mg12  1  0.50000000  0.25154725  0.25126564  1
  Mg  Mg13  1  0.50000000  0.25154725  0.74873436  1
  Mg  Mg14  1  0.50000000  0.74845275  0.25126564  1
  Mg  Mg15  1  0.50000000  0.74845275  0.74873436  1
  Mg  Mg16  1  0.26075476  -0.00000000  0.25343068  1
  Mg  Mg17  1  0.26075476  -0.00000000  0.74656932  1
  Mg  Mg18  1  0.25154725  0.50000000  0.25126564  1
  Mg  Mg19  1  0.25154725  0.50000000  0.74873436  1
  Mg  Mg20  1  0.73924524  -0.00000000  0.25343068  1
  Mg  Mg21  1  0.73924524  -0.00000000  0.74656932  1
  Mg  Mg22  1  0.74845275  0.50000000  0.25126564  1
  Mg  Mg23  1  0.74845275  0.50000000  0.74873436  1
  Mg  Mg24  1  0.25659307  0.25659307  -0.00000000  1
  Mg  Mg25  1  0.25565079  0.25565079  0.50000000  1
  Mg  Mg26  1  0.25659307  0.74340693  -0.00000000  1
  Mg  Mg27  1  0.25565079  0.74434921  0.50000000  1
  Mg  Mg28  1  0.74340693  0.25659307  -0.00000000  1
  Mg  Mg29  1  0.74434921  0.25565079  0.50000000  1
  Mg  Mg30  1  0.74340693  0.74340693  -0.00000000  1
  Mg  Mg31  1  0.74434921  0.74434921  0.50000000  1
  O  O32  1  0.26208230  -0.00000000  -0.00000000  1
  O  O33  1  0.28614211  -0.00000000  0.50000000  1
  O  O34  1  0.25367117  0.50000000  -0.00000000  1
  O  O35  1  0.25786979  0.50000000  0.50000000  1
  O  O36  1  0.73791770  -0.00000000  -0.00000000  1
  O  O37  1  0.71385789  -0.00000000  0.50000000  1
  O  O38  1  0.74632883  0.50000000  -0.00000000  1
  O  O39  1  0.74213021  0.50000000  0.50000000  1
  O  O40  1  0.24977103  0.24977103  0.25027036  1
  O  O41  1  0.24977103  0.24977103  0.74972964  1
  O  O42  1  0.24977103  0.75022897  0.25027036  1
  O  O43  1  0.24977103  0.75022897  0.74972964  1
  O  O44  1  0.75022897  0.24977103  0.25027036  1
  O  O45  1  0.75022897  0.24977103  0.74972964  1
  O  O46  1  0.75022897  0.75022897  0.25027036  1
  O  O47  1  0.75022897  0.75022897  0.74972964  1
  O  O48  1  -0.00000000  -0.00000000  0.23057009  1
  O  O49  1  -0.00000000  -0.00000000  0.76942991  1
  O  O50  1  -0.00000000  0.50000000  0.24262589  1
  O  O51  1  -0.00000000  0.50000000  0.75737411  1
  O  O52  1  0.50000000  -0.00000000  0.24262589  1
  O  O53  1  0.50000000  -0.00000000  0.75737411  1
  O  O54  1  0.50000000  0.50000000  0.24720179  1
  O  O55  1  0.50000000  0.50000000  0.75279821  1
  O  O56  1  -0.00000000  0.26208230  -0.00000000  1
  O  O57  1  -0.00000000  0.28614211  0.50000000  1
  O  O58  1  -0.00000000  0.73791770  -0.00000000  1
  O  O59  1  -0.00000000  0.71385789  0.50000000  1
  O  O60  1  0.50000000  0.25367117  -0.00000000  1
  O  O61  1  0.50000000  0.25786979  0.50000000  1
  O  O62  1  0.50000000  0.74632883  -0.00000000  1
  O  O63  1  0.50000000  0.74213021  0.50000000  1
