# generated using pymatgen
data_Si4BiO10
_symmetry_space_group_name_H-M   'P 1'
_cell_length_a   7.53114962
_cell_length_b   7.53114962
_cell_length_c   16.45589670
_cell_angle_alpha   90.00000000
_cell_angle_beta   90.00000000
_cell_angle_gamma   90.00000000
_symmetry_Int_Tables_number   1
_chemical_formula_structural   Si4BiO10
_chemical_formula_sum   'Si16 Bi4 O40'
_cell_volume   933.34908045
_cell_formula_units_Z   4
loop_
 _symmetry_equiv_pos_site_id
 _symmetry_equiv_pos_as_xyz
  1  'x, y, z'
loop_
 _atom_site_type_symbol
 _atom_site_label
 _atom_site_symmetry_multiplicity
 _atom_site_fract_x
 _atom_site_fract_y
 _atom_site_fract_z
 _atom_site_occupancy
  Si  Si0  1  0.91935472  0.50502856  0.65553803  1
  Si  Si1  1  0.58064528  0.99497144  0.65553803  1
  Si  Si2  1  0.00502856  0.41935472  0.84446197  1
  Si  Si3  1  0.50502856  0.58064528  0.65553803  1
  Si  Si4  1  0.99497144  0.91935472  0.65553803  1
  Si  Si5  1  0.08064528  0.00502856  0.84446197  1
  Si  Si6  1  0.41935472  0.49497144  0.84446197  1
  Si  Si7  1  0.49497144  0.08064528  0.84446197  1
  Si  Si8  1  0.08064528  0.49497144  0.34446197  1
  Si  Si9  1  0.41935472  0.00502856  0.34446197  1
  Si  Si10  1  0.99497144  0.58064528  0.15553803  1
  Si  Si11  1  0.49497144  0.41935472  0.34446197  1
  Si  Si12  1  0.00502856  0.08064528  0.34446197  1
  Si  Si13  1  0.91935472  0.99497144  0.15553803  1
  Si  Si14  1  0.58064528  0.50502856  0.15553803  1
  Si  Si15  1  0.50502856  0.91935472  0.15553803  1
  Bi  Bi16  1  0.25000000  0.25000000  0.54036106  1
  Bi  Bi17  1  0.75000000  0.75000000  0.95963894  1
  Bi  Bi18  1  0.75000000  0.75000000  0.45963894  1
  Bi  Bi19  1  0.25000000  0.25000000  0.04036106  1
  O  O20  1  0.01091027  0.36437457  0.59396490  1
  O  O21  1  0.48908973  0.13562543  0.59396490  1
  O  O22  1  0.86437457  0.51091027  0.90603510  1
  O  O23  1  0.36437457  0.48908973  0.59396490  1
  O  O24  1  0.13562543  0.01091027  0.59396490  1
  O  O25  1  0.98908973  0.86437457  0.90603510  1
  O  O26  1  0.51091027  0.63562543  0.90603510  1
  O  O27  1  0.63562543  0.98908973  0.90603510  1
  O  O28  1  0.98908973  0.63562543  0.40603510  1
  O  O29  1  0.51091027  0.86437457  0.40603510  1
  O  O30  1  0.13562543  0.48908973  0.09396490  1
  O  O31  1  0.63562543  0.51091027  0.40603510  1
  O  O32  1  0.86437457  0.98908973  0.40603510  1
  O  O33  1  0.01091027  0.13562543  0.09396490  1
  O  O34  1  0.48908973  0.36437457  0.09396490  1
  O  O35  1  0.00743522  0.29446196  0.36275553  1
  O  O36  1  0.36437457  0.01091027  0.09396490  1
  O  O37  1  0.50743522  0.79446196  0.63724447  1
  O  O38  1  0.20553804  0.49256478  0.86275553  1
  O  O39  1  0.70553804  0.50743522  0.63724447  1
  O  O40  1  0.79446196  0.99256478  0.63724447  1
  O  O41  1  0.00743522  0.20553804  0.86275553  1
  O  O42  1  0.49256478  0.29446196  0.86275553  1
  O  O43  1  0.29446196  0.00743522  0.86275553  1
  O  O44  1  0.45053714  0.95053614  0.25000000  1
  O  O45  1  0.54946286  0.45053714  0.25000000  1
  O  O46  1  0.95053614  0.04946286  0.25000000  1
  O  O47  1  0.04946286  0.54946286  0.25000000  1
  O  O48  1  0.54946286  0.04946286  0.75000000  1
  O  O49  1  0.45053714  0.54946286  0.75000000  1
  O  O50  1  0.04946286  0.95053614  0.75000000  1
  O  O51  1  0.95053614  0.45053714  0.75000000  1
  O  O52  1  0.70553804  0.99256478  0.13724447  1
  O  O53  1  0.50743522  0.70553804  0.13724447  1
  O  O54  1  0.99256478  0.79446196  0.13724447  1
  O  O55  1  0.20553804  0.00743522  0.36275553  1
  O  O56  1  0.29446196  0.49256478  0.36275553  1
  O  O57  1  0.79446196  0.50743522  0.13724447  1
  O  O58  1  0.49256478  0.20553804  0.36275553  1
  O  O59  1  0.99256478  0.70553804  0.63724447  1
