# generated using pymatgen
data_Li3Mn(PO4)2
_symmetry_space_group_name_H-M   'P 1'
_cell_length_a   8.08794065
_cell_length_b   8.47310582
_cell_length_c   10.41390327
_cell_angle_alpha   89.95993374
_cell_angle_beta   90.01954073
_cell_angle_gamma   72.55456508
_symmetry_Int_Tables_number   1
_chemical_formula_structural   Li3Mn(PO4)2
_chemical_formula_sum   'Li12 Mn4 P8 O32'
_cell_volume   680.83776684
_cell_formula_units_Z   4
loop_
 _symmetry_equiv_pos_site_id
 _symmetry_equiv_pos_as_xyz
  1  'x, y, z'
loop_
 _atom_site_type_symbol
 _atom_site_label
 _atom_site_symmetry_multiplicity
 _atom_site_fract_x
 _atom_site_fract_y
 _atom_site_fract_z
 _atom_site_occupancy
  Li  Li0  1  0.36313772  0.12835985  0.85674956  1
  Li  Li1  1  0.53038765  0.22946669  0.56028817  1
  Li  Li2  1  0.17636266  0.35306309  0.16510962  1
  Li  Li3  1  0.48502372  0.26738769  0.07138825  1
  Li  Li4  1  0.61427385  0.39497328  0.82888327  1
  Li  Li5  1  0.61474791  0.39324749  0.33378223  1
  Li  Li6  1  0.35742192  0.64214521  0.64554499  1
  Li  Li7  1  0.18568389  0.84687325  0.33186481  1
  Li  Li8  1  0.81303193  0.65435174  0.84646568  1
  Li  Li9  1  0.48810403  0.77576562  0.41726401  1
  Li  Li10  1  0.64724892  0.83373984  0.14681374  1
  Li  Li11  1  0.60766294  0.90121974  0.66757359  1
  Mn  Mn12  1  0.10841518  0.35335141  0.66413489  1
  Mn  Mn13  1  0.88511365  0.13355899  0.15852868  1
  Mn  Mn14  1  0.89261999  0.63342682  0.34239467  1
  Mn  Mn15  1  0.11862084  0.85838008  0.84523720  1
  P  P16  1  0.21270820  0.04465148  0.58079355  1
  P  P17  1  0.72889011  0.02194237  0.91137153  1
  P  P18  1  0.28356862  0.48136097  0.41706308  1
  P  P19  1  0.20625058  0.54284840  0.91511708  1
  P  P20  1  0.78920500  0.44744318  0.08274397  1
  P  P21  1  0.71107356  0.52389298  0.58892934  1
  P  P22  1  0.28602107  0.98194252  0.09803144  1
  P  P23  1  0.78797637  0.94943688  0.41371583  1
  O  O24  1  0.32352578  0.14258864  0.65894081  1
  O  O25  1  0.04231592  0.19266253  0.56246826  1
  O  O26  1  0.33478794  0.13986738  0.12548319  1
  O  O27  1  0.90369243  0.03317926  0.85302708  1
  O  O28  1  0.79918730  0.09346478  0.32960301  1
  O  O29  1  0.58679015  0.19105394  0.89263642  1
  O  O30  1  0.42529732  0.31768729  0.39280663  1
  O  O31  1  0.18829984  0.39603015  0.83302721  1
  O  O32  1  0.12007817  0.47883629  0.33140033  1
  O  O33  1  0.67825723  0.34350934  0.14981997  1
  O  O34  1  0.28459155  0.47644884  0.04287037  1
  O  O35  1  0.22803281  0.49752026  0.56067492  1
  O  O36  1  0.97024523  0.30935829  0.08481057  1
  O  O37  1  0.62109392  0.40079058  0.64053612  1
  O  O38  1  0.31071969  0.64144604  0.83644904  1
  O  O39  1  0.02750712  0.68403569  0.92382502  1
  O  O40  1  0.34788573  0.62801464  0.37952093  1
  O  O41  1  0.76211951  0.49372000  0.44441005  1
  O  O42  1  0.72626152  0.50519033  0.94979165  1
  O  O43  1  0.87645744  0.51656039  0.67294244  1
  O  O44  1  0.79941480  0.59139073  0.16969623  1
  O  O45  1  0.58321032  0.70062621  0.60277351  1
  O  O46  1  0.41615250  0.82584704  0.14936043  1
  O  O47  1  0.18989522  0.90591817  0.66900464  1
  O  O48  1  0.10993854  0.98168323  0.17074250  1
  O  O49  1  0.68951259  0.83676751  0.34162942  1
  O  O50  1  0.29359364  0.97170347  0.45559412  1
  O  O51  1  0.25338238  0.97951050  0.95000333  1
  O  O52  1  0.97099755  0.81205444  0.42024907  1
  O  O53  1  0.66900640  0.88607975  0.84586826  1
  O  O54  1  0.70592659  0.00950956  0.54183111  1
  O  O55  1  0.75451357  0.99107617  0.05940018  1
