# generated using pymatgen
data_Li8Mn7Co(PO4)12
_symmetry_space_group_name_H-M   'P 1'
_cell_length_a   8.54058077
_cell_length_b   8.77337453
_cell_length_c   11.92066395
_cell_angle_alpha   89.81050963
_cell_angle_beta   89.86069368
_cell_angle_gamma   89.46250844
_symmetry_Int_Tables_number   1
_chemical_formula_structural   Li8Mn7Co(PO4)12
_chemical_formula_sum   'Li8 Mn7 Co1 P12 O48'
_cell_volume   893.16517770
_cell_formula_units_Z   1
loop_
 _symmetry_equiv_pos_site_id
 _symmetry_equiv_pos_as_xyz
  1  'x, y, z'
loop_
 _atom_site_type_symbol
 _atom_site_label
 _atom_site_symmetry_multiplicity
 _atom_site_fract_x
 _atom_site_fract_y
 _atom_site_fract_z
 _atom_site_occupancy
  Li  Li0  1  0.21556067  0.72165815  0.18139374  1
  Li  Li1  1  0.21486025  0.77633578  0.81890341  1
  Li  Li2  1  0.28601262  0.22304959  0.31861339  1
  Li  Li3  1  0.28487137  0.27970418  0.68119950  1
  Li  Li4  1  0.71623743  0.72070387  0.32036126  1
  Li  Li5  1  0.71528784  0.77511702  0.68135261  1
  Li  Li6  1  0.78450851  0.22346581  0.18149513  1
  Li  Li7  1  0.78415339  0.27922485  0.81662220  1
  Mn  Mn8  1  0.24625080  0.96231479  0.61289792  1
  Mn  Mn9  1  0.24974114  0.53431608  0.38555614  1
  Mn  Mn10  1  0.25160656  0.03637650  0.11343011  1
  Mn  Mn11  1  0.24995134  0.46509785  0.88538224  1
  Mn  Mn12  1  0.74842318  0.53568560  0.11490795  1
  Mn  Mn13  1  0.74780359  0.96403502  0.88679413  1
  Mn  Mn14  1  0.75209841  0.03656445  0.38576590  1
  Co  Co15  1  0.75234549  0.46499672  0.61552659  1
  P  P16  1  0.03346679  0.24896554  0.50158698  1
  P  P17  1  0.10530268  0.39437633  0.14674614  1
  P  P18  1  0.10535986  0.10510156  0.85158766  1
  P  P19  1  0.39628916  0.60606769  0.64489450  1
  P  P20  1  0.39415380  0.89343638  0.35243220  1
  P  P21  1  0.46488382  0.75197803  0.99951556  1
  P  P22  1  0.53540096  0.24870132  0.99975938  1
  P  P23  1  0.60711692  0.39581922  0.35590721  1
  P  P24  1  0.60596572  0.10836620  0.64584530  1
  P  P25  1  0.89312327  0.60578105  0.85336446  1
  P  P26  1  0.89412286  0.89430054  0.14768371  1
  P  P27  1  0.96429110  0.74638834  0.50141446  1
  O  O28  1  0.05930431  0.64207934  0.42457780  1
  O  O29  1  0.05768910  0.85600812  0.57671291  1
  O  O30  1  0.07535371  0.89717158  0.15798667  1
  O  O31  1  0.07421334  0.60569107  0.84276483  1
  O  O32  1  0.14336547  0.15815643  0.58471858  1
  O  O33  1  0.14370923  0.33215839  0.41975155  1
  O  O34  1  0.15503351  0.43850804  0.02860914  1
  O  O35  1  0.15469353  0.05973615  0.97102793  1
  O  O36  1  0.15974976  0.23102549  0.17990977  1
  O  O37  1  0.15717190  0.26409388  0.81762202  1
  O  O38  1  0.17779843  0.51440705  0.22658408  1
  O  O39  1  0.17874814  0.98122247  0.77292632  1
  O  O40  1  0.32077527  0.01703761  0.27375305  1
  O  O41  1  0.32102828  0.48799276  0.72564555  1
  O  O42  1  0.34069769  0.77025227  0.67740903  1
  O  O43  1  0.34151984  0.73425966  0.31930525  1
  O  O44  1  0.34504664  0.56233570  0.52734835  1
  O  O45  1  0.34552565  0.93900506  0.47226031  1
  O  O46  1  0.35717299  0.83981839  0.08467088  1
  O  O47  1  0.35860817  0.66928438  0.91708299  1
  O  O48  1  0.42399394  0.10346405  0.65694562  1
  O  O49  1  0.42580129  0.39633779  0.34232630  1
  O  O50  1  0.44174702  0.14066345  0.07614525  1
  O  O51  1  0.44186157  0.35647003  0.92423552  1
  O  O52  1  0.55742723  0.64397148  0.07545752  1
  O  O53  1  0.55924240  0.86026202  0.92351159  1
  O  O54  1  0.57681700  0.60421740  0.65672703  1
  O  O55  1  0.57493081  0.89587283  0.34211205  1
  O  O56  1  0.64290642  0.33257468  0.08119843  1
  O  O57  1  0.64460679  0.15992409  0.91568221  1
  O  O58  1  0.65474112  0.06034688  0.52734367  1
  O  O59  1  0.65634972  0.44144242  0.47263051  1
  O  O60  1  0.65918205  0.23239071  0.32085530  1
  O  O61  1  0.65802925  0.27035384  0.67752402  1
  O  O62  1  0.67765479  0.51509456  0.27316944  1
  O  O63  1  0.67873794  0.98582329  0.72615828  1
  O  O64  1  0.82122055  0.01742542  0.22682310  1
  O  O65  1  0.82099894  0.48611040  0.77335260  1
  O  O66  1  0.84256174  0.73505134  0.18154866  1
  O  O67  1  0.83931810  0.77028497  0.82098606  1
  O  O68  1  0.84506817  0.56278081  0.97228494  1
  O  O69  1  0.84526204  0.93979195  0.02817336  1
  O  O70  1  0.85539327  0.65934349  0.58304313  1
  O  O71  1  0.85648432  0.83711720  0.41876373  1
  O  O72  1  0.92402101  0.10223891  0.84117165  1
  O  O73  1  0.92496760  0.39523010  0.15889903  1
  O  O74  1  0.94345073  0.14068881  0.42408831  1
  O  O75  1  0.94083172  0.35655182  0.57723592  1
