# generated using pymatgen
data_Li7Mn7P6(O8F)3
_symmetry_space_group_name_H-M   'P 1'
_cell_length_a   13.73689863
_cell_length_b   13.73686387
_cell_length_c   6.52297917
_cell_angle_alpha   90.00016227
_cell_angle_beta   90.00078017
_cell_angle_gamma   59.99889026
_symmetry_Int_Tables_number   1
_chemical_formula_structural   Li7Mn7P6(O8F)3
_chemical_formula_sum   'Li14 Mn14 P12 O48 F6'
_cell_volume   1065.97754085
_cell_formula_units_Z   2
loop_
 _symmetry_equiv_pos_site_id
 _symmetry_equiv_pos_as_xyz
  1  'x, y, z'
loop_
 _atom_site_type_symbol
 _atom_site_label
 _atom_site_symmetry_multiplicity
 _atom_site_fract_x
 _atom_site_fract_y
 _atom_site_fract_z
 _atom_site_occupancy
  Li  Li0  1  0.25839429  0.92337257  0.25559800  1
  Li  Li1  1  0.18176728  0.74159574  0.75558438  1
  Li  Li2  1  0.50062109  0.87377111  0.75710021  1
  Li  Li3  1  0.12622699  0.37438647  0.25709672  1
  Li  Li4  1  0.07665023  0.18175481  0.75559356  1
  Li  Li5  1  0.37440917  0.49937362  0.25709571  1
  Li  Li6  1  0.33337470  0.33331118  0.42914877  1
  Li  Li7  1  0.66667229  0.66664338  0.92917843  1
  Li  Li8  1  0.62559146  0.50062138  0.75709125  1
  Li  Li9  1  0.92335263  0.81824394  0.25560001  1
  Li  Li10  1  0.87378624  0.62560966  0.75708740  1
  Li  Li11  1  0.49939893  0.12621866  0.25708692  1
  Li  Li12  1  0.81823799  0.25840175  0.25558356  1
  Li  Li13  1  0.74160571  0.07662209  0.75559546  1
  Mn  Mn14  1  0.12621397  0.57666402  0.00965331  1
  Mn  Mn15  1  0.11864946  0.58350590  0.51237279  1
  Mn  Mn16  1  0.42333068  0.70288183  0.50974745  1
  Mn  Mn17  1  0.41649178  0.70216088  0.01243320  1
  Mn  Mn18  1  0.70216300  0.88133175  0.01244904  1
  Mn  Mn19  1  0.70287030  0.87378580  0.50971085  1
  Mn  Mn20  1  0.99998817  0.99999387  0.00675507  1
  Mn  Mn21  1  0.00000681  0.99999435  0.50675811  1
  Mn  Mn22  1  0.29711297  0.12621627  0.00970326  1
  Mn  Mn23  1  0.29785546  0.11864643  0.51246035  1
  Mn  Mn24  1  0.58354112  0.29783413  0.51245642  1
  Mn  Mn25  1  0.57667458  0.29712892  0.00972986  1
  Mn  Mn26  1  0.88134023  0.41648859  0.01233601  1
  Mn  Mn27  1  0.87379797  0.42332909  0.50960703  1
  P  P28  1  0.24455160  0.93795061  0.75854962  1
  P  P29  1  0.18250334  0.75545324  0.25867452  1
  P  P30  1  0.48482255  0.88249648  0.26000664  1
  P  P31  1  0.11753870  0.36725799  0.75997021  1
  P  P32  1  0.36734530  0.51515821  0.75998007  1
  P  P33  1  0.06208218  0.18247549  0.25859448  1
  P  P34  1  0.93791422  0.81752990  0.75855949  1
  P  P35  1  0.63266645  0.48483722  0.25997538  1
  P  P36  1  0.88244859  0.63273946  0.25994376  1
  P  P37  1  0.51518395  0.11751232  0.75996708  1
  P  P38  1  0.81750342  0.24454459  0.75868829  1
  P  P39  1  0.75544052  0.06205219  0.25858724  1
  O  O40  1  0.11250540  0.01331161  0.75748397  1
  O  O41  1  0.12582047  0.88749022  0.25748300  1
  O  O42  1  0.00703971  0.68457414  0.76053696  1
  O  O43  1  0.36865652  0.99651576  0.25206858  1
  O  O44  1  0.28062292  0.86542157  0.56313609  1
  O  O45  1  0.14602949  0.71936528  0.06307922  1
  O  O46  1  0.27888696  0.86562683  0.95470262  1
  O  O47  1  0.14452214  0.72111972  0.45465783  1
  O  O48  1  0.31540532  0.69162079  0.26055462  1
  O  O49  1  0.00348539  0.36517109  0.75203746  1
  O  O50  1  0.54545663  0.88263058  0.45953438  1
  O  O51  1  0.11736594  0.42810474  0.95957076  1
  O  O52  1  0.45842710  0.78514663  0.26234304  1
  O  O53  1  0.13035752  0.42366466  0.56306240  1
  O  O54  1  0.55401715  0.86964086  0.06307436  1
  O  O55  1  0.69161949  0.99297394  0.26054493  1
  O  O56  1  0.24355315  0.54157857  0.76233811  1
  O  O57  1  0.36516752  0.63134135  0.75205934  1
  O  O58  1  0.98668731  0.12581918  0.25748951  1
  O  O59  1  0.21482984  0.24360668  0.76235784  1
  O  O60  1  0.13435778  0.14453317  0.45464900  1
  O  O61  1  0.42808972  0.45454234  0.95953158  1
  O  O62  1  0.13457974  0.14604786  0.06311811  1
  O  O63  1  0.57635257  0.55401873  0.06308066  1
  O  O64  1  0.42365126  0.44598307  0.56309198  1
  O  O65  1  0.86542382  0.85394999  0.56314540  1
  O  O66  1  0.57191528  0.54545590  0.45953499  1
  O  O67  1  0.86564346  0.85547605  0.95466550  1
  O  O68  1  0.78516939  0.75639271  0.26235359  1
  O  O69  1  0.01331348  0.87417973  0.75748026  1
  O  O70  1  0.63483306  0.36865803  0.25205658  1
  O  O71  1  0.75643949  0.45842235  0.26231936  1
  O  O72  1  0.30837995  0.00702283  0.76056975  1
  O  O73  1  0.44598409  0.13036878  0.56307646  1
  O  O74  1  0.86962734  0.57634403  0.06306870  1
  O  O75  1  0.54157358  0.21485406  0.76234625  1
  O  O76  1  0.88262694  0.57189492  0.45958053  1
  O  O77  1  0.45452983  0.11737166  0.95954941  1
  O  O78  1  0.99651712  0.63482304  0.25204281  1
  O  O79  1  0.68459861  0.30838744  0.76056173  1
  O  O80  1  0.85547525  0.27887068  0.95464749  1
  O  O81  1  0.72111612  0.13436212  0.45467892  1
  O  O82  1  0.85396714  0.28063633  0.56307493  1
  O  O83  1  0.71937332  0.13458659  0.06311822  1
  O  O84  1  0.63134102  0.00348701  0.75206395  1
  O  O85  1  0.99295493  0.31542592  0.26051663  1
  O  O86  1  0.87417770  0.11250852  0.75748294  1
  O  O87  1  0.88749551  0.98668553  0.25748566  1
  F  F88  1  0.24399087  0.48155183  0.27510446  1
  F  F89  1  0.51844108  0.72554058  0.77511787  1
  F  F90  1  0.72554286  0.75600611  0.77510926  1
  F  F91  1  0.27445973  0.24398239  0.27512598  1
  F  F92  1  0.48157419  0.27445821  0.27512688  1
  F  F93  1  0.75600049  0.51845140  0.77507927  1
