# generated using pymatgen
data_La3Ti5Al15O37
_symmetry_space_group_name_H-M   'P 1'
_cell_length_a   9.92939043
_cell_length_b   11.39691582
_cell_length_c   12.80693654
_cell_angle_alpha   116.42019840
_cell_angle_beta   96.73003447
_cell_angle_gamma   89.99999906
_symmetry_Int_Tables_number   1
_chemical_formula_structural   La3Ti5Al15O37
_chemical_formula_sum   'La6 Ti10 Al30 O74'
_cell_volume   1286.75772030
_cell_formula_units_Z   2
loop_
 _symmetry_equiv_pos_site_id
 _symmetry_equiv_pos_as_xyz
  1  'x, y, z'
loop_
 _atom_site_type_symbol
 _atom_site_label
 _atom_site_symmetry_multiplicity
 _atom_site_fract_x
 _atom_site_fract_y
 _atom_site_fract_z
 _atom_site_occupancy
  La  La0  1  0.88895926  0.07874175  0.96656673  1
  La  La1  1  0.17729207  0.91232582  0.54892171  1
  La  La2  1  0.04409047  0.72452686  0.73871971  1
  La  La3  1  0.38895926  0.88782498  0.96656673  1
  La  La4  1  0.54409047  0.01419285  0.73871971  1
  La  La5  1  0.67729207  0.63659589  0.54892171  1
  Ti  Ti6  1  0.36144550  0.67979289  0.62947658  1
  Ti  Ti7  1  0.06401816  0.37689280  0.02645590  1
  Ti  Ti8  1  0.37789472  0.69361337  0.36259826  1
  Ti  Ti9  1  0.36785795  0.37530566  0.27895793  1
  Ti  Ti10  1  0.56401816  0.64956310  0.02645590  1
  Ti  Ti11  1  0.71826008  0.80389255  0.82501277  1
  Ti  Ti12  1  0.86144550  0.94968369  0.62947658  1
  Ti  Ti13  1  0.21826008  0.02112021  0.82501277  1
  Ti  Ti14  1  0.86785795  0.90365227  0.27895793  1
  Ti  Ti15  1  0.87789472  0.66898489  0.36259826  1
  Al  Al16  1  0.82434306  0.52068417  0.05789920  1
  Al  Al17  1  0.60365365  0.30118558  0.63084760  1
  Al  Al18  1  0.83487042  0.77676585  0.04015234  1
  Al  Al19  1  0.10365365  0.32966202  0.63084760  1
  Al  Al20  1  0.85917286  0.44848420  0.63349452  1
  Al  Al21  1  0.38013413  0.51150024  0.77212569  1
  Al  Al22  1  0.11131249  0.74057651  0.22311331  1
  Al  Al23  1  0.71436965  0.53428343  0.82910761  1
  Al  Al24  1  0.11655728  0.50372197  0.25551528  1
  Al  Al25  1  0.65272808  0.32066164  0.38974312  1
  Al  Al26  1  0.11780682  0.21169354  0.22562242  1
  Al  Al27  1  0.61655728  0.75179331  0.25551528  1
  Al  Al28  1  0.35917286  0.18501032  0.63349452  1
  Al  Al29  1  0.21436965  0.29482418  0.82910761  1
  Al  Al30  1  0.04559375  0.57033195  0.89711393  1
  Al  Al31  1  0.59378008  0.15231107  0.04460309  1
  Al  Al32  1  0.88013413  0.26062546  0.77212569  1
  Al  Al33  1  0.61780682  0.01392888  0.22562242  1
  Al  Al34  1  0.89748025  0.20836967  0.39447950  1
  Al  Al35  1  0.39748025  0.18610983  0.39447950  1
  Al  Al36  1  0.07762934  0.49501966  0.48279274  1
  Al  Al37  1  0.85530961  0.35376448  0.22822525  1
  Al  Al38  1  0.61131249  0.48253680  0.22311331  1
  Al  Al39  1  0.09378008  0.89229202  0.04460309  1
  Al  Al40  1  0.57762934  0.98777308  0.48279274  1
  Al  Al41  1  0.54559375  0.32678198  0.89711393  1
  Al  Al42  1  0.35530961  0.87446076  0.22822525  1
  Al  Al43  1  0.32434306  0.53721503  0.05789920  1
  Al  Al44  1  0.33487042  0.26338649  0.04015234  1
  Al  Al45  1  0.15272808  0.06908148  0.38974312  1
  O  O46  1  0.16330143  0.40816576  0.55038070  1
  O  O47  1  0.45088828  0.55024777  0.54094884  1
  O  O48  1  0.46975073  0.53868249  0.32327076  1
  O  O49  1  0.04112433  0.06116558  0.11398172  1
  O  O50  1  0.47713689  0.82373189  0.34525866  1
  O  O51  1  0.22343021  0.16605364  0.33230025  1
  O  O52  1  0.70921534  0.91277160  0.34429120  1
  O  O53  1  0.67020890  0.90596444  0.56652036  1
  O  O54  1  0.32846973  0.65651730  0.76440837  1
  O  O55  1  0.82530056  0.84288524  0.73584818  1
  O  O56  1  0.38861472  0.09938099  0.95110759  1
  O  O57  1  0.91952812  0.54049058  0.55802349  1
  O  O58  1  0.47150990  0.03240780  0.31744010  1
  O  O59  1  0.65770062  0.97370891  0.91467449  1
  O  O60  1  0.77908090  0.61233594  0.74328022  1
  O  O61  1  0.15770062  0.94096557  0.91467449  1
  O  O62  1  0.01559507  0.55896168  0.14214707  1
  O  O63  1  0.97561257  0.05783786  0.35191733  1
  O  O64  1  0.27002836  0.22997119  0.15722901  1
  O  O65  1  0.47561257  0.29407948  0.35191733  1
  O  O66  1  0.77749149  0.37117860  0.73482504  1
  O  O67  1  0.52075038  0.24470978  0.74217042  1
  O  O68  1  0.97713689  0.52152677  0.34525866  1
  O  O69  1  0.37835218  0.35863856  0.95226541  1
  O  O70  1  0.26947612  0.91349955  0.11604718  1
  O  O71  1  0.72343021  0.16624661  0.33230025  1
  O  O72  1  0.68597650  0.39717866  0.54350313  1
  O  O73  1  0.18597650  0.14632447  0.54350313  1
  O  O74  1  0.27749149  0.36364644  0.73482504  1
  O  O75  1  0.89745832  0.35447687  0.94151827  1
  O  O76  1  0.06211332  0.94598750  0.71467519  1
  O  O77  1  0.75340246  0.69269015  0.13949818  1
  O  O78  1  0.77383310  0.46086132  0.15959222  1
  O  O79  1  0.39329425  0.76334950  0.51514395  1
  O  O80  1  0.27383310  0.69873091  0.15959222  1
  O  O81  1  0.65902529  0.71193705  0.93797397  1
  O  O82  1  1.00101742  0.81720804  0.14102487  1
  O  O83  1  0.21188467  0.90833590  0.32724551  1
  O  O84  1  0.52259720  0.81796076  0.14659719  1
  O  O85  1  0.02259720  0.32863643  0.14659719  1
  O  O86  1  0.95088828  0.99070107  0.54094884  1
  O  O87  1  0.11502256  0.72464843  0.93109408  1
  O  O88  1  0.32530056  0.89296294  0.73584818  1
  O  O89  1  0.54773884  0.47395628  0.74386817  1
  O  O90  1  0.93049378  0.28981961  0.54666665  1
  O  O91  1  0.15604926  0.47321890  0.95032529  1
  O  O92  1  0.96975073  0.78458826  0.32327076  1
  O  O93  1  0.41952812  0.01753291  0.55802349  1
  O  O94  1  0.65604926  0.47710639  0.95032529  1
  O  O95  1  0.39745832  0.58704140  0.94151827  1
  O  O96  1  0.54112433  0.05281614  0.11398172  1
  O  O97  1  0.51559507  0.58318539  0.14214707  1
  O  O98  1  0.27908090  0.13094429  0.74328022  1
  O  O99  1  0.89329425  0.75179445  0.51514395  1
  O  O100  1  0.50101742  0.32381683  0.14102487  1
  O  O101  1  0.68746654  0.66029867  0.33399177  1
  O  O102  1  0.77002836  0.92725782  0.15722901  1
  O  O103  1  0.20921534  0.43151960  0.34429120  1
  O  O104  1  0.02075038  0.49746064  0.74217042  1
  O  O105  1  0.87835218  0.59362685  0.95226541  1
  O  O106  1  0.56211332  0.76868770  0.71467519  1
  O  O107  1  0.88861472  0.85172660  0.95110759  1
  O  O108  1  0.76947612  0.20254763  0.11604718  1
  O  O109  1  0.66330143  0.14221495  0.55038070  1
  O  O110  1  0.61502256  0.20644566  0.93109408  1
  O  O111  1  0.71188467  0.41890961  0.32724551  1
  O  O112  1  0.82846973  0.10789108  0.76440837  1
  O  O113  1  0.04773884  0.26991189  0.74386817  1
  O  O114  1  0.18746654  0.67369309  0.33399177  1
  O  O115  1  0.97150990  0.28503230  0.31744010  1
  O  O116  1  0.25340246  0.44680804  0.13949818  1
  O  O117  1  0.15902529  0.22603692  0.93797397  1
  O  O118  1  0.43049378  0.25684704  0.54666665  1
  O  O119  1  0.17020890  0.66055592  0.56652036  1
