# generated using pymatgen
data_NaLi2NiPCO7
_symmetry_space_group_name_H-M   'P 1'
_cell_length_a   5.04504878
_cell_length_b   6.53520024
_cell_length_c   8.48418403
_cell_angle_alpha   89.99951762
_cell_angle_beta   85.60787251
_cell_angle_gamma   89.99977785
_symmetry_Int_Tables_number   1
_chemical_formula_structural   NaLi2NiPCO7
_chemical_formula_sum   'Na2 Li4 Ni2 P2 C2 O14'
_cell_volume   278.90549610
_cell_formula_units_Z   2
loop_
 _symmetry_equiv_pos_site_id
 _symmetry_equiv_pos_as_xyz
  1  'x, y, z'
loop_
 _atom_site_type_symbol
 _atom_site_label
 _atom_site_symmetry_multiplicity
 _atom_site_fract_x
 _atom_site_fract_y
 _atom_site_fract_z
 _atom_site_occupancy
  Na  Na0  1  0.26130911  0.02589464  0.26897175  1
  Na  Na1  1  0.73868083  0.52589034  0.73102856  1
  Li  Li2  1  0.76876512  0.27350427  0.10832702  1
  Li  Li3  1  0.22478682  0.53294010  0.24044514  1
  Li  Li4  1  0.77522330  0.03294102  0.75955633  1
  Li  Li5  1  0.23124381  0.77351607  0.89167319  1
  Ni  Ni6  1  0.78270767  0.74838910  0.34055845  1
  Ni  Ni7  1  0.21728887  0.24839086  0.65943564  1
  P  P8  1  0.72447718  0.25039284  0.41550094  1
  P  P9  1  0.27551335  0.75038435  0.58449349  1
  C  C10  1  0.70669494  0.76183815  0.04597703  1
  C  C11  1  0.29331820  0.26183082  0.95402628  1
  O  O12  1  0.36269515  0.29502288  0.09496370  1
  O  O13  1  0.95479805  0.74581987  0.07661759  1
  O  O14  1  0.52426066  0.74511869  0.16263231  1
  O  O15  1  0.79741321  0.06477256  0.30497882  1
  O  O16  1  0.82718258  0.43517094  0.31138779  1
  O  O17  1  0.14964929  0.74071768  0.42465427  1
  O  O18  1  0.41892083  0.26175838  0.44737571  1
  O  O19  1  0.58106827  0.76173751  0.55261689  1
  O  O20  1  0.85034130  0.24072249  0.57534297  1
  O  O21  1  0.17281418  0.93516816  0.68860238  1
  O  O22  1  0.20257286  0.56476785  0.69502388  1
  O  O23  1  0.47574432  0.24511963  0.83736339  1
  O  O24  1  0.04521358  0.24579151  0.92339216  1
  O  O25  1  0.63732552  0.79502427  0.90503331  1
