# generated using pymatgen
data_V4O7F5
_symmetry_space_group_name_H-M   'P 1'
_cell_length_a   5.21823071
_cell_length_b   5.28666053
_cell_length_c   8.77785023
_cell_angle_alpha   75.06816181
_cell_angle_beta   90.00000000
_cell_angle_gamma   60.42726377
_symmetry_Int_Tables_number   1
_chemical_formula_structural   V4O7F5
_chemical_formula_sum   'V4 O7 F5'
_cell_volume   201.15408230
_cell_formula_units_Z   1
loop_
 _symmetry_equiv_pos_site_id
 _symmetry_equiv_pos_as_xyz
  1  'x, y, z'
loop_
 _atom_site_type_symbol
 _atom_site_label
 _atom_site_symmetry_multiplicity
 _atom_site_fract_x
 _atom_site_fract_y
 _atom_site_fract_z
 _atom_site_occupancy
  V  V0  1  0.77258597  0.44648491  0.25583192  1
  V  V1  1  0.46907087  0.05351509  0.49416808  1
  V  V2  1  0.26451019  0.53690069  0.74516347  1
  V  V3  1  0.05141088  0.96309931  0.00483653  1
  O  O4  1  0.94583029  0.25576080  0.11984228  1
  O  O5  1  0.40957744  0.75438467  0.08305505  1
  O  O6  1  0.41396211  0.74561533  0.66694495  1
  O  O7  1  0.58780196  0.24532788  0.33342906  1
  O  O8  1  0.45159109  0.24423920  0.63015772  1
  O  O9  1  0.04004534  0.75000000  0.87500000  1
  O  O10  1  0.08312984  0.25467212  0.41657094  1
  F  F11  1  0.92562193  0.73852009  0.58239277  1
  F  F12  1  0.91414202  0.76147991  0.16760723  1
  F  F13  1  0.54295234  0.75000000  0.37500000  1
  F  F14  1  0.56236000  0.25304672  0.91915442  1
  F  F15  1  0.06540773  0.24695328  0.83084558  1
