# generated using pymatgen
data_Li3Mn4O8
_symmetry_space_group_name_H-M   'P 1'
_cell_length_a   5.78498878
_cell_length_b   5.81713193
_cell_length_c   6.08799715
_cell_angle_alpha   61.46117332
_cell_angle_beta   61.45290053
_cell_angle_gamma   89.99999539
_symmetry_Int_Tables_number   1
_chemical_formula_structural   Li3Mn4O8
_chemical_formula_sum   'Li3 Mn4 O8'
_cell_volume   151.02122253
_cell_formula_units_Z   1
loop_
 _symmetry_equiv_pos_site_id
 _symmetry_equiv_pos_as_xyz
  1  'x, y, z'
loop_
 _atom_site_type_symbol
 _atom_site_label
 _atom_site_symmetry_multiplicity
 _atom_site_fract_x
 _atom_site_fract_y
 _atom_site_fract_z
 _atom_site_occupancy
  Li  Li0  1  0.50000000  0.50000000  0.50000000  1
  Li  Li1  1  0.50000000  0.00000000  0.50000000  1
  Li  Li2  1  0.50000000  0.50000000  0.00000000  1
  Mn  Mn3  1  0.00000000  0.50000000  0.50000000  1
  Mn  Mn4  1  0.00000000  0.00000000  0.50000000  1
  Mn  Mn5  1  0.00000000  0.00000000  0.00000000  1
  Mn  Mn6  1  0.50000000  0.00000000  0.00000000  1
  O  O7  1  0.25714361  0.77940153  0.99467312  1
  O  O8  1  0.25714361  0.22592535  0.99467312  1
  O  O9  1  0.26616184  0.78159127  0.43681846  1
  O  O10  1  0.22968497  0.25592719  0.48814561  1
  O  O11  1  0.77031503  0.74407281  0.51185439  1
  O  O12  1  0.73383816  0.21840873  0.56318154  1
  O  O13  1  0.74285639  0.77407465  0.00532688  1
  O  O14  1  0.74285639  0.22059847  0.00532688  1
