# generated using pymatgen
data_LiFe2P2HO8
_symmetry_space_group_name_H-M   'P 1'
_cell_length_a   8.58588927
_cell_length_b   8.68277282
_cell_length_c   5.14412914
_cell_angle_alpha   98.29349060
_cell_angle_beta   106.93399707
_cell_angle_gamma   94.51511042
_symmetry_Int_Tables_number   1
_chemical_formula_structural   LiFe2P2HO8
_chemical_formula_sum   'Li2 Fe4 P4 H2 O16'
_cell_volume   360.06216107
_cell_formula_units_Z   2
loop_
 _symmetry_equiv_pos_site_id
 _symmetry_equiv_pos_as_xyz
  1  'x, y, z'
loop_
 _atom_site_type_symbol
 _atom_site_label
 _atom_site_symmetry_multiplicity
 _atom_site_fract_x
 _atom_site_fract_y
 _atom_site_fract_z
 _atom_site_occupancy
  Li  Li0  1  0.17282177  0.67534402  0.37618106  1
  Li  Li1  1  0.82717823  0.32465598  0.62381894  1
  Fe  Fe2  1  0.10263566  0.27606232  0.23384324  1
  Fe  Fe3  1  0.37774911  0.10162438  0.68025801  1
  Fe  Fe4  1  0.62225089  0.89837562  0.31974199  1
  Fe  Fe5  1  0.89736434  0.72393768  0.76615676  1
  P  P6  1  0.24244371  0.43293856  0.85605937  1
  P  P7  1  0.24407073  0.92957504  0.11005450  1
  P  P8  1  0.75592927  0.07042496  0.88994550  1
  P  P9  1  0.75755629  0.56706144  0.14394063  1
  H  H10  1  0.42910215  0.62906782  0.88940633  1
  H  H11  1  0.57089785  0.37093218  0.11059367  1
  O  O12  1  0.08844634  0.36288025  0.61129286  1
  O  O13  1  0.08688589  0.82213273  0.08530942  1
  O  O14  1  0.26377445  0.94222921  0.82589753  1
  O  O15  1  0.31167176  0.58986409  0.77309378  1
  O  O16  1  0.19505137  0.47500012  0.12256608  1
  O  O17  1  0.37727284  0.32259988  0.89641972  1
  O  O18  1  0.24309210  0.09762042  0.27335603  1
  O  O19  1  0.38610032  0.86059009  0.30458321  1
  O  O20  1  0.61389968  0.13940991  0.69541679  1
  O  O21  1  0.75690790  0.90237958  0.72664397  1
  O  O22  1  0.62272716  0.67740012  0.10358028  1
  O  O23  1  0.80494863  0.52499988  0.87743392  1
  O  O24  1  0.68832824  0.41013591  0.22690622  1
  O  O25  1  0.73622555  0.05777079  0.17410247  1
  O  O26  1  0.91311411  0.17786727  0.91469058  1
  O  O27  1  0.91155366  0.63711975  0.38870714  1
