# generated using pymatgen
data_Li8MnCo7(PO4)12
_symmetry_space_group_name_H-M   'P 1'
_cell_length_a   8.66353214
_cell_length_b   8.75719860
_cell_length_c   12.09954008
_cell_angle_alpha   90.04182712
_cell_angle_beta   89.80813351
_cell_angle_gamma   89.86447190
_symmetry_Int_Tables_number   1
_chemical_formula_structural   Li8MnCo7(PO4)12
_chemical_formula_sum   'Li8 Mn1 Co7 P12 O48'
_cell_volume   917.96322703
_cell_formula_units_Z   1
loop_
 _symmetry_equiv_pos_site_id
 _symmetry_equiv_pos_as_xyz
  1  'x, y, z'
loop_
 _atom_site_type_symbol
 _atom_site_label
 _atom_site_symmetry_multiplicity
 _atom_site_fract_x
 _atom_site_fract_y
 _atom_site_fract_z
 _atom_site_occupancy
  Li  Li0  1  0.21702452  0.72468521  0.18332186  1
  Li  Li1  1  0.21744922  0.77504045  0.81634649  1
  Li  Li2  1  0.28326172  0.22549467  0.31773336  1
  Li  Li3  1  0.28203867  0.27631356  0.68218889  1
  Li  Li4  1  0.71629136  0.72464376  0.31723744  1
  Li  Li5  1  0.71489684  0.78110189  0.68206905  1
  Li  Li6  1  0.78290150  0.22501133  0.18348551  1
  Li  Li7  1  0.78466085  0.27567312  0.81833085  1
  Mn  Mn8  1  0.75220328  0.46196138  0.61275438  1
  Co  Co9  1  0.24844930  0.95903980  0.61029529  1
  Co  Co10  1  0.24964804  0.54081015  0.38892289  1
  Co  Co11  1  0.25122513  0.04186900  0.11165004  1
  Co  Co12  1  0.25043676  0.45876709  0.88760934  1
  Co  Co13  1  0.74808576  0.54181028  0.11170853  1
  Co  Co14  1  0.74912974  0.95908848  0.88867917  1
  Co  Co15  1  0.74993149  0.03833909  0.38863624  1
  P  P16  1  0.03473077  0.25046374  0.50043571  1
  P  P17  1  0.10541306  0.39396680  0.14618007  1
  P  P18  1  0.10621410  0.10642681  0.85278389  1
  P  P19  1  0.39662682  0.60369519  0.64651488  1
  P  P20  1  0.39416512  0.89357026  0.35369300  1
  P  P21  1  0.46221669  0.74947006  0.99971707  1
  P  P22  1  0.53777600  0.24997974  0.00040925  1
  P  P23  1  0.60762886  0.39327637  0.35522091  1
  P  P24  1  0.60468108  0.10987049  0.64504224  1
  P  P25  1  0.89417196  0.60737072  0.85055783  1
  P  P26  1  0.89484290  0.89307625  0.14620241  1
  P  P27  1  0.96125960  0.74715779  0.49975237  1
  O  O28  1  0.05770253  0.63733432  0.42889450  1
  O  O29  1  0.05519814  0.85285382  0.57410872  1
  O  O30  1  0.07360706  0.89676792  0.15507111  1
  O  O31  1  0.07265914  0.60386425  0.84214643  1
  O  O32  1  0.14384370  0.16430897  0.58106879  1
  O  O33  1  0.14532955  0.33762788  0.42116681  1
  O  O34  1  0.15523321  0.43613656  0.02780812  1
  O  O35  1  0.15605810  0.06255347  0.97014105  1
  O  O36  1  0.16133844  0.23262234  0.17947158  1
  O  O37  1  0.16202271  0.26738149  0.81977517  1
  O  O38  1  0.17406824  0.51499360  0.22573208  1
  O  O39  1  0.17421155  0.98487931  0.77179796  1
  O  O40  1  0.32556177  0.01567350  0.27497008  1
  O  O41  1  0.32849857  0.48304473  0.72676118  1
  O  O42  1  0.34614837  0.76661404  0.67978346  1
  O  O43  1  0.33723037  0.73280977  0.32129962  1
  O  O44  1  0.34730444  0.56275710  0.52896091  1
  O  O45  1  0.34286176  0.93635116  0.47274442  1
  O  O46  1  0.35398181  0.83664611  0.08047986  1
  O  O47  1  0.35248366  0.66293703  0.92037406  1
  O  O48  1  0.42714043  0.10934136  0.65505090  1
  O  O49  1  0.42823904  0.39752168  0.34713628  1
  O  O50  1  0.44114360  0.14008499  0.07126517  1
  O  O51  1  0.44171976  0.35861464  0.92901182  1
  O  O52  1  0.55965808  0.64005826  0.07091722  1
  O  O53  1  0.55896972  0.85843845  0.92838537  1
  O  O54  1  0.57769068  0.60143341  0.65629768  1
  O  O55  1  0.57231281  0.89567854  0.34489141  1
  O  O56  1  0.64602295  0.33672617  0.08063709  1
  O  O57  1  0.64796005  0.16336095  0.92021683  1
  O  O58  1  0.65621264  0.06598025  0.52756261  1
  O  O59  1  0.65556605  0.43631288  0.47432132  1
  O  O60  1  0.66332558  0.23260636  0.32176186  1
  O  O61  1  0.66310519  0.27335651  0.67697769  1
  O  O62  1  0.67536534  0.51598330  0.27628540  1
  O  O63  1  0.67532942  0.99164997  0.72573042  1
  O  O64  1  0.82584203  0.01411868  0.22675223  1
  O  O65  1  0.82443440  0.48448792  0.76959467  1
  O  O66  1  0.83835749  0.73170041  0.17871494  1
  O  O67  1  0.83617062  0.76783079  0.81772116  1
  O  O68  1  0.84166312  0.55798735  0.96593963  1
  O  O69  1  0.84555998  0.93546667  0.02821790  1
  O  O70  1  0.85106445  0.65831066  0.58144115  1
  O  O71  1  0.85070476  0.83397672  0.42125290  1
  O  O72  1  0.92715646  0.10325826  0.84436546  1
  O  O73  1  0.92613109  0.39789999  0.15450072  1
  O  O74  1  0.94018542  0.14217056  0.42937916  1
  O  O75  1  0.94026262  0.35951539  0.57563915  1
