# generated using pymatgen
data_Mg(FeO2)2
_symmetry_space_group_name_H-M   'P 1'
_cell_length_a   6.04034933
_cell_length_b   6.03986536
_cell_length_c   6.03986486
_cell_angle_alpha   59.99999038
_cell_angle_beta   60.00264874
_cell_angle_gamma   60.00264555
_symmetry_Int_Tables_number   1
_chemical_formula_structural   Mg(FeO2)2
_chemical_formula_sum   'Mg2 Fe4 O8'
_cell_volume   155.81845033
_cell_formula_units_Z   2
loop_
 _symmetry_equiv_pos_site_id
 _symmetry_equiv_pos_as_xyz
  1  'x, y, z'
loop_
 _atom_site_type_symbol
 _atom_site_label
 _atom_site_symmetry_multiplicity
 _atom_site_fract_x
 _atom_site_fract_y
 _atom_site_fract_z
 _atom_site_occupancy
  Mg  Mg0  1  0.98960358  0.00346547  0.00346547  1
  Mg  Mg1  1  0.12166466  0.62611178  0.62611178  1
  Fe  Fe2  1  0.26220172  0.24593276  0.24593276  1
  Fe  Fe3  1  0.62965406  0.11612683  0.62710955  1
  Fe  Fe4  1  0.62965406  0.62710955  0.11612683  1
  Fe  Fe5  1  0.62965406  0.62710955  0.62710955  1
  O  O6  1  0.38770277  0.37947717  0.37947717  1
  O  O7  1  0.38770277  0.37947717  0.85334290  1
  O  O8  1  0.38770277  0.85334290  0.37947717  1
  O  O9  1  0.85941619  0.38019427  0.38019427  1
  O  O10  1  0.39898242  0.86700519  0.86700519  1
  O  O11  1  0.85535365  0.40581999  0.86941268  1
  O  O12  1  0.85535365  0.86941268  0.40581999  1
  O  O13  1  0.85535365  0.86941268  0.86941268  1
