# generated using pymatgen
data_V6O7F5
_symmetry_space_group_name_H-M   'P 1'
_cell_length_a   4.69920425
_cell_length_b   7.75746754
_cell_length_c   5.65617081
_cell_angle_alpha   93.91263735
_cell_angle_beta   90.94458208
_cell_angle_gamma   89.31580215
_symmetry_Int_Tables_number   1
_chemical_formula_structural   V6O7F5
_chemical_formula_sum   'V6 O7 F5'
_cell_volume   205.66900188
_cell_formula_units_Z   1
loop_
 _symmetry_equiv_pos_site_id
 _symmetry_equiv_pos_as_xyz
  1  'x, y, z'
loop_
 _atom_site_type_symbol
 _atom_site_label
 _atom_site_symmetry_multiplicity
 _atom_site_fract_x
 _atom_site_fract_y
 _atom_site_fract_z
 _atom_site_occupancy
  V  V0  1  0.48060466  0.66903676  0.15100743  1
  V  V1  1  0.49113139  0.99716450  0.50619901  1
  V  V2  1  0.53078850  0.33783923  0.83040814  1
  V  V3  1  0.02890247  0.66345929  0.67388565  1
  V  V4  1  0.93777524  0.32911237  0.33627853  1
  V  V5  1  0.00504175  0.00260907  0.99578776  1
  O  O6  1  0.81061467  0.43498537  0.62461627  1
  O  O7  1  0.80587640  0.10641760  0.30292555  1
  O  O8  1  0.69010655  0.10472210  0.79840901  1
  O  O9  1  0.70920149  0.44148365  0.14192860  1
  O  O10  1  0.31428678  0.56143987  0.86805493  1
  O  O11  1  0.30582902  0.89589471  0.20711286  1
  O  O12  1  0.19151484  0.89576048  0.70440770  1
  F  F13  1  0.80294596  0.76579746  0.96213283  1
  F  F14  1  0.70247333  0.75643044  0.46204305  1
  F  F15  1  0.29122940  0.24107703  0.52800667  1
  F  F16  1  0.20137011  0.24065360  0.04131676  1
  F  F17  1  0.20030742  0.55611549  0.36547825  1
