# generated using pymatgen
data_Li3Fe4(BO3)4
_symmetry_space_group_name_H-M   'P 1'
_cell_length_a   5.23497348
_cell_length_b   9.07736007
_cell_length_c   11.37272735
_cell_angle_alpha   67.39167087
_cell_angle_beta   77.75598249
_cell_angle_gamma   90.03262673
_symmetry_Int_Tables_number   1
_chemical_formula_structural   Li3Fe4(BO3)4
_chemical_formula_sum   'Li6 Fe8 B8 O24'
_cell_volume   485.52810389
_cell_formula_units_Z   2
loop_
 _symmetry_equiv_pos_site_id
 _symmetry_equiv_pos_as_xyz
  1  'x, y, z'
loop_
 _atom_site_type_symbol
 _atom_site_label
 _atom_site_symmetry_multiplicity
 _atom_site_fract_x
 _atom_site_fract_y
 _atom_site_fract_z
 _atom_site_occupancy
  Li  Li0  1  0.97199717  0.97215735  0.39376710  1
  Li  Li1  1  0.70398468  0.72066772  0.90885918  1
  Li  Li2  1  0.51071352  0.49097387  0.66673939  1
  Li  Li3  1  0.74043826  0.75427245  0.16392409  1
  Li  Li4  1  0.46927605  0.46185071  0.41123146  1
  Li  Li5  1  0.01858138  0.00006044  0.65781155  1
  Fe  Fe6  1  0.97083526  0.64827362  0.38593702  1
  Fe  Fe7  1  0.73723181  0.07789070  0.87660345  1
  Fe  Fe8  1  0.52136495  0.84139964  0.63107108  1
  Fe  Fe9  1  0.76138181  0.42416498  0.13407980  1
  Fe  Fe10  1  0.22519491  0.54811462  0.88637959  1
  Fe  Fe11  1  0.46335481  0.14682433  0.38053411  1
  Fe  Fe12  1  0.03147854  0.34747216  0.63466646  1
  Fe  Fe13  1  0.27118743  0.94358348  0.12284888  1
  B  B14  1  0.97859856  0.31405118  0.37667966  1
  B  B15  1  0.73144184  0.39967951  0.87720326  1
  B  B16  1  0.52823271  0.18663042  0.62367637  1
  B  B17  1  0.76903611  0.09515307  0.13684603  1
  B  B18  1  0.48028828  0.81703586  0.37230487  1
  B  B19  1  0.23133745  0.88669051  0.88114009  1
  B  B20  1  0.02088841  0.68639412  0.62409350  1
  B  B21  1  0.26261984  0.60836937  0.12920044  1
  O  O22  1  0.97599243  0.89775117  0.86677037  1
  O  O23  1  0.89530083  0.29495641  0.84461141  1
  O  O24  1  0.82356430  0.49951387  0.93323960  1
  O  O25  1  0.91032914  0.82765747  0.61463596  1
  O  O26  1  0.89547507  0.57430923  0.59305212  1
  O  O27  1  0.76067955  0.15854063  0.66636874  1
  O  O28  1  0.73857417  0.34589139  0.33384757  1
  O  O29  1  0.48906923  0.41252235  0.85270039  1
  O  O30  1  0.38604959  0.77943481  0.84453752  1
  O  O31  1  0.59247580  0.92060660  0.41355323  1
  O  O32  1  0.60527721  0.68684914  0.36055481  1
  O  O33  1  0.34658729  0.98056689  0.93292712  1
  O  O34  1  0.64831659  0.98694458  0.09951951  1
  O  O35  1  0.41917113  0.33092606  0.60654193  1
  O  O36  1  0.40829102  0.07352488  0.59294416  1
  O  O37  1  0.62857308  0.21108104  0.16569766  1
  O  O38  1  0.53194499  0.60445876  0.12173220  1
  O  O39  1  0.25608575  0.65504082  0.66251591  1
  O  O40  1  0.23919709  0.84512347  0.33636198  1
  O  O41  1  0.09286339  0.42529896  0.41095235  1
  O  O42  1  0.08677584  0.17506817  0.38543307  1
  O  O43  1  0.12843556  0.50505882  0.09596514  1
  O  O44  1  0.12310218  0.72201145  0.16519355  1
  O  O45  1  0.02214096  0.08132894  0.14778732  1
