# generated using pymatgen
data_Na3Ni5O8
_symmetry_space_group_name_H-M   'P 1'
_cell_length_a   6.01008480
_cell_length_b   10.25273717
_cell_length_c   5.93052759
_cell_angle_alpha   99.39027671
_cell_angle_beta   59.55523322
_cell_angle_gamma   90.00000000
_symmetry_Int_Tables_number   1
_chemical_formula_structural   Na3Ni5O8
_chemical_formula_sum   'Na6 Ni10 O16'
_cell_volume   309.35723208
_cell_formula_units_Z   2
loop_
 _symmetry_equiv_pos_site_id
 _symmetry_equiv_pos_as_xyz
  1  'x, y, z'
loop_
 _atom_site_type_symbol
 _atom_site_label
 _atom_site_symmetry_multiplicity
 _atom_site_fract_x
 _atom_site_fract_y
 _atom_site_fract_z
 _atom_site_occupancy
  Na  Na0  1  0.12922904  0.24774561  0.24821968  1
  Na  Na1  1  0.37723239  0.74892007  0.24553421  1
  Na  Na2  1  0.12276761  0.25107993  0.75446579  1
  Na  Na3  1  0.62255228  0.24774561  0.24821968  1
  Na  Na4  1  0.37077096  0.75225439  0.75178032  1
  Na  Na5  1  0.87744772  0.75225439  0.75178032  1
  Ni  Ni6  1  0.99891775  0.00374918  0.00216449  1
  Ni  Ni7  1  0.99863369  1.00000000  0.50000000  1
  Ni  Ni8  1  0.25000000  0.50000000  0.00000000  1
  Ni  Ni9  1  0.50108225  0.99625082  0.99783551  1
  Ni  Ni10  1  0.25000000  0.50000000  0.50000000  1
  Ni  Ni11  1  0.75000000  0.50000000  0.00000000  1
  Ni  Ni12  1  0.50136631  0.00000000  0.50000000  1
  Ni  Ni13  1  0.62600981  0.24957697  0.74798138  1
  Ni  Ni14  1  0.87399019  0.75042303  0.25201862  1
  Ni  Ni15  1  0.75000000  0.50000000  0.50000000  1
  O  O16  1  0.06461262  0.60629295  0.34819847  1
  O  O17  1  0.15798967  0.89224729  0.15515476  1
  O  O18  1  0.31364400  0.09821836  0.37271301  1
  O  O19  1  0.05360147  0.60652514  0.89279607  1
  O  O20  1  0.18635600  0.90178164  0.62728699  1
  O  O21  1  0.44639853  0.39347486  0.10720393  1
  O  O22  1  0.34201033  0.10775271  0.84484524  1
  O  O23  1  0.58718891  0.60629295  0.34819847  1
  O  O24  1  0.43538738  0.39370705  0.65180153  1
  O  O25  1  0.68685457  0.89224729  0.15515476  1
  O  O26  1  0.80257288  0.11003241  0.39485524  1
  O  O27  1  0.92289392  0.39824911  0.15421217  1
  O  O28  1  0.57710608  0.60175089  0.84578783  1
  O  O29  1  0.69742712  0.88996759  0.60514476  1
  O  O30  1  0.91281109  0.39370705  0.65180153  1
  O  O31  1  0.81314543  0.10775271  0.84484524  1
