# generated using pymatgen
data_Li5Ni5O9F
_symmetry_space_group_name_H-M   'P 1'
_cell_length_a   4.98331219
_cell_length_b   5.78871729
_cell_length_c   6.56466413
_cell_angle_alpha   102.98215055
_cell_angle_beta   98.29176416
_cell_angle_gamma   106.48701810
_symmetry_Int_Tables_number   1
_chemical_formula_structural   Li5Ni5O9F
_chemical_formula_sum   'Li5 Ni5 O9 F1'
_cell_volume   172.50480782
_cell_formula_units_Z   1
loop_
 _symmetry_equiv_pos_site_id
 _symmetry_equiv_pos_as_xyz
  1  'x, y, z'
loop_
 _atom_site_type_symbol
 _atom_site_label
 _atom_site_symmetry_multiplicity
 _atom_site_fract_x
 _atom_site_fract_y
 _atom_site_fract_z
 _atom_site_occupancy
  Li  Li0  1  0.79454566  0.10130483  0.59827708  1
  Li  Li1  1  0.61678828  0.70240131  0.20489030  1
  Li  Li2  1  0.39818733  0.30221965  0.80081781  1
  Li  Li3  1  0.19532623  0.90238865  0.40300556  1
  Li  Li4  1  0.99369638  0.49047008  0.99863159  1
  Ni  Ni5  1  0.80224135  0.60228347  0.59937520  1
  Ni  Ni6  1  0.60607101  0.20860575  0.19951593  1
  Ni  Ni7  1  0.40197671  0.80272774  0.79215664  1
  Ni  Ni8  1  0.20361431  0.40136801  0.39634973  1
  Ni  Ni9  1  0.99045880  0.00249753  0.00053271  1
  O  O10  1  0.91135715  0.05709658  0.28272655  1
  O  O11  1  0.92437750  0.54305790  0.31222306  1
  O  O12  1  0.67241045  0.12850821  0.89626246  1
  O  O13  1  0.70099545  0.67762283  0.89784666  1
  O  O14  1  0.49276571  0.27211781  0.49172769  1
  O  O15  1  0.51798410  0.73439449  0.50292847  1
  O  O16  1  0.27602233  0.32109855  0.09848088  1
  O  O17  1  0.10182257  0.47767372  0.69176961  1
  O  O18  1  0.09947164  0.93688669  0.72440878  1
  F  F19  1  0.29988905  0.83527717  0.10807330  1
