# generated using pymatgen
data_Li8Mn5O10
_symmetry_space_group_name_H-M   'P 1'
_cell_length_a   5.22711160
_cell_length_b   5.49187341
_cell_length_c   8.41616109
_cell_angle_alpha   105.57574417
_cell_angle_beta   92.73716525
_cell_angle_gamma   91.72124417
_symmetry_Int_Tables_number   1
_chemical_formula_structural   Li8Mn5O10
_chemical_formula_sum   'Li8 Mn5 O10'
_cell_volume   232.23098367
_cell_formula_units_Z   1
loop_
 _symmetry_equiv_pos_site_id
 _symmetry_equiv_pos_as_xyz
  1  'x, y, z'
loop_
 _atom_site_type_symbol
 _atom_site_label
 _atom_site_symmetry_multiplicity
 _atom_site_fract_x
 _atom_site_fract_y
 _atom_site_fract_z
 _atom_site_occupancy
  Li  Li0  1  0.62132831  0.35815542  0.00928592  1
  Li  Li1  1  0.59352042  0.89688534  0.19091339  1
  Li  Li2  1  0.37706262  0.25416745  0.20349762  1
  Li  Li3  1  0.61340277  0.55739319  0.40011602  1
  Li  Li4  1  0.36166729  0.47892079  0.60282251  1
  Li  Li5  1  0.58530099  0.11715883  0.56286669  1
  Li  Li6  1  0.59848552  0.72697443  0.82075593  1
  Li  Li7  1  0.37061649  0.06838920  0.79984147  1
  Mn  Mn8  1  0.00604692  0.98717212  0.99649407  1
  Mn  Mn9  1  0.03869642  0.60517256  0.20014407  1
  Mn  Mn10  1  0.98761077  0.80074114  0.60133284  1
  Mn  Mn11  1  0.99790977  0.40650500  0.80072398  1
  Mn  Mn12  1  -0.00078618  0.18951299  0.39418157  1
  O  O13  1  0.78913333  0.68488573  0.00793727  1
  O  O14  1  0.22721886  0.28949879  0.99613860  1
  O  O15  1  0.21817241  0.94345734  0.18461649  1
  O  O16  1  0.75236805  0.27490920  0.22195474  1
  O  O17  1  0.78051364  0.88941117  0.40016940  1
  O  O18  1  0.22652907  0.48285896  0.38990979  1
  O  O19  1  0.73014991  0.48062508  0.60928416  1
  O  O20  1  0.21148323  0.14855554  0.59460448  1
  O  O21  1  0.23300079  0.73348363  0.78452476  1
  O  O22  1  0.75365463  0.07152111  0.82727722  1
