# generated using pymatgen
data_Na9(WO3)13
_symmetry_space_group_name_H-M   'P 1'
_cell_length_a   11.75967747
_cell_length_b   13.00275729
_cell_length_c   5.54417936
_cell_angle_alpha   89.99786270
_cell_angle_beta   76.37055425
_cell_angle_gamma   72.44713025
_symmetry_Int_Tables_number   1
_chemical_formula_structural   Na9(WO3)13
_chemical_formula_sum   'Na9 W13 O39'
_cell_volume   783.20618351
_cell_formula_units_Z   1
loop_
 _symmetry_equiv_pos_site_id
 _symmetry_equiv_pos_as_xyz
  1  'x, y, z'
loop_
 _atom_site_type_symbol
 _atom_site_label
 _atom_site_symmetry_multiplicity
 _atom_site_fract_x
 _atom_site_fract_y
 _atom_site_fract_z
 _atom_site_occupancy
  Na  Na0  1  0.77209408  0.15236810  0.61994199  1
  Na  Na1  1  0.14950668  0.23339301  0.92604998  1
  Na  Na2  1  0.53561514  0.31060656  0.23452243  1
  Na  Na3  1  0.38862990  0.07504272  0.30854646  1
  Na  Na4  1  0.46156789  0.68915148  0.77034801  1
  Na  Na5  1  0.84511794  0.77239388  0.07120371  1
  Na  Na6  1  0.69466446  0.53653299  0.15875730  1
  Na  Na7  1  0.07764095  0.61087179  0.46089146  1
  Na  Na8  1  0.23189278  0.84608968  0.38578607  1
  W  W9  1  0.84887525  0.26778145  0.07572211  1
  W  W10  1  0.61696789  0.42180664  0.69114330  1
  W  W11  1  0.92195164  0.88659737  0.53870541  1
  W  W12  1  0.46158065  0.19208456  0.76958845  1
  W  W13  1  0.69341375  0.03729692  0.15360433  1
  W  W14  1  0.77026733  0.65372371  0.61360159  1
  W  W15  1  0.38405274  0.57534244  0.30740666  1
  W  W16  1  0.22963451  0.34731835  0.38444564  1
  W  W17  1  0.07605748  0.11560785  0.46281457  1
  W  W18  1  0.15251990  0.73102822  0.92317734  1
  W  W19  1  0.30756227  0.96147843  0.84676592  1
  W  W20  1  0.54004511  0.80845171  0.22914600  1
  W  W21  1  0.00089521  0.49805325  0.99820407  1
  O  O22  1  0.96349479  0.19118934  0.77088787  1
  O  O23  1  0.73081996  0.34454998  0.88436451  1
  O  O24  1  0.96158889  0.19195709  0.27113733  1
  O  O25  1  0.57558928  0.11744654  0.96651382  1
  O  O26  1  0.88395640  0.57784567  0.80892542  1
  O  O27  1  0.38307876  0.07774572  0.80996846  1
  O  O28  1  0.57675238  0.11646600  0.46065564  1
  O  O29  1  0.76771173  0.15475833  0.11417991  1
  O  O30  1  0.80686877  0.96147095  0.84592613  1
  O  O31  1  0.54214595  0.30515687  0.72780457  1
  O  O32  1  0.65463094  0.72893139  0.92352865  1
  O  O33  1  0.72892677  0.34538969  0.38102876  1
  O  O34  1  0.68981222  0.53997658  0.65215128  1
  O  O35  1  0.92433774  0.38348619  0.03774892  1
  O  O36  1  0.88411394  0.57837547  0.30392236  1
  O  O37  1  0.84849361  0.76765375  0.57587668  1
  O  O38  1  0.65524221  0.72913267  0.41837439  1
  O  O39  1  0.50166749  0.49991353  0.49763556  1
  O  O40  1  0.19512958  0.03899210  0.65100598  1
  O  O41  1  0.34677347  0.26693947  0.57385791  1
  O  O42  1  0.80757673  0.96179336  0.34617233  1
  O  O43  1  0.34692723  0.26804486  0.07832218  1
  O  O44  1  0.00003487  0.00020475  0.50066064  1
  O  O45  1  0.19558415  0.03870861  0.15629928  1
  O  O46  1  0.15574598  0.22973747  0.42167383  1
  O  O47  1  0.07419383  0.61701185  0.96116228  1
  O  O48  1  0.26873423  0.65689417  0.61090949  1
  O  O49  1  0.30781812  0.46161277  0.34711988  1
  O  O50  1  0.11522997  0.42367311  0.69034548  1
  O  O51  1  0.50306175  0.49855967  0.00204654  1
  O  O52  1  0.46343784  0.69090381  0.26640216  1
  O  O53  1  0.42133515  0.88374051  0.53613315  1
  O  O54  1  0.61549770  0.92284735  0.19174995  1
  O  O55  1  0.23200135  0.84513512  0.88414201  1
  O  O56  1  0.03779169  0.80612520  0.72930590  1
  O  O57  1  0.26952605  0.65515643  0.11558313  1
  O  O58  1  0.11616727  0.42350962  0.19035737  1
  O  O59  1  0.42164534  0.88304753  0.04065491  1
  O  O60  1  0.03834233  0.80559937  0.23303652  1
