# generated using pymatgen
data_Li3Fe4(BO3)4
_symmetry_space_group_name_H-M   'P 1'
_cell_length_a   5.21902486
_cell_length_b   9.07260467
_cell_length_c   11.34770079
_cell_angle_alpha   67.70787474
_cell_angle_beta   77.32275240
_cell_angle_gamma   90.07511699
_symmetry_Int_Tables_number   1
_chemical_formula_structural   Li3Fe4(BO3)4
_chemical_formula_sum   'Li6 Fe8 B8 O24'
_cell_volume   482.90491225
_cell_formula_units_Z   2
loop_
 _symmetry_equiv_pos_site_id
 _symmetry_equiv_pos_as_xyz
  1  'x, y, z'
loop_
 _atom_site_type_symbol
 _atom_site_label
 _atom_site_symmetry_multiplicity
 _atom_site_fract_x
 _atom_site_fract_y
 _atom_site_fract_z
 _atom_site_occupancy
  Li  Li0  1  0.97338296  0.96304518  0.40421069  1
  Li  Li1  1  0.70014366  0.71888337  0.91856796  1
  Li  Li2  1  0.51187864  0.49362754  0.66455746  1
  Li  Li3  1  0.47305338  0.46238853  0.40933428  1
  Li  Li4  1  0.01494751  0.99581742  0.66217418  1
  Li  Li5  1  0.23900201  0.25282088  0.15917440  1
  Fe  Fe6  1  0.96536818  0.64638209  0.37586099  1
  Fe  Fe7  1  0.73031401  0.07661854  0.88086343  1
  Fe  Fe8  1  0.52329731  0.84082012  0.62946232  1
  Fe  Fe9  1  0.75661873  0.44379740  0.13420852  1
  Fe  Fe10  1  0.22860827  0.54963724  0.88469874  1
  Fe  Fe11  1  0.47620984  0.14829172  0.38219784  1
  Fe  Fe12  1  0.03093405  0.34978390  0.63168371  1
  Fe  Fe13  1  0.26288089  0.92346047  0.13096890  1
  B  B14  1  0.98164725  0.31428885  0.37748803  1
  B  B15  1  0.73050785  0.40144812  0.87456147  1
  B  B16  1  0.51958372  0.18328284  0.63086710  1
  B  B17  1  0.76370300  0.10445167  0.12997869  1
  B  B18  1  0.48078084  0.81210391  0.37566829  1
  B  B19  1  0.23337182  0.89426927  0.87912804  1
  B  B20  1  0.02330510  0.68548582  0.62411645  1
  B  B21  1  0.27497841  0.60306569  0.12614979  1
  O  O22  1  0.97683940  0.91674199  0.86244363  1
  O  O23  1  0.88670990  0.28628030  0.84584729  1
  O  O24  1  0.83213188  0.50974984  0.91608286  1
  O  O25  1  0.91570198  0.82958569  0.61121378  1
  O  O26  1  0.89851432  0.57451170  0.59263238  1
  O  O27  1  0.74939679  0.15043555  0.68014685  1
  O  O28  1  0.73437591  0.33871406  0.35028883  1
  O  O29  1  0.48140586  0.40266824  0.85696749  1
  O  O30  1  0.37645171  0.78335106  0.84529580  1
  O  O31  1  0.59228882  0.92089930  0.41349518  1
  O  O32  1  0.58699402  0.67323051  0.38292740  1
  O  O33  1  0.35275499  0.98819124  0.92970530  1
  O  O34  1  0.64097898  0.01192774  0.07850824  1
  O  O35  1  0.41661402  0.32711207  0.61368421  1
  O  O36  1  0.40237069  0.07124317  0.59833780  1
  O  O37  1  0.61807131  0.21252436  0.16726403  1
  O  O38  1  0.54049169  0.62317182  0.11049100  1
  O  O39  1  0.25811707  0.65529924  0.66306023  1
  O  O40  1  0.24559926  0.84713316  0.32972446  1
  O  O41  1  0.09946600  0.41946519  0.41679991  1
  O  O42  1  0.10525777  0.18333999  0.36610456  1
  O  O43  1  0.16029697  0.48129830  0.10211591  1
  O  O44  1  0.11758330  0.71163272  0.16289208  1
  O  O45  1  0.02080691  0.08389721  0.14109351  1
