# generated using pymatgen
data_Ca3Zn3(TeO6)2
_symmetry_space_group_name_H-M   'P 1'
_cell_length_a   11.24566362
_cell_length_b   11.24566439
_cell_length_c   11.24566432
_cell_angle_alpha   109.47122049
_cell_angle_beta   109.47122187
_cell_angle_gamma   109.47122070
_symmetry_Int_Tables_number   1
_chemical_formula_structural   Ca3Zn3(TeO6)2
_chemical_formula_sum   'Ca12 Zn12 Te8 O48'
_cell_volume   1094.79656528
_cell_formula_units_Z   4
loop_
 _symmetry_equiv_pos_site_id
 _symmetry_equiv_pos_as_xyz
  1  'x, y, z'
loop_
 _atom_site_type_symbol
 _atom_site_label
 _atom_site_symmetry_multiplicity
 _atom_site_fract_x
 _atom_site_fract_y
 _atom_site_fract_z
 _atom_site_occupancy
  Ca  Ca0  1  0.15640742  0.75000000  0.34359258  1
  Ca  Ca1  1  0.34359258  0.68718515  0.59359258  1
  Ca  Ca2  1  0.59359258  0.34359258  0.68718515  1
  Ca  Ca3  1  0.90640742  0.59359258  0.75000000  1
  Ca  Ca4  1  0.34359258  0.15640742  0.75000000  1
  Ca  Ca5  1  0.59359258  0.75000000  0.90640742  1
  Ca  Ca6  1  0.75000000  0.34359258  0.15640742  1
  Ca  Ca7  1  0.68718515  0.59359258  0.34359258  1
  Ca  Ca8  1  0.75000000  0.90640742  0.59359258  1
  Ca  Ca9  1  0.81281485  0.15640742  0.90640742  1
  Ca  Ca10  1  0.90640742  0.81281485  0.15640742  1
  Ca  Ca11  1  0.15640742  0.90640742  0.81281485  1
  Zn  Zn12  1  0.40460321  0.25000000  0.09539679  1
  Zn  Zn13  1  0.09539679  0.19079357  0.84539679  1
  Zn  Zn14  1  0.65460321  0.84539679  0.25000000  1
  Zn  Zn15  1  0.25000000  0.65460321  0.84539679  1
  Zn  Zn16  1  0.25000000  0.09539679  0.40460321  1
  Zn  Zn17  1  0.30920643  0.40460321  0.65460321  1
  Zn  Zn18  1  0.40460321  0.65460321  0.30920643  1
  Zn  Zn19  1  0.84539679  0.09539679  0.19079357  1
  Zn  Zn20  1  0.19079357  0.84539679  0.09539679  1
  Zn  Zn21  1  0.65460321  0.30920643  0.40460321  1
  Zn  Zn22  1  0.09539679  0.40460321  0.25000000  1
  Zn  Zn23  1  0.84539679  0.25000000  0.65460321  1
  Te  Te24  1  0.01471126  0.50000000  1.00000000  1
  Te  Te25  1  1.00000000  0.48528874  0.50000000  1
  Te  Te26  1  0.50000000  0.00000000  0.48528874  1
  Te  Te27  1  0.00000000  0.01471126  0.50000000  1
  Te  Te28  1  0.01471126  0.01471126  0.01471126  1
  Te  Te29  1  0.48528874  0.50000000  0.00000000  1
  Te  Te30  1  0.50000000  0.00000000  0.01471126  1
  Te  Te31  1  0.48528874  0.48528874  0.48528874  1
  O  O32  1  0.93890139  0.31611249  0.31858726  1
  O  O33  1  0.66524790  0.48956367  0.59370138  1
  O  O34  1  0.31611249  0.49752523  0.37721110  1
  O  O35  1  0.87968587  0.37721110  0.56109861  1
  O  O36  1  0.87968587  0.00247477  0.31858726  1
  O  O37  1  0.12278890  0.00247477  0.18388751  1
  O  O38  1  0.56109861  0.18141274  0.18388751  1
  O  O39  1  0.01043633  0.83475210  0.90629862  1
  O  O40  1  0.31611249  0.31858726  0.93890139  1
  O  O41  1  0.82431577  0.83475210  0.42845348  1
  O  O42  1  0.59370138  0.42845348  0.10413771  1
  O  O43  1  0.42845348  0.82431577  0.83475210  1
  O  O44  1  0.00247477  0.31858726  0.87968587  1
  O  O45  1  0.12278890  0.62031413  0.93890139  1
  O  O46  1  0.37721110  0.56109861  0.87968587  1
  O  O47  1  0.10413771  0.59370138  0.42845348  1
  O  O48  1  0.49752523  0.62031413  0.18141274  1
  O  O49  1  0.31858726  0.87968587  0.00247477  1
  O  O50  1  0.48956367  0.59370138  0.66524790  1
  O  O51  1  0.62031413  0.93890139  0.12278890  1
  O  O52  1  0.00247477  0.18388751  0.12278890  1
  O  O53  1  0.42845348  0.10413771  0.59370138  1
  O  O54  1  0.90629862  0.39586229  0.07154652  1
  O  O55  1  0.18141274  0.18388751  0.56109861  1
  O  O56  1  0.67568423  0.07154652  0.66524790  1
  O  O57  1  0.93890139  0.12278890  0.62031413  1
  O  O58  1  0.56109861  0.87968587  0.37721110  1
  O  O59  1  0.18388751  0.56109861  0.18141274  1
  O  O60  1  0.62031413  0.18141274  0.49752523  1
  O  O61  1  0.07154652  0.66524790  0.67568423  1
  O  O62  1  0.07154652  0.90629862  0.39586229  1
  O  O63  1  0.67568423  0.10413771  0.01043633  1
  O  O64  1  0.01043633  0.67568423  0.10413771  1
  O  O65  1  0.39586229  0.07154652  0.90629862  1
  O  O66  1  0.37721110  0.31611249  0.49752523  1
  O  O67  1  0.90629862  0.01043633  0.83475210  1
  O  O68  1  0.18388751  0.12278890  0.00247477  1
  O  O69  1  0.18141274  0.49752523  0.62031413  1
  O  O70  1  0.83475210  0.90629862  0.01043633  1
  O  O71  1  0.49752523  0.37721110  0.31611249  1
  O  O72  1  0.31858726  0.93890139  0.31611249  1
  O  O73  1  0.39586229  0.82431577  0.48956367  1
  O  O74  1  0.48956367  0.39586229  0.82431577  1
  O  O75  1  0.82431577  0.48956367  0.39586229  1
  O  O76  1  0.59370138  0.66524790  0.48956367  1
  O  O77  1  0.10413771  0.01043633  0.67568423  1
  O  O78  1  0.66524790  0.67568423  0.07154652  1
  O  O79  1  0.83475210  0.42845348  0.82431577  1
