# generated using pymatgen
data_Li5V3P8O29
_symmetry_space_group_name_H-M   'P 1'
_cell_length_a   9.76837609
_cell_length_b   9.76792324
_cell_length_c   14.06716338
_cell_angle_alpha   90.25272249
_cell_angle_beta   90.23872911
_cell_angle_gamma   60.20540519
_symmetry_Int_Tables_number   1
_chemical_formula_structural   Li5V3P8O29
_chemical_formula_sum   'Li10 V6 P16 O58'
_cell_volume   1164.80066555
_cell_formula_units_Z   2
loop_
 _symmetry_equiv_pos_site_id
 _symmetry_equiv_pos_as_xyz
  1  'x, y, z'
loop_
 _atom_site_type_symbol
 _atom_site_label
 _atom_site_symmetry_multiplicity
 _atom_site_fract_x
 _atom_site_fract_y
 _atom_site_fract_z
 _atom_site_occupancy
  Li  Li0  1  0.77010136  0.90281599  0.56183927  1
  Li  Li1  1  0.90546902  0.32242959  0.56550469  1
  Li  Li2  1  0.76658795  0.32843053  0.05715532  1
  Li  Li3  1  0.32869701  0.90596472  0.05492722  1
  Li  Li4  1  0.68068745  0.22646071  0.44083397  1
  Li  Li5  1  0.32345506  0.77111707  0.56219324  1
  Li  Li6  1  0.23145510  0.66952885  0.94068404  1
  Li  Li7  1  0.09152363  0.68339643  0.43693700  1
  Li  Li8  1  0.22316267  0.09046847  0.44507552  1
  Li  Li9  1  0.94387303  0.01047274  0.99023673  1
  V  V10  1  0.56928403  0.43360928  0.24944531  1
  V  V11  1  0.43295858  0.56548081  0.74918009  1
  V  V12  1  0.56761860  0.00169753  0.75821443  1
  V  V13  1  0.43672190  0.00089103  0.24497755  1
  V  V14  1  0.99753207  0.56812992  0.24420054  1
  V  V15  1  0.00373586  0.43201974  0.75375488  1
  P  P16  1  0.91914228  0.77860613  0.83934349  1
  P  P17  1  0.76952293  0.91343252  0.34218387  1
  P  P18  1  0.91533905  0.31928251  0.34506074  1
  P  P19  1  0.66362285  0.66835584  0.12947874  1
  P  P20  1  0.66549378  0.67064085  0.63115163  1
  P  P21  1  0.77246737  0.31478067  0.84136685  1
  P  P22  1  0.67972828  0.22798136  0.65980194  1
  P  P23  1  0.31312487  0.91267799  0.84304496  1
  P  P24  1  0.69609100  0.08376923  0.15743392  1
  P  P25  1  0.32287930  0.77121902  0.34189317  1
  P  P26  1  0.23019586  0.68442876  0.15982428  1
  P  P27  1  0.33312878  0.33257303  0.36759221  1
  P  P28  1  0.33335013  0.33414847  0.87083601  1
  P  P29  1  0.08640188  0.67989822  0.65453028  1
  P  P30  1  0.23281576  0.08694004  0.66044223  1
  P  P31  1  0.08267506  0.22089210  0.16030444  1
  O  O32  1  0.00022545  0.75365926  0.56335230  1
  O  O33  1  0.91833683  0.74884037  0.33983491  1
  O  O34  1  0.79343350  0.99694518  0.07481709  1
  O  O35  1  0.74560600  0.91772710  0.83600454  1
  O  O36  1  0.92411120  0.62006961  0.83483858  1
  O  O37  1  0.80475649  0.67791662  0.17227071  1
  O  O38  1  0.90615212  0.47810086  0.32327372  1
  O  O39  1  0.98997862  0.20395997  0.08154693  1
  O  O40  1  0.91150514  0.34674588  0.83006186  1
  O  O41  1  0.67048310  0.81661328  0.67805553  1
  O  O42  1  0.61928443  0.90258117  0.31950683  1
  O  O43  1  0.81316812  0.51705319  0.66746788  1
  O  O44  1  0.64280137  0.68004667  0.02471867  1
  O  O45  1  0.65905662  0.68653383  0.52529577  1
  O  O46  1  0.67614331  0.51121904  0.16832220  1
  O  O47  1  0.47275153  0.91041708  0.82860911  1
  O  O48  1  0.50638157  0.81399055  0.17457255  1
  O  O49  1  0.74811189  0.33718009  0.34117451  1
  O  O50  1  0.79071340  0.20460071  0.75024129  1
  O  O51  1  0.75827649  0.23907544  0.57024429  1
  O  O52  1  0.78774423  0.22743834  0.93112603  1
  O  O53  1  0.61618307  0.46961255  0.82949116  1
  O  O54  1  0.51178392  0.67401882  0.66959002  1
  O  O55  1  0.66084354  0.25686391  0.16074207  1
  O  O56  1  0.48251324  0.62389734  0.32307629  1
  O  O57  1  0.33707014  0.92283239  0.34089317  1
  O  O58  1  0.78957183  0.01026498  0.25671212  1
  O  O59  1  0.75160755  0.00012696  0.43393266  1
  O  O60  1  0.24579685  0.99588421  0.57092325  1
  O  O61  1  0.66329740  0.07831206  0.65974165  1
  O  O62  1  0.51904415  0.37657461  0.67694237  1
  O  O63  1  0.33929432  0.74294122  0.83733004  1
  O  O64  1  0.48709835  0.32798681  0.33190588  1
  O  O65  1  0.38470095  0.52655002  0.17414133  1
  O  O66  1  0.23125891  0.76786517  0.07091175  1
  O  O67  1  0.24403126  0.76130224  0.43131073  1
  O  O68  1  0.20948039  0.79327698  0.25170763  1
  O  O69  1  0.25321412  0.66163189  0.65648795  1
  O  O70  1  0.48758004  0.18727436  0.82417039  1
  O  O71  1  0.53747029  0.08065864  0.16978312  1
  O  O72  1  0.32360969  0.48927096  0.83118738  1
  O  O73  1  0.34405077  0.32716641  0.97593220  1
  O  O74  1  0.33121857  0.31531809  0.47259136  1
  O  O75  1  0.18649097  0.48401259  0.32861078  1
  O  O76  1  0.38369097  0.09472536  0.68010659  1
  O  O77  1  0.33192176  0.18410733  0.31814701  1
  O  O78  1  0.08817665  0.65634777  0.16412513  1
  O  O79  1  0.99176947  0.79853825  0.73989576  1
  O  O80  1  0.00739749  0.80367202  0.91845301  1
  O  O81  1  0.09586494  0.52114978  0.67534634  1
  O  O82  1  0.19455094  0.32293694  0.82556493  1
  O  O83  1  0.08428313  0.37641353  0.16876120  1
  O  O84  1  0.25663026  0.07827727  0.15975229  1
  O  O85  1  0.23120377  0.99118294  0.93288042  1
  O  O86  1  0.20847703  0.99848172  0.75032576  1
  O  O87  1  0.08407385  0.25182719  0.65909980  1
  O  O88  1  0.99673133  0.24770227  0.43739477  1
  O  O89  1  0.01374122  0.19859706  0.26113686  1
