# generated using pymatgen
data_Na3Ni2O5
_symmetry_space_group_name_H-M   'P 1'
_cell_length_a   5.27970087
_cell_length_b   6.30534340
_cell_length_c   6.90540721
_cell_angle_alpha   107.61089144
_cell_angle_beta   96.48225690
_cell_angle_gamma   107.23585140
_symmetry_Int_Tables_number   1
_chemical_formula_structural   Na3Ni2O5
_chemical_formula_sum   'Na6 Ni4 O10'
_cell_volume   204.02430823
_cell_formula_units_Z   2
loop_
 _symmetry_equiv_pos_site_id
 _symmetry_equiv_pos_as_xyz
  1  'x, y, z'
loop_
 _atom_site_type_symbol
 _atom_site_label
 _atom_site_symmetry_multiplicity
 _atom_site_fract_x
 _atom_site_fract_y
 _atom_site_fract_z
 _atom_site_occupancy
  Na  Na0  1  0.81992821  0.11152333  0.60146849  1
  Na  Na1  1  0.58007179  0.68847667  0.19853151  1
  Na  Na2  1  0.40530314  0.30290135  0.78869838  1
  Na  Na3  1  0.20000000  0.90000000  0.40000000  1
  Na  Na4  1  0.20000000  0.40000000  0.40000000  1
  Na  Na5  1  0.99469686  0.49709865  0.01130162  1
  Ni  Ni6  1  0.80242179  0.60484238  0.60394156  1
  Ni  Ni7  1  0.59757821  0.19515762  0.19605844  1
  Ni  Ni8  1  0.40243901  0.80524890  0.80557942  1
  Ni  Ni9  1  0.99756099  0.99475110  0.99442058  1
  O  O10  1  0.85089238  0.52114831  0.32021253  1
  O  O11  1  0.87001209  0.05579957  0.25118046  1
  O  O12  1  0.67605765  0.11947332  0.92446871  1
  O  O13  1  0.72394235  0.68052668  0.87553129  1
  O  O14  1  0.54910762  0.27885169  0.47978747  1
  O  O15  1  0.52998791  0.74420043  0.54881954  1
  O  O16  1  0.07707471  0.91553139  0.71766642  1
  O  O17  1  0.09810183  0.50993470  0.70583442  1
  O  O18  1  0.30189817  0.29006530  0.09416558  1
  O  O19  1  0.32292529  0.88446861  0.08233358  1
