# generated using pymatgen
data_VF5
_symmetry_space_group_name_H-M   'P 1'
_cell_length_a   5.23675123
_cell_length_b   9.71053293
_cell_length_c   8.27088795
_cell_angle_alpha   90.00000000
_cell_angle_beta   78.94508248
_cell_angle_gamma   90.00000000
_symmetry_Int_Tables_number   1
_chemical_formula_structural   VF5
_chemical_formula_sum   'V4 F20'
_cell_volume   412.78375836
_cell_formula_units_Z   4
loop_
 _symmetry_equiv_pos_site_id
 _symmetry_equiv_pos_as_xyz
  1  'x, y, z'
loop_
 _atom_site_type_symbol
 _atom_site_label
 _atom_site_symmetry_multiplicity
 _atom_site_fract_x
 _atom_site_fract_y
 _atom_site_fract_z
 _atom_site_occupancy
  V  V0  1  0.35197465  0.76128963  0.56733961  1
  V  V1  1  0.14802535  0.26128963  0.93266039  1
  V  V2  1  0.85197465  0.73871037  0.06733961  1
  V  V3  1  0.64802535  0.23871037  0.43266039  1
  F  F4  1  0.03319919  0.85753011  0.16178806  1
  F  F5  1  0.06597980  0.86110768  0.57853219  1
  F  F6  1  0.16733077  0.61960425  0.52121920  1
  F  F7  1  0.04580626  0.38873324  0.80504241  1
  F  F8  1  0.04499228  0.70148146  0.87574689  1
  F  F9  1  0.56597980  0.63889232  0.07853219  1
  F  F10  1  0.46680081  0.35753011  0.33821194  1
  F  F11  1  0.66733077  0.88039575  0.02121920  1
  F  F12  1  0.54580626  0.11126676  0.30504241  1
  F  F13  1  0.54499228  0.79851854  0.37574689  1
  F  F14  1  0.45500772  0.20148146  0.62425311  1
  F  F15  1  0.45419374  0.88873324  0.69495759  1
  F  F16  1  0.33266923  0.11960425  0.97878080  1
  F  F17  1  0.53319919  0.64246989  0.66178806  1
  F  F18  1  0.43402020  0.36110768  0.92146781  1
  F  F19  1  0.95500772  0.29851854  0.12425311  1
  F  F20  1  0.95419374  0.61126676  0.19495759  1
  F  F21  1  0.83266923  0.38039575  0.47878080  1
  F  F22  1  0.93402020  0.13889232  0.42146781  1
  F  F23  1  0.96680081  0.14246989  0.83821194  1
