# generated using pymatgen
data_Li5V3P8O29
_symmetry_space_group_name_H-M   'P 1'
_cell_length_a   9.78840540
_cell_length_b   9.80648894
_cell_length_c   13.96127457
_cell_angle_alpha   89.97431051
_cell_angle_beta   89.93897367
_cell_angle_gamma   59.85824481
_symmetry_Int_Tables_number   1
_chemical_formula_structural   Li5V3P8O29
_chemical_formula_sum   'Li10 V6 P16 O58'
_cell_volume   1158.93429308
_cell_formula_units_Z   2
loop_
 _symmetry_equiv_pos_site_id
 _symmetry_equiv_pos_as_xyz
  1  'x, y, z'
loop_
 _atom_site_type_symbol
 _atom_site_label
 _atom_site_symmetry_multiplicity
 _atom_site_fract_x
 _atom_site_fract_y
 _atom_site_fract_z
 _atom_site_occupancy
  Li  Li0  1  0.90580483  0.77008729  0.05909075  1
  Li  Li1  1  0.76566493  0.90028240  0.56066390  1
  Li  Li2  1  0.90031401  0.33358359  0.56033721  1
  Li  Li3  1  0.77113641  0.32306502  0.05997870  1
  Li  Li4  1  0.32274017  0.90523153  0.05940979  1
  Li  Li5  1  0.33302405  0.76624771  0.55984350  1
  Li  Li6  1  0.67756381  0.09544802  0.93738288  1
  Li  Li7  1  0.22713733  0.67728275  0.93751728  1
  Li  Li8  1  0.09655232  0.22675748  0.93698274  1
  Li  Li9  1  0.00482349  0.99635724  0.50044846  1
  V  V10  1  0.56771348  0.43212600  0.25184170  1
  V  V11  1  0.43268340  0.56735836  0.74787968  1
  V  V12  1  0.56733115  0.00017416  0.74805374  1
  V  V13  1  0.43206715  0.00285934  0.25539382  1
  V  V14  1  0.00303281  0.56372897  0.25506161  1
  V  V15  1  0.00000143  0.43283787  0.74796999  1
  P  P16  1  0.91333364  0.76654664  0.84289198  1
  P  P17  1  0.77418311  0.91274895  0.34227929  1
  P  P18  1  0.91293536  0.31293071  0.34273096  1
  P  P19  1  0.66809097  0.66794376  0.13009405  1
  P  P20  1  0.66649742  0.66708018  0.62592061  1
  P  P21  1  0.76722277  0.31956419  0.84280445  1
  P  P22  1  0.69027035  0.22542335  0.65756609  1
  P  P23  1  0.32012218  0.91313093  0.84279188  1
  P  P24  1  0.68089362  0.08722462  0.15772849  1
  P  P25  1  0.31340906  0.77373485  0.34299442  1
  P  P26  1  0.22999166  0.68139555  0.15927059  1
  P  P27  1  0.33557864  0.33185898  0.37235088  1
  P  P28  1  0.33351193  0.33346753  0.87185791  1
  P  P29  1  0.08426865  0.68957818  0.65760913  1
  P  P30  1  0.22550444  0.08447056  0.65772854  1
  P  P31  1  0.08883487  0.22998458  0.15841346  1
  O  O32  1  0.99366635  0.79325657  0.57572267  1
  O  O33  1  0.91473135  0.74147673  0.33261098  1
  O  O34  1  0.75668719  0.99573927  0.06808753  1
  O  O35  1  0.74777933  0.91589159  0.84151515  1
  O  O36  1  0.90268814  0.61745933  0.82282155  1
  O  O37  1  0.81837118  0.66849132  0.17272986  1
  O  O38  1  0.90961812  0.47217721  0.32609641  1
  O  O39  1  -0.00004525  0.24168948  0.06811485  1
  O  O40  1  0.91593999  0.33639552  0.84159941  1
  O  O41  1  0.67935145  0.80994660  0.66728051  1
  O  O42  1  0.61731393  0.91109153  0.32793835  1
  O  O43  1  0.80976239  0.51078615  0.66710230  1
  O  O44  1  0.66763495  0.67628308  0.02338181  1
  O  O45  1  0.66691182  0.66755976  0.51885044  1
  O  O46  1  0.67231141  0.51490163  0.16698209  1
  O  O47  1  0.48009292  0.90270719  0.82270969  1
  O  O48  1  0.51667857  0.81700266  0.17325890  1
  O  O49  1  0.74319893  0.34329037  0.33283778  1
  O  O50  1  0.78861706  0.20340114  0.75629354  1
  O  O51  1  0.79433398  0.21177607  0.57559394  1
  O  O52  1  0.75456432  0.24595605  0.93465758  1
  O  O53  1  0.61731779  0.47959591  0.82285162  1
  O  O54  1  0.51018558  0.67968966  0.66679788  1
  O  O55  1  0.66363870  0.25234922  0.15692785  1
  O  O56  1  0.47046955  0.62126477  0.32927299  1
  O  O57  1  0.33983967  0.91771920  0.33045172  1
  O  O58  1  0.79278592  0.00056081  0.24988223  1
  O  O59  1  0.78176248  0.98670237  0.43360309  1
  O  O60  1  0.21213700  0.99419899  0.57601926  1
  O  O61  1  0.66169297  0.08252128  0.65986160  1
  O  O62  1  0.53306176  0.37978710  0.66856920  1
  O  O63  1  0.33652782  0.74791842  0.84149443  1
  O  O64  1  0.48090924  0.32880952  0.32835733  1
  O  O65  1  0.38229121  0.52312848  0.17707588  1
  O  O66  1  0.23911483  0.76005185  0.06908619  1
  O  O67  1  0.22637893  0.79014995  0.43334389  1
  O  O68  1  0.20384777  0.79219915  0.25086091  1
  O  O69  1  0.25606869  0.66131369  0.65974660  1
  O  O70  1  0.48845496  0.18667311  0.83120711  1
  O  O71  1  0.52200242  0.09597771  0.17840638  1
  O  O72  1  0.32552189  0.48796211  0.83136880  1
  O  O73  1  0.33334580  0.33330943  0.97896207  1
  O  O74  1  0.32248973  0.33184857  0.47734830  1
  O  O75  1  0.18386134  0.48056130  0.32551844  1
  O  O76  1  0.37976031  0.08707132  0.66871553  1
  O  O77  1  0.33140012  0.18426674  0.32570212  1
  O  O78  1  0.08317933  0.66010793  0.15985474  1
  O  O79  1  0.00825162  0.78788338  0.75630219  1
  O  O80  1  0.00013878  0.75344596  0.93443786  1
  O  O81  1  0.08722882  0.53286938  0.66869615  1
  O  O82  1  0.18701042  0.32540945  0.83114766  1
  O  O83  1  0.09551612  0.38151248  0.17725878  1
  O  O84  1  0.25650610  0.08318696  0.15844310  1
  O  O85  1  0.24633771  0.99944834  0.93463820  1
  O  O86  1  0.20343588  0.00830583  0.75645837  1
  O  O87  1  0.08186268  0.25621087  0.66013927  1
  O  O88  1  0.98991334  0.23301615  0.43361357  1
  O  O89  1  0.00308916  0.20518705  0.25019189  1
