# generated using pymatgen
data_MnH6SO6
_symmetry_space_group_name_H-M   'P 1'
_cell_length_a   6.72676646
_cell_length_b   8.99280212
_cell_length_c   8.81359372
_cell_angle_alpha   90.00000000
_cell_angle_beta   95.92306219
_cell_angle_gamma   90.00000000
_symmetry_Int_Tables_number   1
_chemical_formula_structural   MnH6SO6
_chemical_formula_sum   'Mn4 H24 S4 O24'
_cell_volume   530.30981135
_cell_formula_units_Z   4
loop_
 _symmetry_equiv_pos_site_id
 _symmetry_equiv_pos_as_xyz
  1  'x, y, z'
loop_
 _atom_site_type_symbol
 _atom_site_label
 _atom_site_symmetry_multiplicity
 _atom_site_fract_x
 _atom_site_fract_y
 _atom_site_fract_z
 _atom_site_occupancy
  Mn  Mn0  1  0.06921582  0.25619951  0.35958653  1
  Mn  Mn1  1  0.43078418  0.75619951  0.14041347  1
  Mn  Mn2  1  0.56921582  0.24380049  0.85958653  1
  Mn  Mn3  1  0.93078418  0.74380049  0.64041347  1
  H  H4  1  0.03939481  0.69543711  0.22536813  1
  H  H5  1  0.04163744  0.32193033  0.02949971  1
  H  H6  1  0.11421668  0.54598389  0.15129635  1
  H  H7  1  0.14657999  0.98575100  0.13074760  1
  H  H8  1  0.25519288  0.01334496  0.97851323  1
  H  H9  1  0.24480712  0.51334496  0.52148677  1
  H  H10  1  0.22916058  0.82407536  0.39798663  1
  H  H11  1  0.27083942  0.32407536  0.10201337  1
  H  H12  1  0.35342001  0.48575100  0.36925240  1
  H  H13  1  0.38578332  0.04598389  0.34870365  1
  H  H14  1  0.45836256  0.82193033  0.47050029  1
  H  H15  1  0.46060519  0.19543711  0.27463187  1
  H  H16  1  0.53939481  0.80456289  0.72536813  1
  H  H17  1  0.54163844  0.17806967  0.52949971  1
  H  H18  1  0.61421668  0.95401611  0.65129635  1
  H  H19  1  0.64657999  0.51424900  0.63074760  1
  H  H20  1  0.72916058  0.67592464  0.89798663  1
  H  H21  1  0.77083942  0.17592464  0.60201337  1
  H  H22  1  0.75519288  0.48665504  0.47851323  1
  H  H23  1  0.74480712  0.98665504  0.02148677  1
  H  H24  1  0.85342001  0.01424900  0.86925240  1
  H  H25  1  0.88578332  0.45401611  0.84870365  1
  H  H26  1  0.95836156  0.67806967  0.97050029  1
  H  H27  1  0.96060519  0.30456289  0.77463187  1
  S  S28  1  0.16958849  0.06984089  0.67609230  1
  S  S29  1  0.33041151  0.56984089  0.82390770  1
  S  S30  1  0.66958849  0.43015911  0.17609230  1
  S  S31  1  0.83041151  0.93015911  0.32390770  1
  O  O32  1  0.01851419  0.96023887  0.73509426  1
  O  O33  1  0.03553238  0.19990634  0.60266097  1
  O  O34  1  0.10903939  0.65590126  0.13966370  1
  O  O35  1  0.13045327  0.33861152  0.12595848  1
  O  O36  1  0.22484318  0.63853549  0.67576411  1
  O  O37  1  0.27515682  0.13853549  0.82423589  1
  O  O38  1  0.24060482  0.45428166  0.42633109  1
  O  O39  1  0.25939518  0.95428166  0.07366891  1
  O  O40  1  0.36954673  0.83861152  0.37404152  1
  O  O41  1  0.46446762  0.69990634  0.89733903  1
  O  O42  1  0.39096061  0.15590126  0.36033630  1
  O  O43  1  0.48148581  0.46023887  0.76490574  1
  O  O44  1  0.51851419  0.53976113  0.23509426  1
  O  O45  1  0.60903939  0.84409874  0.63966370  1
  O  O46  1  0.53553238  0.30009366  0.10266097  1
  O  O47  1  0.63045327  0.16138848  0.62595848  1
  O  O48  1  0.74060482  0.04571834  0.92633109  1
  O  O49  1  0.75939518  0.54571834  0.57366891  1
  O  O50  1  0.72484318  0.86146451  0.17576411  1
  O  O51  1  0.77515682  0.36146451  0.32423589  1
  O  O52  1  0.86954673  0.66138848  0.87404152  1
  O  O53  1  0.89096061  0.34409874  0.86033630  1
  O  O54  1  0.96446762  0.80009366  0.39733903  1
  O  O55  1  0.98148581  0.03976113  0.26490574  1
