# generated using pymatgen
data_Na3V5O10
_symmetry_space_group_name_H-M   'P 1'
_cell_length_a   5.09543908
_cell_length_b   6.59713473
_cell_length_c   7.24786908
_cell_angle_alpha   108.80090034
_cell_angle_beta   97.29845977
_cell_angle_gamma   104.42814398
_symmetry_Int_Tables_number   1
_chemical_formula_structural   Na3V5O10
_chemical_formula_sum   'Na3 V5 O10'
_cell_volume   217.57826295
_cell_formula_units_Z   1
loop_
 _symmetry_equiv_pos_site_id
 _symmetry_equiv_pos_as_xyz
  1  'x, y, z'
loop_
 _atom_site_type_symbol
 _atom_site_label
 _atom_site_symmetry_multiplicity
 _atom_site_fract_x
 _atom_site_fract_y
 _atom_site_fract_z
 _atom_site_occupancy
  Na  Na0  1  0.79643836  0.09552266  0.59765964  1
  Na  Na1  1  0.60000000  0.70000000  0.20000000  1
  Na  Na2  1  0.40356164  0.30447734  0.80234036  1
  V  V3  1  0.81325660  0.60095004  0.60515750  1
  V  V4  1  0.60000000  0.20000000  0.20000000  1
  V  V5  1  0.38674340  0.79904996  0.79484250  1
  V  V6  1  0.20067483  0.40446613  0.39517435  1
  V  V7  1  0.99932517  0.99553387  0.00482565  1
  O  O8  1  0.88991341  0.08847230  0.27791299  1
  O  O9  1  0.68512836  0.10957243  0.92344186  1
  O  O10  1  0.69790744  0.68756120  0.87380460  1
  O  O11  1  0.88043483  0.50950739  0.32712781  1
  O  O12  1  0.51487164  0.29042757  0.47655814  1
  O  O13  1  0.50209256  0.71243880  0.52619540  1
  O  O14  1  0.31956517  0.89049261  0.07287219  1
  O  O15  1  0.10398967  0.47831351  0.67272108  1
  O  O16  1  0.31008659  0.31152770  0.12208701  1
  O  O17  1  0.09601033  0.92168649  0.72727892  1
