# generated using pymatgen
data_NaVPO5
_symmetry_space_group_name_H-M   'P 1'
_cell_length_a   6.35533401
_cell_length_b   6.35528147
_cell_length_c   10.53669239
_cell_angle_alpha   90.00000000
_cell_angle_beta   90.00000000
_cell_angle_gamma   90.00000000
_symmetry_Int_Tables_number   1
_chemical_formula_structural   NaVPO5
_chemical_formula_sum   'Na4 V4 P4 O20'
_cell_volume   425.57633623
_cell_formula_units_Z   4
loop_
 _symmetry_equiv_pos_site_id
 _symmetry_equiv_pos_as_xyz
  1  'x, y, z'
loop_
 _atom_site_type_symbol
 _atom_site_label
 _atom_site_symmetry_multiplicity
 _atom_site_fract_x
 _atom_site_fract_y
 _atom_site_fract_z
 _atom_site_occupancy
  Na  Na0  1  0.49198216  0.49168488  0.99634012  1
  Na  Na1  1  0.49198216  0.00831512  0.49634012  1
  Na  Na2  1  0.99198216  0.99168488  0.00365988  1
  Na  Na3  1  0.99198216  0.50831512  0.50365988  1
  V  V4  1  0.24740776  0.25104445  0.22166354  1
  V  V5  1  0.24740776  0.24895555  0.72166354  1
  V  V6  1  0.74740776  0.75104445  0.77833646  1
  V  V7  1  0.74740776  0.74895555  0.27833646  1
  P  P8  1  0.24819249  0.75020334  0.75002345  1
  P  P9  1  0.24819249  0.74979666  0.25002345  1
  P  P10  1  0.74819249  0.24979666  0.74997655  1
  P  P11  1  0.74819249  0.25020334  0.24997655  1
  O  O12  1  0.05042531  0.75533699  0.83657884  1
  O  O13  1  0.05042531  0.74466301  0.33657884  1
  O  O14  1  0.24623871  0.24704390  0.87784244  1
  O  O15  1  0.24623871  0.25295610  0.37784244  1
  O  O16  1  0.25286864  0.55337009  0.16235336  1
  O  O17  1  0.24373161  0.55192453  0.66386842  1
  O  O18  1  0.24373161  0.94807547  0.16386842  1
  O  O19  1  0.25286864  0.94662991  0.66235336  1
  O  O20  1  0.44515232  0.75384094  0.33727777  1
  O  O21  1  0.44515232  0.74615906  0.83727777  1
  O  O22  1  0.55042531  0.25533699  0.16342116  1
  O  O23  1  0.55042531  0.24466301  0.66342116  1
  O  O24  1  0.74373161  0.05192453  0.33613158  1
  O  O25  1  0.75286864  0.44662991  0.33764664  1
  O  O26  1  0.74623871  0.74704390  0.12215756  1
  O  O27  1  0.74623871  0.75295610  0.62215756  1
  O  O28  1  0.75286864  0.05337009  0.83764664  1
  O  O29  1  0.74373161  0.44807547  0.83613158  1
  O  O30  1  0.94515232  0.25384094  0.66272223  1
  O  O31  1  0.94515232  0.24615906  0.16272223  1
