# generated using pymatgen
data_Li4V3OF11
_symmetry_space_group_name_H-M   'P 1'
_cell_length_a   5.71975432
_cell_length_b   6.36868255
_cell_length_c   6.05018111
_cell_angle_alpha   100.67000758
_cell_angle_beta   97.15635580
_cell_angle_gamma   100.63600539
_symmetry_Int_Tables_number   1
_chemical_formula_structural   Li4V3OF11
_chemical_formula_sum   'Li4 V3 O1 F11'
_cell_volume   209.96510552
_cell_formula_units_Z   1
loop_
 _symmetry_equiv_pos_site_id
 _symmetry_equiv_pos_as_xyz
  1  'x, y, z'
loop_
 _atom_site_type_symbol
 _atom_site_label
 _atom_site_symmetry_multiplicity
 _atom_site_fract_x
 _atom_site_fract_y
 _atom_site_fract_z
 _atom_site_occupancy
  Li  Li0  1  0.12924230  0.56018378  0.33912628  1
  Li  Li1  1  0.60023668  0.31438328  0.14316697  1
  Li  Li2  1  0.31601552  0.14840921  0.60028782  1
  Li  Li3  1  0.84361860  0.38523307  0.63504326  1
  V  V4  1  0.69577582  0.86209216  0.38127032  1
  V  V5  1  0.41406011  0.66155197  0.85821231  1
  V  V6  1  0.99337274  0.01070486  0.00266750  1
  O  O7  1  0.67592771  0.87899704  0.05150817  1
  F  F8  1  0.06121551  0.95865807  0.32761245  1
  F  F9  1  0.09135257  0.72734034  0.89350994  1
  F  F10  1  0.43557011  0.80630573  0.58424986  1
  F  F11  1  0.40722587  0.59248552  0.17957678  1
  F  F12  1  0.18948182  0.41930727  0.60937833  1
  F  F13  1  0.81583194  0.59693489  0.42603937  1
  F  F14  1  0.31213816  0.13187414  0.94417498  1
  F  F15  1  0.61302658  0.44604090  0.82298517  1
  F  F16  1  0.58194683  0.15349206  0.40282418  1
  F  F17  1  0.94337992  0.30151288  0.11570781  1
  F  F18  1  0.88058122  0.04449283  0.68265952  1
