# generated using pymatgen
data_Li15Mn8P8(O4F)8
_symmetry_space_group_name_H-M   'P 1'
_cell_length_a   5.15563804
_cell_length_b   13.30190183
_cell_length_c   13.37522031
_cell_angle_alpha   58.30321242
_cell_angle_beta   89.28392066
_cell_angle_gamma   89.72108563
_symmetry_Int_Tables_number   1
_chemical_formula_structural   Li15Mn8P8(O4F)8
_chemical_formula_sum   'Li15 Mn8 P8 O32 F8'
_cell_volume   780.38786415
_cell_formula_units_Z   1
loop_
 _symmetry_equiv_pos_site_id
 _symmetry_equiv_pos_as_xyz
  1  'x, y, z'
loop_
 _atom_site_type_symbol
 _atom_site_label
 _atom_site_symmetry_multiplicity
 _atom_site_fract_x
 _atom_site_fract_y
 _atom_site_fract_z
 _atom_site_occupancy
  Li  Li0  1  0.72063757  0.18142783  0.17814567  1
  Li  Li1  1  0.21920230  0.32367086  0.08959804  1
  Li  Li2  1  0.72185017  0.17895295  0.41508419  1
  Li  Li3  1  0.21168076  0.31300319  0.31809146  1
  Li  Li4  1  0.70119751  0.16452387  0.67526163  1
  Li  Li5  1  0.79660179  0.67611476  0.17832950  1
  Li  Li6  1  0.21869818  0.32760794  0.82708735  1
  Li  Li7  1  0.77056590  0.41947394  0.67287569  1
  Li  Li8  1  0.23182451  0.58666089  0.32949698  1
  Li  Li9  1  0.72790736  0.90842875  0.16985894  1
  Li  Li10  1  0.29499859  0.82443863  0.32395774  1
  Li  Li11  1  0.77605956  0.68780099  0.68309662  1
  Li  Li12  1  0.26950215  0.82430626  0.59007020  1
  Li  Li13  1  0.76100635  0.67566297  0.91141361  1
  Li  Li14  1  0.27292674  0.83306412  0.83614893  1
  Mn  Mn15  1  0.75489819  0.40741108  0.17026715  1
  Mn  Mn16  1  0.77175278  0.66857426  0.40580218  1
  Mn  Mn17  1  0.23165098  0.59348390  0.83159269  1
  Mn  Mn18  1  0.72773851  0.91136138  0.66974243  1
  Mn  Mn19  1  0.26221762  0.08966117  0.33093126  1
  Mn  Mn20  1  0.22529912  0.32332954  0.60706664  1
  Mn  Mn21  1  0.73040417  0.17320923  0.88998945  1
  Mn  Mn22  1  0.27250719  0.83111067  0.09240415  1
  P  P23  1  0.22932118  0.08733288  0.07701333  1
  P  P24  1  0.22379748  0.08818440  0.58212408  1
  P  P25  1  0.26674407  0.58271496  0.08246715  1
  P  P26  1  0.71345797  0.41411492  0.42362178  1
  P  P27  1  0.28016626  0.58455515  0.58142114  1
  P  P28  1  0.72063137  0.41170693  0.91941006  1
  P  P29  1  0.77169739  0.91571249  0.41607578  1
  P  P30  1  0.78951161  0.91075498  0.91987329  1
  O  O31  1  0.93630675  0.07800420  0.05498916  1
  O  O32  1  0.66256198  0.04268424  0.34253424  1
  O  O33  1  0.25694190  0.14724954  0.14934077  1
  O  O34  1  0.91836092  0.08204697  0.58382142  1
  O  O35  1  0.32647205  0.14816488  0.45308902  1
  O  O36  1  0.82228876  0.34471890  0.04707464  1
  O  O37  1  0.70387706  0.04250710  0.85375322  1
  O  O38  1  0.32463703  0.16027696  0.63362703  1
  O  O39  1  0.75517698  0.35304852  0.35300963  1
  O  O40  1  0.15340912  0.45553183  0.14947897  1
  O  O41  1  0.56991387  0.57461779  0.07528362  1
  O  O42  1  0.84098200  0.33809763  0.54564844  1
  O  O43  1  0.41519234  0.42642414  0.44031859  1
  O  O44  1  0.37805398  0.16709197  0.95840280  1
  O  O45  1  0.19020768  0.64560999  0.14834803  1
  O  O46  1  0.83828419  0.53954964  0.35488440  1
  O  O47  1  0.15310755  0.45946417  0.64734702  1
  O  O48  1  0.81227694  0.34474673  0.85847885  1
  O  O49  1  0.58055429  0.57229232  0.57348185  1
  O  O50  1  0.66870899  0.84274706  0.04578535  1
  O  O51  1  0.16739013  0.65872889  0.45599378  1
  O  O52  1  0.41679996  0.42148201  0.91872502  1
  O  O53  1  0.83732275  0.53832990  0.85086314  1
  O  O54  1  0.21861358  0.64745141  0.64889699  1
  O  O55  1  0.34994072  0.96151771  0.14465414  1
  O  O56  1  0.68824708  0.84652580  0.35767552  1
  O  O57  1  0.15648808  0.65218928  0.95537767  1
  O  O58  1  0.65847809  0.85363387  0.54334729  1
  O  O59  1  0.07524298  0.92153174  0.42069127  1
  O  O60  1  0.68619394  0.85371362  0.85204501  1
  O  O61  1  0.33023569  0.96023788  0.65416849  1
  O  O62  1  0.08879240  0.89699892  0.92958888  1
  F  F63  1  0.96908459  0.22486470  0.27919438  1
  F  F64  1  0.46867483  0.27338459  0.22427379  1
  F  F65  1  0.02385649  0.22756028  0.77451932  1
  F  F66  1  0.52989506  0.28994155  0.72644144  1
  F  F67  1  0.47786680  0.72093684  0.27019119  1
  F  F68  1  0.97994102  0.78037418  0.22841530  1
  F  F69  1  0.52298183  0.72302379  0.77361196  1
  F  F70  1  0.01487227  0.77734353  0.72231826  1
