# generated using pymatgen
data_Li5V3P8O29
_symmetry_space_group_name_H-M   'P 1'
_cell_length_a   9.80636766
_cell_length_b   9.76547356
_cell_length_c   14.13227788
_cell_angle_alpha   89.23978608
_cell_angle_beta   89.34733056
_cell_angle_gamma   59.62827023
_symmetry_Int_Tables_number   1
_chemical_formula_structural   Li5V3P8O29
_chemical_formula_sum   'Li10 V6 P16 O58'
_cell_volume   1167.51012843
_cell_formula_units_Z   2
loop_
 _symmetry_equiv_pos_site_id
 _symmetry_equiv_pos_as_xyz
  1  'x, y, z'
loop_
 _atom_site_type_symbol
 _atom_site_label
 _atom_site_symmetry_multiplicity
 _atom_site_fract_x
 _atom_site_fract_y
 _atom_site_fract_z
 _atom_site_occupancy
  Li  Li0  1  0.90165194  0.76311405  0.06278602  1
  Li  Li1  1  0.75597365  0.90001021  0.56063655  1
  Li  Li2  1  0.90037681  0.32973892  0.55746612  1
  Li  Li3  1  0.76113803  0.33687054  0.05853793  1
  Li  Li4  1  0.33765915  0.89879165  0.05689311  1
  Li  Li5  1  0.33300129  0.75895853  0.56123679  1
  Li  Li6  1  0.23353537  0.09389230  0.43867779  1
  Li  Li7  1  0.09599364  0.23560783  0.93892100  1
  Li  Li8  1  0.97541210  0.97773822  0.99520274  1
  Li  Li9  1  0.96172479  0.98982140  0.49689707  1
  V  V10  1  0.56429872  0.43475703  0.25324035  1
  V  V11  1  0.43797484  0.55910770  0.75318939  1
  V  V12  1  0.56493374  0.00329347  0.75230829  1
  V  V13  1  0.43813135  0.99889014  0.24825588  1
  V  V14  1  0.00162117  0.56766953  0.24951605  1
  V  V15  1  0.99805628  0.43885197  0.74492023  1
  P  P16  1  0.91219017  0.77425208  0.84468874  1
  P  P17  1  0.77203523  0.91359135  0.34388392  1
  P  P18  1  0.91281463  0.31104549  0.33970580  1
  P  P19  1  0.66760758  0.66416762  0.13041966  1
  P  P20  1  0.66116133  0.67136659  0.63118847  1
  P  P21  1  0.77783715  0.30956341  0.84384972  1
  P  P22  1  0.69895497  0.21899775  0.66138677  1
  P  P23  1  0.31214083  0.91160873  0.84000538  1
  P  P24  1  0.69555515  0.08715367  0.16152658  1
  P  P25  1  0.30994880  0.77534148  0.34572973  1
  P  P26  1  0.22210149  0.69790688  0.16112767  1
  P  P27  1  0.33049238  0.33379235  0.36675818  1
  P  P28  1  0.33031365  0.33129162  0.86813975  1
  P  P29  1  0.08407650  0.69928434  0.66155468  1
  P  P30  1  0.22868970  0.08787626  0.65647483  1
  P  P31  1  0.08850993  0.22781233  0.15773150  1
  O  O32  1  0.98467315  0.80489763  0.58245271  1
  O  O33  1  0.91077626  0.74346849  0.32872655  1
  O  O34  1  0.80610672  0.99330113  0.08306344  1
  O  O35  1  0.74066085  0.91686079  0.82900773  1
  O  O36  1  0.91407727  0.61847055  0.83180692  1
  O  O37  1  0.81262973  0.67478490  0.16507727  1
  O  O38  1  0.91258210  0.46609856  0.32918911  1
  O  O39  1  0.00207365  0.23015444  0.06939944  1
  O  O40  1  0.92160381  0.33603375  0.83071441  1
  O  O41  1  0.67042242  0.81528915  0.67416208  1
  O  O42  1  0.61503168  0.91573659  0.32978247  1
  O  O43  1  0.80915242  0.51365865  0.66739735  1
  O  O44  1  0.66336755  0.65329801  0.02505531  1
  O  O45  1  0.65909423  0.68245686  0.52557334  1
  O  O46  1  0.67702371  0.51124085  0.17767895  1
  O  O47  1  0.46924545  0.91388276  0.82545848  1
  O  O48  1  0.51266722  0.81087439  0.16968391  1
  O  O49  1  0.74295893  0.33761004  0.33420211  1
  O  O50  1  0.79347838  0.19225635  0.76003655  1
  O  O51  1  0.80959680  0.19734822  0.58110148  1
  O  O52  1  0.79356728  0.22748405  0.93688024  1
  O  O53  1  0.62395297  0.46887091  0.83015809  1
  O  O54  1  0.50942033  0.67691095  0.67247721  1
  O  O55  1  0.66076512  0.26180056  0.15945712  1
  O  O56  1  0.46905853  0.61722341  0.32863596  1
  O  O57  1  0.33652102  0.91853207  0.33661011  1
  O  O58  1  0.78794844  0.01809744  0.26090221  1
  O  O59  1  0.78472515  0.97812934  0.43681235  1
  O  O60  1  0.23466357  0.99836038  0.56898075  1
  O  O61  1  0.65999883  0.08240248  0.66025680  1
  O  O62  1  0.54664682  0.38063092  0.66703514  1
  O  O63  1  0.34285818  0.74360385  0.83865515  1
  O  O64  1  0.48146114  0.33101456  0.31798352  1
  O  O65  1  0.38392928  0.54216649  0.17209255  1
  O  O66  1  0.21009340  0.80380680  0.08021502  1
  O  O67  1  0.23136716  0.78138645  0.43804607  1
  O  O68  1  0.19683882  0.79237018  0.25975302  1
  O  O69  1  0.25539724  0.66187605  0.65840419  1
  O  O70  1  0.48119561  0.18571233  0.81917211  1
  O  O71  1  0.54195474  0.08285588  0.16863068  1
  O  O72  1  0.33195441  0.47809215  0.82214969  1
  O  O73  1  0.33996414  0.31888995  0.97261684  1
  O  O74  1  0.33974946  0.32806758  0.47160468  1
  O  O75  1  0.19019289  0.48305030  0.32253384  1
  O  O76  1  0.38307962  0.08998731  0.67236773  1
  O  O77  1  0.32571012  0.18649559  0.32656500  1
  O  O78  1  0.08483511  0.66326362  0.15824860  1
  O  O79  1  0.01415361  0.79155802  0.76068635  1
  O  O80  1  0.97310965  0.79376331  0.93682234  1
  O  O81  1  0.07863957  0.54247046  0.67140702  1
  O  O82  1  0.18560389  0.32615981  0.82838160  1
  O  O83  1  0.08822577  0.38342617  0.17221514  1
  O  O84  1  0.25947941  0.08418179  0.15776599  1
  O  O85  1  0.22701004  0.00118512  0.92828944  1
  O  O86  1  0.20362153  0.00361888  0.74879405  1
  O  O87  1  0.08396995  0.25799484  0.65404688  1
  O  O88  1  0.99498344  0.21773700  0.42843508  1
  O  O89  1  0.00381312  0.20075542  0.24906715  1
