# generated using pymatgen
data_Li6NiOF6
_symmetry_space_group_name_H-M   'P 1'
_cell_length_a   2.90488956
_cell_length_b   2.90488956
_cell_length_c   14.59230193
_cell_angle_alpha   95.71239439
_cell_angle_beta   95.71239439
_cell_angle_gamma   90.00000000
_symmetry_Int_Tables_number   1
_chemical_formula_structural   Li6NiOF6
_chemical_formula_sum   'Li6 Ni1 O1 F6'
_cell_volume   121.90940501
_cell_formula_units_Z   1
loop_
 _symmetry_equiv_pos_site_id
 _symmetry_equiv_pos_as_xyz
  1  'x, y, z'
loop_
 _atom_site_type_symbol
 _atom_site_label
 _atom_site_symmetry_multiplicity
 _atom_site_fract_x
 _atom_site_fract_y
 _atom_site_fract_z
 _atom_site_occupancy
  Li  Li0  1  0.57274114  0.57274114  0.14548228  1
  Li  Li1  1  0.14476572  0.14476572  0.28953045  1
  Li  Li2  1  0.71461757  0.71461757  0.42923613  1
  Li  Li3  1  0.28538243  0.28538243  0.57076387  1
  Li  Li4  1  0.85523428  0.85523428  0.71046955  1
  Li  Li5  1  0.42725886  0.42725886  0.85451772  1
  Ni  Ni6  1  0.00000000  0.00000000  0.00000000  1
  O  O7  1  0.50000000  0.50000000  0.00000000  1
  F  F8  1  0.07480177  0.07480177  0.14960254  1
  F  F9  1  0.64438014  0.64438014  0.28876028  1
  F  F10  1  0.21476816  0.21476816  0.42953631  1
  F  F11  1  0.78523184  0.78523184  0.57046369  1
  F  F12  1  0.35561986  0.35561986  0.71123972  1
  F  F13  1  0.92519823  0.92519823  0.85039746  1
