# generated using pymatgen
data_Li4Mn2V3O12
_symmetry_space_group_name_H-M   'P 1'
_cell_length_a   9.06058531
_cell_length_b   9.27184570
_cell_length_c   12.55746618
_cell_angle_alpha   90.00000000
_cell_angle_beta   88.69260332
_cell_angle_gamma   90.00000000
_symmetry_Int_Tables_number   1
_chemical_formula_structural   Li4Mn2V3O12
_chemical_formula_sum   'Li16 Mn8 V12 O48'
_cell_volume   1054.65737195
_cell_formula_units_Z   4
loop_
 _symmetry_equiv_pos_site_id
 _symmetry_equiv_pos_as_xyz
  1  'x, y, z'
loop_
 _atom_site_type_symbol
 _atom_site_label
 _atom_site_symmetry_multiplicity
 _atom_site_fract_x
 _atom_site_fract_y
 _atom_site_fract_z
 _atom_site_occupancy
  Li  Li0  1  0.93166181  0.08062035  0.69891262  1
  Li  Li1  1  0.93244801  0.51587653  0.35106113  1
  Li  Li2  1  0.89040281  0.67185811  0.96367546  1
  Li  Li3  1  0.81061407  0.77517148  0.18901810  1
  Li  Li4  1  0.68934227  0.27515870  0.31098340  1
  Li  Li5  1  0.60958967  0.17187794  0.53630405  1
  Li  Li6  1  0.56834996  0.58061859  0.80105960  1
  Li  Li7  1  0.56754662  0.01589347  0.14893557  1
  Li  Li8  1  0.43244801  0.98412347  0.85106113  1
  Li  Li9  1  0.43166181  0.41937965  0.19891262  1
  Li  Li10  1  0.39040281  0.82814189  0.46367546  1
  Li  Li11  1  0.31061407  0.72482852  0.68901810  1
  Li  Li12  1  0.18934227  0.22484230  0.81098340  1
  Li  Li13  1  0.10958967  0.32812206  0.03630405  1
  Li  Li14  1  0.06754662  0.48410653  0.64893557  1
  Li  Li15  1  0.06834996  0.91938141  0.30105960  1
  Mn  Mn16  1  0.74627411  0.02395311  0.88957409  1
  Mn  Mn17  1  0.75367339  0.52396893  0.61046000  1
  Mn  Mn18  1  0.24627411  0.47604689  0.38957409  1
  Mn  Mn19  1  0.25367339  0.97603107  0.11046000  1
  Mn  Mn20  1  0.74988432  0.96334723  0.38299278  1
  Mn  Mn21  1  0.75023453  0.46341639  0.11709744  1
  Mn  Mn22  1  0.24988432  0.53665277  0.88299278  1
  Mn  Mn23  1  0.25023453  0.03658361  0.61709744  1
  V  V24  1  0.94957194  0.25180362  0.49054369  1
  V  V25  1  0.88392652  0.37420863  0.84292205  1
  V  V26  1  0.88770362  0.11130072  0.13842638  1
  V  V27  1  0.61607335  0.87421938  0.65707153  1
  V  V28  1  0.61230465  0.61132016  0.36157503  1
  V  V29  1  0.55044031  0.75181269  0.00948815  1
  V  V30  1  0.44957194  0.24819638  0.99054369  1
  V  V31  1  0.38770362  0.38869928  0.63842638  1
  V  V32  1  0.38392652  0.12579137  0.34292205  1
  V  V33  1  0.11230465  0.88867984  0.86157503  1
  V  V34  1  0.11607335  0.62578062  0.15707153  1
  V  V35  1  0.05044031  0.74818731  0.50948815  1
  O  O36  1  0.95274653  0.66105159  0.60852571  1
  O  O37  1  0.93526480  0.86781041  0.91231278  1
  O  O38  1  0.95255688  0.87661518  0.44105719  1
  O  O39  1  0.93587666  0.58990824  0.20176546  1
  O  O40  1  0.89567680  0.37232880  0.59430815  1
  O  O41  1  0.86860592  0.18416645  0.84138400  1
  O  O42  1  0.87565164  0.43352624  0.97252748  1
  O  O43  1  0.88236648  0.97884049  0.23844489  1
  O  O44  1  0.82990991  0.27445900  0.19201644  1
  O  O45  1  0.78455418  0.18230985  0.43892038  1
  O  O46  1  0.75590798  0.47627372  0.77051362  1
  O  O47  1  0.75198752  0.05519671  0.04728053  1
  O  O48  1  0.74407406  0.97625525  0.72948776  1
  O  O49  1  0.74800272  0.55520185  0.45271795  1
  O  O50  1  0.71545098  0.68231965  0.06107260  1
  O  O51  1  0.67009770  0.77449153  0.30799789  1
  O  O52  1  0.62433437  0.93353999  0.52746103  1
  O  O53  1  0.61762646  0.47889038  0.26154039  1
  O  O54  1  0.63135240  0.68420268  0.65861243  1
  O  O55  1  0.60432670  0.87229674  0.90567120  1
  O  O56  1  0.56472458  0.36783400  0.58768012  1
  O  O57  1  0.54728881  0.16102061  0.89143957  1
  O  O58  1  0.56411373  0.08989512  0.29823916  1
  O  O59  1  0.54747220  0.37656642  0.05891920  1
  O  O60  1  0.45255688  0.62338482  0.94105719  1
  O  O61  1  0.43587666  0.91009176  0.70176546  1
  O  O62  1  0.45274653  0.83894841  0.10852571  1
  O  O63  1  0.43526480  0.63218959  0.41231278  1
  O  O64  1  0.39567680  0.12767120  0.09430815  1
  O  O65  1  0.36860592  0.31583355  0.34138400  1
  O  O66  1  0.38236648  0.52115951  0.73844489  1
  O  O67  1  0.37565164  0.06647376  0.47252748  1
  O  O68  1  0.32990991  0.22554100  0.69201644  1
  O  O69  1  0.28455418  0.31769015  0.93892038  1
  O  O70  1  0.25198752  0.44480329  0.54728053  1
  O  O71  1  0.25590798  0.02372628  0.27051362  1
  O  O72  1  0.24800272  0.94479815  0.95271795  1
  O  O73  1  0.24407406  0.52374475  0.22948776  1
  O  O74  1  0.21545098  0.81768035  0.56107260  1
  O  O75  1  0.17009770  0.72550847  0.80799789  1
  O  O76  1  0.11762646  0.02110962  0.76154039  1
  O  O77  1  0.12433437  0.56646001  0.02746103  1
  O  O78  1  0.13135240  0.81579732  0.15861143  1
  O  O79  1  0.10432670  0.62770326  0.40567120  1
  O  O80  1  0.06411373  0.41010488  0.79823916  1
  O  O81  1  0.04747220  0.12343358  0.55891920  1
  O  O82  1  0.06472458  0.13216600  0.08768012  1
  O  O83  1  0.04728881  0.33897939  0.39143957  1
