# generated using pymatgen
data_Li2MnCu(PO4)2
_symmetry_space_group_name_H-M   'P 1'
_cell_length_a   10.27759821
_cell_length_b   6.14662145
_cell_length_c   4.77635724
_cell_angle_alpha   90.00000000
_cell_angle_beta   91.96905155
_cell_angle_gamma   90.00000000
_symmetry_Int_Tables_number   1
_chemical_formula_structural   Li2MnCu(PO4)2
_chemical_formula_sum   'Li4 Mn2 Cu2 P4 O16'
_cell_volume   301.55629011
_cell_formula_units_Z   2
loop_
 _symmetry_equiv_pos_site_id
 _symmetry_equiv_pos_as_xyz
  1  'x, y, z'
loop_
 _atom_site_type_symbol
 _atom_site_label
 _atom_site_symmetry_multiplicity
 _atom_site_fract_x
 _atom_site_fract_y
 _atom_site_fract_z
 _atom_site_occupancy
  Li  Li0  1  0.00000000  0.00000000  0.00000000  1
  Li  Li1  1  0.00000000  0.50000000  0.00000000  1
  Li  Li2  1  0.50000000  0.00000000  0.50000000  1
  Li  Li3  1  0.50000000  0.50000000  0.50000000  1
  Mn  Mn4  1  0.21894507  0.75000000  0.47936956  1
  Mn  Mn5  1  0.78105493  0.25000000  0.52063044  1
  Cu  Cu6  1  0.28526914  0.25000000  0.94592793  1
  Cu  Cu7  1  0.71473086  0.75000000  0.05407207  1
  P  P8  1  0.09922332  0.25000000  0.41161074  1
  P  P9  1  0.41179865  0.75000000  0.92519941  1
  P  P10  1  0.58820135  0.25000000  0.07480059  1
  P  P11  1  0.90077668  0.75000000  0.58838926  1
  O  O12  1  0.04376892  0.75000000  0.70812101  1
  O  O13  1  0.10745166  0.25000000  0.73764002  1
  O  O14  1  0.16506060  0.04555381  0.28269464  1
  O  O15  1  0.16506060  0.45444619  0.28269464  1
  O  O16  1  0.33982551  0.55001027  0.78361560  1
  O  O17  1  0.33982551  0.94998973  0.78361560  1
  O  O18  1  0.40946888  0.75000000  0.24574052  1
  O  O19  1  0.44737084  0.25000000  0.18980350  1
  O  O20  1  0.55262916  0.75000000  0.81019650  1
  O  O21  1  0.59053112  0.25000000  0.75425948  1
  O  O22  1  0.66017449  0.05001027  0.21638440  1
  O  O23  1  0.66017449  0.44998973  0.21638440  1
  O  O24  1  0.83493940  0.54555381  0.71730536  1
  O  O25  1  0.83493940  0.95444619  0.71730536  1
  O  O26  1  0.89254834  0.75000000  0.26235998  1
  O  O27  1  0.95623108  0.25000000  0.29187899  1
