# generated using pymatgen
data_ZnAs2C6S12N12(OF2)6
_symmetry_space_group_name_H-M   'P 1'
_cell_length_a   12.13840469
_cell_length_b   12.13840438
_cell_length_c   6.86264646
_cell_angle_alpha   90.00000000
_cell_angle_beta   90.00000000
_cell_angle_gamma   120.00000081
_symmetry_Int_Tables_number   1
_chemical_formula_structural   ZnAs2C6S12N12(OF2)6
_chemical_formula_sum   'Zn1 As2 C6 S12 N12 O6 F12'
_cell_volume   875.68007592
_cell_formula_units_Z   1
loop_
 _symmetry_equiv_pos_site_id
 _symmetry_equiv_pos_as_xyz
  1  'x, y, z'
loop_
 _atom_site_type_symbol
 _atom_site_label
 _atom_site_symmetry_multiplicity
 _atom_site_fract_x
 _atom_site_fract_y
 _atom_site_fract_z
 _atom_site_occupancy
  Zn  Zn0  1  0.00000000  0.00000000  0.50000000  1
  As  As1  1  0.66666700  0.33333300  0.54278762  1
  As  As2  1  0.33333300  0.66666700  0.45721238  1
  C  C3  1  0.24292970  0.08317760  0.75677669  1
  C  C4  1  0.75707030  0.91682240  0.24322331  1
  C  C5  1  0.15975210  0.24292970  0.24322331  1
  C  C6  1  0.08317760  0.84024790  0.24322331  1
  C  C7  1  0.91682240  0.15975210  0.75677669  1
  C  C8  1  0.84024790  0.75707030  0.75677669  1
  S  S9  1  0.30843253  0.39983852  1.00406179  1
  S  S10  1  0.39983852  0.09140600  -0.00406179  1
  S  S11  1  0.29951074  0.98125531  0.65618230  1
  S  S12  1  0.31825544  0.29951074  0.34381770  1
  S  S13  1  0.09140600  0.69156747  1.00406179  1
  S  S14  1  0.98125531  0.68174456  0.34381770  1
  S  S15  1  0.01874469  0.31825544  0.65618230  1
  S  S16  1  0.90859400  0.30843253  -0.00406179  1
  S  S17  1  0.70048926  0.01874469  0.34381770  1
  S  S18  1  0.68174456  0.70048926  0.65618230  1
  S  S19  1  0.60016148  0.90859400  1.00406179  1
  S  S20  1  0.69156747  0.60016148  -0.00406179  1
  N  N21  1  0.60141658  0.60232174  0.82944154  1
  N  N22  1  0.16774025  0.30130334  0.07141602  1
  N  N23  1  0.83225975  0.69869666  0.92858398  1
  N  N24  1  0.39858342  0.39767826  0.17055846  1
  N  N25  1  0.86643691  0.16774025  0.92858398  1
  N  N26  1  0.13356309  0.83225975  0.07141602  1
  N  N27  1  0.60232174  0.00090516  0.17055846  1
  N  N28  1  0.30130334  0.13356309  0.92858398  1
  N  N29  1  0.69869666  0.86643691  0.07141602  1
  N  N30  1  0.99909484  0.60141658  0.17055846  1
  N  N31  1  0.00090516  0.39858342  0.82944154  1
  N  N32  1  0.39767826  0.99909484  0.82944154  1
  O  O33  1  0.89473263  0.05865548  0.67440389  1
  O  O34  1  0.10526737  0.94134452  0.32559611  1
  O  O35  1  0.05865548  0.16392285  0.32559611  1
  O  O36  1  0.83607715  0.89473263  0.32559611  1
  O  O37  1  0.94134452  0.83607715  0.67440389  1
  O  O38  1  0.16392285  0.10526737  0.67440389  1
  F  F39  1  0.44684268  0.79171741  0.60587477  1
  F  F40  1  0.65512527  0.44684268  0.39412523  1
  F  F41  1  0.54118459  0.32035242  0.69295906  1
  F  F42  1  0.20828259  0.65512527  0.60587477  1
  F  F43  1  0.67964758  0.22083217  0.69295906  1
  F  F44  1  0.45881541  0.67964758  0.30704094  1
  F  F45  1  0.22083217  0.54118459  0.30704094  1
  F  F46  1  0.55315732  0.20828259  0.39412523  1
  F  F47  1  0.77916783  0.45881541  0.69295906  1
  F  F48  1  0.32035242  0.77916783  0.30704094  1
  F  F49  1  0.79171741  0.34487473  0.39412523  1
  F  F50  1  0.34487473  0.55315732  0.60587477  1
