# generated using pymatgen
data_Sr5U5O19
_symmetry_space_group_name_H-M   'P 1'
_cell_length_a   4.01337657
_cell_length_b   6.67464549
_cell_length_c   17.20274396
_cell_angle_alpha   100.48944546
_cell_angle_beta   90.00000253
_cell_angle_gamma   107.49625076
_symmetry_Int_Tables_number   1
_chemical_formula_structural   Sr5U5O19
_chemical_formula_sum   'Sr5 U5 O19'
_cell_volume   431.42400295
_cell_formula_units_Z   1
loop_
 _symmetry_equiv_pos_site_id
 _symmetry_equiv_pos_as_xyz
  1  'x, y, z'
loop_
 _atom_site_type_symbol
 _atom_site_label
 _atom_site_symmetry_multiplicity
 _atom_site_fract_x
 _atom_site_fract_y
 _atom_site_fract_z
 _atom_site_occupancy
  Sr  Sr0  1  0.90044053  0.80088006  0.30066667  1
  Sr  Sr1  1  0.28618491  0.57237081  0.09879668  1
  Sr  Sr2  1  0.70805318  0.41610635  0.89981814  1
  Sr  Sr3  1  0.09867502  0.19735104  0.69898395  1
  Sr  Sr4  1  0.50057018  0.00114136  0.50066802  1
  U  U5  1  0.79910209  0.59820518  0.59903017  1
  U  U6  1  0.39660628  0.79321257  0.79329674  1
  U  U7  1  0.20311780  0.40623659  0.40376533  1
  U  U8  1  0.60318465  0.20636931  0.21087108  1
  U  U9  1  0.00159339  0.00318777  0.99142177  1
  O  O10  1  0.44827051  0.89654001  0.21584596  1
  O  O11  1  0.85723630  0.71447161  0.02739762  1
  O  O12  1  0.94807204  0.89614407  0.57761742  1
  O  O13  1  0.50431552  0.00863204  0.95116976  1
  O  O14  1  0.90196998  0.80393996  0.72527603  1
  O  O15  1  0.35070059  0.70140118  0.37873741  1
  O  O16  1  0.74674823  0.49349647  0.17968099  1
  O  O17  1  0.90370027  0.80740055  0.87126036  1
  O  O18  1  0.30343196  0.60686391  0.52762917  1
  O  O19  1  0.70455278  0.40910555  0.33008097  1
  O  O20  1  0.29593507  0.59187013  0.67094448  1
  O  O21  1  0.69766869  0.39533637  0.47405877  1
  O  O22  1  0.08300146  0.16600291  0.11504619  1
  O  O23  1  0.65062719  0.30125538  0.62246604  1
  O  O24  1  0.25119190  0.50238479  0.81847772  1
  O  O25  1  0.09790228  0.19580557  0.27113571  1
  O  O26  1  0.05284589  0.10569077  0.42206335  1
  O  O27  1  0.15434261  0.30868521  0.97031243  1
  O  O28  1  0.54863772  0.09727445  0.78224008  1
