# generated using pymatgen
data_K2UH6C2SO13
_symmetry_space_group_name_H-M   'P 1'
_cell_length_a   5.83684105
_cell_length_b   9.63432459
_cell_length_c   11.94603424
_cell_angle_alpha   89.54877412
_cell_angle_beta   85.93488163
_cell_angle_gamma   82.48274238
_symmetry_Int_Tables_number   1
_chemical_formula_structural   K2UH6C2SO13
_chemical_formula_sum   'K4 U2 H12 C4 S2 O26'
_cell_volume   664.32375037
_cell_formula_units_Z   2
loop_
 _symmetry_equiv_pos_site_id
 _symmetry_equiv_pos_as_xyz
  1  'x, y, z'
loop_
 _atom_site_type_symbol
 _atom_site_label
 _atom_site_symmetry_multiplicity
 _atom_site_fract_x
 _atom_site_fract_y
 _atom_site_fract_z
 _atom_site_occupancy
  K  K0  1  0.25322413  0.48187475  0.35632608  1
  K  K1  1  0.20814354  0.85255587  0.56614532  1
  K  K2  1  0.79185646  0.14744413  0.43385468  1
  K  K3  1  0.74677587  0.51812525  0.64367392  1
  U  U4  1  0.22965274  0.26452932  0.89924126  1
  U  U5  1  0.77034726  0.73547068  0.10075874  1
  H  H6  1  0.99236665  0.72226550  0.81014370  1
  H  H7  1  0.15749263  0.95777407  0.27023543  1
  H  H8  1  0.34518646  0.15079395  0.29420219  1
  H  H9  1  0.18217953  0.59760635  0.77805778  1
  H  H10  1  0.50370027  0.22055408  0.20478274  1
  H  H11  1  0.37046908  0.94987955  0.34490394  1
  H  H12  1  0.62953092  0.05012045  0.65509606  1
  H  H13  1  0.49629973  0.77944592  0.79521726  1
  H  H14  1  0.81782047  0.40239365  0.22194222  1
  H  H15  1  0.65481354  0.84920605  0.70579781  1
  H  H16  1  0.84250737  0.04222593  0.72976457  1
  H  H17  1  0.00763335  0.27773450  0.18985630  1
  C  C18  1  0.02875406  0.01910505  0.05956772  1
  C  C19  1  0.50022596  0.46138159  0.05642007  1
  C  C20  1  0.49977404  0.53861841  0.94357993  1
  C  C21  1  0.97124594  0.98089495  0.94043228  1
  S  S22  1  0.26651088  0.26869013  0.59668234  1
  S  S23  1  0.73348912  0.73130987  0.40331766  1
  O  O24  1  0.13088884  0.12611378  0.06857452  1
  O  O25  1  0.04469452  0.63213201  0.06173669  1
  O  O26  1  0.03298690  0.05963337  0.86123159  1
  O  O27  1  0.07067951  0.30915112  0.52650967  1
  O  O28  1  0.06271045  0.66466377  0.74649035  1
  O  O29  1  0.17148981  0.31223991  0.71817281  1
  O  O30  1  0.34126898  0.11602693  0.59666550  1
  O  O31  1  0.21333053  0.99946011  0.33628528  1
  O  O32  1  0.41439771  0.34754395  0.06100036  1
  O  O33  1  0.46504585  0.21486982  0.28543702  1
  O  O34  1  0.46203234  0.34710686  0.56562256  1
  O  O35  1  0.41239633  0.48169648  0.86370083  1
  O  O36  1  0.50254459  0.15744031  0.86277750  1
  O  O37  1  0.49745541  0.84255969  0.13722250  1
  O  O38  1  0.58760367  0.51830352  0.13629917  1
  O  O39  1  0.53796766  0.65289314  0.43437744  1
  O  O40  1  0.53495415  0.78513018  0.71456298  1
  O  O41  1  0.58560229  0.65245605  0.93899964  1
  O  O42  1  0.78666947  0.00053989  0.66371472  1
  O  O43  1  0.65873102  0.88397307  0.40333450  1
  O  O44  1  0.82851019  0.68776009  0.28182719  1
  O  O45  1  0.93728955  0.33533623  0.25350965  1
  O  O46  1  0.92932049  0.69084888  0.47349033  1
  O  O47  1  0.96701310  0.94036663  0.13876841  1
  O  O48  1  0.95530548  0.36786799  0.93826331  1
  O  O49  1  0.86911116  0.87388622  0.93142548  1
