# generated using pymatgen
data_Li3Fe(Si2O5)3
_symmetry_space_group_name_H-M   'P 1'
_cell_length_a   11.14834399
_cell_length_b   11.14834399
_cell_length_c   10.15298854
_cell_angle_alpha   90.00000000
_cell_angle_beta   90.00000000
_cell_angle_gamma   80.13206398
_symmetry_Int_Tables_number   1
_chemical_formula_structural   Li3Fe(Si2O5)3
_chemical_formula_sum   'Li12 Fe4 Si24 O60'
_cell_volume   1243.20112661
_cell_formula_units_Z   4
loop_
 _symmetry_equiv_pos_site_id
 _symmetry_equiv_pos_as_xyz
  1  'x, y, z'
loop_
 _atom_site_type_symbol
 _atom_site_label
 _atom_site_symmetry_multiplicity
 _atom_site_fract_x
 _atom_site_fract_y
 _atom_site_fract_z
 _atom_site_occupancy
  Li  Li0  1  0.24058708  0.75941292  0.00000000  1
  Li  Li1  1  0.48702540  0.98702540  0.25000000  1
  Li  Li2  1  0.01297460  0.51297460  0.75000000  1
  Li  Li3  1  0.25941292  0.74058708  0.50000000  1
  Li  Li4  1  0.43217515  0.43217515  0.28327101  1
  Li  Li5  1  0.56782485  0.56782485  0.71672899  1
  Li  Li6  1  0.06782485  0.06782485  0.78327101  1
  Li  Li7  1  0.93217515  0.93217515  0.21672899  1
  Li  Li8  1  0.74058708  0.25941292  0.50000000  1
  Li  Li9  1  0.51297460  0.01297460  0.75000000  1
  Li  Li10  1  0.98702540  0.48702540  0.25000000  1
  Li  Li11  1  0.75941292  0.24058708  0.00000000  1
  Fe  Fe12  1  0.15862302  0.65862302  0.25000000  1
  Fe  Fe13  1  0.34137698  0.84137698  0.75000000  1
  Fe  Fe14  1  0.84137698  0.34137698  0.75000000  1
  Fe  Fe15  1  0.65862302  0.15862302  0.25000000  1
  Si  Si16  1  0.18431430  0.95856302  0.19428417  1
  Si  Si17  1  0.04143698  0.81568570  0.80571583  1
  Si  Si18  1  0.31568570  0.54143698  0.69428417  1
  Si  Si19  1  0.45856302  0.68431430  0.30571583  1
  Si  Si20  1  0.76367938  0.98009235  0.51377130  1
  Si  Si21  1  0.01990765  0.23632062  0.48622870  1
  Si  Si22  1  0.26367938  0.48009235  0.98622870  1
  Si  Si23  1  0.51990765  0.73632062  0.01377130  1
  Si  Si24  1  0.70340142  0.91922178  0.04686293  1
  Si  Si25  1  0.20340142  0.41922178  0.45313707  1
  Si  Si26  1  0.08077822  0.29659858  0.95313707  1
  Si  Si27  1  0.58077822  0.79659858  0.54686293  1
  Si  Si28  1  0.41922178  0.20340142  0.45313707  1
  Si  Si29  1  0.91922178  0.70340142  0.04686293  1
  Si  Si30  1  0.29659858  0.08077822  0.95313707  1
  Si  Si31  1  0.79659858  0.58077822  0.54686293  1
  Si  Si32  1  0.73632062  0.51990765  0.01377130  1
  Si  Si33  1  0.23632062  0.01990765  0.48622870  1
  Si  Si34  1  0.98009235  0.76367938  0.51377130  1
  Si  Si35  1  0.48009235  0.26367938  0.98622870  1
  Si  Si36  1  0.54143698  0.31568570  0.69428417  1
  Si  Si37  1  0.68431430  0.45856302  0.30571583  1
  Si  Si38  1  0.95856302  0.18431430  0.19428417  1
  Si  Si39  1  0.81568570  0.04143698  0.80571583  1
  O  O40  1  0.27237365  0.99444569  0.07754758  1
  O  O41  1  0.00555431  0.72762635  0.92245242  1
  O  O42  1  0.25831047  0.97464851  0.33095213  1
  O  O43  1  0.02535149  0.74168953  0.66904787  1
  O  O44  1  0.14967091  0.82705208  0.16582917  1
  O  O45  1  0.17294792  0.85032909  0.83417083  1
  O  O46  1  0.09542465  0.74350026  0.41784582  1
  O  O47  1  0.25649974  0.90457535  0.58215418  1
  O  O48  1  0.64503129  0.99236455  0.17358815  1
  O  O49  1  0.14503129  0.49236455  0.32641185  1
  O  O50  1  0.00763545  0.35496871  0.82641185  1
  O  O51  1  0.50763545  0.85496871  0.67358815  1
  O  O52  1  0.24350026  0.59542465  0.08215418  1
  O  O53  1  0.40457535  0.75649974  0.91784582  1
  O  O54  1  0.35032909  0.67294792  0.66582917  1
  O  O55  1  0.32705208  0.64967091  0.33417083  1
  O  O56  1  0.47464851  0.75831047  0.16904787  1
  O  O57  1  0.24168953  0.52535149  0.83095213  1
  O  O58  1  0.22762635  0.50555431  0.57754758  1
  O  O59  1  0.49444569  0.77237365  0.42245242  1
  O  O60  1  0.11401490  0.33148315  0.51296501  1
  O  O61  1  0.16851685  0.38598510  0.01296501  1
  O  O62  1  0.66851685  0.88598510  0.48703499  1
  O  O63  1  0.61401490  0.83148315  0.98703499  1
  O  O64  1  0.59796211  0.59796211  0.99296520  1
  O  O65  1  0.33861044  0.33861044  0.41042332  1
  O  O66  1  0.94767548  0.94767548  0.80124273  1
  O  O67  1  0.55232452  0.55232452  0.30124273  1
  O  O68  1  0.05232452  0.05232452  0.19875727  1
  O  O69  1  0.09796211  0.09796211  0.50703480  1
  O  O70  1  0.90203789  0.90203789  0.49296520  1
  O  O71  1  0.16138956  0.16138956  0.91042332  1
  O  O72  1  0.44767548  0.44767548  0.69875727  1
  O  O73  1  0.40203789  0.40203789  0.00703480  1
  O  O74  1  0.83861044  0.83861044  0.08957668  1
  O  O75  1  0.66138956  0.66138956  0.58957668  1
  O  O76  1  0.88598510  0.66851685  0.48703499  1
  O  O77  1  0.33148315  0.11401490  0.51296501  1
  O  O78  1  0.38598510  0.16851685  0.01296501  1
  O  O79  1  0.83148315  0.61401490  0.98703499  1
  O  O80  1  0.77237365  0.49444569  0.42245242  1
  O  O81  1  0.50555431  0.22762635  0.57754758  1
  O  O82  1  0.52535149  0.24168953  0.83095213  1
  O  O83  1  0.75831047  0.47464851  0.16904787  1
  O  O84  1  0.64967091  0.32705208  0.33417083  1
  O  O85  1  0.67294792  0.35032909  0.66582917  1
  O  O86  1  0.75649974  0.40457535  0.91784582  1
  O  O87  1  0.59542465  0.24350026  0.08215418  1
  O  O88  1  0.99236455  0.64503129  0.17358815  1
  O  O89  1  0.35496871  0.00763545  0.82641185  1
  O  O90  1  0.49236455  0.14503129  0.32641185  1
  O  O91  1  0.85496871  0.50763545  0.67358815  1
  O  O92  1  0.74350026  0.09542465  0.41784582  1
  O  O93  1  0.90457535  0.25649974  0.58215418  1
  O  O94  1  0.82705208  0.14967091  0.16582917  1
  O  O95  1  0.85032909  0.17294792  0.83417083  1
  O  O96  1  0.97464851  0.25831047  0.33095213  1
  O  O97  1  0.74168953  0.02535149  0.66904787  1
  O  O98  1  0.72762635  0.00555431  0.92245242  1
  O  O99  1  0.99444569  0.27237365  0.07754758  1
