# generated using pymatgen
data_Li4Si2NiO7
_symmetry_space_group_name_H-M   'P 1'
_cell_length_a   4.50084904
_cell_length_b   5.34673292
_cell_length_c   6.76507130
_cell_angle_alpha   80.82214166
_cell_angle_beta   88.68670234
_cell_angle_gamma   64.64114816
_symmetry_Int_Tables_number   1
_chemical_formula_structural   Li4Si2NiO7
_chemical_formula_sum   'Li4 Si2 Ni1 O7'
_cell_volume   145.04192462
_cell_formula_units_Z   1
loop_
 _symmetry_equiv_pos_site_id
 _symmetry_equiv_pos_as_xyz
  1  'x, y, z'
loop_
 _atom_site_type_symbol
 _atom_site_label
 _atom_site_symmetry_multiplicity
 _atom_site_fract_x
 _atom_site_fract_y
 _atom_site_fract_z
 _atom_site_occupancy
  Li  Li0  1  0.16627936  0.70094257  0.43803934  1
  Li  Li1  1  0.72720798  0.56493587  0.14358395  1
  Li  Li2  1  0.29739844  0.41784957  0.85323379  1
  Li  Li3  1  0.86624454  0.29326928  0.56692106  1
  Si  Si4  1  0.56134644  0.85250139  0.70861298  1
  Si  Si5  1  0.42025543  0.14767747  0.28638349  1
  Ni  Ni6  1  0.01527573  0.97392145  0.00675894  1
  O  O7  1  0.34323161  0.89416351  0.22632723  1
  O  O8  1  0.85721236  0.73779213  0.88326311  1
  O  O9  1  0.49395448  0.59616988  0.65462364  1
  O  O10  1  0.09281008  0.40837087  0.34063491  1
  O  O11  1  0.60951132  0.25668148  0.10607650  1
  O  O12  1  0.22551167  0.10462778  0.77600725  1
  O  O13  1  0.68234956  0.00207675  0.49671780  1
