# generated using pymatgen
data_Li2MnOF3
_symmetry_space_group_name_H-M   'P 1'
_cell_length_a   5.96673026
_cell_length_b   6.03464969
_cell_length_c   6.03547187
_cell_angle_alpha   120.00450700
_cell_angle_beta   90.00000000
_cell_angle_gamma   59.31485167
_symmetry_Int_Tables_number   1
_chemical_formula_structural   Li2MnOF3
_chemical_formula_sum   'Li4 Mn2 O2 F6'
_cell_volume   152.04719863
_cell_formula_units_Z   2
loop_
 _symmetry_equiv_pos_site_id
 _symmetry_equiv_pos_as_xyz
  1  'x, y, z'
loop_
 _atom_site_type_symbol
 _atom_site_label
 _atom_site_symmetry_multiplicity
 _atom_site_fract_x
 _atom_site_fract_y
 _atom_site_fract_z
 _atom_site_occupancy
  Li  Li0  1  0.34139958  0.75257203  0.87628602  1
  Li  Li1  1  0.65860042  0.24742797  0.12371398  1
  Li  Li2  1  0.00000000  0.00000000  0.50000000  1
  Li  Li3  1  0.50000000  0.00000000  0.50000000  1
  Mn  Mn4  1  0.00000000  0.50000000  0.50000000  1
  Mn  Mn5  1  0.00000000  0.50000000  0.00000000  1
  O  O6  1  0.80325666  0.50786877  0.25393439  1
  O  O7  1  0.19674334  0.49213123  0.74606561  1
  F  F8  1  0.76814641  0.97088059  0.24745617  1
  F  F9  1  0.76814641  0.97088059  0.72342542  1
  F  F10  1  0.25680858  0.51790669  0.25895334  1
  F  F11  1  0.74319142  0.48209331  0.74104666  1
  F  F12  1  0.23185359  0.02911941  0.27657458  1
  F  F13  1  0.23185359  0.02911941  0.75254383  1
