# generated using pymatgen
data_Li7Ti11O24
_symmetry_space_group_name_H-M   'P 1'
_cell_length_a   5.08480161
_cell_length_b   9.73636195
_cell_length_c   8.86977481
_cell_angle_alpha   90.00000000
_cell_angle_beta   90.00000000
_cell_angle_gamma   89.69134002
_symmetry_Int_Tables_number   1
_chemical_formula_structural   Li7Ti11O24
_chemical_formula_sum   'Li7 Ti11 O24'
_cell_volume   439.11372865
_cell_formula_units_Z   1
loop_
 _symmetry_equiv_pos_site_id
 _symmetry_equiv_pos_as_xyz
  1  'x, y, z'
loop_
 _atom_site_type_symbol
 _atom_site_label
 _atom_site_symmetry_multiplicity
 _atom_site_fract_x
 _atom_site_fract_y
 _atom_site_fract_z
 _atom_site_occupancy
  Li  Li0  1  0.47410661  0.35026341  0.91666700  1
  Li  Li1  1  0.56191634  0.96546655  0.08436022  1
  Li  Li2  1  0.56191634  0.96546655  0.74897378  1
  Li  Li3  1  0.55847357  0.96258546  0.41666700  1
  Li  Li4  1  0.93502636  0.45893047  0.07671011  1
  Li  Li5  1  0.94234067  0.46218894  0.41666700  1
  Li  Li6  1  0.93502636  0.45893047  0.75662289  1
  Ti  Ti7  1  0.02244584  0.85684278  0.24632174  1
  Ti  Ti8  1  0.02244584  0.85684278  0.58701126  1
  Ti  Ti9  1  0.01772124  0.85691311  0.91666700  1
  Ti  Ti10  1  0.47737220  0.35731380  0.24074626  1
  Ti  Ti11  1  0.47737220  0.35731380  0.59258674  1
  Ti  Ti12  1  0.51263061  0.63109586  0.07918318  1
  Ti  Ti13  1  0.51263061  0.63109586  0.75414982  1
  Ti  Ti14  1  0.51727268  0.63897894  0.41666700  1
  Ti  Ti15  1  0.98522434  0.14465820  0.08224572  1
  Ti  Ti16  1  0.97409962  0.13867510  0.41666700  1
  Ti  Ti17  1  0.98522434  0.14465820  0.75108728  1
  O  O18  1  0.19822133  0.22272179  0.25233308  1
  O  O19  1  0.16770366  0.22143737  0.91666700  1
  O  O20  1  0.19822133  0.22272179  0.58099992  1
  O  O21  1  0.19482658  0.96503355  0.08563057  1
  O  O22  1  0.19018086  0.96400102  0.41666700  1
  O  O23  1  0.19482658  0.96503355  0.74770343  1
  O  O24  1  0.30248704  0.46926469  0.09438169  1
  O  O25  1  0.31412870  0.46403523  0.41666700  1
  O  O26  1  0.30248704  0.46926469  0.73895231  1
  O  O27  1  0.31101119  0.72585001  0.57999426  1
  O  O28  1  0.30859223  0.72609894  0.91666700  1
  O  O29  1  0.31101119  0.72585001  0.25333874  1
  O  O30  1  0.71711041  0.28314602  0.09844211  1
  O  O31  1  0.71711041  0.28314602  0.73489089  1
  O  O32  1  0.70559933  0.28593204  0.41666700  1
  O  O33  1  0.71524609  0.53446898  0.24930084  1
  O  O34  1  0.71524609  0.53446898  0.58403216  1
  O  O35  1  0.72316829  0.54827082  0.91666700  1
  O  O36  1  0.78643657  0.03228727  0.25131618  1
  O  O37  1  0.78643657  0.03228727  0.58201682  1
  O  O38  1  0.79050359  0.03415166  0.91666700  1
  O  O39  1  0.78922870  0.78783587  0.08620798  1
  O  O40  1  0.79774375  0.78175828  0.41666700  1
  O  O41  1  0.78922870  0.78783587  0.74712602  1
