# generated using pymatgen
data_Li5V3P8O29
_symmetry_space_group_name_H-M   'P 1'
_cell_length_a   9.78982196
_cell_length_b   9.79896905
_cell_length_c   14.03799457
_cell_angle_alpha   90.14064828
_cell_angle_beta   90.23507712
_cell_angle_gamma   60.05961747
_symmetry_Int_Tables_number   1
_chemical_formula_structural   Li5V3P8O29
_chemical_formula_sum   'Li10 V6 P16 O58'
_cell_volume   1166.93795356
_cell_formula_units_Z   2
loop_
 _symmetry_equiv_pos_site_id
 _symmetry_equiv_pos_as_xyz
  1  'x, y, z'
loop_
 _atom_site_type_symbol
 _atom_site_label
 _atom_site_symmetry_multiplicity
 _atom_site_fract_x
 _atom_site_fract_y
 _atom_site_fract_z
 _atom_site_occupancy
  Li  Li0  1  0.77094229  0.90421697  0.56083008  1
  Li  Li1  1  0.90438088  0.32708107  0.56324034  1
  Li  Li2  1  0.76578461  0.33352338  0.05564085  1
  Li  Li3  1  0.32976161  0.90452461  0.05761818  1
  Li  Li4  1  0.68277314  0.22547049  0.43989886  1
  Li  Li5  1  0.32284863  0.77228354  0.56499732  1
  Li  Li6  1  0.67174212  0.09191044  0.93907811  1
  Li  Li7  1  0.09423504  0.67694495  0.43996570  1
  Li  Li8  1  0.22615080  0.09455244  0.44142925  1
  Li  Li9  1  0.03237975  0.94926394  0.99358663  1
  V  V10  1  0.56644158  0.43453971  0.25028816  1
  V  V11  1  0.42893943  0.56799113  0.75143969  1
  V  V12  1  0.56635977  0.99934926  0.74977595  1
  V  V13  1  0.43218702  0.00076452  0.24907672  1
  V  V14  1  0.99673199  0.56845620  0.24117010  1
  V  V15  1  0.00354244  0.43335022  0.75949010  1
  P  P16  1  0.91716147  0.77839302  0.84271251  1
  P  P17  1  0.77053885  0.91037797  0.33902880  1
  P  P18  1  0.91406287  0.32125234  0.34469358  1
  P  P19  1  0.66442833  0.66531624  0.12736659  1
  P  P20  1  0.66954100  0.66372877  0.63074952  1
  P  P21  1  0.77133471  0.31451045  0.84016777  1
  P  P22  1  0.67926864  0.23216997  0.65747963  1
  P  P23  1  0.31437960  0.91278192  0.84197203  1
  P  P24  1  0.68330815  0.08889103  0.15659097  1
  P  P25  1  0.32050426  0.76782798  0.34480158  1
  P  P26  1  0.22439653  0.69212868  0.16053859  1
  P  P27  1  0.32933892  0.33628080  0.36850016  1
  P  P28  1  0.33756098  0.33273909  0.87127875  1
  P  P29  1  0.08488292  0.68062241  0.65713572  1
  P  P30  1  0.22786376  0.09199730  0.66053337  1
  P  P31  1  0.08267023  0.22394576  0.15965238  1
  O  O32  1  0.99736523  0.75322698  0.56581112  1
  O  O33  1  0.91914106  0.74410287  0.33805518  1
  O  O34  1  0.76783947  0.01588954  0.06597252  1
  O  O35  1  0.74381644  0.91534935  0.83854397  1
  O  O36  1  0.92040042  0.61732077  0.83221295  1
  O  O37  1  0.81154644  0.67172504  0.17516272  1
  O  O38  1  0.90538133  0.47911510  0.32145066  1
  O  O39  1  0.98891079  0.21807011  0.07791039  1
  O  O40  1  0.91625327  0.33953955  0.83556565  1
  O  O41  1  0.67282097  0.81401651  0.66926595  1
  O  O42  1  0.61986371  0.90083070  0.32096548  1
  O  O43  1  0.81598867  0.51538979  0.67802508  1
  O  O44  1  0.67529737  0.66084545  0.02165511  1
  O  O45  1  0.68258151  0.65553241  0.52435361  1
  O  O46  1  0.67757171  0.51096432  0.16815116  1
  O  O47  1  0.46931602  0.91367553  0.83040593  1
  O  O48  1  0.51141628  0.81095988  0.16631091  1
  O  O49  1  0.74931028  0.33622672  0.34256690  1
  O  O50  1  0.79258892  0.20618348  0.74796266  1
  O  O51  1  0.75820769  0.24308696  0.56799163  1
  O  O52  1  0.77851021  0.22374494  0.92863827  1
  O  O53  1  0.61934463  0.47011106  0.82897937  1
  O  O54  1  0.51477326  0.67087691  0.66609095  1
  O  O55  1  0.65819864  0.25898299  0.16502979  1
  O  O56  1  0.48051188  0.61952436  0.32327672  1
  O  O57  1  0.33690038  0.91683894  0.34241838  1
  O  O58  1  0.79254040  0.99931020  0.24889928  1
  O  O59  1  0.76013808  0.99735459  0.42969579  1
  O  O60  1  0.23827986  0.00325217  0.57045242  1
  O  O61  1  0.66127272  0.08407613  0.65660577  1
  O  O62  1  0.52160509  0.38217542  0.67567013  1
  O  O63  1  0.34393165  0.74335969  0.82957755  1
  O  O64  1  0.48385304  0.32971033  0.33069975  1
  O  O65  1  0.38048169  0.53830477  0.16811095  1
  O  O66  1  0.20654132  0.79942889  0.07999995  1
  O  O67  1  0.24919020  0.75321174  0.43626411  1
  O  O68  1  0.20282669  0.78925703  0.25895691  1
  O  O69  1  0.24972851  0.66414662  0.65757106  1
  O  O70  1  0.48994913  0.18634350  0.83105048  1
  O  O71  1  0.52716917  0.09143988  0.17126172  1
  O  O72  1  0.32644701  0.48150458  0.82634902  1
  O  O73  1  0.33217876  0.32926920  0.97693243  1
  O  O74  1  0.32172593  0.34319094  0.47477988  1
  O  O75  1  0.18271967  0.48618929  0.32301140  1
  O  O76  1  0.37806653  0.10174422  0.67778044  1
  O  O77  1  0.32545596  0.18679338  0.32983751  1
  O  O78  1  0.08383792  0.65932185  0.16416903  1
  O  O79  1  0.99113766  0.79723571  0.74374283  1
  O  O80  1  0.00243899  0.79328122  0.92535702  1
  O  O81  1  0.09375243  0.52217713  0.67899736  1
  O  O82  1  0.18820552  0.32722985  0.82480375  1
  O  O83  1  0.08391511  0.38239927  0.17022683  1
  O  O84  1  0.25431674  0.08413939  0.15953700  1
  O  O85  1  0.22727976  0.98301516  0.93275584  1
  O  O86  1  0.20426794  0.00498081  0.75081099  1
  O  O87  1  0.07988217  0.25854721  0.66123657  1
  O  O88  1  0.00012650  0.24955033  0.43630789  1
  O  O89  1  0.01154796  0.20255663  0.25894928  1
