# generated using pymatgen
data_ZrU9O20
_symmetry_space_group_name_H-M   'P 1'
_cell_length_a   7.63099204
_cell_length_b   6.60598175
_cell_length_c   8.52948595
_cell_angle_alpha   82.56861053
_cell_angle_beta   77.07726054
_cell_angle_gamma   106.78101340
_symmetry_Int_Tables_number   1
_chemical_formula_structural   ZrU9O20
_chemical_formula_sum   'Zr1 U9 O20'
_cell_volume   392.47843543
_cell_formula_units_Z   1
loop_
 _symmetry_equiv_pos_site_id
 _symmetry_equiv_pos_as_xyz
  1  'x, y, z'
loop_
 _atom_site_type_symbol
 _atom_site_label
 _atom_site_symmetry_multiplicity
 _atom_site_fract_x
 _atom_site_fract_y
 _atom_site_fract_z
 _atom_site_occupancy
  Zr  Zr0  1  0.00000000  0.00000000  0.00000000  1
  U  U1  1  0.50000000  0.00000000  0.00000000  1
  U  U2  1  0.80131848  0.40057499  0.19876207  1
  U  U3  1  0.29851856  0.39799297  0.19917069  1
  U  U4  1  0.10016100  0.80099445  0.39797714  1
  U  U5  1  0.60138965  0.80102975  0.39822190  1
  U  U6  1  0.39861035  0.19897025  0.60177910  1
  U  U7  1  0.89983900  0.19900555  0.60202286  1
  U  U8  1  0.70148144  0.60200703  0.80082931  1
  U  U9  1  0.19868152  0.59942501  0.80123793  1
  O  O10  1  0.07243838  0.34123848  0.04845988  1
  O  O11  1  0.57541345  0.34907571  0.05052189  1
  O  O12  1  0.21933594  0.04935335  0.14577671  1
  O  O13  1  0.73236922  0.04978766  0.14570514  1
  O  O14  1  0.52550023  0.44967040  0.34966712  1
  O  O15  1  0.02482157  0.45089382  0.34912534  1
  O  O16  1  0.37558165  0.75222758  0.24882136  1
  O  O17  1  0.87854383  0.75661378  0.24257041  1
  O  O18  1  0.67501606  0.14996370  0.45025081  1
  O  O19  1  0.17494621  0.15070730  0.45019863  1
  O  O20  1  0.32498394  0.85003630  0.54974919  1
  O  O21  1  0.47449977  0.55032960  0.65033288  1
  O  O22  1  0.97517843  0.54910618  0.65087466  1
  O  O23  1  0.82505379  0.84929270  0.54980137  1
  O  O24  1  0.12145617  0.24338622  0.75742959  1
  O  O25  1  0.62441835  0.24777242  0.75117864  1
  O  O26  1  0.42458655  0.65092429  0.94947811  1
  O  O27  1  0.92756162  0.65876152  0.95154012  1
  O  O28  1  0.26763078  0.95021234  0.85429386  1
  O  O29  1  0.78066406  0.95064665  0.85422329  1
