# generated using pymatgen
data_Li3VCrP2(O4F)2
_symmetry_space_group_name_H-M   'P 1'
_cell_length_a   5.29097318
_cell_length_b   5.38054453
_cell_length_c   7.50869210
_cell_angle_alpha   73.82089723
_cell_angle_beta   71.73359146
_cell_angle_gamma   97.01602196
_symmetry_Int_Tables_number   1
_chemical_formula_structural   Li3VCrP2(O4F)2
_chemical_formula_sum   'Li3 V1 Cr1 P2 O8 F2'
_cell_volume   189.73659634
_cell_formula_units_Z   1
loop_
 _symmetry_equiv_pos_site_id
 _symmetry_equiv_pos_as_xyz
  1  'x, y, z'
loop_
 _atom_site_type_symbol
 _atom_site_label
 _atom_site_symmetry_multiplicity
 _atom_site_fract_x
 _atom_site_fract_y
 _atom_site_fract_z
 _atom_site_occupancy
  Li  Li0  1  0.23961449  0.57966501  0.85485412  1
  Li  Li1  1  0.50641606  0.97118957  0.50797867  1
  Li  Li2  1  0.74346692  0.40983668  0.16004930  1
  V  V3  1  0.99989347  0.00017101  0.99928241  1
  Cr  Cr4  1  0.00605834  0.00246526  0.49959620  1
  P  P5  1  0.33438141  0.63984579  0.24039462  1
  P  P6  1  0.66694328  0.36184729  0.75739749  1
  O  O7  1  0.12851573  0.66780803  0.12507979  1
  O  O8  1  0.27585237  0.78813623  0.39089582  1
  O  O9  1  0.32484708  0.34324020  0.33865820  1
  O  O10  1  0.63175942  0.75234642  0.08233048  1
  O  O11  1  0.36859162  0.25024292  0.91426818  1
  O  O12  1  0.67924406  0.65969358  0.65705544  1
  O  O13  1  0.72840684  0.21114985  0.60861523  1
  O  O14  1  0.86930649  0.33339429  0.87593806  1
  F  F15  1  0.16430917  0.91045743  0.75000057  1
  F  F16  1  0.83973523  0.08493044  0.25088742  1
