# generated using pymatgen
data_LiMnVP2(HO5)2
_symmetry_space_group_name_H-M   'P 1'
_cell_length_a   5.34525038
_cell_length_b   7.35684699
_cell_length_c   5.22392816
_cell_angle_alpha   110.32612260
_cell_angle_beta   100.14947919
_cell_angle_gamma   104.28012962
_symmetry_Int_Tables_number   1
_chemical_formula_structural   LiMnVP2(HO5)2
_chemical_formula_sum   'Li1 Mn1 V1 P2 H2 O10'
_cell_volume   178.76219155
_cell_formula_units_Z   1
loop_
 _symmetry_equiv_pos_site_id
 _symmetry_equiv_pos_as_xyz
  1  'x, y, z'
loop_
 _atom_site_type_symbol
 _atom_site_label
 _atom_site_symmetry_multiplicity
 _atom_site_fract_x
 _atom_site_fract_y
 _atom_site_fract_z
 _atom_site_occupancy
  Li  Li0  1  0.59148866  0.15227861  0.22542173  1
  Mn  Mn1  1  0.99490340  0.99651584  0.99937359  1
  V  V2  1  0.00255487  0.50462183  0.00192793  1
  P  P3  1  0.35800906  0.23140486  0.68083258  1
  P  P4  1  0.64272414  0.77343754  0.32636017  1
  H  H5  1  0.06105365  0.34277103  0.35595478  1
  H  H6  1  0.96339504  0.66223143  0.64668315  1
  O  O7  1  0.02427646  0.71853253  0.85754975  1
  O  O8  1  0.18929121  0.38076306  0.71679696  1
  O  O9  1  0.34176995  0.64668539  0.27770557  1
  O  O10  1  0.25310253  0.07139412  0.36657297  1
  O  O11  1  0.34757913  0.13539557  0.89456593  1
  O  O12  1  0.65480522  0.88608259  0.13140199  1
  O  O13  1  0.75652577  0.93087755  0.63721766  1
  O  O14  1  0.65789445  0.34646490  0.70803744  1
  O  O15  1  0.80439583  0.61848581  0.27323741  1
  O  O16  1  0.95439565  0.27752633  0.15140539  1
