# generated using pymatgen
data_V2Bi4O11
_symmetry_space_group_name_H-M   'P 1'
_cell_length_a   11.10758430
_cell_length_b   8.11459002
_cell_length_c   5.68201273
_cell_angle_alpha   69.50590577
_cell_angle_beta   90.00000000
_cell_angle_gamma   90.08525323
_symmetry_Int_Tables_number   1
_chemical_formula_structural   V2Bi4O11
_chemical_formula_sum   'V4 Bi8 O22'
_cell_volume   479.72484891
_cell_formula_units_Z   2
loop_
 _symmetry_equiv_pos_site_id
 _symmetry_equiv_pos_as_xyz
  1  'x, y, z'
loop_
 _atom_site_type_symbol
 _atom_site_label
 _atom_site_symmetry_multiplicity
 _atom_site_fract_x
 _atom_site_fract_y
 _atom_site_fract_z
 _atom_site_occupancy
  V  V0  1  1.00000000  1.00000000  0.00934788  1
  V  V1  1  0.24670939  0.01183295  0.55392559  1
  V  V2  1  0.50000000  1.00000000  0.00167297  1
  V  V3  1  0.75329061  0.98816705  0.56575853  1
  Bi  Bi4  1  0.99117569  0.32954529  0.33087055  1
  Bi  Bi5  1  0.25156458  0.31996929  0.90373719  1
  Bi  Bi6  1  0.24974743  0.64027924  0.24193279  1
  Bi  Bi7  1  0.49204285  0.66994309  0.66685777  1
  Bi  Bi8  1  0.50795715  0.33005691  0.33680087  1
  Bi  Bi9  1  0.75025257  0.35972076  0.88221203  1
  Bi  Bi10  1  0.74843542  0.68003071  0.22370647  1
  Bi  Bi11  1  0.00882431  0.67045471  0.66041584  1
  O  O12  1  0.04393384  0.79220629  0.22508296  1
  O  O13  1  0.12868733  0.48195902  0.06173711  1
  O  O14  1  0.12706938  0.04969970  0.80789402  1
  O  O15  1  0.12976628  0.08972838  0.34001606  1
  O  O16  1  0.12847468  0.47167699  0.56111398  1
  O  O17  1  0.25145868  0.78889483  0.62086745  1
  O  O18  1  0.37459280  0.48578345  0.05685784  1
  O  O19  1  0.35922700  0.10598660  0.33592476  1
  O  O20  1  0.37197745  0.05118813  0.80458343  1
  O  O21  1  0.37219176  0.47162824  0.56018658  1
  O  O22  1  0.54444887  0.20038801  0.02911425  1
  O  O23  1  0.45555113  0.79961199  0.22950226  1
  O  O24  1  0.62780824  0.52837176  0.03181482  1
  O  O25  1  0.62802255  0.94881187  0.85577056  1
  O  O26  1  0.64077300  0.89401340  0.44191136  1
  O  O27  1  0.62540720  0.51421655  0.54264129  1
  O  O28  1  0.74854132  0.21110517  0.40976228  1
  O  O29  1  0.87152532  0.52832301  0.03279097  1
  O  O30  1  0.87023372  0.91027162  0.42974444  1
  O  O31  1  0.87293062  0.95030030  0.85759472  1
  O  O32  1  0.87131267  0.51804098  0.54369613  1
  O  O33  1  0.95606616  0.20779371  0.01728925  1
