# generated using pymatgen
data_CaMn7O8
_symmetry_space_group_name_H-M   'P 1'
_cell_length_a   6.43080695
_cell_length_b   5.56749308
_cell_length_c   6.43080695
_cell_angle_alpha   106.93482070
_cell_angle_beta   120.07631247
_cell_angle_gamma   73.06517930
_symmetry_Int_Tables_number   1
_chemical_formula_structural   CaMn7O8
_chemical_formula_sum   'Ca1 Mn7 O8'
_cell_volume   187.64564219
_cell_formula_units_Z   1
loop_
 _symmetry_equiv_pos_site_id
 _symmetry_equiv_pos_as_xyz
  1  'x, y, z'
loop_
 _atom_site_type_symbol
 _atom_site_label
 _atom_site_symmetry_multiplicity
 _atom_site_fract_x
 _atom_site_fract_y
 _atom_site_fract_z
 _atom_site_occupancy
  Ca  Ca0  1  0.25000000  0.50000000  0.75000000  1
  Mn  Mn1  1  0.99725755  0.00000000  0.49725755  1
  Mn  Mn2  1  0.50083737  0.99811524  0.49916263  1
  Mn  Mn3  1  0.99916263  0.00188476  0.00083737  1
  Mn  Mn4  1  0.25000000  0.50000000  0.25000000  1
  Mn  Mn5  1  0.75000000  0.50000000  0.75000000  1
  Mn  Mn6  1  0.50274245  0.00000000  0.00274245  1
  Mn  Mn7  1  0.75000000  0.50000000  0.25000000  1
  O  O8  1  0.12300825  0.24227216  0.87699175  1
  O  O9  1  0.12035305  0.24520664  0.36571107  1
  O  O10  1  0.63428893  0.24520664  0.87964695  1
  O  O11  1  0.62499256  0.25362002  0.37500744  1
  O  O12  1  0.37699175  0.75772684  0.62300825  1
  O  O13  1  0.86571107  0.75479336  0.62035305  1
  O  O14  1  0.37964695  0.75479336  0.13428893  1
  O  O15  1  0.87500744  0.74637998  0.12499256  1
