# generated using pymatgen
data_LiCoP2O7
_symmetry_space_group_name_H-M   'P 1'
_cell_length_a   5.04269997
_cell_length_b   6.10958150
_cell_length_c   8.65601267
_cell_angle_alpha   108.82636955
_cell_angle_beta   93.27715969
_cell_angle_gamma   85.37397325
_symmetry_Int_Tables_number   1
_chemical_formula_structural   LiCoP2O7
_chemical_formula_sum   'Li2 Co2 P4 O14'
_cell_volume   251.45465645
_cell_formula_units_Z   2
loop_
 _symmetry_equiv_pos_site_id
 _symmetry_equiv_pos_as_xyz
  1  'x, y, z'
loop_
 _atom_site_type_symbol
 _atom_site_label
 _atom_site_symmetry_multiplicity
 _atom_site_fract_x
 _atom_site_fract_y
 _atom_site_fract_z
 _atom_site_occupancy
  Li  Li0  1  0.21256296  0.80901428  0.47378751  1
  Li  Li1  1  0.78743704  0.19098572  0.52621249  1
  Co  Co2  1  0.23823018  0.44600504  0.73990124  1
  Co  Co3  1  0.76176982  0.55399496  0.26009876  1
  P  P4  1  0.29679836  0.25982312  0.34216149  1
  P  P5  1  0.21687947  0.79286156  0.13247739  1
  P  P6  1  0.78312053  0.20713844  0.86752261  1
  P  P7  1  0.70320164  0.74017688  0.65783851  1
  O  O8  1  0.05425387  0.20894825  0.79953083  1
  O  O9  1  0.10130616  0.46374660  0.33546632  1
  O  O10  1  0.22466103  0.16757428  0.47929753  1
  O  O11  1  0.24916056  0.68045465  0.95208082  1
  O  O12  1  0.26199461  0.06365165  0.16681184  1
  O  O13  1  0.41390704  0.67539964  0.64328515  1
  O  O14  1  0.43304657  0.71235831  0.24101582  1
  O  O15  1  0.56695343  0.28764169  0.75898418  1
  O  O16  1  0.58609296  0.32460036  0.35671485  1
  O  O17  1  0.73800539  0.93634835  0.83318816  1
  O  O18  1  0.75083944  0.31954535  0.04791918  1
  O  O19  1  0.77533897  0.83242572  0.52070247  1
  O  O20  1  0.89869384  0.53625340  0.66453368  1
  O  O21  1  0.94574613  0.79105175  0.20046917  1
