# generated using pymatgen
data_Li4Mn3Sn(PO4)4
_symmetry_space_group_name_H-M   'P 1'
_cell_length_a   4.84118913
_cell_length_b   10.80928493
_cell_length_c   6.30105213
_cell_angle_alpha   90.00000000
_cell_angle_beta   90.00000000
_cell_angle_gamma   90.21903879
_symmetry_Int_Tables_number   1
_chemical_formula_structural   Li4Mn3Sn(PO4)4
_chemical_formula_sum   'Li4 Mn3 Sn1 P4 O16'
_cell_volume   329.73034238
_cell_formula_units_Z   1
loop_
 _symmetry_equiv_pos_site_id
 _symmetry_equiv_pos_as_xyz
  1  'x, y, z'
loop_
 _atom_site_type_symbol
 _atom_site_label
 _atom_site_symmetry_multiplicity
 _atom_site_fract_x
 _atom_site_fract_y
 _atom_site_fract_z
 _atom_site_occupancy
  Li  Li0  1  0.99760701  0.99263797  0.00314587  1
  Li  Li1  1  0.99760701  0.99263797  0.49685413  1
  Li  Li2  1  0.50055863  0.50703987  0.49635122  1
  Li  Li3  1  0.50055863  0.50703987  0.00364878  1
  Mn  Mn4  1  0.02928820  0.72381261  0.75000000  1
  Mn  Mn5  1  0.47463434  0.21403473  0.75000000  1
  Mn  Mn6  1  0.53637617  0.78478749  0.25000000  1
  Sn  Sn7  1  0.97696851  0.28453024  0.25000000  1
  P  P8  1  0.09867723  0.60279990  0.25000000  1
  P  P9  1  0.42076834  0.07623825  0.25000000  1
  P  P10  1  0.58988376  0.90724658  0.75000000  1
  P  P11  1  0.88850698  0.41522054  0.75000000  1
  O  O12  1  0.23229462  0.47112871  0.25000000  1
  O  O13  1  0.22467666  0.67004677  0.05098472  1
  O  O14  1  0.22467666  0.67004677  0.44901528  1
  O  O15  1  0.20272805  0.39786464  0.75000000  1
  O  O16  1  0.27167933  0.90280357  0.75000000  1
  O  O17  1  0.30761983  0.14736922  0.04969925  1
  O  O18  1  0.30761983  0.14736922  0.45030075  1
  O  O19  1  0.27594652  0.94695954  0.25000000  1
  O  O20  1  0.71284359  0.04087354  0.75000000  1
  O  O21  1  0.71986851  0.83841057  0.55333992  1
  O  O22  1  0.71986851  0.83841057  0.94666008  1
  O  O23  1  0.73643549  0.06592523  0.25000000  1
  O  O24  1  0.78067340  0.60053898  0.25000000  1
  O  O25  1  0.73965706  0.35082109  0.55705465  1
  O  O26  1  0.73965706  0.35082109  0.94294535  1
  O  O27  1  0.79232305  0.55258448  0.75000000  1
