# generated using pymatgen
data_K2AlPCO7
_symmetry_space_group_name_H-M   'P 1'
_cell_length_a   9.61185245
_cell_length_b   6.62442884
_cell_length_c   5.45840641
_cell_angle_alpha   90.00000000
_cell_angle_beta   90.08441218
_cell_angle_gamma   90.00000000
_symmetry_Int_Tables_number   1
_chemical_formula_structural   K2AlPCO7
_chemical_formula_sum   'K4 Al2 P2 C2 O14'
_cell_volume   347.55291232
_cell_formula_units_Z   2
loop_
 _symmetry_equiv_pos_site_id
 _symmetry_equiv_pos_as_xyz
  1  'x, y, z'
loop_
 _atom_site_type_symbol
 _atom_site_label
 _atom_site_symmetry_multiplicity
 _atom_site_fract_x
 _atom_site_fract_y
 _atom_site_fract_z
 _atom_site_occupancy
  K  K0  1  0.24265442  0.02807641  0.24443600  1
  K  K1  1  0.24265442  0.47192359  0.24443600  1
  K  K2  1  0.75734558  0.52807641  0.75556400  1
  K  K3  1  0.75734558  0.97192359  0.75556400  1
  Al  Al4  1  0.35734791  0.75000000  0.76541716  1
  Al  Al5  1  0.64265209  0.25000000  0.23458284  1
  P  P6  1  0.43778029  0.25000000  0.73093649  1
  P  P7  1  0.56221971  0.75000000  0.26906351  1
  C  C8  1  0.10875658  0.75000000  0.72841644  1
  C  C9  1  0.89124342  0.25000000  0.27158356  1
  O  O10  1  0.02039151  0.25000000  0.29515283  1
  O  O11  1  0.17698454  0.75000000  0.93833802  1
  O  O12  1  0.19878328  0.75000000  0.54408251  1
  O  O13  1  0.34810937  0.05704623  0.75977415  1
  O  O14  1  0.34810937  0.44295377  0.75977415  1
  O  O15  1  0.44494061  0.75000000  0.07122131  1
  O  O16  1  0.50222772  0.25000000  0.46750914  1
  O  O17  1  0.49777228  0.75000000  0.53249086  1
  O  O18  1  0.55505939  0.25000000  0.92877869  1
  O  O19  1  0.65189063  0.55704623  0.24022585  1
  O  O20  1  0.65189063  0.94295377  0.24022585  1
  O  O21  1  0.80121672  0.25000000  0.45591749  1
  O  O22  1  0.82301546  0.25000000  0.06166198  1
  O  O23  1  0.97960849  0.75000000  0.70484717  1
