# generated using pymatgen
data_SrLiLa15(CoO8)4
_symmetry_space_group_name_H-M   'P 1'
_cell_length_a   8.77426025
_cell_length_b   10.64053937
_cell_length_c   8.76855455
_cell_angle_alpha   72.18584276
_cell_angle_beta   93.90114979
_cell_angle_gamma   72.09943843
_symmetry_Int_Tables_number   1
_chemical_formula_structural   SrLiLa15(CoO8)4
_chemical_formula_sum   'Sr1 Li1 La15 Co4 O32'
_cell_volume   729.71204489
_cell_formula_units_Z   1
loop_
 _symmetry_equiv_pos_site_id
 _symmetry_equiv_pos_as_xyz
  1  'x, y, z'
loop_
 _atom_site_type_symbol
 _atom_site_label
 _atom_site_symmetry_multiplicity
 _atom_site_fract_x
 _atom_site_fract_y
 _atom_site_fract_z
 _atom_site_occupancy
  Sr  Sr0  1  0.39274199  0.12211423  0.11299921  1
  Li  Li1  1  0.00219515  0.24926084  0.99915723  1
  La  La2  1  0.88163912  0.87694722  0.61313086  1
  La  La3  1  0.61021999  0.37724522  0.87947202  1
  La  La4  1  0.61551291  0.87624828  0.88220785  1
  La  La5  1  0.88048524  0.37685283  0.61002232  1
  La  La6  1  0.13598056  0.99469949  0.86555601  1
  La  La7  1  0.63867322  0.24944329  0.36120281  1
  La  La8  1  0.63217327  0.75385961  0.36538795  1
  La  La9  1  0.13698370  0.50270025  0.86350205  1
  La  La10  1  0.86232190  0.50436895  0.13744154  1
  La  La11  1  0.36022838  0.25195287  0.63888325  1
  La  La12  1  0.36595280  0.75013993  0.63468044  1
  La  La13  1  0.86512491  0.99354842  0.13629492  1
  La  La14  1  0.38964950  0.62388733  0.11798937  1
  La  La15  1  0.11824364  0.62386747  0.38853303  1
  La  La16  1  0.12081840  0.12168910  0.38623584  1
  Co  Co17  1  0.74901885  0.12499133  0.74921898  1
  Co  Co18  1  0.75046191  0.62535269  0.75088413  1
  Co  Co19  1  0.25084252  0.37469656  0.24948861  1
  Co  Co20  1  0.24939544  0.87416533  0.25077699  1
  O  O21  1  0.86943170  0.94077204  0.86849497  1
  O  O22  1  0.87069545  0.18770947  0.87032718  1
  O  O23  1  0.87050366  0.44092219  0.87164153  1
  O  O24  1  0.86965279  0.68884405  0.87002144  1
  O  O25  1  0.91119442  0.62667184  0.58930200  1
  O  O26  1  0.59257350  0.12418261  0.90542576  1
  O  O27  1  0.58956784  0.62689592  0.91057612  1
  O  O28  1  0.91235416  0.12364087  0.58589128  1
  O  O29  1  0.62869417  0.30772127  0.62781554  1
  O  O30  1  0.63014018  0.06214033  0.63018443  1
  O  O31  1  0.62957508  0.56389810  0.62956776  1
  O  O32  1  0.63086577  0.80851609  0.63206524  1
  O  O33  1  0.31017305  0.49983157  0.68396418  1
  O  O34  1  0.81141138  0.74972598  0.18855055  1
  O  O35  1  0.31264110  0.00118905  0.68791562  1
  O  O36  1  0.81968337  0.24962448  0.18306124  1
  O  O37  1  0.69984113  0.99505874  0.32377878  1
  O  O38  1  0.17458089  0.25468558  0.81168528  1
  O  O39  1  0.18956467  0.74850226  0.81328230  1
  O  O40  1  0.68275739  0.50070613  0.30952918  1
  O  O41  1  0.36951804  0.43929306  0.36956271  1
  O  O42  1  0.36922594  0.69148716  0.37000954  1
  O  O43  1  0.36580585  0.19815300  0.37138703  1
  O  O44  1  0.36716504  0.93662394  0.37321345  1
  O  O45  1  0.42722217  0.38203789  0.07249765  1
  O  O46  1  0.41191440  0.86984079  0.08868917  1
  O  O47  1  0.08957981  0.87264966  0.41276757  1
  O  O48  1  0.07173659  0.37768856  0.42673067  1
  O  O49  1  0.13326542  0.55401134  0.13465213  1
  O  O50  1  0.12451567  0.31311576  0.13124440  1
  O  O51  1  0.13137217  0.80832891  0.13234391  1
  O  O52  1  0.12411282  0.05750308  0.13075400  1
