# generated using pymatgen
data_V2P2O7
_symmetry_space_group_name_H-M   'P 1'
_cell_length_a   5.47554841
_cell_length_b   5.47554841
_cell_length_c   4.54752205
_cell_angle_alpha   83.05960945
_cell_angle_beta   96.94039055
_cell_angle_gamma   74.85129489
_symmetry_Int_Tables_number   1
_chemical_formula_structural   V2P2O7
_chemical_formula_sum   'V2 P2 O7'
_cell_volume   128.97667497
_cell_formula_units_Z   1
loop_
 _symmetry_equiv_pos_site_id
 _symmetry_equiv_pos_as_xyz
  1  'x, y, z'
loop_
 _atom_site_type_symbol
 _atom_site_label
 _atom_site_symmetry_multiplicity
 _atom_site_fract_x
 _atom_site_fract_y
 _atom_site_fract_z
 _atom_site_occupancy
  V  V0  1  0.31346826  0.31346826  0.50000000  1
  V  V1  1  0.68653174  0.68653174  0.50000000  1
  P  P2  1  0.21764519  0.78235481  0.90864153  1
  P  P3  1  0.78235481  0.21764519  0.09135847  1
  O  O4  1  0.37683927  0.91893873  0.72651696  1
  O  O5  1  0.08106127  0.62316073  0.72651696  1
  O  O6  1  0.37037128  0.62962872  0.20993240  1
  O  O7  1  0.62962872  0.37037128  0.79006760  1
  O  O8  1  0.00000000  0.00000000  0.00000000  1
  O  O9  1  0.62316073  0.08106127  0.27348304  1
  O  O10  1  0.91893873  0.37683927  0.27348304  1
