# generated using pymatgen
data_Ba2Ti11O24
_symmetry_space_group_name_H-M   'P 1'
_cell_length_a   7.32914150
_cell_length_b   8.97652955
_cell_length_c   7.40645561
_cell_angle_alpha   101.90005991
_cell_angle_beta   92.44966203
_cell_angle_gamma   77.91022288
_symmetry_Int_Tables_number   1
_chemical_formula_structural   Ba2Ti11O24
_chemical_formula_sum   'Ba2 Ti11 O24'
_cell_volume   466.22532719
_cell_formula_units_Z   1
loop_
 _symmetry_equiv_pos_site_id
 _symmetry_equiv_pos_as_xyz
  1  'x, y, z'
loop_
 _atom_site_type_symbol
 _atom_site_label
 _atom_site_symmetry_multiplicity
 _atom_site_fract_x
 _atom_site_fract_y
 _atom_site_fract_z
 _atom_site_occupancy
  Ba  Ba0  1  0.99704116  0.22449056  0.99988682  1
  Ba  Ba1  1  0.98177585  0.78576059  0.00550869  1
  Ti  Ti2  1  0.52678115  0.62180917  0.18376543  1
  Ti  Ti3  1  0.52281630  0.26592252  0.18765751  1
  Ti  Ti4  1  0.80937943  0.10997497  0.50889788  1
  Ti  Ti5  1  0.82283444  0.45423118  0.53675728  1
  Ti  Ti6  1  0.81150760  0.78908075  0.50954188  1
  Ti  Ti7  1  0.19308808  0.21223330  0.47935937  1
  Ti  Ti8  1  0.19796071  0.88255720  0.48752628  1
  Ti  Ti9  1  0.19105721  0.54617236  0.47128699  1
  Ti  Ti10  1  0.47853476  0.73197291  0.83508733  1
  Ti  Ti11  1  0.49412509  0.05148113  0.83840861  1
  Ti  Ti12  1  0.47981584  0.39004444  0.81938703  1
  O  O13  1  0.66755500  0.08271580  0.02904326  1
  O  O14  1  0.63755918  0.40085767  0.04369343  1
  O  O15  1  0.65420454  0.70855271  0.03099036  1
  O  O16  1  0.71322920  0.27720948  0.37132876  1
  O  O17  1  0.71618749  0.94249017  0.37888584  1
  O  O18  1  0.70629044  0.61185004  0.37988349  1
  O  O19  1  0.95177438  0.28340764  0.64534319  1
  O  O20  1  0.95059352  0.61459424  0.64734709  1
  O  O21  1  0.95129107  0.95072448  0.64904435  1
  O  O22  1  0.37682646  0.48360589  0.29196799  1
  O  O23  1  0.35924950  0.80025421  0.29593642  1
  O  O24  1  0.35973690  0.17482806  0.28959161  1
  O  O25  1  0.62190101  0.18555896  0.70102363  1
  O  O26  1  0.61606613  0.50966919  0.70166278  1
  O  O27  1  0.63159433  0.84458425  0.71492398  1
  O  O28  1  0.04878225  0.05030588  0.35740214  1
  O  O29  1  0.04345861  0.38751336  0.35937813  1
  O  O30  1  0.04273597  0.71667886  0.36022507  1
  O  O31  1  0.28966577  0.71738842  0.62596712  1
  O  O32  1  0.29892913  0.05636519  0.61950401  1
  O  O33  1  0.28770216  0.39088267  0.62804751  1
  O  O34  1  0.34392753  0.93433285  0.92904410  1
  O  O35  1  0.35526135  0.26211745  0.95041344  1
  O  O36  1  0.35081846  0.60352442  0.95277721  1
