# generated using pymatgen
data_Li11Fe12(BO3)12
_symmetry_space_group_name_H-M   'P 1'
_cell_length_a   9.06624206
_cell_length_b   9.07925445
_cell_length_c   11.47254536
_cell_angle_alpha   91.16549876
_cell_angle_beta   67.97390103
_cell_angle_gamma   59.90999255
_symmetry_Int_Tables_number   1
_chemical_formula_structural   Li11Fe12(BO3)12
_chemical_formula_sum   'Li11 Fe12 B12 O36'
_cell_volume   731.45427161
_cell_formula_units_Z   1
loop_
 _symmetry_equiv_pos_site_id
 _symmetry_equiv_pos_as_xyz
  1  'x, y, z'
loop_
 _atom_site_type_symbol
 _atom_site_label
 _atom_site_symmetry_multiplicity
 _atom_site_fract_x
 _atom_site_fract_y
 _atom_site_fract_z
 _atom_site_occupancy
  Li  Li0  1  -0.00238346  0.57730880  0.58743527  1
  Li  Li1  1  0.70712954  0.57009293  0.83955932  1
  Li  Li2  1  0.67265985  0.23944912  0.58625194  1
  Li  Li3  1  0.73674796  0.04658143  0.33201231  1
  Li  Li4  1  0.37939970  0.23028548  0.83875016  1
  Li  Li5  1  0.65100629  0.75870928  0.09257161  1
  Li  Li6  1  0.32642193  0.91944662  0.60089545  1
  Li  Li7  1  0.39419776  0.72096234  0.33288077  1
  Li  Li8  1  0.04349949  0.90141811  0.84219968  1
  Li  Li9  1  0.31806505  0.42264117  0.08860609  1
  Li  Li10  1  0.06415322  0.38102234  0.33529285  1
  Fe  Fe11  1  0.98280738  0.25077151  0.61923044  1
  Fe  Fe12  1  0.69276537  0.24671157  0.87274810  1
  Fe  Fe13  1  0.97752583  0.40726783  0.11677019  1
  Fe  Fe14  1  0.63793948  0.92671518  0.62106774  1
  Fe  Fe15  1  0.71170101  0.39183889  0.35974193  1
  Fe  Fe16  1  0.35039473  0.91910393  0.88026882  1
  Fe  Fe17  1  0.65864127  0.09856191  0.11502103  1
  Fe  Fe18  1  0.31272638  0.59140624  0.62053657  1
  Fe  Fe19  1  0.38103520  0.06376240  0.36409060  1
  Fe  Fe20  1  0.02339665  0.57547641  0.87640817  1
  Fe  Fe21  1  0.28486498  0.77704642  0.11991673  1
  Fe  Fe22  1  0.03799989  0.73008060  0.36650153  1
  B  B23  1  0.97335081  0.92326142  0.62440313  1
  B  B24  1  0.69732606  0.90506266  0.87272179  1
  B  B25  1  0.96943300  0.75259806  0.12774922  1
  B  B26  1  0.63661887  0.59760748  0.62572133  1
  B  B27  1  0.69420811  0.73556128  0.37759497  1
  B  B28  1  0.36263104  0.57024146  0.87134184  1
  B  B29  1  0.62484911  0.44276725  0.12562161  1
  B  B30  1  0.31156495  0.26490718  0.62303061  1
  B  B31  1  0.35894232  0.40591519  0.38134678  1
  B  B32  1  0.03566614  0.23344620  0.86410635  1
  B  B33  1  0.31694565  0.09632323  0.12449404  1
  B  B34  1  0.02967632  0.07031877  0.37352473  1
  O  O35  1  0.87951851  0.32528825  0.83634092  1
  O  O36  1  0.77308241  0.99456128  0.90016171  1
  O  O37  1  0.76542911  0.73407372  0.88594856  1
  O  O38  1  0.91791287  0.82370225  0.58497979  1
  O  O39  1  0.86353942  0.10696897  0.65302099  1
  O  O40  1  0.80368681  0.51538245  0.63726404  1
  O  O41  1  0.84366962  0.15327099  0.39039088  1
  O  O42  1  0.55185338  0.98595115  0.83501574  1
  O  O43  1  0.81390143  0.55296914  0.34208935  1
  O  O44  1  0.42321546  0.66736432  0.90974798  1
  O  O45  1  0.75490343  0.84010706  0.40645897  1
  O  O46  1  0.43010497  0.39975670  0.88357662  1
  O  O47  1  0.87576083  0.93047719  0.14452516  1
  O  O48  1  0.57438693  0.49669922  0.58978436  1
  O  O49  1  0.91577297  0.65285732  0.08181463  1
  O  O50  1  0.52316002  0.77941893  0.65358709  1
  O  O51  1  0.77241571  0.36017943  0.15966565  1
  O  O52  1  0.47563516  0.18882571  0.63808031  1
  O  O53  1  0.51120229  0.81774327  0.38777761  1
  O  O54  1  0.22498977  0.64691123  0.82276960  1
  O  O55  1  0.48496569  0.22546499  0.34070438  1
  O  O56  1  0.10645579  0.32349373  0.89931613  1
  O  O57  1  0.41309054  0.51374118  0.42066874  1
  O  O58  1  0.11828365  0.05745212  0.85515244  1
  O  O59  1  0.53250282  0.62174249  0.13754349  1
  O  O60  1  0.25077061  0.16760696  0.58641523  1
  O  O61  1  0.56570489  0.34446631  0.08431219  1
  O  O62  1  0.19792920  0.45185889  0.64879966  1
  O  O63  1  0.46867843  0.01589169  0.15696874  1
  O  O64  1  0.14453250  0.83958392  0.63650290  1
  O  O65  1  0.17978780  0.48531454  0.38709571  1
  O  O66  1  0.14846400  0.88657322  0.33069999  1
  O  O67  1  0.09466485  0.16951562  0.40306304  1
  O  O68  1  0.21905323  0.27757506  0.13849621  1
  O  O69  1  0.26440369  0.99728027  0.08015750  1
  O  O70  1  0.12501629  0.66863575  0.15656296  1
