# generated using pymatgen
data_Li2Cu2(SO4)3
_symmetry_space_group_name_H-M   'P 1'
_cell_length_a   12.77888208
_cell_length_b   8.58778549
_cell_length_c   8.59295738
_cell_angle_alpha   90.00406495
_cell_angle_beta   89.98902023
_cell_angle_gamma   89.99436884
_symmetry_Int_Tables_number   1
_chemical_formula_structural   Li2Cu2(SO4)3
_chemical_formula_sum   'Li8 Cu8 S12 O48'
_cell_volume   943.01086653
_cell_formula_units_Z   4
loop_
 _symmetry_equiv_pos_site_id
 _symmetry_equiv_pos_as_xyz
  1  'x, y, z'
loop_
 _atom_site_type_symbol
 _atom_site_label
 _atom_site_symmetry_multiplicity
 _atom_site_fract_x
 _atom_site_fract_y
 _atom_site_fract_z
 _atom_site_occupancy
  Li  Li0  1  0.18591519  0.22249687  0.27630091  1
  Li  Li1  1  0.18592160  0.77750017  0.77635368  1
  Li  Li2  1  0.31409007  0.27750468  0.77629948  1
  Li  Li3  1  0.31411260  0.72248345  0.27629835  1
  Li  Li4  1  0.68589761  0.27750377  0.72376468  1
  Li  Li5  1  0.68589841  0.72248823  0.22374513  1
  Li  Li6  1  0.81405892  0.22250291  0.22366375  1
  Li  Li7  1  0.81406225  0.77750441  0.72367579  1
  Cu  Cu8  1  0.10742160  0.25010506  0.96085909  1
  Cu  Cu9  1  0.10731519  0.74992613  0.46088537  1
  Cu  Cu10  1  0.39260014  0.75011714  0.96086738  1
  Cu  Cu11  1  0.39257795  0.24989905  0.46089374  1
  Cu  Cu12  1  0.60746002  0.24987438  0.03911053  1
  Cu  Cu13  1  0.60743680  0.75011056  0.53911671  1
  Cu  Cu14  1  0.89259484  0.25012279  0.53910380  1
  Cu  Cu15  1  0.89264609  0.74991603  0.03911888  1
  S  S16  1  0.00005850  0.45693792  0.25001958  1
  S  S17  1  0.00004704  0.54319271  0.75003437  1
  S  S18  1  0.14357725  0.10019817  0.60798696  1
  S  S19  1  0.14347545  0.89978023  0.10807300  1
  S  S20  1  0.35657328  0.39979146  0.10804070  1
  S  S21  1  0.35653082  0.60020413  0.60796919  1
  S  S22  1  0.50001184  0.04318230  0.74997130  1
  S  S23  1  0.50001398  0.95687686  0.24998643  1
  S  S24  1  0.64340310  0.39982682  0.39188606  1
  S  S25  1  0.64350364  0.60017335  0.89193202  1
  S  S26  1  0.85658261  0.10021490  0.89206952  1
  S  S27  1  0.85664264  0.89967161  0.39202551  1
  O  O28  1  0.03345367  0.13382107  0.57881294  1
  O  O29  1  0.03355126  0.86619512  0.07883959  1
  O  O30  1  0.05886909  0.54792245  0.36522099  1
  O  O31  1  0.05885734  0.45214991  0.86521007  1
  O  O32  1  0.07967577  0.35405671  0.17201376  1
  O  O33  1  0.07970074  0.64601760  0.67193185  1
  O  O34  1  0.16053566  0.07287014  0.11359092  1
  O  O35  1  0.16053532  0.92702938  0.61353137  1
  O  O36  1  0.17911044  0.16475964  0.76259495  1
  O  O37  1  0.17906850  0.83517249  0.26267044  1
  O  O38  1  0.21200927  0.83286788  0.98578911  1
  O  O39  1  0.21198880  0.16709364  0.48581230  1
  O  O40  1  0.28800352  0.33288820  0.98578280  1
  O  O41  1  0.28796862  0.66712897  0.48580905  1
  O  O42  1  0.32089390  0.66480437  0.76262348  1
  O  O43  1  0.32089509  0.33523456  0.26255512  1
  O  O44  1  0.33944240  0.42713249  0.61360363  1
  O  O45  1  0.33944279  0.57291050  0.11358112  1
  O  O46  1  0.42033203  0.14593748  0.67204545  1
  O  O47  1  0.42031644  0.85402677  0.17200311  1
  O  O48  1  0.44115796  0.04784610  0.36519081  1
  O  O49  1  0.44113899  0.95210642  0.86522868  1
  O  O50  1  0.46635731  0.63379226  0.57885889  1
  O  O51  1  0.46630111  0.36621565  0.07887753  1
  O  O52  1  0.53363555  0.36622001  0.42113399  1
  O  O53  1  0.53356635  0.63381440  0.92115979  1
  O  O54  1  0.55882959  0.04780678  0.13484374  1
  O  O55  1  0.55885384  0.95211889  0.63480258  1
  O  O56  1  0.57963766  0.14591600  0.82790630  1
  O  O57  1  0.57965307  0.85404047  0.32795763  1
  O  O58  1  0.66055203  0.42721462  0.88637437  1
  O  O59  1  0.66054685  0.57284082  0.38639697  1
  O  O60  1  0.67911202  0.33524187  0.23749223  1
  O  O61  1  0.67909159  0.66478222  0.73745573  1
  O  O62  1  0.71203162  0.33283098  0.51431181  1
  O  O63  1  0.71199685  0.66713686  0.01424035  1
  O  O64  1  0.78805155  0.16708241  0.01420993  1
  O  O65  1  0.78803287  0.83287745  0.51419799  1
  O  O66  1  0.82088702  0.16479910  0.73736579  1
  O  O67  1  0.82090990  0.83517999  0.23737877  1
  O  O68  1  0.83945900  0.07295663  0.38639190  1
  O  O69  1  0.83945832  0.92708557  0.88642498  1
  O  O70  1  0.92030279  0.35400290  0.32800703  1
  O  O71  1  0.92032397  0.64599384  0.82799739  1
  O  O72  1  0.94110213  0.45207981  0.63471549  1
  O  O73  1  0.94113576  0.54790829  0.13476026  1
  O  O74  1  0.96638123  0.13376966  0.92112004  1
  O  O75  1  0.96641302  0.86621452  0.42112510  1
