# generated using pymatgen
data_Li5Bi2(BO3)4
_symmetry_space_group_name_H-M   'P 1'
_cell_length_a   8.87365042
_cell_length_b   6.47376933
_cell_length_c   10.17330228
_cell_angle_alpha   90.00000000
_cell_angle_beta   66.00804516
_cell_angle_gamma   90.00000000
_symmetry_Int_Tables_number   1
_chemical_formula_structural   Li5Bi2(BO3)4
_chemical_formula_sum   'Li10 Bi4 B8 O24'
_cell_volume   533.92320148
_cell_formula_units_Z   2
loop_
 _symmetry_equiv_pos_site_id
 _symmetry_equiv_pos_as_xyz
  1  'x, y, z'
loop_
 _atom_site_type_symbol
 _atom_site_label
 _atom_site_symmetry_multiplicity
 _atom_site_fract_x
 _atom_site_fract_y
 _atom_site_fract_z
 _atom_site_occupancy
  Li  Li0  1  0.12335278  0.27336066  0.48848249  1
  Li  Li1  1  0.38244706  0.76626893  0.02065100  1
  Li  Li2  1  0.27986534  0.76605572  0.54886845  1
  Li  Li3  1  0.20189893  0.27852297  0.95543797  1
  Li  Li4  1  0.77986534  0.73394428  0.04886845  1
  Li  Li5  1  0.46047776  0.06660760  0.83374257  1
  Li  Li6  1  0.70189893  0.22147703  0.45543797  1
  Li  Li7  1  0.62335278  0.22663934  0.98848249  1
  Li  Li8  1  0.96047776  0.43339240  0.33374257  1
  Li  Li9  1  0.88244706  0.73373107  0.52065100  1
  Bi  Bi10  1  0.00732999  0.01811815  0.79357410  1
  Bi  Bi11  1  0.50732999  0.48188185  0.29357410  1
  Bi  Bi12  1  0.48450950  0.53249639  0.70338361  1
  Bi  Bi13  1  0.98450950  0.96750361  0.20338361  1
  B  B14  1  0.28243242  0.16912179  0.17764084  1
  B  B15  1  0.21847073  0.65601495  0.31679864  1
  B  B16  1  0.16525844  0.67711980  0.89163754  1
  B  B17  1  0.33860199  0.17291200  0.61190327  1
  B  B18  1  0.66525844  0.82288020  0.39163754  1
  B  B19  1  0.83860199  0.32708800  0.11190327  1
  B  B20  1  0.78243242  0.33087821  0.67764084  1
  B  B21  1  0.71847073  0.84398505  0.81679864  1
  O  O22  1  0.06473287  0.70542012  0.31997145  1
  O  O23  1  0.12847133  0.20342189  0.29038646  1
  O  O24  1  0.28358945  0.06473913  0.05581306  1
  O  O25  1  0.22580532  0.55250252  0.43460335  1
  O  O26  1  0.36765215  0.69529590  0.20477626  1
  O  O27  1  0.02202297  0.77663972  0.98209720  1
  O  O28  1  0.23444427  0.06713504  0.56523794  1
  O  O29  1  0.42998257  0.23306410  0.17671765  1
  O  O30  1  0.21704320  0.70070052  0.74538650  1
  O  O31  1  0.30907769  0.18334675  0.75637289  1
  O  O32  1  0.26311083  0.56606582  0.94363056  1
  O  O33  1  0.47203241  0.28501993  0.51694518  1
  O  O34  1  0.52202297  0.72336028  0.48209720  1
  O  O35  1  0.73444427  0.43286496  0.06523794  1
  O  O36  1  0.71704320  0.79929948  0.24538650  1
  O  O37  1  0.80907769  0.31665325  0.25637289  1
  O  O38  1  0.56473287  0.79457988  0.81997145  1
  O  O39  1  0.76311083  0.93393418  0.44363056  1
  O  O40  1  0.97203241  0.21498007  0.01694518  1
  O  O41  1  0.62847133  0.29657811  0.79038646  1
  O  O42  1  0.78358945  0.43526087  0.55581306  1
  O  O43  1  0.72580532  0.94749748  0.93460335  1
  O  O44  1  0.86765215  0.80470410  0.70477626  1
  O  O45  1  0.92998257  0.26693590  0.67671765  1
