# generated using pymatgen
data_Tm2TiO5
_symmetry_space_group_name_H-M   'P 1'
_cell_length_a   7.40388518
_cell_length_b   3.59102209
_cell_length_c   15.35163266
_cell_angle_alpha   90.00000000
_cell_angle_beta   90.00000000
_cell_angle_gamma   90.00000000
_symmetry_Int_Tables_number   1
_chemical_formula_structural   Tm2TiO5
_chemical_formula_sum   'Tm8 Ti4 O20'
_cell_volume   408.16176720
_cell_formula_units_Z   4
loop_
 _symmetry_equiv_pos_site_id
 _symmetry_equiv_pos_as_xyz
  1  'x, y, z'
loop_
 _atom_site_type_symbol
 _atom_site_label
 _atom_site_symmetry_multiplicity
 _atom_site_fract_x
 _atom_site_fract_y
 _atom_site_fract_z
 _atom_site_occupancy
  Tm  Tm0  1  0.10103243  0.25000000  0.08440596  1
  Tm  Tm1  1  0.16006093  0.25000000  0.73757177  1
  Tm  Tm2  1  0.33993907  0.75000000  0.23757177  1
  Tm  Tm3  1  0.39896757  0.75000000  0.58440596  1
  Tm  Tm4  1  0.60103243  0.25000000  0.41559404  1
  Tm  Tm5  1  0.66006093  0.25000000  0.76242823  1
  Tm  Tm6  1  0.83993907  0.75000000  0.26242823  1
  Tm  Tm7  1  0.89896757  0.75000000  0.91559404  1
  Ti  Ti8  1  0.11554733  0.25000000  0.42322880  1
  Ti  Ti9  1  0.38445267  0.75000000  0.92322880  1
  Ti  Ti10  1  0.61554733  0.25000000  0.07677120  1
  Ti  Ti11  1  0.88445267  0.75000000  0.57677120  1
  O  O12  1  0.07193155  0.75000000  0.17459640  1
  O  O13  1  0.07485537  0.75000000  0.45347701  1
  O  O14  1  0.12019301  0.75000000  0.64886561  1
  O  O15  1  0.15509976  0.75000000  0.99565296  1
  O  O16  1  0.25138672  0.25000000  0.32211171  1
  O  O17  1  0.24861328  0.75000000  0.82211171  1
  O  O18  1  0.34490024  0.25000000  0.49565296  1
  O  O19  1  0.37980699  0.25000000  0.14886561  1
  O  O20  1  0.42514463  0.25000000  0.95347701  1
  O  O21  1  0.42806845  0.25000000  0.67459640  1
  O  O22  1  0.57193155  0.75000000  0.32540360  1
  O  O23  1  0.57485537  0.75000000  0.04652299  1
  O  O24  1  0.62019301  0.75000000  0.85113439  1
  O  O25  1  0.65509976  0.75000000  0.50434704  1
  O  O26  1  0.75138672  0.25000000  0.17788829  1
  O  O27  1  0.74861328  0.75000000  0.67788829  1
  O  O28  1  0.84490024  0.25000000  0.00434704  1
  O  O29  1  0.87980699  0.25000000  0.35113439  1
  O  O30  1  0.92514463  0.25000000  0.54652299  1
  O  O31  1  0.92806845  0.25000000  0.82540360  1
