# generated using pymatgen
data_Li6MgNi7O16
_symmetry_space_group_name_H-M   'P 1'
_cell_length_a   5.08087411
_cell_length_b   11.22529555
_cell_length_c   4.91354819
_cell_angle_alpha   94.48160354
_cell_angle_beta   79.64758546
_cell_angle_gamma   99.72044504
_symmetry_Int_Tables_number   1
_chemical_formula_structural   Li6MgNi7O16
_chemical_formula_sum   'Li6 Mg1 Ni7 O16'
_cell_volume   271.39061807
_cell_formula_units_Z   1
loop_
 _symmetry_equiv_pos_site_id
 _symmetry_equiv_pos_as_xyz
  1  'x, y, z'
loop_
 _atom_site_type_symbol
 _atom_site_label
 _atom_site_symmetry_multiplicity
 _atom_site_fract_x
 _atom_site_fract_y
 _atom_site_fract_z
 _atom_site_occupancy
  Li  Li0  1  0.54804996  0.05447962  0.74798122  1
  Li  Li1  1  0.70195004  0.19552038  0.25201878  1
  Li  Li2  1  0.80757638  0.31970826  0.73936709  1
  Li  Li3  1  0.06513348  0.56512445  0.74653745  1
  Li  Li4  1  0.18486652  0.68487555  0.25346255  1
  Li  Li5  1  0.44242362  0.93029174  0.26063291  1
  Mg  Mg6  1  0.12500000  0.12500000  0.50000000  1
  Ni  Ni7  1  0.00251018  0.00103157  0.00654961  1
  Ni  Ni8  1  0.24748982  0.24896843  0.99345039  1
  Ni  Ni9  1  0.36868748  0.37358675  0.49089995  1
  Ni  Ni10  1  0.49187028  0.50037652  0.99917035  1
  Ni  Ni11  1  0.62500000  0.62500000  0.50000000  1
  Ni  Ni12  1  0.75812972  0.74962348  0.00082965  1
  Ni  Ni13  1  0.88131252  0.87641325  0.50910005  1
  O  O14  1  0.31786422  0.09984710  0.10703367  1
  O  O15  1  0.78975217  0.02918804  0.35720247  1
  O  O16  1  0.06403551  0.28156395  0.35606236  1
  O  O17  1  0.46024783  0.22081196  0.64279753  1
  O  O18  1  0.93213578  0.15015290  0.89296733  1
  O  O19  1  0.54819104  0.34653466  0.11734783  1
  O  O20  1  0.16797912  0.38815413  0.84957527  1
  O  O21  1  0.32105733  0.54033938  0.36471524  1
  O  O22  1  0.67396443  0.47541543  0.62970986  1
  O  O23  1  0.82686146  0.60818119  0.13811308  1
  O  O24  1  0.42313854  0.64181881  0.86188692  1
  O  O25  1  0.08202088  0.86184587  0.15042473  1
  O  O26  1  0.57603557  0.77458457  0.37029014  1
  O  O27  1  0.92894267  0.70966062  0.63528476  1
  O  O28  1  0.18596449  0.96843605  0.64393764  1
  O  O29  1  0.70180896  0.90346534  0.88265217  1
