# generated using pymatgen
data_CuH3C2NO4
_symmetry_space_group_name_H-M   'P 1'
_cell_length_a   8.66412089
_cell_length_b   9.67038565
_cell_length_c   11.25667924
_cell_angle_alpha   90.00000000
_cell_angle_beta   90.00000000
_cell_angle_gamma   90.00000000
_symmetry_Int_Tables_number   1
_chemical_formula_structural   CuH3C2NO4
_chemical_formula_sum   'Cu8 H24 C16 N8 O32'
_cell_volume   943.14526388
_cell_formula_units_Z   8
loop_
 _symmetry_equiv_pos_site_id
 _symmetry_equiv_pos_as_xyz
  1  'x, y, z'
loop_
 _atom_site_type_symbol
 _atom_site_label
 _atom_site_symmetry_multiplicity
 _atom_site_fract_x
 _atom_site_fract_y
 _atom_site_fract_z
 _atom_site_occupancy
  Cu  Cu0  1  0.88679789  0.76032995  0.92641977  1
  Cu  Cu1  1  0.11320211  0.73967005  0.42641977  1
  Cu  Cu2  1  0.38679789  0.73967005  0.92641977  1
  Cu  Cu3  1  0.61320211  0.76032995  0.42641977  1
  Cu  Cu4  1  0.38679789  0.23967005  0.57358023  1
  Cu  Cu5  1  0.88679789  0.26032995  0.57358023  1
  Cu  Cu6  1  0.61320211  0.26032995  0.07358023  1
  Cu  Cu7  1  0.11320211  0.23967005  0.07358023  1
  H  H8  1  0.75089576  0.10915732  0.72717468  1
  H  H9  1  0.22472699  0.72697461  0.74014337  1
  H  H10  1  0.24910424  0.89084268  0.27282532  1
  H  H11  1  0.10965190  0.30366083  0.29430121  1
  H  H12  1  0.89034810  0.19633917  0.79430121  1
  H  H13  1  0.60965190  0.19633917  0.29430121  1
  H  H14  1  0.39034810  0.80366083  0.70569879  1
  H  H15  1  0.39034810  0.30366083  0.79430121  1
  H  H16  1  0.77527301  0.27302539  0.25985663  1
  H  H17  1  0.27527301  0.72697461  0.24014337  1
  H  H18  1  0.25089576  0.39084268  0.72717468  1
  H  H19  1  0.22472699  0.22697461  0.75985663  1
  H  H20  1  0.89034810  0.69633917  0.70569879  1
  H  H21  1  0.10965190  0.80366083  0.20569879  1
  H  H22  1  0.72472699  0.77302539  0.74014337  1
  H  H23  1  0.27527301  0.22697461  0.25985663  1
  H  H24  1  0.77527301  0.77302539  0.24014337  1
  H  H25  1  0.24910424  0.39084268  0.22717468  1
  H  H26  1  0.25089576  0.89084268  0.77282532  1
  H  H27  1  0.72472699  0.27302539  0.75985663  1
  H  H28  1  0.60965190  0.69633917  0.20569879  1
  H  H29  1  0.75089576  0.60915732  0.77282532  1
  H  H30  1  0.74910424  0.10915732  0.22717468  1
  H  H31  1  0.74910424  0.60915732  0.27282532  1
  C  C32  1  0.51183173  0.47768638  0.93532298  1
  C  C33  1  0.98816827  0.97768638  0.06467702  1
  C  C34  1  0.51183173  0.97768638  0.56467702  1
  C  C35  1  0.98816827  0.47768638  0.43532298  1
  C  C36  1  0.08488083  0.51330780  0.98036415  1
  C  C37  1  0.08488083  0.01330780  0.51963585  1
  C  C38  1  0.01183173  0.02231362  0.93532298  1
  C  C39  1  0.91511917  0.48669220  0.01963585  1
  C  C40  1  0.58488083  0.98669220  0.98036415  1
  C  C41  1  0.48816827  0.02231362  0.43532298  1
  C  C42  1  0.41511917  0.01330780  0.01963585  1
  C  C43  1  0.91511917  0.98669220  0.48036415  1
  C  C44  1  0.41511917  0.51330780  0.48036415  1
  C  C45  1  0.48816827  0.52231362  0.06467702  1
  C  C46  1  0.01183173  0.52231362  0.56467702  1
  C  C47  1  0.58488083  0.48669220  0.51963585  1
  N  N48  1  0.30514944  0.79715566  0.76874679  1
  N  N49  1  0.19485056  0.79715566  0.26874679  1
  N  N50  1  0.80514944  0.70284434  0.76874679  1
  N  N51  1  0.80514944  0.20284434  0.73125321  1
  N  N52  1  0.19485056  0.29715566  0.23125321  1
  N  N53  1  0.69485056  0.20284434  0.23125321  1
  N  N54  1  0.30514944  0.29715566  0.73125321  1
  N  N55  1  0.69485056  0.70284434  0.26874679  1
  O  O56  1  0.52180249  0.93598100  0.35474200  1
  O  O57  1  0.97819751  0.43598100  0.64525800  1
  O  O58  1  0.02180249  0.56401900  0.35474200  1
  O  O59  1  0.06266800  0.64407593  0.58291799  1
  O  O60  1  0.81774950  0.58464544  0.00413578  1
  O  O61  1  0.02180249  0.06401900  0.14525800  1
  O  O62  1  0.52180249  0.43598100  0.14525800  1
  O  O63  1  0.56266800  0.35592407  0.91708201  1
  O  O64  1  0.43733200  0.64407593  0.08291799  1
  O  O65  1  0.11642329  0.62914863  0.93599507  1
  O  O66  1  0.88357671  0.37085137  0.06400493  1
  O  O67  1  0.93733200  0.35592407  0.41708201  1
  O  O68  1  0.11642329  0.12914863  0.56400493  1
  O  O69  1  0.38357671  0.12914863  0.06400493  1
  O  O70  1  0.06266800  0.14407593  0.91708201  1
  O  O71  1  0.81774950  0.08464544  0.49586422  1
  O  O72  1  0.61642329  0.87085137  0.93599507  1
  O  O73  1  0.47819751  0.06401900  0.64525800  1
  O  O74  1  0.18225050  0.41535456  0.99586422  1
  O  O75  1  0.18225050  0.91535456  0.50413578  1
  O  O76  1  0.31774950  0.41535456  0.49586422  1
  O  O77  1  0.88357671  0.87085137  0.43599507  1
  O  O78  1  0.68225050  0.08464544  0.99586422  1
  O  O79  1  0.38357671  0.62914863  0.43599507  1
  O  O80  1  0.47819751  0.56401900  0.85474200  1
  O  O81  1  0.61642329  0.37085137  0.56400493  1
  O  O82  1  0.68225050  0.58464544  0.50413578  1
  O  O83  1  0.93733200  0.85592407  0.08291799  1
  O  O84  1  0.56266800  0.85592407  0.58291799  1
  O  O85  1  0.97819751  0.93598100  0.85474200  1
  O  O86  1  0.31774950  0.91535456  0.00413578  1
  O  O87  1  0.43733200  0.14407593  0.41708201  1
