# generated using pymatgen
data_Li3Mn2P2(CO7)2
_symmetry_space_group_name_H-M   'P 1'
_cell_length_a   8.29658805
_cell_length_b   10.10134866
_cell_length_c   6.47932013
_cell_angle_alpha   90.18635162
_cell_angle_beta   90.47547752
_cell_angle_gamma   85.69765844
_symmetry_Int_Tables_number   1
_chemical_formula_structural   Li3Mn2P2(CO7)2
_chemical_formula_sum   'Li6 Mn4 P4 C4 O28'
_cell_volume   541.45992849
_cell_formula_units_Z   2
loop_
 _symmetry_equiv_pos_site_id
 _symmetry_equiv_pos_as_xyz
  1  'x, y, z'
loop_
 _atom_site_type_symbol
 _atom_site_label
 _atom_site_symmetry_multiplicity
 _atom_site_fract_x
 _atom_site_fract_y
 _atom_site_fract_z
 _atom_site_occupancy
  Li  Li0  1  0.26111814  0.12550155  0.02184295  1
  Li  Li1  1  0.25607898  0.12557784  0.47873993  1
  Li  Li2  1  0.27453157  0.61936136  0.05314859  1
  Li  Li3  1  0.73020158  0.36658497  0.97007977  1
  Li  Li4  1  0.73673388  0.88476719  0.53431392  1
  Li  Li5  1  0.90240291  0.61636640  0.74114672  1
  Mn  Mn6  1  0.32945732  0.40242079  0.74394278  1
  Mn  Mn7  1  0.33159161  0.89574849  0.75038167  1
  Mn  Mn8  1  0.67006058  0.10136752  0.24642347  1
  Mn  Mn9  1  0.67147113  0.60293496  0.25205052  1
  P  P10  1  0.42004614  0.36274414  0.24312297  1
  P  P11  1  0.42179745  0.86579949  0.25187881  1
  P  P12  1  0.57957824  0.13846988  0.75206654  1
  P  P13  1  0.57954568  0.63963968  0.75161914  1
  C  C14  1  0.04260214  0.35459124  0.75818672  1
  C  C15  1  0.05108785  0.85072392  0.74870376  1
  C  C16  1  0.95356899  0.14256023  0.24682619  1
  C  C17  1  0.95449708  0.64653288  0.24649878  1
  O  O18  1  0.08571507  0.47658048  0.75133320  1
  O  O19  1  0.10086961  0.16452631  0.24677767  1
  O  O20  1  0.09930997  0.97120546  0.74377054  1
  O  O21  1  0.17049282  0.26569520  0.74449457  1
  O  O22  1  0.09696765  0.67214353  0.22710707  1
  O  O23  1  0.17326042  0.76021329  0.77338126  1
  O  O24  1  0.30837647  0.40885832  0.06020767  1
  O  O25  1  0.32558128  0.40186434  0.43773748  1
  O  O26  1  0.32508749  0.92194060  0.06239328  1
  O  O27  1  0.31432909  0.91004671  0.43744064  1
  O  O28  1  0.40992869  0.07845650  0.74520859  1
  O  O29  1  0.45350957  0.20637922  0.23635509  1
  O  O30  1  0.41914341  0.57384815  0.77091837  1
  O  O31  1  0.45674085  0.71238950  0.23237509  1
  O  O32  1  0.54222888  0.29170510  0.76357551  1
  O  O33  1  0.58423746  0.42489359  0.22408746  1
  O  O34  1  0.53959719  0.79266534  0.74277118  1
  O  O35  1  0.58806945  0.92514412  0.27322788  1
  O  O36  1  0.68093199  0.09085119  0.94006503  1
  O  O37  1  0.67949874  0.09158986  0.56223557  1
  O  O38  1  0.68516568  0.59737421  0.56447656  1
  O  O39  1  0.69714709  0.59816490  0.93241691  1
  O  O40  1  0.83475632  0.23595433  0.23140293  1
  O  O41  1  0.90264640  0.32280452  0.77694453  1
  O  O42  1  0.83299400  0.73794149  0.27233894  1
  O  O43  1  0.90018696  0.02484858  0.26288672  1
  O  O44  1  0.90904659  0.81862351  0.72784951  1
  O  O45  1  0.90158262  0.52676815  0.24143151  1
