# generated using pymatgen
data_Li3Mn2P2(CO7)2
_symmetry_space_group_name_H-M   'P 1'
_cell_length_a   8.31497629
_cell_length_b   5.06316065
_cell_length_c   6.47587453
_cell_angle_alpha   90.20232198
_cell_angle_beta   89.07309748
_cell_angle_gamma   85.87249644
_symmetry_Int_Tables_number   1
_chemical_formula_structural   Li3Mn2P2(CO7)2
_chemical_formula_sum   'Li3 Mn2 P2 C2 O14'
_cell_volume   271.88899517
_cell_formula_units_Z   1
loop_
 _symmetry_equiv_pos_site_id
 _symmetry_equiv_pos_as_xyz
  1  'x, y, z'
loop_
 _atom_site_type_symbol
 _atom_site_label
 _atom_site_symmetry_multiplicity
 _atom_site_fract_x
 _atom_site_fract_y
 _atom_site_fract_z
 _atom_site_occupancy
  Li  Li0  1  0.26515486  0.23970796  0.46235747  1
  Li  Li1  1  0.74672704  0.75341167  0.51422208  1
  Li  Li2  1  0.74784925  0.75576558  0.98194068  1
  Mn  Mn3  1  0.33004349  0.79841720  0.75528656  1
  Mn  Mn4  1  0.66378271  0.20936220  0.25029524  1
  P  P5  1  0.41965983  0.72310616  0.25319252  1
  P  P6  1  0.57752870  0.27075565  0.74675865  1
  C  C7  1  0.04660374  0.71746738  0.74344903  1
  C  C8  1  0.94905521  0.29027871  0.25573666  1
  O  O9  1  0.09849733  0.95365612  0.75537685  1
  O  O10  1  0.09059711  0.33549216  0.27653727  1
  O  O11  1  0.16525365  0.53189574  0.73399985  1
  O  O12  1  0.32389979  0.79541442  0.06119249  1
  O  O13  1  0.31724409  0.83167898  0.43938544  1
  O  O14  1  0.41123818  0.15525137  0.73439710  1
  O  O15  1  0.45662227  0.41721408  0.27910652  1
  O  O16  1  0.54994070  0.58107604  0.74588982  1
  O  O17  1  0.58884464  0.84252206  0.25012860  1
  O  O18  1  0.67200324  0.17250731  0.93807837  1
  O  O19  1  0.68721285  0.17262234  0.56245682  1
  O  O20  1  0.82811879  0.48097634  0.24668128  1
  O  O21  1  0.89977374  0.67107590  0.74353862  1
  O  O22  1  0.89140780  0.05444363  0.24380807  1
