# generated using pymatgen
data_Li4Ti2Mn3Fe3O16
_symmetry_space_group_name_H-M   'P 1'
_cell_length_a   5.91452248
_cell_length_b   5.94843532
_cell_length_c   9.52728718
_cell_angle_alpha   90.88837392
_cell_angle_beta   88.77078153
_cell_angle_gamma   120.43794830
_symmetry_Int_Tables_number   1
_chemical_formula_structural   Li4Ti2Mn3Fe3O16
_chemical_formula_sum   'Li4 Ti2 Mn3 Fe3 O16'
_cell_volume   288.92328812
_cell_formula_units_Z   1
loop_
 _symmetry_equiv_pos_site_id
 _symmetry_equiv_pos_as_xyz
  1  'x, y, z'
loop_
 _atom_site_type_symbol
 _atom_site_label
 _atom_site_symmetry_multiplicity
 _atom_site_fract_x
 _atom_site_fract_y
 _atom_site_fract_z
 _atom_site_occupancy
  Li  Li0  1  0.34269690  0.66403804  0.89747355  1
  Li  Li1  1  0.99460863  0.99879551  0.99424577  1
  Li  Li2  1  0.99166400  0.99884278  0.49461607  1
  Li  Li3  1  0.67564866  0.33768135  0.39642231  1
  Ti  Ti4  1  0.32771226  0.66794410  0.49428640  1
  Ti  Ti5  1  0.66775731  0.33218107  0.99463823  1
  Mn  Mn6  1  0.65671975  0.82993261  0.21547105  1
  Mn  Mn7  1  0.83222434  0.66055998  0.71371949  1
  Mn  Mn8  1  0.82486821  0.16877707  0.71605526  1
  Fe  Fe9  1  0.16882681  0.82864334  0.21455230  1
  Fe  Fe10  1  0.16858024  0.34030945  0.21504849  1
  Fe  Fe11  1  0.33888846  0.17404182  0.71605814  1
  O  O12  1  0.16193003  0.83399978  0.59304663  1
  O  O13  1  0.04432606  0.52474769  0.34664017  1
  O  O14  1  0.34532468  0.66990374  0.10524926  1
  O  O15  1  0.98826738  0.99587887  0.30658945  1
  O  O16  1  0.98454911  0.99693536  0.80534477  1
  O  O17  1  0.16387252  0.33635447  0.59699002  1
  O  O18  1  0.49119822  0.96405634  0.33744588  1
  O  O19  1  0.49266388  0.53264195  0.33995670  1
  O  O20  1  0.33564764  0.16405264  0.08873493  1
  O  O21  1  0.65605060  0.85400207  0.59238496  1
  O  O22  1  0.53078638  0.48296885  0.84392207  1
  O  O23  1  0.52345366  0.03597738  0.83777902  1
  O  O24  1  0.67953182  0.33583427  0.60868199  1
  O  O25  1  0.82627395  0.66380508  0.09571817  1
  O  O26  1  0.96371049  0.45207998  0.84765807  1
  O  O27  1  0.82221801  0.15531540  0.09911484  1
