# generated using pymatgen
data_Li12CrGa11O24
_symmetry_space_group_name_H-M   'P 1'
_cell_length_a   9.86144806
_cell_length_b   8.20110042
_cell_length_c   7.47903118
_cell_angle_alpha   65.45267111
_cell_angle_beta   86.67427533
_cell_angle_gamma   78.88202919
_symmetry_Int_Tables_number   1
_chemical_formula_structural   Li12CrGa11O24
_chemical_formula_sum   'Li12 Cr1 Ga11 O24'
_cell_volume   539.70453138
_cell_formula_units_Z   1
loop_
 _symmetry_equiv_pos_site_id
 _symmetry_equiv_pos_as_xyz
  1  'x, y, z'
loop_
 _atom_site_type_symbol
 _atom_site_label
 _atom_site_symmetry_multiplicity
 _atom_site_fract_x
 _atom_site_fract_y
 _atom_site_fract_z
 _atom_site_occupancy
  Li  Li0  1  0.73524599  0.38853962  0.85084522  1
  Li  Li1  1  0.43052969  0.44448100  0.99015280  1
  Li  Li2  1  0.76247469  0.11277360  0.65523801  1
  Li  Li3  1  0.98473368  0.39105490  0.09768347  1
  Li  Li4  1  0.65146772  0.72437877  0.43076448  1
  Li  Li5  1  0.31808897  0.05766458  0.76459069  1
  Li  Li6  1  0.51251047  0.11227236  0.40520727  1
  Li  Li7  1  0.84625942  0.77812653  0.07166491  1
  Li  Li8  1  0.17775139  0.44561446  0.73843304  1
  Li  Li9  1  0.40051407  0.72406036  0.17954021  1
  Li  Li10  1  0.06726492  0.05709172  0.51505541  1
  Li  Li11  1  0.09602180  0.77942217  0.32083150  1
  Cr  Cr12  1  0.48431638  0.38980067  0.60135797  1
  Ga  Ga13  1  0.90236978  0.72389503  0.67907370  1
  Ga  Ga14  1  0.59700952  0.77660511  0.82030180  1
  Ga  Ga15  1  0.93009490  0.44311812  0.48728416  1
  Ga  Ga16  1  0.81887530  0.05490171  0.26417280  1
  Ga  Ga17  1  0.15262335  0.72187264  0.92878074  1
  Ga  Ga18  1  0.68134220  0.44645240  0.23413126  1
  Ga  Ga19  1  0.01447663  0.11140884  0.90295833  1
  Ga  Ga20  1  0.34778209  0.78047642  0.56640225  1
  Ga  Ga21  1  0.23465442  0.39140407  0.34332789  1
  Ga  Ga22  1  0.57094011  0.05186542  0.01892254  1
  Ga  Ga23  1  0.26371956  0.10926977  0.15381629  1
  O  O24  1  0.97953156  0.65878775  0.92752559  1
  O  O25  1  0.87431636  0.26399039  0.71829406  1
  O  O26  1  0.68424871  0.92751290  0.88678202  1
  O  O27  1  0.72882717  0.65730623  0.70165533  1
  O  O28  1  0.55819509  0.29992284  0.86697536  1
  O  O29  1  0.88678114  0.97483926  0.52112293  1
  O  O30  1  0.78233880  0.58022642  0.31029772  1
  O  O31  1  0.11572267  0.24666733  0.97670525  1
  O  O32  1  0.44884668  0.91353630  0.64362261  1
  O  O33  1  0.94224813  0.94585872  0.12696502  1
  O  O34  1  0.27724129  0.61173685  0.79191439  1
  O  O35  1  0.60947483  0.28173208  0.45965326  1
  O  O36  1  0.46820285  0.64993064  0.44770802  1
  O  O37  1  0.80483908  0.30773733  0.12752046  1
  O  O38  1  0.13753094  0.97473800  0.79289357  1
  O  O39  1  0.64686328  0.98865233  0.26708129  1
  O  O40  1  0.30917901  0.32784102  0.59250555  1
  O  O41  1  0.54079673  0.59759012  0.05065983  1
  O  O42  1  0.20621320  0.93191966  0.38466522  1
  O  O43  1  0.01694605  0.59559593  0.55237485  1
  O  O44  1  0.35017726  0.26181155  0.21958242  1
  O  O45  1  0.39552990  0.99213214  0.03373493  1
  O  O46  1  0.06142178  0.32508626  0.36737127  1
  O  O47  1  0.21986246  0.64189867  0.18545332  1
