# generated using pymatgen
data_Rb5FeO4
_symmetry_space_group_name_H-M   'P 1'
_cell_length_a   7.16102848
_cell_length_b   8.76387155
_cell_length_c   7.37527232
_cell_angle_alpha   90.00000000
_cell_angle_beta   90.00000000
_cell_angle_gamma   90.00000000
_symmetry_Int_Tables_number   1
_chemical_formula_structural   Rb5FeO4
_chemical_formula_sum   'Rb10 Fe2 O8'
_cell_volume   462.85980186
_cell_formula_units_Z   2
loop_
 _symmetry_equiv_pos_site_id
 _symmetry_equiv_pos_as_xyz
  1  'x, y, z'
loop_
 _atom_site_type_symbol
 _atom_site_label
 _atom_site_symmetry_multiplicity
 _atom_site_fract_x
 _atom_site_fract_y
 _atom_site_fract_z
 _atom_site_occupancy
  Rb  Rb0  1  0.07791722  0.31127401  0.93889166  1
  Rb  Rb1  1  0.07791722  0.68872599  0.93889166  1
  Rb  Rb2  1  0.25370495  0.70188190  0.37584556  1
  Rb  Rb3  1  0.25370495  0.29811810  0.37584556  1
  Rb  Rb4  1  0.24819274  0.00000000  0.68914566  1
  Rb  Rb5  1  0.57791722  0.81127401  0.06110834  1
  Rb  Rb6  1  0.57791722  0.18872599  0.06110834  1
  Rb  Rb7  1  0.75370495  0.79811810  0.62415444  1
  Rb  Rb8  1  0.75370495  0.20188190  0.62415444  1
  Rb  Rb9  1  0.74819274  0.50000000  0.31085434  1
  Fe  Fe10  1  0.99761175  0.00000000  0.17939501  1
  Fe  Fe11  1  0.49761175  0.50000000  0.82060499  1
  O  O12  1  0.26631821  0.00000000  0.21516816  1
  O  O13  1  0.42733283  0.50000000  0.08085312  1
  O  O14  1  0.40263057  0.30806716  0.72042293  1
  O  O15  1  0.40263057  0.69193284  0.72042293  1
  O  O16  1  0.76631821  0.50000000  0.78483184  1
  O  O17  1  0.92733283  0.00000000  0.91914688  1
  O  O18  1  0.90263057  0.80806716  0.27957707  1
  O  O19  1  0.90263057  0.19193284  0.27957707  1
