# generated using pymatgen
data_Li3Mn2P2(CO7)2
_symmetry_space_group_name_H-M   'P 1'
_cell_length_a   9.43146719
_cell_length_b   10.11955323
_cell_length_c   6.46586333
_cell_angle_alpha   90.00000000
_cell_angle_beta   90.00000000
_cell_angle_gamma   61.81019987
_symmetry_Int_Tables_number   1
_chemical_formula_structural   Li3Mn2P2(CO7)2
_chemical_formula_sum   'Li6 Mn4 P4 C4 O28'
_cell_volume   543.91875724
_cell_formula_units_Z   2
loop_
 _symmetry_equiv_pos_site_id
 _symmetry_equiv_pos_as_xyz
  1  'x, y, z'
loop_
 _atom_site_type_symbol
 _atom_site_label
 _atom_site_symmetry_multiplicity
 _atom_site_fract_x
 _atom_site_fract_y
 _atom_site_fract_z
 _atom_site_occupancy
  Li  Li0  1  0.73772603  0.25030846  0.96087541  1
  Li  Li1  1  0.74662118  0.75213404  0.51253802  1
  Li  Li2  1  0.74661072  0.75005576  0.98650459  1
  Li  Li3  1  0.25337882  0.24786596  0.01253802  1
  Li  Li4  1  0.25338928  0.24994424  0.48650459  1
  Li  Li5  1  0.26227397  0.74969154  0.46087541  1
  Mn  Mn6  1  0.66931383  0.06530306  0.25308396  1
  Mn  Mn7  1  0.66391161  0.55889657  0.25416987  1
  Mn  Mn8  1  0.33608839  0.44110343  0.75416987  1
  Mn  Mn9  1  0.33068617  0.93469694  0.75308396  1
  P  P10  1  0.58058061  0.06897900  0.75078993  1
  P  P11  1  0.57777124  0.57772137  0.75064032  1
  P  P12  1  0.42222876  0.42227863  0.25064032  1
  P  P13  1  0.41941939  0.93102100  0.25078993  1
  C  C14  1  0.95078165  0.38242939  0.24221242  1
  C  C15  1  0.95141632  0.87744924  0.25484830  1
  C  C16  1  0.04858368  0.12255076  0.75484830  1
  C  C17  1  0.04921835  0.61757061  0.74221242  1
  O  O18  1  0.89836089  0.02235714  0.24730171  1
  O  O19  1  0.89054026  0.52929660  0.25450017  1
  O  O20  1  0.90693413  0.21984403  0.77021320  1
  O  O21  1  0.83776036  0.34298952  0.22679707  1
  O  O22  1  0.90152578  0.70789121  0.74688868  1
  O  O23  1  0.82772818  0.84602342  0.24823165  1
  O  O24  1  0.68361024  0.06608782  0.93820058  1
  O  O25  1  0.68062031  0.05841548  0.55936848  1
  O  O26  1  0.67198650  0.58453983  0.94144894  1
  O  O27  1  0.68462175  0.56821563  0.56460357  1
  O  O28  1  0.58962727  0.28190334  0.22952496  1
  O  O29  1  0.54538567  0.43996995  0.76845317  1
  O  O30  1  0.58615923  0.78737198  0.25520790  1
  O  O31  1  0.54814615  0.92964513  0.75741110  1
  O  O32  1  0.45185385  0.07035487  0.25741110  1
  O  O33  1  0.41384077  0.21262802  0.75520790  1
  O  O34  1  0.45461433  0.56003005  0.26845317  1
  O  O35  1  0.41037273  0.71809666  0.72952496  1
  O  O36  1  0.31537825  0.43178437  0.06460357  1
  O  O37  1  0.32801350  0.41546017  0.44144894  1
  O  O38  1  0.31638976  0.93391218  0.43820058  1
  O  O39  1  0.31937969  0.94158452  0.05936848  1
  O  O40  1  0.17227182  0.15397658  0.74823165  1
  O  O41  1  0.09847422  0.29210879  0.24688868  1
  O  O42  1  0.16223964  0.65701048  0.72679707  1
  O  O43  1  0.09306587  0.78015597  0.27021320  1
  O  O44  1  0.10945974  0.47070340  0.75450017  1
  O  O45  1  0.10163911  0.97764286  0.74730171  1
