# generated using pymatgen
data_EuY2O4
_symmetry_space_group_name_H-M   'P 1'
_cell_length_a   10.16602520
_cell_length_b   11.99776999
_cell_length_c   3.42186956
_cell_angle_alpha   89.83660694
_cell_angle_beta   90.19810268
_cell_angle_gamma   90.18368659
_symmetry_Int_Tables_number   1
_chemical_formula_structural   EuY2O4
_chemical_formula_sum   'Eu4 Y8 O16'
_cell_volume   417.35784749
_cell_formula_units_Z   4
loop_
 _symmetry_equiv_pos_site_id
 _symmetry_equiv_pos_as_xyz
  1  'x, y, z'
loop_
 _atom_site_type_symbol
 _atom_site_label
 _atom_site_symmetry_multiplicity
 _atom_site_fract_x
 _atom_site_fract_y
 _atom_site_fract_z
 _atom_site_occupancy
  Eu  Eu0  1  0.24425194  0.35134016  0.75522853  1
  Eu  Eu1  1  0.25314109  0.84819932  0.24778629  1
  Eu  Eu2  1  0.74592343  0.14947586  0.75603285  1
  Eu  Eu3  1  0.75451987  0.64998304  0.25638266  1
  Y  Y4  1  0.07497740  0.11274810  0.74968870  1
  Y  Y5  1  0.07824294  0.60939960  0.75468067  1
  Y  Y6  1  0.42068095  0.10918397  0.25072559  1
  Y  Y7  1  0.42659686  0.61244804  0.24876604  1
  Y  Y8  1  0.57376598  0.38661765  0.75120428  1
  Y  Y9  1  0.57911850  0.88977316  0.75534830  1
  Y  Y10  1  0.91937380  0.38967426  0.25346082  1
  Y  Y11  1  0.92560349  0.88752550  0.25138810  1
  O  O12  1  0.02057366  0.71727281  0.25441495  1
  O  O13  1  0.07962518  0.92298630  0.74876644  1
  O  O14  1  0.12379657  0.47642114  0.25428824  1
  O  O15  1  0.20937999  0.17748567  0.25040175  1
  O  O16  1  0.29103648  0.67337813  0.74978639  1
  O  O17  1  0.37345812  0.97691670  0.75293908  1
  O  O18  1  0.41973563  0.42243752  0.25347694  1
  O  O19  1  0.48383815  0.21475604  0.75083552  1
  O  O20  1  0.51832133  0.78354236  0.25513387  1
  O  O21  1  0.58031660  0.57689619  0.75143006  1
  O  O22  1  0.62716566  0.02184034  0.25492932  1
  O  O23  1  0.70763567  0.32407920  0.25118193  1
  O  O24  1  0.79158998  0.82333731  0.75270650  1
  O  O25  1  0.87320652  0.52283161  0.75264285  1
  O  O26  1  0.92154318  0.07678838  0.24884061  1
  O  O27  1  0.97867102  0.28251665  0.75304173  1
