# generated using pymatgen
data_Li3Mn2P2(CO7)2
_symmetry_space_group_name_H-M   'P 1'
_cell_length_a   8.31817389
_cell_length_b   10.12126829
_cell_length_c   6.48090060
_cell_angle_alpha   90.29365503
_cell_angle_beta   89.72708304
_cell_angle_gamma   85.61078009
_symmetry_Int_Tables_number   1
_chemical_formula_structural   Li3Mn2P2(CO7)2
_chemical_formula_sum   'Li6 Mn4 P4 C4 O28'
_cell_volume   544.01540594
_cell_formula_units_Z   2
loop_
 _symmetry_equiv_pos_site_id
 _symmetry_equiv_pos_as_xyz
  1  'x, y, z'
loop_
 _atom_site_type_symbol
 _atom_site_label
 _atom_site_symmetry_multiplicity
 _atom_site_fract_x
 _atom_site_fract_y
 _atom_site_fract_z
 _atom_site_occupancy
  Li  Li0  1  0.25972974  0.12942820  0.02268353  1
  Li  Li1  1  0.25571133  0.12392834  0.48072835  1
  Li  Li2  1  0.27797619  0.61981301  0.44482654  1
  Li  Li3  1  0.72892347  0.36469611  0.96861214  1
  Li  Li4  1  0.73630075  0.88308350  0.53383780  1
  Li  Li5  1  0.90248284  0.61713610  0.75229815  1
  Mn  Mn6  1  0.32971964  0.40200077  0.74918725  1
  Mn  Mn7  1  0.33172574  0.89609514  0.75555145  1
  Mn  Mn8  1  0.67013266  0.10163964  0.25102719  1
  Mn  Mn9  1  0.67128406  0.60311847  0.25016218  1
  P  P10  1  0.41998633  0.36251511  0.24263286  1
  P  P11  1  0.42259463  0.86660373  0.25947072  1
  P  P12  1  0.57869800  0.13822639  0.75521301  1
  P  P13  1  0.57959814  0.63954630  0.74386648  1
  C  C14  1  0.04294619  0.35500425  0.75299380  1
  C  C15  1  0.05219032  0.85097796  0.73928968  1
  C  C16  1  0.95287405  0.14180578  0.24845706  1
  C  C17  1  0.95352483  0.64604405  0.25898970  1
  O  O18  1  0.08637668  0.47665550  0.74298530  1
  O  O19  1  0.09964768  0.16379683  0.24966915  1
  O  O20  1  0.09925057  0.97115879  0.75703317  1
  O  O21  1  0.17092227  0.26593148  0.74068562  1
  O  O22  1  0.09625248  0.67001538  0.27747142  1
  O  O23  1  0.17553532  0.76027103  0.73877820  1
  O  O24  1  0.31006576  0.39363461  0.05713730  1
  O  O25  1  0.32347534  0.41439236  0.43418489  1
  O  O26  1  0.32768780  0.91456959  0.06660689  1
  O  O27  1  0.31346894  0.91795563  0.44207236  1
  O  O28  1  0.40970125  0.07823819  0.75489771  1
  O  O29  1  0.45476540  0.20690415  0.25814734  1
  O  O30  1  0.41967196  0.57325012  0.73260194  1
  O  O31  1  0.45752848  0.71304287  0.27135245  1
  O  O32  1  0.54155392  0.29137339  0.75927638  1
  O  O33  1  0.58304178  0.42523379  0.22101124  1
  O  O34  1  0.53876046  0.79240021  0.73859199  1
  O  O35  1  0.58838548  0.92601985  0.27263942  1
  O  O36  1  0.67885423  0.09452369  0.94401258  1
  O  O37  1  0.67947902  0.08867857  0.56582579  1
  O  O38  1  0.69663446  0.60090469  0.56373632  1
  O  O39  1  0.68574754  0.59643314  0.93147514  1
  O  O40  1  0.83432634  0.23523522  0.23416450  1
  O  O41  1  0.90374284  0.32379863  0.77492365  1
  O  O42  1  0.83148147  0.73833654  0.26339089  1
  O  O43  1  0.89947827  0.02423224  0.26246455  1
  O  O44  1  0.91056267  0.81915359  0.72389801  1
  O  O45  1  0.90098169  0.52736606  0.23495388  1
