# generated using pymatgen
data_Li2MnV(PO4)3
_symmetry_space_group_name_H-M   'P 1'
_cell_length_a   8.98137107
_cell_length_b   8.25838592
_cell_length_c   8.36480814
_cell_angle_alpha   60.13658325
_cell_angle_beta   63.85493661
_cell_angle_gamma   91.21561866
_symmetry_Int_Tables_number   1
_chemical_formula_structural   Li2MnV(PO4)3
_chemical_formula_sum   'Li4 Mn2 V2 P6 O24'
_cell_volume   459.34289078
_cell_formula_units_Z   2
loop_
 _symmetry_equiv_pos_site_id
 _symmetry_equiv_pos_as_xyz
  1  'x, y, z'
loop_
 _atom_site_type_symbol
 _atom_site_label
 _atom_site_symmetry_multiplicity
 _atom_site_fract_x
 _atom_site_fract_y
 _atom_site_fract_z
 _atom_site_occupancy
  Li  Li0  1  0.37519995  0.19171361  0.36755920  1
  Li  Li1  1  0.86590210  0.67920772  0.06149859  1
  Li  Li2  1  0.88468730  0.92838774  0.37519312  1
  Li  Li3  1  0.87863354  0.24879379  0.81139485  1
  Mn  Mn4  1  0.56388670  0.86086894  0.28502479  1
  Mn  Mn5  1  0.43000782  0.13588475  0.72476008  1
  V  V6  1  0.04817974  0.35610384  0.29878670  1
  V  V7  1  0.96367431  0.65170963  0.69062502  1
  P  P8  1  0.24865355  0.04971509  0.20834169  1
  P  P9  1  0.25108020  0.46473355  0.49645046  1
  P  P10  1  0.25381179  0.75111176  0.79235516  1
  P  P11  1  0.75432391  0.24928592  0.20709242  1
  P  P12  1  0.74819583  0.53068798  0.50454354  1
  P  P13  1  0.75289626  0.95762520  0.77737771  1
  O  O14  1  0.10133811  0.84571155  0.37854424  1
  O  O15  1  0.26253078  0.13318278  0.99469586  1
  O  O16  1  0.19374777  0.18547533  0.29284127  1
  O  O17  1  0.18557958  0.49159111  0.34378721  1
  O  O18  1  0.10015147  0.46618191  0.68646151  1
  O  O19  1  0.09901192  0.77473013  0.74306551  1
  O  O20  1  0.41866657  0.03373842  0.21100593  1
  O  O21  1  0.28148143  0.26341659  0.58769678  1
  O  O22  1  0.42193762  0.62771623  0.36828006  1
  O  O23  1  0.18239124  0.53793690  0.99862783  1
  O  O24  1  0.26222381  0.89359779  0.85721766  1
  O  O25  1  0.41812194  0.78616518  0.60319656  1
  O  O26  1  0.57871921  0.20972684  0.39007005  1
  O  O27  1  0.74287719  0.11442571  0.12895204  1
  O  O28  1  0.81859967  0.46687443  0.01238571  1
  O  O29  1  0.57498195  0.37200913  0.64035029  1
  O  O30  1  0.73388401  0.73929193  0.39184072  1
  O  O31  1  0.57800742  0.97291885  0.79920737  1
  O  O32  1  0.89307931  0.20323090  0.27503731  1
  O  O33  1  0.88571235  0.51648607  0.31886306  1
  O  O34  1  0.81733482  0.50754222  0.65649544  1
  O  O35  1  0.81983730  0.83148156  0.68580787  1
  O  O36  1  0.74578408  0.87097151  0.99251719  1
  O  O37  1  0.89379146  0.16887340  0.61665522  1
