# generated using pymatgen
data_Li3Mn2P2(CO7)2
_symmetry_space_group_name_H-M   'P 1'
_cell_length_a   8.29135411
_cell_length_b   10.11842566
_cell_length_c   6.47752466
_cell_angle_alpha   90.16802718
_cell_angle_beta   89.59381274
_cell_angle_gamma   85.60767344
_symmetry_Int_Tables_number   1
_chemical_formula_structural   Li3Mn2P2(CO7)2
_chemical_formula_sum   'Li6 Mn4 P4 C4 O28'
_cell_volume   541.82188154
_cell_formula_units_Z   2
loop_
 _symmetry_equiv_pos_site_id
 _symmetry_equiv_pos_as_xyz
  1  'x, y, z'
loop_
 _atom_site_type_symbol
 _atom_site_label
 _atom_site_symmetry_multiplicity
 _atom_site_fract_x
 _atom_site_fract_y
 _atom_site_fract_z
 _atom_site_occupancy
  Li  Li0  1  0.25947662  0.12442561  0.02272006  1
  Li  Li1  1  0.25934009  0.12775319  0.47916515  1
  Li  Li2  1  0.27520585  0.61989311  0.05382641  1
  Li  Li3  1  0.72955119  0.36926805  0.52928210  1
  Li  Li4  1  0.73603218  0.88328438  0.53248699  1
  Li  Li5  1  0.90298681  0.61748427  0.75809543  1
  Mn  Mn6  1  0.32951441  0.40248132  0.74778813  1
  Mn  Mn7  1  0.33154791  0.89585013  0.74736634  1
  Mn  Mn8  1  0.67083534  0.10099686  0.24163787  1
  Mn  Mn9  1  0.67117944  0.60256426  0.24663565  1
  P  P10  1  0.41977781  0.36229916  0.25407880  1
  P  P11  1  0.42233214  0.86544949  0.24915897  1
  P  P12  1  0.58025229  0.13825321  0.74568060  1
  P  P13  1  0.57985772  0.63965350  0.75104233  1
  C  C14  1  0.04183668  0.35489686  0.74623807  1
  C  C15  1  0.05039419  0.85142350  0.74800000  1
  C  C16  1  0.95401997  0.14275276  0.25562645  1
  C  C17  1  0.95415144  0.64645096  0.25078122  1
  O  O18  1  0.08379538  0.47662197  0.75994883  1
  O  O19  1  0.10120410  0.16542595  0.25384875  1
  O  O20  1  0.09853542  0.97169671  0.74486755  1
  O  O21  1  0.17056120  0.26628470  0.75486319  1
  O  O22  1  0.09663769  0.67176657  0.23077585  1
  O  O23  1  0.17258456  0.76101766  0.77181623  1
  O  O24  1  0.32322167  0.41179150  0.06286778  1
  O  O25  1  0.30926773  0.39730478  0.44026315  1
  O  O26  1  0.32561593  0.91937626  0.06000136  1
  O  O27  1  0.31369724  0.91119510  0.43535431  1
  O  O28  1  0.41040719  0.07831642  0.74577112  1
  O  O29  1  0.45391014  0.20615533  0.24300522  1
  O  O30  1  0.41887926  0.57465921  0.77059673  1
  O  O31  1  0.45701574  0.71196376  0.23333814  1
  O  O32  1  0.54326699  0.29068362  0.72424140  1
  O  O33  1  0.58389973  0.42418848  0.27001533  1
  O  O34  1  0.54006099  0.79174901  0.72516614  1
  O  O35  1  0.58824824  0.92499122  0.26574742  1
  O  O36  1  0.67849905  0.09755283  0.93667409  1
  O  O37  1  0.68297245  0.08455067  0.55878728  1
  O  O38  1  0.68826017  0.58713961  0.56715820  1
  O  O39  1  0.69455590  0.60859272  0.93412304  1
  O  O40  1  0.83441212  0.23587029  0.26408320  1
  O  O41  1  0.90240826  0.32258865  0.72355801  1
  O  O42  1  0.83170876  0.73793599  0.27221315  1
  O  O43  1  0.90165074  0.02462702  0.24605802  1
  O  O44  1  0.90878934  0.81919730  0.72629028  1
  O  O45  1  0.90142191  0.52674306  0.24751167  1
