# generated using pymatgen
data_MnTlO3
_symmetry_space_group_name_H-M   'P 1'
_cell_length_a   6.13191518
_cell_length_b   6.13171239
_cell_length_c   12.01344415
_cell_angle_alpha   89.99994523
_cell_angle_beta   89.99978674
_cell_angle_gamma   119.99440602
_symmetry_Int_Tables_number   1
_chemical_formula_structural   MnTlO3
_chemical_formula_sum   'Mn6 Tl6 O18'
_cell_volume   391.20154203
_cell_formula_units_Z   6
loop_
 _symmetry_equiv_pos_site_id
 _symmetry_equiv_pos_as_xyz
  1  'x, y, z'
loop_
 _atom_site_type_symbol
 _atom_site_label
 _atom_site_symmetry_multiplicity
 _atom_site_fract_x
 _atom_site_fract_y
 _atom_site_fract_z
 _atom_site_occupancy
  Mn  Mn0  1  0.99991443  0.66514214  0.49356197  1
  Mn  Mn1  1  0.00007250  0.33477369  0.99372772  1
  Mn  Mn2  1  0.33473096  0.33480891  0.49354169  1
  Mn  Mn3  1  0.33477278  0.00005959  0.99373192  1
  Mn  Mn4  1  0.66530981  0.66530224  0.99372412  1
  Mn  Mn5  1  0.66507452  0.99999326  0.49355162  1
  Tl  Tl6  1  0.33332167  0.66666429  0.23319979  1
  Tl  Tl7  1  0.99999513  0.99998631  0.26392669  1
  Tl  Tl8  1  0.00000027  0.00000972  0.76383051  1
  Tl  Tl9  1  0.33333220  0.66666588  0.73320299  1
  Tl  Tl10  1  0.66664118  0.33331364  0.73320221  1
  Tl  Tl11  1  0.66667101  0.33333401  0.23319312  1
  O  O12  1  -0.00000020  0.68313169  0.65522908  1
  O  O13  1  -0.00000194  0.64933501  0.33211103  1
  O  O14  1  0.00000041  0.35055589  0.83213438  1
  O  O15  1  0.00000872  0.31675451  0.15535329  1
  O  O16  1  0.33334273  0.66663778  0.00229409  1
  O  O17  1  0.00000174  0.00000105  0.47763915  1
  O  O18  1  0.99997150  0.99994618  0.97780604  1
  O  O19  1  0.33336015  0.66667965  0.50206997  1
  O  O20  1  0.31687686  0.31689799  0.65521028  1
  O  O21  1  0.35067745  0.35069856  0.33208877  1
  O  O22  1  0.31675129  0.99999478  0.15535611  1
  O  O23  1  0.64942382  0.64941648  0.83212991  1
  O  O24  1  0.35055864  -0.00000248  0.83214062  1
  O  O25  1  0.68322020  0.68321308  0.15535839  1
  O  O26  1  0.66668118  0.33335436  0.50207177  1
  O  O27  1  0.66665952  0.33327989  0.00229652  1
  O  O28  1  0.64932146  0.00002982  0.33209431  1
  O  O29  1  0.68310801  0.00002209  0.65521396  1
