# generated using pymatgen
data_CrPO4F
_symmetry_space_group_name_H-M   'P 1'
_cell_length_a   6.24144985
_cell_length_b   10.55057064
_cell_length_c   12.62750315
_cell_angle_alpha   90.00000000
_cell_angle_beta   90.00000000
_cell_angle_gamma   90.00000000
_symmetry_Int_Tables_number   1
_chemical_formula_structural   CrPO4F
_chemical_formula_sum   'Cr8 P8 O32 F8'
_cell_volume   831.53191100
_cell_formula_units_Z   8
loop_
 _symmetry_equiv_pos_site_id
 _symmetry_equiv_pos_as_xyz
  1  'x, y, z'
loop_
 _atom_site_type_symbol
 _atom_site_label
 _atom_site_symmetry_multiplicity
 _atom_site_fract_x
 _atom_site_fract_y
 _atom_site_fract_z
 _atom_site_occupancy
  Cr  Cr0  1  0.99645735  0.24705212  0.88988189  1
  Cr  Cr1  1  0.24805662  0.99941104  0.74768594  1
  Cr  Cr2  1  0.25194338  0.99941104  0.24768594  1
  Cr  Cr3  1  0.50354265  0.24705212  0.38988189  1
  Cr  Cr4  1  0.49645735  0.74705212  0.61011811  1
  Cr  Cr5  1  0.74805662  0.49941104  0.75231406  1
  Cr  Cr6  1  0.75194338  0.49941104  0.25231406  1
  Cr  Cr7  1  0.00354265  0.74705212  0.11011811  1
  P  P8  1  0.00290269  0.24830829  0.31503088  1
  P  P9  1  0.16615702  0.99712330  0.99794982  1
  P  P10  1  0.33384298  0.99712330  0.49794982  1
  P  P11  1  0.49709731  0.24830829  0.81503088  1
  P  P12  1  0.50290269  0.74830829  0.18496912  1
  P  P13  1  0.66615702  0.49712330  0.50205018  1
  P  P14  1  0.83384298  0.49712330  0.00205018  1
  P  P15  1  0.99709731  0.74830829  0.68496912  1
  O  O16  1  0.01244506  0.11214116  0.98886676  1
  O  O17  1  0.02289064  0.87721353  0.00763158  1
  O  O18  1  0.03749935  0.86635500  0.75533819  1
  O  O19  1  0.04266683  0.13334344  0.24098105  1
  O  O20  1  0.19217608  0.01680209  0.59654650  1
  O  O21  1  0.19113980  0.72043005  0.61323119  1
  O  O22  1  0.19647324  0.27236009  0.38792319  1
  O  O23  1  0.19323150  0.98156086  0.39861463  1
  O  O24  1  0.30676850  0.98156086  0.89861463  1
  O  O25  1  0.30352676  0.27236009  0.88792319  1
  O  O26  1  0.30886020  0.72043005  0.11323119  1
  O  O27  1  0.30782392  0.01680209  0.09654650  1
  O  O28  1  0.45733317  0.13334344  0.74098105  1
  O  O29  1  0.46250065  0.86635500  0.25533819  1
  O  O30  1  0.47710936  0.87721353  0.50763158  1
  O  O31  1  0.48755494  0.11214116  0.48886676  1
  O  O32  1  0.51244506  0.61214116  0.51113324  1
  O  O33  1  0.52289064  0.37721353  0.49236842  1
  O  O34  1  0.53749935  0.36635500  0.74466181  1
  O  O35  1  0.54266683  0.63334344  0.25901895  1
  O  O36  1  0.69217608  0.51680209  0.90345350  1
  O  O37  1  0.69113980  0.22043005  0.88676881  1
  O  O38  1  0.69647324  0.77236009  0.11207681  1
  O  O39  1  0.69323150  0.48156086  0.10138537  1
  O  O40  1  0.80676850  0.48156086  0.60138537  1
  O  O41  1  0.80352676  0.77236009  0.61207681  1
  O  O42  1  0.80886020  0.22043005  0.38676881  1
  O  O43  1  0.80782392  0.51680209  0.40345350  1
  O  O44  1  0.95733317  0.63334344  0.75901895  1
  O  O45  1  0.96250065  0.36635500  0.24466181  1
  O  O46  1  0.97710936  0.37721353  0.99236842  1
  O  O47  1  0.98755494  0.61214116  0.01113324  1
  F  F48  1  0.02623849  0.12507762  0.77404005  1
  F  F49  1  0.02982032  0.87385042  0.22209593  1
  F  F50  1  0.47017968  0.87385042  0.72209593  1
  F  F51  1  0.47376151  0.12507762  0.27404005  1
  F  F52  1  0.52623849  0.62507762  0.72595995  1
  F  F53  1  0.52982032  0.37385042  0.27790407  1
  F  F54  1  0.97017968  0.37385042  0.77790407  1
  F  F55  1  0.97376151  0.62507762  0.22595995  1
