# generated using pymatgen
data_Na3Li3Mn2P2(CO7)2
_symmetry_space_group_name_H-M   'P 1'
_cell_length_a   8.76627423
_cell_length_b   6.79671307
_cell_length_c   5.05439179
_cell_angle_alpha   89.98461931
_cell_angle_beta   88.29036757
_cell_angle_gamma   89.28527263
_symmetry_Int_Tables_number   1
_chemical_formula_structural   Na3Li3Mn2P2(CO7)2
_chemical_formula_sum   'Na3 Li3 Mn2 P2 C2 O14'
_cell_volume   300.99254041
_cell_formula_units_Z   1
loop_
 _symmetry_equiv_pos_site_id
 _symmetry_equiv_pos_as_xyz
  1  'x, y, z'
loop_
 _atom_site_type_symbol
 _atom_site_label
 _atom_site_symmetry_multiplicity
 _atom_site_fract_x
 _atom_site_fract_y
 _atom_site_fract_z
 _atom_site_occupancy
  Na  Na0  1  0.25443289  0.00019040  0.25091111  1
  Na  Na1  1  0.25516782  0.50034152  0.24961867  1
  Na  Na2  1  0.74735977  0.49971974  0.74775287  1
  Li  Li3  1  0.08605022  0.24045114  0.74745418  1
  Li  Li4  1  0.72973304  0.97613606  0.76908774  1
  Li  Li5  1  0.90878706  0.76274471  0.25091398  1
  Mn  Mn6  1  0.35857396  0.75003523  0.77345837  1
  Mn  Mn7  1  0.64577740  0.24426355  0.22016113  1
  P  P8  1  0.40788452  0.24531425  0.70357780  1
  P  P9  1  0.59895510  0.75319652  0.28932143  1
  C  C10  1  0.04419199  0.75997522  0.73258323  1
  C  C11  1  0.95060678  0.24843761  0.27497591  1
  O  O12  1  0.09209200  0.25372761  0.34310450  1
  O  O13  1  0.08425898  0.75356368  0.97758819  1
  O  O14  1  0.14827659  0.74989084  0.54256097  1
  O  O15  1  0.30483388  0.06884652  0.78721606  1
  O  O16  1  0.31790995  0.43387862  0.79261980  1
  O  O17  1  0.42808963  0.24642425  0.39604845  1
  O  O18  1  0.43642339  0.74950434  0.17449766  1
  O  O19  1  0.57031507  0.23240560  0.82002246  1
  O  O20  1  0.57921508  0.77260805  0.59748314  1
  O  O21  1  0.69421887  0.56477852  0.22049930  1
  O  O22  1  0.69608440  0.92693818  0.17920785  1
  O  O23  1  0.84524871  0.24057257  0.46225804  1
  O  O24  1  0.91371889  0.25028203  0.02792271  1
  O  O25  1  0.90179402  0.77577423  0.66915444  1
