# generated using pymatgen
data_PSN(Cl2O)2
_symmetry_space_group_name_H-M   'P 1'
_cell_length_a   7.81792120
_cell_length_b   11.41165964
_cell_length_c   20.27572524
_cell_angle_alpha   90.00000000
_cell_angle_beta   90.00000000
_cell_angle_gamma   90.00000000
_symmetry_Int_Tables_number   1
_chemical_formula_structural   PSN(Cl2O)2
_chemical_formula_sum   'P8 S8 N8 Cl32 O16'
_cell_volume   1808.90806950
_cell_formula_units_Z   8
loop_
 _symmetry_equiv_pos_site_id
 _symmetry_equiv_pos_as_xyz
  1  'x, y, z'
loop_
 _atom_site_type_symbol
 _atom_site_label
 _atom_site_symmetry_multiplicity
 _atom_site_fract_x
 _atom_site_fract_y
 _atom_site_fract_z
 _atom_site_occupancy
  P  P0  1  0.89046157  0.18733045  0.89642064  1
  P  P1  1  0.60953843  0.68733045  0.89642064  1
  P  P2  1  0.60953843  0.81266955  0.39642064  1
  P  P3  1  0.89046157  0.31266955  0.39642064  1
  P  P4  1  0.39046157  0.18733045  0.60357936  1
  P  P5  1  0.10953843  0.68733045  0.60357936  1
  P  P6  1  0.10953843  0.81266955  0.10357936  1
  P  P7  1  0.39046157  0.31266955  0.10357936  1
  S  S8  1  0.38462575  0.48741134  0.88628330  1
  S  S9  1  0.88462575  0.48741134  0.61371670  1
  S  S10  1  0.61537425  0.98741134  0.61371670  1
  S  S11  1  0.38462575  0.01258866  0.38628330  1
  S  S12  1  0.11537425  0.51258866  0.38628330  1
  S  S13  1  0.11537425  0.98741134  0.88628330  1
  S  S14  1  0.61537425  0.51258866  0.11371670  1
  S  S15  1  0.88462575  0.01258866  0.11371670  1
  N  N16  1  0.54367346  0.10606455  0.58294907  1
  N  N17  1  0.04367346  0.10606455  0.91705093  1
  N  N18  1  0.95632654  0.89393545  0.08294907  1
  N  N19  1  0.45632654  0.60606455  0.91705093  1
  N  N20  1  0.54367346  0.39393545  0.08294907  1
  N  N21  1  0.04367346  0.39393545  0.41705093  1
  N  N22  1  0.45632654  0.89393545  0.41705093  1
  N  N23  1  0.95632654  0.60606455  0.58294907  1
  Cl  Cl24  1  0.42868533  0.22025338  0.18582111  1
  Cl  Cl25  1  0.24481854  0.04322143  0.80115024  1
  Cl  Cl26  1  0.33527886  0.89065278  0.11701501  1
  Cl  Cl27  1  0.24481854  0.45677857  0.30115024  1
  Cl  Cl28  1  0.64267728  0.80220295  0.96793667  1
  Cl  Cl29  1  0.16472114  0.39065278  0.11701501  1
  Cl  Cl30  1  0.14267728  0.69779705  0.03206333  1
  Cl  Cl31  1  0.33527886  0.60934722  0.61701501  1
  Cl  Cl32  1  0.75518146  0.95677857  0.19884976  1
  Cl  Cl33  1  0.92868533  0.22025338  0.31417889  1
  Cl  Cl34  1  0.07131467  0.77974662  0.68582111  1
  Cl  Cl35  1  0.92868533  0.27974662  0.81417889  1
  Cl  Cl36  1  0.74481854  0.45677857  0.19884976  1
  Cl  Cl37  1  0.64267728  0.69779705  0.46793667  1
  Cl  Cl38  1  0.85732272  0.30220295  0.96793667  1
  Cl  Cl39  1  0.25518146  0.54322143  0.80115024  1
  Cl  Cl40  1  0.57131467  0.72025338  0.31417889  1
  Cl  Cl41  1  0.83527886  0.89065278  0.38298499  1
  Cl  Cl42  1  0.14267728  0.80220295  0.53206333  1
  Cl  Cl43  1  0.25518146  0.95677857  0.30115024  1
  Cl  Cl44  1  0.83527886  0.60934722  0.88298499  1
  Cl  Cl45  1  0.74481854  0.04322143  0.69884976  1
  Cl  Cl46  1  0.35732272  0.19779705  0.03206333  1
  Cl  Cl47  1  0.66472114  0.39065278  0.38298499  1
  Cl  Cl48  1  0.35732272  0.30220295  0.53206333  1
  Cl  Cl49  1  0.75518146  0.54322143  0.69884976  1
  Cl  Cl50  1  0.16472114  0.10934722  0.61701501  1
  Cl  Cl51  1  0.85732272  0.19779705  0.46793667  1
  Cl  Cl52  1  0.07131467  0.72025338  0.18582111  1
  Cl  Cl53  1  0.66472114  0.10934722  0.88298499  1
  Cl  Cl54  1  0.57131467  0.77974662  0.81417889  1
  Cl  Cl55  1  0.42868533  0.27974662  0.68582111  1
  O  O56  1  0.48453817  0.90920502  0.63745968  1
  O  O57  1  0.51546183  0.40920502  0.86254032  1
  O  O58  1  0.24788580  0.55543711  0.42911358  1
  O  O59  1  0.98453817  0.59079498  0.36254032  1
  O  O60  1  0.25211420  0.05543711  0.42911358  1
  O  O61  1  0.51546183  0.09079498  0.36254032  1
  O  O62  1  0.98453817  0.90920502  0.86254032  1
  O  O63  1  0.74788580  0.55543711  0.07088642  1
  O  O64  1  0.75211420  0.44456289  0.57088642  1
  O  O65  1  0.74788580  0.94456289  0.57088642  1
  O  O66  1  0.01546183  0.40920502  0.63745968  1
  O  O67  1  0.01546183  0.09079498  0.13745968  1
  O  O68  1  0.48453817  0.59079498  0.13745968  1
  O  O69  1  0.25211420  0.44456289  0.92911358  1
  O  O70  1  0.75211420  0.05543711  0.07088642  1
  O  O71  1  0.24788580  0.94456289  0.92911358  1
