# generated using pymatgen
data_Li2Cr2O7
_symmetry_space_group_name_H-M   'P 1'
_cell_length_a   7.66700670
_cell_length_b   9.75256928
_cell_length_c   8.76617268
_cell_angle_alpha   103.42342767
_cell_angle_beta   108.68682664
_cell_angle_gamma   68.85156406
_symmetry_Int_Tables_number   1
_chemical_formula_structural   Li2Cr2O7
_chemical_formula_sum   'Li8 Cr8 O28'
_cell_volume   574.03825272
_cell_formula_units_Z   4
loop_
 _symmetry_equiv_pos_site_id
 _symmetry_equiv_pos_as_xyz
  1  'x, y, z'
loop_
 _atom_site_type_symbol
 _atom_site_label
 _atom_site_symmetry_multiplicity
 _atom_site_fract_x
 _atom_site_fract_y
 _atom_site_fract_z
 _atom_site_occupancy
  Li  Li0  1  0.04135688  0.35902912  0.73383815  1
  Li  Li1  1  0.01379199  0.72317402  0.90771013  1
  Li  Li2  1  0.53071750  0.17988772  0.79121378  1
  Li  Li3  1  0.51724092  0.21607377  0.39812063  1
  Li  Li4  1  0.48275908  0.78392623  0.60187937  1
  Li  Li5  1  0.46928250  0.82011228  0.20878622  1
  Li  Li6  1  0.98620801  0.27682598  0.09228987  1
  Li  Li7  1  0.95864312  0.64097088  0.26616185  1
  Cr  Cr8  1  0.17390919  0.08713702  0.41151562  1
  Cr  Cr9  1  0.29437995  0.53606966  0.61997874  1
  Cr  Cr10  1  0.21011552  0.98779173  0.85360905  1
  Cr  Cr11  1  0.31877957  0.43732463  0.08754487  1
  Cr  Cr12  1  0.68122043  0.56267537  0.91245513  1
  Cr  Cr13  1  0.78988448  0.01220827  0.14639095  1
  Cr  Cr14  1  0.70562005  0.46393034  0.38002126  1
  Cr  Cr15  1  0.82609081  0.91286298  0.58848438  1
  O  O16  1  0.08702740  0.16289516  0.89156142  1
  O  O17  1  0.19812853  0.17568007  0.59497896  1
  O  O18  1  0.11712850  0.55710377  0.69692906  1
  O  O19  1  0.33341494  0.33329546  0.91333836  1
  O  O20  1  0.24010259  0.16421334  0.30112990  1
  O  O21  1  0.07260231  0.90490245  0.67259317  1
  O  O22  1  0.24550814  0.89982353  0.00436410  1
  O  O23  1  0.13278405  0.43031343  0.13580962  1
  O  O24  1  0.21221769  0.60696183  0.45015096  1
  O  O25  1  0.41117635  0.36010997  0.58848217  1
  O  O26  1  0.46581606  0.62849361  0.75469868  1
  O  O27  1  0.41418739  0.96983224  0.81882091  1
  O  O28  1  0.68458323  0.08591715  0.58490610  1
  O  O29  1  0.72070948  0.39213975  0.93422491  1
  O  O30  1  0.27929052  0.60786025  0.06577509  1
  O  O31  1  0.31541677  0.91408285  0.41509390  1
  O  O32  1  0.58581261  0.03016776  0.18117909  1
  O  O33  1  0.53418394  0.37150639  0.24530132  1
  O  O34  1  0.58882365  0.63989003  0.41151783  1
  O  O35  1  0.78778231  0.39303817  0.54984904  1
  O  O36  1  0.86721595  0.56968657  0.86419038  1
  O  O37  1  0.75449186  0.10017647  -0.00436410  1
  O  O38  1  0.92739769  0.09509755  0.32740683  1
  O  O39  1  0.75989741  0.83578666  0.69887010  1
  O  O40  1  0.66658506  0.66670454  0.08666164  1
  O  O41  1  0.88287150  0.44289623  0.30307094  1
  O  O42  1  0.80187147  0.82431993  0.40502104  1
  O  O43  1  0.91297260  0.83710484  0.10843858  1
