# generated using pymatgen
data_Li5Mn5Cr2O12
_symmetry_space_group_name_H-M   'P 1'
_cell_length_a   5.19236166
_cell_length_b   5.19236171
_cell_length_c   9.90663817
_cell_angle_alpha   85.90291099
_cell_angle_beta   94.09708527
_cell_angle_gamma   61.06737746
_symmetry_Int_Tables_number   1
_chemical_formula_structural   Li5Mn5Cr2O12
_chemical_formula_sum   'Li5 Mn5 Cr2 O12'
_cell_volume   231.43049011
_cell_formula_units_Z   1
loop_
 _symmetry_equiv_pos_site_id
 _symmetry_equiv_pos_as_xyz
  1  'x, y, z'
loop_
 _atom_site_type_symbol
 _atom_site_label
 _atom_site_symmetry_multiplicity
 _atom_site_fract_x
 _atom_site_fract_y
 _atom_site_fract_z
 _atom_site_occupancy
  Li  Li0  1  0.16188110  0.66621448  0.50720172  1
  Li  Li1  1  0.32266928  0.85165384  0.98912453  1
  Li  Li2  1  0.66621448  0.16188110  0.99279828  1
  Li  Li3  1  0.85165384  0.32266928  0.51087547  1
  Li  Li4  1  0.91725640  0.91725640  0.75000000  1
  Mn  Mn5  1  0.08093362  0.08093362  0.25000000  1
  Mn  Mn6  1  0.99606085  0.51199810  0.99284369  1
  Mn  Mn7  1  0.51199810  0.99606085  0.50715631  1
  Mn  Mn8  1  0.41787137  0.41787137  0.25000000  1
  Mn  Mn9  1  0.57981047  0.57981047  0.75000000  1
  Cr  Cr10  1  0.24851867  0.24851867  0.75000000  1
  Cr  Cr11  1  0.74949908  0.74949908  0.25000000  1
  O  O12  1  0.96907487  0.22446157  0.87598282  1
  O  O13  1  0.22446157  0.96907487  0.62401718  1
  O  O14  1  0.10466303  0.39849099  0.36687580  1
  O  O15  1  0.39849099  0.10466303  0.13312420  1
  O  O16  1  0.29701595  0.53044550  0.86968473  1
  O  O17  1  0.53044550  0.29701595  0.63031527  1
  O  O18  1  0.45439699  0.72758768  0.36861777  1
  O  O19  1  0.72758768  0.45439699  0.13138223  1
  O  O20  1  0.60163657  0.87717847  0.86179350  1
  O  O21  1  0.87717847  0.60163657  0.63820650  1
  O  O22  1  0.78037103  0.03031109  0.37553245  1
  O  O23  1  0.03031109  0.78037103  0.12446755  1
