# generated using pymatgen
data_Mn(SO4)2
_symmetry_space_group_name_H-M   'P 1'
_cell_length_a   8.82086574
_cell_length_b   8.82086508
_cell_length_c   8.82086614
_cell_angle_alpha   55.46644119
_cell_angle_beta   55.46644284
_cell_angle_gamma   55.46644095
_symmetry_Int_Tables_number   1
_chemical_formula_structural   Mn(SO4)2
_chemical_formula_sum   'Mn3 S6 O24'
_cell_volume   434.21776418
_cell_formula_units_Z   3
loop_
 _symmetry_equiv_pos_site_id
 _symmetry_equiv_pos_as_xyz
  1  'x, y, z'
loop_
 _atom_site_type_symbol
 _atom_site_label
 _atom_site_symmetry_multiplicity
 _atom_site_fract_x
 _atom_site_fract_y
 _atom_site_fract_z
 _atom_site_occupancy
  Mn  Mn0  1  0.15220194  0.15220194  0.15220194  1
  Mn  Mn1  1  0.64626629  0.64626629  0.64626629  1
  Mn  Mn2  1  0.84664067  0.84664067  0.84664067  1
  S  S3  1  0.04725814  0.75392994  0.45394332  1
  S  S4  1  0.45394332  0.04725814  0.75392994  1
  S  S5  1  0.75392994  0.45394332  0.04725814  1
  S  S6  1  0.25097595  0.53951701  0.96126843  1
  S  S7  1  0.53951701  0.96126843  0.25097595  1
  S  S8  1  0.96126843  0.25097595  0.53951701  1
  O  O9  1  0.11122289  0.29191791  0.51383002  1
  O  O10  1  0.29191791  0.51383002  0.11122289  1
  O  O11  1  0.99709471  0.97085730  0.33006178  1
  O  O12  1  0.51383002  0.11122289  0.29191791  1
  O  O13  1  0.02413073  0.71652313  0.65530767  1
  O  O14  1  0.24389138  0.63301862  0.36884439  1
  O  O15  1  0.36884439  0.24389138  0.63301862  1
  O  O16  1  0.33006178  0.99709471  0.97085730  1
  O  O17  1  0.63301862  0.36884439  0.24389138  1
  O  O18  1  0.04175147  0.67786118  0.98029587  1
  O  O19  1  0.28438525  0.34616356  0.96781714  1
  O  O20  1  0.34616356  0.96781714  0.28438525  1
  O  O21  1  0.65530767  0.02413073  0.71652313  1
  O  O22  1  0.71652313  0.65530767  0.02413073  1
  O  O23  1  0.97085730  0.33006178  0.99709471  1
  O  O24  1  0.38238310  0.62249499  0.75451447  1
  O  O25  1  0.67786118  0.98029587  0.04175147  1
  O  O26  1  0.62249499  0.75451447  0.38238310  1
  O  O27  1  0.75451447  0.38238310  0.62249499  1
  O  O28  1  0.96781714  0.28438525  0.34616356  1
  O  O29  1  0.47990065  0.89453330  0.70415681  1
  O  O30  1  0.98029587  0.04175147  0.67786118  1
  O  O31  1  0.70415681  0.47990065  0.89453330  1
  O  O32  1  0.89453330  0.70415681  0.47990065  1
