# generated using pymatgen
data_Li4Ti3Cr5O16
_symmetry_space_group_name_H-M   'P 1'
_cell_length_a   5.89470458
_cell_length_b   5.92074096
_cell_length_c   9.54893010
_cell_angle_alpha   89.99881460
_cell_angle_beta   90.20735420
_cell_angle_gamma   120.14895814
_symmetry_Int_Tables_number   1
_chemical_formula_structural   Li4Ti3Cr5O16
_chemical_formula_sum   'Li4 Ti3 Cr5 O16'
_cell_volume   288.18132529
_cell_formula_units_Z   1
loop_
 _symmetry_equiv_pos_site_id
 _symmetry_equiv_pos_as_xyz
  1  'x, y, z'
loop_
 _atom_site_type_symbol
 _atom_site_label
 _atom_site_symmetry_multiplicity
 _atom_site_fract_x
 _atom_site_fract_y
 _atom_site_fract_z
 _atom_site_occupancy
  Li  Li0  1  0.33352652  0.66676153  0.89033118  1
  Li  Li1  1  0.99235131  0.99617556  0.99474504  1
  Li  Li2  1  0.00084995  0.00043135  0.49842973  1
  Li  Li3  1  0.66628783  0.33315774  0.39342389  1
  Ti  Ti4  1  0.16912117  0.83174317  0.21362322  1
  Ti  Ti5  1  0.16914269  0.33738490  0.21362893  1
  Ti  Ti6  1  0.34112541  0.17055341  0.71687083  1
  Cr  Cr7  1  0.33472591  0.66737467  0.48595061  1
  Cr  Cr8  1  0.65901492  0.82952335  0.21368117  1
  Cr  Cr9  1  0.67236008  0.33619825  0.98373765  1
  Cr  Cr10  1  0.83104222  0.66134341  0.71025271  1
  Cr  Cr11  1  0.83109269  0.16981770  0.71027294  1
  O  O12  1  0.16749999  0.83749666  0.60265725  1
  O  O13  1  0.04162316  0.52080500  0.33886184  1
  O  O14  1  0.32311326  0.66157159  0.10310183  1
  O  O15  1  0.00348561  0.00172992  0.31191256  1
  O  O16  1  0.00223570  0.00110707  0.80894676  1
  O  O17  1  0.16752524  0.33004552  0.60265991  1
  O  O18  1  0.47585122  0.95921192  0.34067186  1
  O  O19  1  0.47583036  0.51665053  0.34068530  1
  O  O20  1  0.33019512  0.16510697  0.10472665  1
  O  O21  1  0.66933250  0.83468939  0.60498318  1
  O  O22  1  0.51889867  0.47808859  0.84000963  1
  O  O23  1  0.51887562  0.04080391  0.84002328  1
  O  O24  1  0.65834991  0.32919876  0.60204092  1
  O  O25  1  0.84452747  0.67319904  0.10291109  1
  O  O26  1  0.95747510  0.47878754  0.83579181  1
  O  O27  1  0.84454239  0.17134252  0.10290921  1
