# generated using pymatgen
data_Li2MnV(PO4)3
_symmetry_space_group_name_H-M   'P 1'
_cell_length_a   8.90585804
_cell_length_b   8.28003057
_cell_length_c   8.44695690
_cell_angle_alpha   59.61404894
_cell_angle_beta   63.90403355
_cell_angle_gamma   90.18767645
_symmetry_Int_Tables_number   1
_chemical_formula_structural   Li2MnV(PO4)3
_chemical_formula_sum   'Li4 Mn2 V2 P6 O24'
_cell_volume   461.60146412
_cell_formula_units_Z   2
loop_
 _symmetry_equiv_pos_site_id
 _symmetry_equiv_pos_as_xyz
  1  'x, y, z'
loop_
 _atom_site_type_symbol
 _atom_site_label
 _atom_site_symmetry_multiplicity
 _atom_site_fract_x
 _atom_site_fract_y
 _atom_site_fract_z
 _atom_site_occupancy
  Li  Li0  1  0.14615392  0.33764462  0.93490597  1
  Li  Li1  1  0.86429019  0.67709109  0.06367905  1
  Li  Li2  1  0.87589042  0.92526547  0.38306885  1
  Li  Li3  1  0.86873245  0.24873171  0.81395930  1
  Mn  Mn4  1  0.56133392  0.86327099  0.29166036  1
  Mn  Mn5  1  0.43404210  0.13613180  0.71002821  1
  V  V6  1  0.04935460  0.34905421  0.31121533  1
  V  V7  1  0.96075897  0.65659329  0.69150128  1
  P  P8  1  0.24731774  0.04538531  0.21574795  1
  P  P9  1  0.25641430  0.46446058  0.49876880  1
  P  P10  1  0.25211209  0.75055859  0.79468705  1
  P  P11  1  0.75370853  0.25382827  0.20216835  1
  P  P12  1  0.74717774  0.52932641  0.50357120  1
  P  P13  1  0.74965074  0.95872294  0.77873394  1
  O  O14  1  0.10031881  0.84447341  0.38199426  1
  O  O15  1  0.25456675  0.13656109  0.00404342  1
  O  O16  1  0.18495247  0.18083075  0.29865607  1
  O  O17  1  0.18890384  0.48242778  0.35192578  1
  O  O18  1  0.10363952  0.46880649  0.68918920  1
  O  O19  1  0.09689880  0.77670887  0.74077946  1
  O  O20  1  0.42222211  0.02628995  0.20003738  1
  O  O21  1  0.27954439  0.26198489  0.61282982  1
  O  O22  1  0.42271735  0.62974697  0.36862967  1
  O  O23  1  0.17913197  0.53401641  0.99449353  1
  O  O24  1  0.25866805  0.88965740  0.86090051  1
  O  O25  1  0.41634927  0.77779366  0.61123742  1
  O  O26  1  0.58892611  0.21397347  0.39167964  1
  O  O27  1  0.74040512  0.11859991  0.12657869  1
  O  O28  1  0.81528373  0.47106362  0.00642257  1
  O  O29  1  0.57512032  0.37234321  0.64018438  1
  O  O30  1  0.73407824  0.74039557  0.38411852  1
  O  O31  1  0.57120691  0.97367117  0.80487428  1
  O  O32  1  0.90989519  0.21331235  0.24570397  1
  O  O33  1  0.88657638  0.51161340  0.32000495  1
  O  O34  1  0.82116113  0.51272303  0.64796508  1
  O  O35  1  0.81519043  0.83654687  0.68130804  1
  O  O36  1  0.74640311  0.87004993  0.98920406  1
  O  O37  1  0.88719928  0.16891054  0.62128966  1
