# generated using pymatgen
data_Na3CrPCO7
_symmetry_space_group_name_H-M   'P 1'
_cell_length_a   9.19430954
_cell_length_b   5.38555446
_cell_length_c   6.57713105
_cell_angle_alpha   90.00000000
_cell_angle_beta   90.00000000
_cell_angle_gamma   91.02697888
_symmetry_Int_Tables_number   1
_chemical_formula_structural   Na3CrPCO7
_chemical_formula_sum   'Na6 Cr2 P2 C2 O14'
_cell_volume   325.62389738
_cell_formula_units_Z   2
loop_
 _symmetry_equiv_pos_site_id
 _symmetry_equiv_pos_as_xyz
  1  'x, y, z'
loop_
 _atom_site_type_symbol
 _atom_site_label
 _atom_site_symmetry_multiplicity
 _atom_site_fract_x
 _atom_site_fract_y
 _atom_site_fract_z
 _atom_site_occupancy
  Na  Na0  1  0.00745038  0.99883998  0.48518384  1
  Na  Na1  1  0.17652672  0.46359318  0.17962397  1
  Na  Na2  1  0.48352145  0.50252949  0.49301728  1
  Na  Na3  1  0.51647855  0.49747051  0.99301728  1
  Na  Na4  1  0.82347328  0.53640682  0.67962397  1
  Na  Na5  1  0.99254962  0.00116002  0.98518384  1
  Cr  Cr6  1  0.29099215  0.02469648  0.74742569  1
  Cr  Cr7  1  0.70900785  0.97530352  0.24742569  1
  P  P8  1  0.35026541  0.98290730  0.24204869  1
  P  P9  1  0.64973459  0.01709270  0.74204869  1
  C  C10  1  0.13947671  0.49125581  0.73933216  1
  C  C11  1  0.86052329  0.50874419  0.23933216  1
  O  O12  1  0.03599633  0.32333135  0.73578763  1
  O  O13  1  0.10675913  0.72616099  0.74764003  1
  O  O14  1  0.25285705  0.06814585  0.05912762  1
  O  O15  1  0.25903465  0.03861381  0.43608944  1
  O  O16  1  0.27480410  0.42634725  0.73967473  1
  O  O17  1  0.38008483  0.70293504  0.22446547  1
  O  O18  1  0.49322961  0.14136913  0.24518244  1
  O  O19  1  0.50677039  0.85863087  0.74518244  1
  O  O20  1  0.61991517  0.29706496  0.72446547  1
  O  O21  1  0.72519590  0.57365275  0.23967473  1
  O  O22  1  0.74096535  0.96138619  0.93608944  1
  O  O23  1  0.74714295  0.93185415  0.55912762  1
  O  O24  1  0.89324087  0.27383901  0.24764003  1
  O  O25  1  0.96400367  0.67666865  0.23578763  1
