# generated using pymatgen
data_Li2MnH4(SO5)2
_symmetry_space_group_name_H-M   'P 1'
_cell_length_a   5.50395336
_cell_length_b   13.07321966
_cell_length_c   5.48463783
_cell_angle_alpha   90.00000000
_cell_angle_beta   100.78819240
_cell_angle_gamma   90.00000000
_symmetry_Int_Tables_number   1
_chemical_formula_structural   Li2MnH4(SO5)2
_chemical_formula_sum   'Li4 Mn2 H8 S4 O20'
_cell_volume   387.66878176
_cell_formula_units_Z   2
loop_
 _symmetry_equiv_pos_site_id
 _symmetry_equiv_pos_as_xyz
  1  'x, y, z'
loop_
 _atom_site_type_symbol
 _atom_site_label
 _atom_site_symmetry_multiplicity
 _atom_site_fract_x
 _atom_site_fract_y
 _atom_site_fract_z
 _atom_site_occupancy
  Li  Li0  1  0.40329374  0.88687428  0.72983523  1
  Li  Li1  1  0.40329374  0.61312572  0.22983523  1
  Li  Li2  1  0.59670626  0.38687428  0.77016477  1
  Li  Li3  1  0.59670626  0.11312572  0.27016477  1
  Mn  Mn4  1  0.00000000  0.50000000  0.50000000  1
  Mn  Mn5  1  0.00000000  0.00000000  0.00000000  1
  H  H6  1  0.10810610  0.70666466  0.47796139  1
  H  H7  1  0.10810610  0.79333534  0.97796139  1
  H  H8  1  0.32835068  0.65663097  0.66771319  1
  H  H9  1  0.32835068  0.84336903  0.16771319  1
  H  H10  1  0.67164932  0.15663197  0.83228681  1
  H  H11  1  0.67164932  0.34336903  0.33228681  1
  H  H12  1  0.89189390  0.20666466  0.02203861  1
  H  H13  1  0.89189390  0.29333534  0.52203861  1
  S  S14  1  0.24111600  0.11634511  0.55339853  1
  S  S15  1  0.24111600  0.38365489  0.05339853  1
  S  S16  1  0.75888400  0.61634511  0.94660147  1
  S  S17  1  0.75888400  0.88365489  0.44660147  1
  O  O18  1  0.99774588  0.66994552  0.98258589  1
  O  O19  1  0.99774588  0.83005448  0.48258589  1
  O  O20  1  0.25580264  0.45079709  0.83236609  1
  O  O21  1  0.21225486  0.64387617  0.50669253  1
  O  O22  1  0.27249840  0.04977693  0.78125225  1
  O  O23  1  0.25580264  0.04920291  0.33236609  1
  O  O24  1  0.21225486  0.85612383  0.00669253  1
  O  O25  1  0.27249840  0.45022307  0.28125225  1
  O  O26  1  0.45734256  0.18668563  0.57591432  1
  O  O27  1  0.54265744  0.68668563  0.92408568  1
  O  O28  1  0.45734256  0.31331437  0.07591432  1
  O  O29  1  0.54265744  0.81331437  0.42408568  1
  O  O30  1  0.72750160  0.54977693  0.71874775  1
  O  O31  1  0.78774514  0.14387617  0.99330747  1
  O  O32  1  0.74419736  0.95079709  0.66763391  1
  O  O33  1  0.72750160  0.95022307  0.21874775  1
  O  O34  1  0.78774514  0.35612383  0.49330747  1
  O  O35  1  0.74419736  0.54920291  0.16763391  1
  O  O36  1  0.00225412  0.16994552  0.51741411  1
  O  O37  1  0.00225412  0.33005448  0.01741411  1
