# generated using pymatgen
data_HoPH5CO7
_symmetry_space_group_name_H-M   'P 1'
_cell_length_a   6.50756036
_cell_length_b   6.90756617
_cell_length_c   7.75747837
_cell_angle_alpha   111.87905716
_cell_angle_beta   96.33683343
_cell_angle_gamma   90.67785927
_symmetry_Int_Tables_number   1
_chemical_formula_structural   HoPH5CO7
_chemical_formula_sum   'Ho2 P2 H10 C2 O14'
_cell_volume   321.08511050
_cell_formula_units_Z   2
loop_
 _symmetry_equiv_pos_site_id
 _symmetry_equiv_pos_as_xyz
  1  'x, y, z'
loop_
 _atom_site_type_symbol
 _atom_site_label
 _atom_site_symmetry_multiplicity
 _atom_site_fract_x
 _atom_site_fract_y
 _atom_site_fract_z
 _atom_site_occupancy
  Ho  Ho0  1  0.87597215  0.77928990  0.06634332  1
  Ho  Ho1  1  0.12402785  0.22071010  0.93365668  1
  P  P2  1  0.67182780  0.25141855  0.01995743  1
  P  P3  1  0.32817220  0.74858145  0.98004257  1
  H  H4  1  0.48370624  0.88391146  0.59372186  1
  H  H5  1  0.72187402  0.67717782  0.65257306  1
  H  H6  1  0.52486072  0.74091710  0.39265059  1
  H  H7  1  0.51629376  0.11608854  0.40627814  1
  H  H8  1  0.27812598  0.32282218  0.34742694  1
  H  H9  1  0.83741586  0.47987075  0.68280580  1
  H  H10  1  0.47513928  0.25908290  0.60734941  1
  H  H11  1  0.62689005  0.29414970  0.20310880  1
  H  H12  1  0.16258414  0.52012925  0.31719420  1
  H  H13  1  0.37310995  0.70585030  0.79689120  1
  C  C14  1  0.05836943  0.90527302  0.50251505  1
  C  C15  1  0.94163057  0.09472698  0.49748495  1
  O  O16  1  0.85013508  0.08342416  0.34196792  1
  O  O17  1  0.46644413  0.22093411  0.89401542  1
  O  O18  1  0.41077776  0.19857948  0.47725952  1
  O  O19  1  0.81968151  0.43046238  0.02448298  1
  O  O20  1  0.05286183  0.75207198  0.34674665  1
  O  O21  1  0.80487588  0.05670395  0.96231621  1
  O  O22  1  0.53355587  0.77906589  0.10598458  1
  O  O23  1  0.58922224  0.80142052  0.52274048  1
  O  O24  1  0.94713817  0.24792802  0.65325335  1
  O  O25  1  0.14986492  0.91657584  0.65803208  1
  O  O26  1  0.78645657  0.62137134  0.74557163  1
  O  O27  1  0.19512412  0.94329605  0.03768379  1
  O  O28  1  0.18031849  0.56953762  0.97551702  1
  O  O29  1  0.21354343  0.37862866  0.25442837  1
