# generated using pymatgen
data_Na3SiSbCO7
_symmetry_space_group_name_H-M   'P 1'
_cell_length_a   9.48864777
_cell_length_b   7.07227964
_cell_length_c   5.12207125
_cell_angle_alpha   90.00000000
_cell_angle_beta   91.04451389
_cell_angle_gamma   90.00000000
_symmetry_Int_Tables_number   1
_chemical_formula_structural   Na3SiSbCO7
_chemical_formula_sum   'Na6 Si2 Sb2 C2 O14'
_cell_volume   343.66649591
_cell_formula_units_Z   2
loop_
 _symmetry_equiv_pos_site_id
 _symmetry_equiv_pos_as_xyz
  1  'x, y, z'
loop_
 _atom_site_type_symbol
 _atom_site_label
 _atom_site_symmetry_multiplicity
 _atom_site_fract_x
 _atom_site_fract_y
 _atom_site_fract_z
 _atom_site_occupancy
  Na  Na0  1  0.08893566  0.25000000  0.77911537  1
  Na  Na1  1  0.24991437  0.00692007  0.25193523  1
  Na  Na2  1  0.24991437  0.49307993  0.25193523  1
  Na  Na3  1  0.75008563  0.50692007  0.74806477  1
  Na  Na4  1  0.75008563  0.99307993  0.74806477  1
  Na  Na5  1  0.91106434  0.75000000  0.22088463  1
  Si  Si6  1  0.40674491  0.25000000  0.71656505  1
  Si  Si7  1  0.59325509  0.75000000  0.28343495  1
  Sb  Sb8  1  0.36620671  0.75000000  0.76619647  1
  Sb  Sb9  1  0.63379329  0.25000000  0.23380353  1
  C  C10  1  0.04961084  0.75000000  0.72524486  1
  C  C11  1  0.95038916  0.25000000  0.27475514  1
  O  O12  1  0.08718330  0.25000000  0.25882137  1
  O  O13  1  0.12575829  0.75000000  0.94269082  1
  O  O14  1  0.10891432  0.75000000  0.49976656  1
  O  O15  1  0.31715922  0.06355261  0.80915745  1
  O  O16  1  0.31715922  0.43644739  0.80915745  1
  O  O17  1  0.41833237  0.25000000  0.39272225  1
  O  O18  1  0.42772611  0.75000000  0.15793835  1
  O  O19  1  0.57227389  0.25000000  0.84206165  1
  O  O20  1  0.58166763  0.75000000  0.60727775  1
  O  O21  1  0.68284078  0.56355261  0.19084255  1
  O  O22  1  0.68284078  0.93644739  0.19084255  1
  O  O23  1  0.89108568  0.25000000  0.50023344  1
  O  O24  1  0.87424171  0.25000000  0.05730918  1
  O  O25  1  0.91281670  0.75000000  0.74117863  1
