# generated using pymatgen
data_Na6Fe2As(CO4)4
_symmetry_space_group_name_H-M   'P 1'
_cell_length_a   10.12557353
_cell_length_b   10.12557410
_cell_length_c   10.12557399
_cell_angle_alpha   89.99999648
_cell_angle_beta   59.99999806
_cell_angle_gamma   59.99999842
_symmetry_Int_Tables_number   1
_chemical_formula_structural   Na6Fe2As(CO4)4
_chemical_formula_sum   'Na12 Fe4 As2 C8 O32'
_cell_volume   734.08091259
_cell_formula_units_Z   2
loop_
 _symmetry_equiv_pos_site_id
 _symmetry_equiv_pos_as_xyz
  1  'x, y, z'
loop_
 _atom_site_type_symbol
 _atom_site_label
 _atom_site_symmetry_multiplicity
 _atom_site_fract_x
 _atom_site_fract_y
 _atom_site_fract_z
 _atom_site_occupancy
  Na  Na0  1  0.75000000  0.66469909  0.91469909  1
  Na  Na1  1  0.67060082  0.91469909  0.66469909  1
  Na  Na2  1  0.75000000  0.66469909  0.33530091  1
  Na  Na3  1  0.75000000  0.08530091  0.91469909  1
  Na  Na4  1  0.82939918  0.33530091  0.08530091  1
  Na  Na5  1  0.25000000  0.91469909  0.66469909  1
  Na  Na6  1  0.17060082  0.66469909  0.91469909  1
  Na  Na7  1  0.75000000  0.08530091  0.33530091  1
  Na  Na8  1  0.25000000  0.91469909  0.08530091  1
  Na  Na9  1  0.25000000  0.33530091  0.66469909  1
  Na  Na10  1  0.32939918  0.08530091  0.33530091  1
  Na  Na11  1  0.25000000  0.33530091  0.08530091  1
  Fe  Fe12  1  0.50000000  0.50000000  0.50000000  1
  Fe  Fe13  1  0.50000000  0.50000000  0.00000000  1
  Fe  Fe14  1  0.00000000  0.50000000  0.50000000  1
  Fe  Fe15  1  0.00000000  0.00000000  0.50000000  1
  As  As16  1  0.75000000  0.87500000  0.12500000  1
  As  As17  1  0.25000000  0.12500000  0.87500000  1
  C  C18  1  0.93057043  0.28471479  0.71528521  1
  C  C19  1  0.56942957  0.64585664  0.71528521  1
  C  C20  1  0.93057043  0.28471479  0.35414336  1
  C  C21  1  0.56942957  0.28471479  0.71528521  1
  C  C22  1  0.43057043  0.71528521  0.28471479  1
  C  C23  1  0.06942957  0.71528521  0.64585664  1
  C  C24  1  0.43057043  0.35414336  0.28471479  1
  C  C25  1  0.06942957  0.71528521  0.28471479  1
  O  O26  1  0.95425707  0.85598655  0.64823605  1
  O  O27  1  0.95425707  0.68975638  0.39750688  1
  O  O28  1  0.79224950  0.39750688  0.85598655  1
  O  O29  1  0.70775050  0.64823605  0.68975638  1
  O  O30  1  0.95848067  0.14401345  0.68975638  1
  O  O31  1  0.88938511  0.94469205  0.05530795  1
  O  O32  1  0.95848067  0.39750688  0.35176395  1
  O  O33  1  0.61061489  0.94469205  0.33407716  1
  O  O34  1  0.88938511  0.66592284  0.05530795  1
  O  O35  1  0.45425707  0.64823605  0.85598655  1
  O  O36  1  0.54151933  0.64823605  0.60249312  1
  O  O37  1  0.61061489  0.94469205  0.05530795  1
  O  O38  1  0.54151933  0.31024362  0.85598655  1
  O  O39  1  0.79224950  0.31024362  0.35176395  1
  O  O40  1  0.70775050  0.14401345  0.60249312  1
  O  O41  1  0.54574293  0.60249312  0.31024362  1
  O  O42  1  0.45425707  0.39750688  0.68975638  1
  O  O43  1  0.29224950  0.85598655  0.39750688  1
  O  O44  1  0.20775050  0.68975638  0.64823605  1
  O  O45  1  0.45848067  0.68975638  0.14401345  1
  O  O46  1  0.38938511  0.05530795  0.94469205  1
  O  O47  1  0.45848067  0.35176395  0.39750688  1
  O  O48  1  0.54574293  0.35176395  0.14401345  1
  O  O49  1  0.11061489  0.33407716  0.94469205  1
  O  O50  1  0.38938511  0.05530795  0.66592284  1
  O  O51  1  0.04151933  0.60249312  0.64823605  1
  O  O52  1  0.11061489  0.05530795  0.94469205  1
  O  O53  1  0.04151933  0.85598655  0.31024362  1
  O  O54  1  0.29224950  0.35176395  0.31024362  1
  O  O55  1  0.20775050  0.60249312  0.14401345  1
  O  O56  1  0.04574293  0.31024362  0.60249312  1
  O  O57  1  0.04574293  0.14401345  0.35176395  1
