# generated using pymatgen
data_BaSr2I6
_symmetry_space_group_name_H-M   'P 1'
_cell_length_a   8.17047909
_cell_length_b   8.17047909
_cell_length_c   24.56628272
_cell_angle_alpha   90.00000000
_cell_angle_beta   90.00000000
_cell_angle_gamma   90.00000000
_symmetry_Int_Tables_number   1
_chemical_formula_structural   BaSr2I6
_chemical_formula_sum   'Ba4 Sr8 I24'
_cell_volume   1639.96466727
_cell_formula_units_Z   4
loop_
 _symmetry_equiv_pos_site_id
 _symmetry_equiv_pos_as_xyz
  1  'x, y, z'
loop_
 _atom_site_type_symbol
 _atom_site_label
 _atom_site_symmetry_multiplicity
 _atom_site_fract_x
 _atom_site_fract_y
 _atom_site_fract_z
 _atom_site_occupancy
  Ba  Ba0  1  0.00000000  0.00000000  0.00000000  1
  Ba  Ba1  1  0.00000000  0.50000000  0.50000000  1
  Ba  Ba2  1  0.50000000  0.00000000  0.50000000  1
  Ba  Ba3  1  0.50000000  0.50000000  0.00000000  1
  Sr  Sr4  1  0.00000000  0.50000000  0.16800196  1
  Sr  Sr5  1  0.00000000  0.00000000  0.33128230  1
  Sr  Sr6  1  0.00000000  0.00000000  0.66871770  1
  Sr  Sr7  1  0.00000000  0.50000000  0.83199804  1
  Sr  Sr8  1  0.50000000  0.50000000  0.33128230  1
  Sr  Sr9  1  0.50000000  0.00000000  0.16800196  1
  Sr  Sr10  1  0.50000000  0.00000000  0.83199804  1
  Sr  Sr11  1  0.50000000  0.50000000  0.66871770  1
  I  I12  1  0.23359117  0.75825895  0.58671013  1
  I  I13  1  0.23462533  0.74350959  0.08676008  1
  I  I14  1  0.25649041  0.23462533  0.91323992  1
  I  I15  1  0.25825895  0.73359117  0.41328987  1
  I  I16  1  0.23521840  0.26533177  0.25045212  1
  I  I17  1  0.23466823  0.26478160  0.74954788  1
  I  I18  1  0.26533177  0.76478160  0.74954788  1
  I  I19  1  0.26478160  0.76533177  0.25045212  1
  I  I20  1  0.24350959  0.73462533  0.91323992  1
  I  I21  1  0.24174105  0.23359117  0.41328987  1
  I  I22  1  0.26537467  0.24350959  0.08676008  1
  I  I23  1  0.26640883  0.25825895  0.58671013  1
  I  I24  1  0.73359117  0.74174105  0.58671013  1
  I  I25  1  0.73462533  0.75649041  0.08676008  1
  I  I26  1  0.75649041  0.26537467  0.91323992  1
  I  I27  1  0.75825895  0.76640883  0.41328987  1
  I  I28  1  0.73521840  0.23466823  0.25045212  1
  I  I29  1  0.73466823  0.23521840  0.74954788  1
  I  I30  1  0.76533177  0.73521840  0.74954788  1
  I  I31  1  0.76478160  0.73466823  0.25045212  1
  I  I32  1  0.74174105  0.26640883  0.41328987  1
  I  I33  1  0.74350959  0.76537467  0.91323992  1
  I  I34  1  0.76537467  0.25649041  0.08676008  1
  I  I35  1  0.76640883  0.24174105  0.58671013  1
