# generated using pymatgen
data_Li5Cu(PO4)2
_symmetry_space_group_name_H-M   'P 1'
_cell_length_a   6.20281813
_cell_length_b   5.35367114
_cell_length_c   9.95127484
_cell_angle_alpha   90.00167859
_cell_angle_beta   89.89372020
_cell_angle_gamma   90.00814789
_symmetry_Int_Tables_number   1
_chemical_formula_structural   Li5Cu(PO4)2
_chemical_formula_sum   'Li10 Cu2 P4 O16'
_cell_volume   330.45985477
_cell_formula_units_Z   2
loop_
 _symmetry_equiv_pos_site_id
 _symmetry_equiv_pos_as_xyz
  1  'x, y, z'
loop_
 _atom_site_type_symbol
 _atom_site_label
 _atom_site_symmetry_multiplicity
 _atom_site_fract_x
 _atom_site_fract_y
 _atom_site_fract_z
 _atom_site_occupancy
  Li  Li0  1  0.00003880  0.15506358  0.74562644  1
  Li  Li1  1  0.99980481  0.15633410  0.24569567  1
  Li  Li2  1  0.24557514  0.32754926  0.49435693  1
  Li  Li3  1  0.24815285  0.32659314  0.99683724  1
  Li  Li4  1  0.25228627  0.67300228  0.24465189  1
  Li  Li5  1  0.50044689  0.84470612  0.99599035  1
  Li  Li6  1  0.49925725  0.84383719  0.49506359  1
  Li  Li7  1  0.74747402  0.67147534  0.74537429  1
  Li  Li8  1  0.74624832  0.67404830  0.24600755  1
  Li  Li9  1  0.75232779  0.32683422  0.49400414  1
  Cu  Cu10  1  0.25673269  0.66575580  0.74849865  1
  Cu  Cu11  1  0.75648501  0.33449521  0.99900708  1
  P  P12  1  0.00215144  0.82610584  0.00206715  1
  P  P13  1  0.99721294  0.82688768  0.49650356  1
  P  P14  1  0.49812718  0.17354690  0.25246641  1
  P  P15  1  0.50118380  0.17351295  0.74627306  1
  O  O16  1  0.99106626  0.82660831  0.65349276  1
  O  O17  1  0.99859837  0.10321393  0.44665925  1
  O  O18  1  0.99628047  0.82376813  0.15829730  1
  O  O19  1  0.01428866  0.09848025  0.94705498  1
  O  O20  1  0.20390818  0.68873736  0.44570166  1
  O  O21  1  0.20906190  0.68136155  0.95690364  1
  O  O22  1  0.29430309  0.31194409  0.19814495  1
  O  O23  1  0.29053531  0.29705989  0.69079797  1
  O  O24  1  0.49110106  0.17191751  0.90305679  1
  O  O25  1  0.51296223  0.89940902  0.69349880  1
  O  O26  1  0.49637074  0.17795400  0.40870338  1
  O  O27  1  0.50010813  0.89879446  0.20031522  1
  O  O28  1  0.70490191  0.31673281  0.69631779  1
  O  O29  1  0.70797883  0.31344501  0.20630325  1
  O  O30  1  0.79190680  0.68813261  0.44451062  1
  O  O31  1  0.79312485  0.70269215  0.94440965  1
