# generated using pymatgen
data_NbCrO4
_symmetry_space_group_name_H-M   'P 1'
_cell_length_a   4.55854903
_cell_length_b   11.75989036
_cell_length_c   4.97047878
_cell_angle_alpha   90.00000000
_cell_angle_beta   90.00000000
_cell_angle_gamma   90.00000000
_symmetry_Int_Tables_number   1
_chemical_formula_structural   NbCrO4
_chemical_formula_sum   'Nb4 Cr4 O16'
_cell_volume   266.45760932
_cell_formula_units_Z   4
loop_
 _symmetry_equiv_pos_site_id
 _symmetry_equiv_pos_as_xyz
  1  'x, y, z'
loop_
 _atom_site_type_symbol
 _atom_site_label
 _atom_site_symmetry_multiplicity
 _atom_site_fract_x
 _atom_site_fract_y
 _atom_site_fract_z
 _atom_site_occupancy
  Nb  Nb0  1  0.00000000  0.17074655  0.25000000  1
  Nb  Nb1  1  0.00000000  0.82925345  0.75000000  1
  Nb  Nb2  1  0.50000000  0.67074655  0.25000000  1
  Nb  Nb3  1  0.50000000  0.32925345  0.75000000  1
  Cr  Cr4  1  0.00000000  0.43393379  0.25000000  1
  Cr  Cr5  1  0.00000000  0.56606621  0.75000000  1
  Cr  Cr6  1  0.50000000  0.06606621  0.75000000  1
  Cr  Cr7  1  0.50000000  0.93393379  0.25000000  1
  O  O8  1  0.22983267  0.30899751  0.42422019  1
  O  O9  1  0.22983267  0.69100249  0.92422019  1
  O  O10  1  0.25844879  0.06049510  0.41640295  1
  O  O11  1  0.25844879  0.93950490  0.91640295  1
  O  O12  1  0.24155121  0.43950490  0.91640295  1
  O  O13  1  0.24155121  0.56049510  0.41640295  1
  O  O14  1  0.27016733  0.19100249  0.92422019  1
  O  O15  1  0.27016733  0.80899751  0.42422019  1
  O  O16  1  0.72983267  0.19100249  0.57577981  1
  O  O17  1  0.72983267  0.80899751  0.07577981  1
  O  O18  1  0.75844879  0.43950490  0.58359705  1
  O  O19  1  0.75844879  0.56049510  0.08359705  1
  O  O20  1  0.74155121  0.06049510  0.08359705  1
  O  O21  1  0.74155121  0.93950490  0.58359705  1
  O  O22  1  0.77016733  0.69100249  0.57577981  1
  O  O23  1  0.77016733  0.30899751  0.07577981  1
