# generated using pymatgen
data_NaLi5Fe2P2(CO7)2
_symmetry_space_group_name_H-M   'P 1'
_cell_length_a   8.54731429
_cell_length_b   6.53117425
_cell_length_c   10.07591524
_cell_angle_alpha   90.00000000
_cell_angle_beta   85.90916260
_cell_angle_gamma   90.00000000
_symmetry_Int_Tables_number   1
_chemical_formula_structural   NaLi5Fe2P2(CO7)2
_chemical_formula_sum   'Na2 Li10 Fe4 P4 C4 O28'
_cell_volume   561.04480323
_cell_formula_units_Z   2
loop_
 _symmetry_equiv_pos_site_id
 _symmetry_equiv_pos_as_xyz
  1  'x, y, z'
loop_
 _atom_site_type_symbol
 _atom_site_label
 _atom_site_symmetry_multiplicity
 _atom_site_fract_x
 _atom_site_fract_y
 _atom_site_fract_z
 _atom_site_occupancy
  Na  Na0  1  0.25549564  0.00129062  0.62744351  1
  Na  Na1  1  0.74450436  0.50129062  0.37255649  1
  Li  Li2  1  0.09049039  0.26266082  0.87737437  1
  Li  Li3  1  0.08803160  0.24164267  0.37342407  1
  Li  Li4  1  0.27617152  0.47743726  0.62053045  1
  Li  Li5  1  0.27333933  0.01965443  0.12455273  1
  Li  Li6  1  0.27325019  0.47844611  0.12422273  1
  Li  Li7  1  0.72666067  0.51965443  0.87544727  1
  Li  Li8  1  0.72674981  0.97844611  0.87577727  1
  Li  Li9  1  0.72382848  0.97743726  0.37946955  1
  Li  Li10  1  0.91196840  0.74164267  0.62657593  1
  Li  Li11  1  0.90950961  0.76266082  0.12262563  1
  Fe  Fe12  1  0.33662191  0.75165160  0.89638950  1
  Fe  Fe13  1  0.34280557  0.74324491  0.39078591  1
  Fe  Fe14  1  0.65719443  0.24324491  0.60921409  1
  Fe  Fe15  1  0.66337809  0.25165160  0.10361050  1
  P  P16  1  0.41085929  0.25697545  0.85818827  1
  P  P17  1  0.40888781  0.24307823  0.35411003  1
  P  P18  1  0.59111219  0.74307823  0.64588997  1
  P  P19  1  0.58914071  0.75697545  0.14181173  1
  C  C20  1  0.03393446  0.74762818  0.85885609  1
  C  C21  1  0.04114103  0.75821296  0.35312412  1
  C  C22  1  0.95885897  0.25821296  0.64687588  1
  C  C23  1  0.96606554  0.24762718  0.14114391  1
  O  O24  1  0.10132092  0.28247675  0.67864483  1
  O  O25  1  0.11196220  0.24506323  0.16888472  1
  O  O26  1  0.07511401  0.75412454  0.97979580  1
  O  O27  1  0.07639640  0.75532644  0.47686778  1
  O  O28  1  0.14300490  0.74360985  0.76097112  1
  O  O29  1  0.15273725  0.73564694  0.25864692  1
  O  O30  1  0.30994369  0.06578626  0.90227961  1
  O  O31  1  0.30884419  0.43889542  0.91637826  1
  O  O32  1  0.30120961  0.05713757  0.39423405  1
  O  O33  1  0.31159037  0.43021254  0.41049781  1
  O  O34  1  0.42753179  0.27077808  0.70320812  1
  O  O35  1  0.42912473  0.72851578  0.58844730  1
  O  O36  1  0.43017214  0.25624453  0.19885150  1
  O  O37  1  0.42328632  0.75426085  0.09077832  1
  O  O38  1  0.57671368  0.25426085  0.90922168  1
  O  O39  1  0.56982786  0.75624453  0.80114850  1
  O  O40  1  0.57087527  0.22851578  0.41155270  1
  O  O41  1  0.57246821  0.77077808  0.29679188  1
  O  O42  1  0.69879039  0.55713757  0.60576595  1
  O  O43  1  0.68840963  0.93021254  0.58950219  1
  O  O44  1  0.69005631  0.56578626  0.09772039  1
  O  O45  1  0.69115581  0.93889542  0.08362174  1
  O  O46  1  0.84726275  0.23564694  0.74135308  1
  O  O47  1  0.85699510  0.24360985  0.23902888  1
  O  O48  1  0.92360360  0.25532644  0.52313222  1
  O  O49  1  0.92488599  0.25412454  0.02020420  1
  O  O50  1  0.88803780  0.74506323  0.83111528  1
  O  O51  1  0.89867908  0.78247675  0.32135517  1
