# generated using pymatgen
data_LiCa2Nb3O10
_symmetry_space_group_name_H-M   'P 1'
_cell_length_a   5.53906596
_cell_length_b   5.55501745
_cell_length_c   27.48011298
_cell_angle_alpha   89.97432296
_cell_angle_beta   90.44910252
_cell_angle_gamma   90.01185116
_symmetry_Int_Tables_number   1
_chemical_formula_structural   LiCa2Nb3O10
_chemical_formula_sum   'Li4 Ca8 Nb12 O40'
_cell_volume   845.52622736
_cell_formula_units_Z   4
loop_
 _symmetry_equiv_pos_site_id
 _symmetry_equiv_pos_as_xyz
  1  'x, y, z'
loop_
 _atom_site_type_symbol
 _atom_site_label
 _atom_site_symmetry_multiplicity
 _atom_site_fract_x
 _atom_site_fract_y
 _atom_site_fract_z
 _atom_site_occupancy
  Li  Li0  1  0.74909505  0.24504733  0.74913960  1
  Li  Li1  1  0.75059124  0.74491038  0.76048645  1
  Li  Li2  1  0.74700583  0.75699628  0.26070841  1
  Li  Li3  1  0.75178547  0.25524544  0.24868314  1
  Ca  Ca4  1  0.01010704  0.00986822  0.58432479  1
  Ca  Ca5  1  0.00996662  0.48989726  0.08432057  1
  Ca  Ca6  1  0.48583721  0.48238271  0.58070958  1
  Ca  Ca7  1  0.51629735  0.98303489  0.92028064  1
  Ca  Ca8  1  0.48580704  0.01768989  0.08068303  1
  Ca  Ca9  1  0.51619482  0.51724938  0.42023470  1
  Ca  Ca10  1  0.98851319  0.51064263  0.91648202  1
  Ca  Ca11  1  0.98847862  0.98946756  0.41646804  1
  Nb  Nb12  1  0.00634803  0.00193151  0.84399131  1
  Nb  Nb13  1  0.00030576  0.50047813  0.50006433  1
  Nb  Nb14  1  0.00621166  0.49857619  0.34385697  1
  Nb  Nb15  1  0.00026464  0.99958046  0.00006258  1
  Nb  Nb16  1  0.49698511  0.48935028  0.84398452  1
  Nb  Nb17  1  0.49711329  0.01142321  0.34385480  1
  Nb  Nb18  1  0.50043466  0.00021633  0.50004152  1
  Nb  Nb19  1  0.50301195  0.99120594  0.65659669  1
  Nb  Nb20  1  0.50045446  0.49983081  0.00005550  1
  Nb  Nb21  1  0.50282545  0.50828465  0.15649628  1
  Nb  Nb22  1  0.99422067  0.49824294  0.65674053  1
  Nb  Nb23  1  0.99426229  0.00090378  0.15655172  1
  O  O24  1  0.99713617  0.03679135  0.77900698  1
  O  O25  1  0.99729634  0.46316346  0.27904170  1
  O  O26  1  0.04749836  0.43718152  0.56980730  1
  O  O27  1  0.04760841  0.06271944  0.06980423  1
  O  O28  1  0.18915684  0.30996532  0.98316946  1
  O  O29  1  0.18903887  0.18987384  0.48319125  1
  O  O30  1  0.24704031  0.74482711  0.64050575  1
  O  O31  1  0.25199873  0.74432156  0.86036922  1
  O  O32  1  0.24872556  0.24496677  0.65363627  1
  O  O33  1  0.25415056  0.24363889  0.86854189  1
  O  O34  1  0.24683717  0.75451802  0.14042007  1
  O  O35  1  0.25207672  0.75605480  0.36022415  1
  O  O36  1  0.24879420  0.25437767  0.15369503  1
  O  O37  1  0.25389670  0.25651382  0.36839840  1
  O  O38  1  0.31754300  0.68224842  0.49978063  1
  O  O39  1  0.31730536  0.81753765  0.99969328  1
  O  O40  1  0.43856514  0.04563013  0.56974234  1
  O  O41  1  0.43833288  0.45400377  0.06973756  1
  O  O42  1  0.50376961  0.45436698  0.77900699  1
  O  O43  1  0.50531730  0.04616335  0.27897103  1
  O  O44  1  0.56962099  0.96975649  0.72074938  1
  O  O45  1  0.56979650  0.53042567  0.22076646  1
  O  O46  1  0.56390680  0.54973125  0.93007476  1
  O  O47  1  0.56350454  0.95018560  0.43005180  1
  O  O48  1  0.68200994  0.31741758  0.49983757  1
  O  O49  1  0.68214352  0.18271930  0.99991430  1
  O  O50  1  0.74643841  0.74349711  0.63091145  1
  O  O51  1  0.75186573  0.74522959  0.84436945  1
  O  O52  1  0.74770865  0.24415720  0.63802583  1
  O  O53  1  0.75323514  0.24523034  0.86292553  1
  O  O54  1  0.74600868  0.75640863  0.13073426  1
  O  O55  1  0.75176710  0.75523459  0.34431714  1
  O  O56  1  0.74787631  0.25577950  0.13809748  1
  O  O57  1  0.75297289  0.25532687  0.36305335  1
  O  O58  1  0.81177791  0.81114403  0.51650933  1
  O  O59  1  0.81159770  0.68891639  0.01654505  1
  O  O60  1  0.94789438  0.93436261  0.93009145  1
  O  O61  1  0.94835198  0.56600179  0.43007997  1
  O  O62  1  0.93020074  0.51919786  0.72076976  1
  O  O63  1  0.93011943  0.97895649  0.22071343  1
