# generated using pymatgen
data_La6Cu6O17
_symmetry_space_group_name_H-M   'P 1'
_cell_length_a   6.77288578
_cell_length_b   6.74160683
_cell_length_c   10.52509253
_cell_angle_alpha   96.18434134
_cell_angle_beta   86.92568447
_cell_angle_gamma   119.84703792
_symmetry_Int_Tables_number   1
_chemical_formula_structural   La6Cu6O17
_chemical_formula_sum   'La6 Cu6 O17'
_cell_volume   414.40623357
_cell_formula_units_Z   1
loop_
 _symmetry_equiv_pos_site_id
 _symmetry_equiv_pos_as_xyz
  1  'x, y, z'
loop_
 _atom_site_type_symbol
 _atom_site_label
 _atom_site_symmetry_multiplicity
 _atom_site_fract_x
 _atom_site_fract_y
 _atom_site_fract_z
 _atom_site_occupancy
  La  La0  1  0.33320516  0.69211596  0.49221814  1
  La  La1  1  0.00025550  0.97197988  0.98991719  1
  La  La2  1  0.00019175  0.02806723  0.50999426  1
  La  La3  1  0.33318610  0.64112754  0.00778857  1
  La  La4  1  0.66648460  0.30522073  0.99014655  1
  La  La5  1  0.66648695  0.36128969  0.50984899  1
  Cu  Cu6  1  0.00696307  0.50350102  0.75002092  1
  Cu  Cu7  1  0.65947833  0.82983313  0.75003104  1
  Cu  Cu8  1  0.33350722  0.16681169  0.25001138  1
  Cu  Cu9  1  0.33338396  0.16674329  0.75001900  1
  Cu  Cu10  1  0.83345419  0.66682406  0.25008428  1
  Cu  Cu11  1  0.83345462  0.16669414  0.24987927  1
  O  O12  1  0.99459829  0.68184346  0.39276124  1
  O  O13  1  0.33364404  0.99242234  0.10105944  1
  O  O14  1  0.99458987  0.31278991  0.10718791  1
  O  O15  1  0.00219214  0.00102804  0.24998476  1
  O  O16  1  0.99541776  0.99773501  0.75000887  1
  O  O17  1  0.33336489  0.66663241  0.74998125  1
  O  O18  1  0.33365334  0.34131760  0.39893175  1
  O  O19  1  0.33325851  0.29953789  0.91340299  1
  O  O20  1  0.67179494  0.02059141  0.39256945  1
  O  O21  1  0.33324719  0.03375264  0.58662435  1
  O  O22  1  0.67180252  0.65130097  0.10743876  1
  O  O23  1  0.65757210  0.71121500  0.58328466  1
  O  O24  1  0.67084365  0.33550104  0.75003625  1
  O  O25  1  0.66483910  0.33255133  0.25000572  1
  O  O26  1  0.00914140  0.62205158  0.91688565  1
  O  O27  1  0.65761702  0.94642678  0.91674951  1
  O  O28  1  0.00917078  0.38719824  0.58312782  1
