# generated using pymatgen
data_Ce4YO9
_symmetry_space_group_name_H-M   'P 1'
_cell_length_a   3.82150789
_cell_length_b   10.33852045
_cell_length_c   5.52485606
_cell_angle_alpha   74.50242620
_cell_angle_beta   90.00000000
_cell_angle_gamma   79.34942610
_symmetry_Int_Tables_number   1
_chemical_formula_structural   Ce4YO9
_chemical_formula_sum   'Ce4 Y1 O9'
_cell_volume   206.43889707
_cell_formula_units_Z   1
loop_
 _symmetry_equiv_pos_site_id
 _symmetry_equiv_pos_as_xyz
  1  'x, y, z'
loop_
 _atom_site_type_symbol
 _atom_site_label
 _atom_site_symmetry_multiplicity
 _atom_site_fract_x
 _atom_site_fract_y
 _atom_site_fract_z
 _atom_site_occupancy
  Ce  Ce0  1  0.80138765  0.39722471  0.79769214  1
  Ce  Ce1  1  0.60574115  0.78851770  0.59464831  1
  Ce  Ce2  1  0.39425885  0.21148230  0.38316601  1
  Ce  Ce3  1  0.19861235  0.60277529  0.19491685  1
  Y  Y4  1  1.00000000  0.00000000  0.04879420  1
  O  O5  1  0.69651666  0.60696768  0.93942797  1
  O  O6  1  0.08274369  0.83451163  0.83048030  1
  O  O7  1  0.91725631  0.16548837  0.66499193  1
  O  O8  1  0.70228344  0.59543312  0.44638633  1
  O  O9  1  0.30348334  0.39303232  0.54639565  1
  O  O10  1  0.10457614  0.79084772  0.35699230  1
  O  O11  1  0.50000000  1.00000000  0.25644654  1
  O  O12  1  0.29771656  0.40456688  0.04181944  1
  O  O13  1  0.89542386  0.20915228  0.14784102  1
