# generated using pymatgen
data_MnFe(PO4)2
_symmetry_space_group_name_H-M   'P 1'
_cell_length_a   8.59346222
_cell_length_b   8.62883695
_cell_length_c   8.62883665
_cell_angle_alpha   59.99999715
_cell_angle_beta   59.86373008
_cell_angle_gamma   59.86373910
_symmetry_Int_Tables_number   1
_chemical_formula_structural   MnFe(PO4)2
_chemical_formula_sum   'Mn3 Fe3 P6 O24'
_cell_volume   451.50244143
_cell_formula_units_Z   3
loop_
 _symmetry_equiv_pos_site_id
 _symmetry_equiv_pos_as_xyz
  1  'x, y, z'
loop_
 _atom_site_type_symbol
 _atom_site_label
 _atom_site_symmetry_multiplicity
 _atom_site_fract_x
 _atom_site_fract_y
 _atom_site_fract_z
 _atom_site_occupancy
  Mn  Mn0  1  0.00631484  0.99789539  0.99789539  1
  Mn  Mn1  1  0.56924453  0.14358482  0.14358482  1
  Mn  Mn2  1  0.50009817  0.49996694  0.49996694  1
  Fe  Fe3  1  0.06184870  0.64605010  0.64605010  1
  Fe  Fe4  1  0.43517928  0.85494024  0.85494024  1
  Fe  Fe5  1  0.93497332  0.35500889  0.35500889  1
  P  P6  1  0.25249917  0.25110916  0.53910782  1
  P  P7  1  0.25249917  0.95728385  0.25110916  1
  P  P8  1  0.25249917  0.53910782  0.95728385  1
  P  P9  1  0.74497813  0.45570226  0.04662104  1
  P  P10  1  0.74497813  0.04662104  0.75269857  1
  P  P11  1  0.74497813  0.75269857  0.45570226  1
  O  O12  1  0.07008223  0.11098481  0.31843410  1
  O  O13  1  0.07008223  0.50049786  0.11098481  1
  O  O14  1  0.07008223  0.31843410  0.50049786  1
  O  O15  1  0.23435783  0.08847619  0.73410092  1
  O  O16  1  0.43604771  0.18943622  0.37900597  1
  O  O17  1  0.27338509  0.41234961  0.55400609  1
  O  O18  1  0.23435783  0.94306506  0.08847619  1
  O  O19  1  0.27338509  0.76025921  0.41234961  1
  O  O20  1  0.56507892  0.61235506  0.00786632  1
  O  O21  1  0.27338509  0.55400609  0.76025921  1
  O  O22  1  0.76340840  0.25793327  0.06013350  1
  O  O23  1  0.56507892  0.00786632  0.81469970  1
  O  O24  1  0.43604771  0.99551010  0.18943622  1
  O  O25  1  0.23435783  0.73410092  0.94306506  1
  O  O26  1  0.72858113  0.43560573  0.24341615  1
  O  O27  1  0.43604771  0.37900597  0.99551010  1
  O  O28  1  0.72858113  0.24341615  0.59239599  1
  O  O29  1  0.76340840  0.06013350  0.91852482  1
  O  O30  1  0.72858113  0.59239599  0.43560573  1
  O  O31  1  0.56507892  0.81469970  0.61235506  1
  O  O32  1  0.76340840  0.91852482  0.25793327  1
  O  O33  1  0.92902778  0.69358343  0.48905613  1
  O  O34  1  0.92902778  0.48905613  0.88833267  1
  O  O35  1  0.92902778  0.88833267  0.69358343  1
