# generated using pymatgen
data_CrP4O11
_symmetry_space_group_name_H-M   'P 1'
_cell_length_a   9.52559179
_cell_length_b   9.55411129
_cell_length_c   10.86071419
_cell_angle_alpha   69.89550468
_cell_angle_beta   109.10598564
_cell_angle_gamma   90.07947910
_symmetry_Int_Tables_number   1
_chemical_formula_structural   CrP4O11
_chemical_formula_sum   'Cr4 P16 O44'
_cell_volume   870.15676154
_cell_formula_units_Z   4
loop_
 _symmetry_equiv_pos_site_id
 _symmetry_equiv_pos_as_xyz
  1  'x, y, z'
loop_
 _atom_site_type_symbol
 _atom_site_label
 _atom_site_symmetry_multiplicity
 _atom_site_fract_x
 _atom_site_fract_y
 _atom_site_fract_z
 _atom_site_occupancy
  Cr  Cr0  1  0.24465173  0.77774818  0.98476929  1
  Cr  Cr1  1  0.73223185  0.72978259  0.50405178  1
  Cr  Cr2  1  0.26776815  0.27021741  0.49594822  1
  Cr  Cr3  1  0.75534827  0.22225182  0.01523071  1
  P  P4  1  0.06377925  0.58679909  0.77322907  1
  P  P5  1  0.23838483  0.91152609  0.44157504  1
  P  P6  1  0.07376845  0.25056033  0.92619297  1
  P  P7  1  0.59552796  0.77421612  0.91022622  1
  P  P8  1  0.26233595  0.58016204  0.61123251  1
  P  P9  1  0.40513608  0.90414650  0.24445119  1
  P  P10  1  0.08332764  0.11073636  0.71600025  1
  P  P11  1  0.58749055  0.55692960  0.75446907  1
  P  P12  1  0.41250945  0.44307040  0.24553093  1
  P  P13  1  0.91667236  0.88926364  0.28399975  1
  P  P14  1  0.59486392  0.09585350  0.75554881  1
  P  P15  1  0.73766405  0.41983796  0.38876749  1
  P  P16  1  0.40447304  0.22578388  0.08977378  1
  P  P17  1  0.92623155  0.74943967  0.07380703  1
  P  P18  1  0.76161517  0.08847391  0.55842496  1
  P  P19  1  0.93622075  0.41320091  0.22677093  1
  O  O20  1  0.98601128  0.82261657  0.96169142  1
  O  O21  1  0.19823954  0.98111408  0.81323390  1
  O  O22  1  0.06819273  0.95907110  0.34666692  1
  O  O23  1  0.18295648  0.64261647  0.86609991  1
  O  O24  1  0.02687616  0.42577482  0.86402907  1
  O  O25  1  0.47414577  0.76256924  0.96675668  1
  O  O26  1  0.24102933  0.75938349  0.56566995  1
  O  O27  1  0.58013907  0.91802408  0.77597455  1
  O  O28  1  0.13740809  0.53033022  0.67818355  1
  O  O29  1  0.31743238  0.85969534  0.35580900  1
  O  O30  1  0.01993825  0.19766299  0.79780536  1
  O  O31  1  0.25170690  0.22959402  0.96885598  1
  O  O32  1  0.30052063  0.90568058  0.10794691  1
  O  O33  1  0.41372712  0.53000862  0.74302576  1
  O  O34  1  0.63013757  0.63945318  0.86896939  1
  O  O35  1  0.69672622  0.97399818  0.50295543  1
  O  O36  1  0.25336296  0.52349095  0.49938350  1
  O  O37  1  0.11245476  0.22995989  0.59890503  1
  O  O38  1  0.58476174  0.66486335  0.61613385  1
  O  O39  1  0.55392989  0.81136393  0.31370416  1
  O  O40  1  0.08363092  0.32064847  0.31377921  1
  O  O41  1  0.31656799  0.59007571  0.17433272  1
  O  O42  1  0.68343201  0.40992529  0.82566728  1
  O  O43  1  0.91636908  0.67935153  0.68622079  1
  O  O44  1  0.44607011  0.18863607  0.68629584  1
  O  O45  1  0.41523826  0.33513665  0.38386615  1
  O  O46  1  0.88754524  0.77004011  0.40109497  1
  O  O47  1  0.74663704  0.47650905  0.50061650  1
  O  O48  1  0.30327378  0.02600182  0.49704457  1
  O  O49  1  0.36986243  0.36054682  0.13103061  1
  O  O50  1  0.58627288  0.46999138  0.25697424  1
  O  O51  1  0.69947937  0.09431942  0.89205309  1
  O  O52  1  0.74829310  0.77040598  0.03114402  1
  O  O53  1  0.98006175  0.80233701  0.20219464  1
  O  O54  1  0.68256762  0.14030466  0.64419100  1
  O  O55  1  0.86259191  0.46966978  0.32181645  1
  O  O56  1  0.41986093  0.08197592  0.22402545  1
  O  O57  1  0.75897067  0.24061651  0.43433005  1
  O  O58  1  0.52585423  0.23743076  0.03324332  1
  O  O59  1  0.97312384  0.57422518  0.13597093  1
  O  O60  1  0.81704352  0.35738353  0.13390009  1
  O  O61  1  0.93180727  0.04092890  0.65333308  1
  O  O62  1  0.80176046  0.01888592  0.18676610  1
  O  O63  1  0.01398872  0.17738343  0.03830858  1
