# generated using pymatgen
data_NaLi5Fe2P2(CO7)2
_symmetry_space_group_name_H-M   'P 1'
_cell_length_a   8.58042985
_cell_length_b   6.53097272
_cell_length_c   10.11517103
_cell_angle_alpha   90.03967146
_cell_angle_beta   85.99267529
_cell_angle_gamma   89.48334329
_symmetry_Int_Tables_number   1
_chemical_formula_structural   NaLi5Fe2P2(CO7)2
_chemical_formula_sum   'Na2 Li10 Fe4 P4 C4 O28'
_cell_volume   565.43021197
_cell_formula_units_Z   2
loop_
 _symmetry_equiv_pos_site_id
 _symmetry_equiv_pos_as_xyz
  1  'x, y, z'
loop_
 _atom_site_type_symbol
 _atom_site_label
 _atom_site_symmetry_multiplicity
 _atom_site_fract_x
 _atom_site_fract_y
 _atom_site_fract_z
 _atom_site_occupancy
  Na  Na0  1  0.25763809  0.49873673  0.12761761  1
  Na  Na1  1  0.74236191  0.50126327  0.37238239  1
  Li  Li2  1  0.08640474  0.24204295  0.87271705  1
  Li  Li3  1  0.09091890  0.22316048  0.37853643  1
  Li  Li4  1  0.27452810  0.02166595  0.62209788  1
  Li  Li5  1  0.27345092  0.47788820  0.62288349  1
  Li  Li6  1  0.27760038  0.02036640  0.12141114  1
  Li  Li7  1  0.72654908  0.52211180  0.87711651  1
  Li  Li8  1  0.72547190  0.97833405  0.87790212  1
  Li  Li9  1  0.72239962  0.97963360  0.37858886  1
  Li  Li10  1  0.91359526  0.75795705  0.62728295  1
  Li  Li11  1  0.90908110  0.77683952  0.12146357  1
  Fe  Fe12  1  0.33805222  0.75803970  0.89018136  1
  Fe  Fe13  1  0.34093271  0.75047818  0.39607787  1
  Fe  Fe14  1  0.66194778  0.24196030  0.60981864  1
  Fe  Fe15  1  0.65906729  0.24952182  0.10392213  1
  P  P16  1  0.41047048  0.25270554  0.85216234  1
  P  P17  1  0.41126076  0.23972758  0.35943983  1
  P  P18  1  0.58952952  0.74729446  0.64783766  1
  P  P19  1  0.58873924  0.76027242  0.14056017  1
  C  C20  1  0.03540687  0.75133342  0.85654270  1
  C  C21  1  0.04081474  0.76387837  0.35640341  1
  C  C22  1  0.96459313  0.24866658  0.64345730  1
  C  C23  1  0.95918526  0.23612163  0.14359659  1
  O  O24  1  0.11072069  0.25474248  0.66921200  1
  O  O25  1  0.10233916  0.21948586  0.17641853  1
  O  O26  1  0.07733587  0.74956627  0.97788083  1
  O  O27  1  0.07544113  0.75192264  0.47882646  1
  O  O28  1  0.14251243  0.76033760  0.75866679  1
  O  O29  1  0.15343016  0.75898691  0.26253986  1
  O  O30  1  0.30658366  0.07159460  0.90596890  1
  O  O31  1  0.31206318  0.44587589  0.89461162  1
  O  O32  1  0.30221742  0.06374807  0.41364932  1
  O  O33  1  0.31808115  0.43724895  0.40421976  1
  O  O34  1  0.42911833  0.24246330  0.69753165  1
  O  O35  1  0.42573833  0.74836429  0.59260049  1
  O  O36  1  0.43126616  0.22816900  0.20517307  1
  O  O37  1  0.42683009  0.77193605  0.08392161  1
  O  O38  1  0.57426167  0.25163571  0.90739951  1
  O  O39  1  0.57088167  0.75753670  0.80246835  1
  O  O40  1  0.57316991  0.22806395  0.41607839  1
  O  O41  1  0.56873384  0.77183100  0.29482693  1
  O  O42  1  0.68793682  0.55412411  0.60538838  1
  O  O43  1  0.69341634  0.92840540  0.59403110  1
  O  O44  1  0.68191885  0.56275105  0.09578024  1
  O  O45  1  0.69778258  0.93625193  0.08635068  1
  O  O46  1  0.85748757  0.23966240  0.74133321  1
  O  O47  1  0.84656984  0.24101309  0.23746014  1
  O  O48  1  0.92266413  0.25043373  0.52211917  1
  O  O49  1  0.92455887  0.24807736  0.02117354  1
  O  O50  1  0.88927931  0.74525752  0.83078800  1
  O  O51  1  0.89766084  0.78051414  0.32358147  1
