# generated using pymatgen
data_Na3Mn(BO3)2
_symmetry_space_group_name_H-M   'P 1'
_cell_length_a   5.57957304
_cell_length_b   9.68658398
_cell_length_c   10.32548904
_cell_angle_alpha   90.00000000
_cell_angle_beta   95.03347567
_cell_angle_gamma   90.00000000
_symmetry_Int_Tables_number   1
_chemical_formula_structural   Na3Mn(BO3)2
_chemical_formula_sum   'Na12 Mn4 B8 O24'
_cell_volume   555.90962938
_cell_formula_units_Z   4
loop_
 _symmetry_equiv_pos_site_id
 _symmetry_equiv_pos_as_xyz
  1  'x, y, z'
loop_
 _atom_site_type_symbol
 _atom_site_label
 _atom_site_symmetry_multiplicity
 _atom_site_fract_x
 _atom_site_fract_y
 _atom_site_fract_z
 _atom_site_occupancy
  Na  Na0  1  0.15785389  0.96833264  0.64244291  1
  Na  Na1  1  0.16669985  0.65568356  0.62609412  1
  Na  Na2  1  0.18648723  0.98738480  0.11876451  1
  Na  Na3  1  0.33330015  0.15568356  0.87390588  1
  Na  Na4  1  0.34214611  0.46833264  0.85755709  1
  Na  Na5  1  0.31351277  0.48738480  0.38123549  1
  Na  Na6  1  0.68648723  0.51261520  0.61876451  1
  Na  Na7  1  0.65785389  0.53166736  0.14244291  1
  Na  Na8  1  0.66669985  0.84431644  0.12609412  1
  Na  Na9  1  0.81351277  0.01261520  0.88123549  1
  Na  Na10  1  0.83330015  0.34431644  0.37390588  1
  Na  Na11  1  0.84214611  0.03166736  0.35755709  1
  Mn  Mn12  1  0.13667036  0.30474528  0.12567035  1
  Mn  Mn13  1  0.36332964  0.80474528  0.37432965  1
  Mn  Mn14  1  0.63667036  0.19525472  0.62567035  1
  Mn  Mn15  1  0.86332964  0.69525472  0.87432965  1
  B  B16  1  0.17023201  0.31036096  0.61834700  1
  B  B17  1  0.15948764  0.65207082  0.13228187  1
  B  B18  1  0.32976799  0.81036096  0.88165300  1
  B  B19  1  0.34051236  0.15207082  0.36771813  1
  B  B20  1  0.65948764  0.84792918  0.63228187  1
  B  B21  1  0.67023201  0.18963904  0.11834700  1
  B  B22  1  0.84051236  0.34792918  0.86771813  1
  B  B23  1  0.82976799  0.68963904  0.38165300  1
  O  O24  1  0.06219574  0.31542571  0.93561002  1
  O  O25  1  0.07902200  0.69441015  0.40683534  1
  O  O26  1  0.20881271  0.93269656  0.88658289  1
  O  O27  1  0.20803894  0.68613281  0.85151315  1
  O  O28  1  0.20570167  0.26470213  0.31301745  1
  O  O29  1  0.25681925  0.01951396  0.35160302  1
  O  O30  1  0.29196106  0.18613281  0.64848685  1
  O  O31  1  0.29118729  0.43269656  0.61341711  1
  O  O32  1  0.24318075  0.51951396  0.14839698  1
  O  O33  1  0.29429833  0.76470213  0.18698255  1
  O  O34  1  0.43780426  0.81542571  0.56438998  1
  O  O35  1  0.42097800  0.19441015  0.09316466  1
  O  O36  1  0.57902200  0.80558985  0.90683534  1
  O  O37  1  0.56219574  0.18457429  0.43561002  1
  O  O38  1  0.70570167  0.23529787  0.81301745  1
  O  O39  1  0.75681925  0.48048604  0.85160302  1
  O  O40  1  0.70881271  0.56730344  0.38658289  1
  O  O41  1  0.70803894  0.81386719  0.35151315  1
  O  O42  1  0.74318075  0.98048604  0.64839698  1
  O  O43  1  0.79429833  0.73529787  0.68698255  1
  O  O44  1  0.79196106  0.31386719  0.14848685  1
  O  O45  1  0.79118729  0.06730344  0.11341711  1
  O  O46  1  0.92097800  0.30558985  0.59316466  1
  O  O47  1  0.93780426  0.68457429  0.06438998  1
