# generated using pymatgen
data_ErPH5CO7
_symmetry_space_group_name_H-M   'P 1'
_cell_length_a   6.48636568
_cell_length_b   6.88852600
_cell_length_c   7.73931622
_cell_angle_alpha   111.90949175
_cell_angle_beta   96.31370895
_cell_angle_gamma   90.77202533
_symmetry_Int_Tables_number   1
_chemical_formula_structural   ErPH5CO7
_chemical_formula_sum   'Er2 P2 H10 C2 O14'
_cell_volume   318.32482168
_cell_formula_units_Z   2
loop_
 _symmetry_equiv_pos_site_id
 _symmetry_equiv_pos_as_xyz
  1  'x, y, z'
loop_
 _atom_site_type_symbol
 _atom_site_label
 _atom_site_symmetry_multiplicity
 _atom_site_fract_x
 _atom_site_fract_y
 _atom_site_fract_z
 _atom_site_occupancy
  Er  Er0  1  0.12354251  0.22053627  0.93361516  1
  Er  Er1  1  0.87645749  0.77946373  0.06638484  1
  P  P2  1  0.67150055  0.25138693  0.02025924  1
  P  P3  1  0.32849945  0.74861307  0.97974076  1
  H  H4  1  0.48406943  0.88476544  0.59409646  1
  H  H5  1  0.72180067  0.67760677  0.65360809  1
  H  H6  1  0.52390473  0.73965436  0.39249875  1
  H  H7  1  0.51593057  0.11523456  0.40590354  1
  H  H8  1  0.27819933  0.32239323  0.34639191  1
  H  H9  1  0.47609527  0.26034564  0.60750125  1
  H  H10  1  0.62645515  0.29394629  0.20377318  1
  H  H11  1  0.16216027  0.52005444  0.31604004  1
  H  H12  1  0.83783973  0.47994556  0.68395996  1
  H  H13  1  0.37354485  0.70605371  0.79622682  1
  C  C14  1  0.05786574  0.90490616  0.50258673  1
  C  C15  1  0.94213426  0.09509384  0.49741327  1
  O  O16  1  0.14860635  0.91591784  0.65871275  1
  O  O17  1  0.78588232  0.62147861  0.74690790  1
  O  O18  1  0.80529967  0.05645907  0.96221151  1
  O  O19  1  0.58920670  0.80107343  0.52267901  1
  O  O20  1  0.46536757  0.22026077  0.89393340  1
  O  O21  1  0.94753753  0.24848475  0.65380483  1
  O  O22  1  0.81983006  0.43108340  0.02475352  1
  O  O23  1  0.18016994  0.56891660  0.97524648  1
  O  O24  1  0.53463243  0.77973923  0.10606660  1
  O  O25  1  0.19470033  0.94354093  0.03778849  1
  O  O26  1  0.85139365  0.08408216  0.34128725  1
  O  O27  1  0.05246247  0.75151525  0.34619517  1
  O  O28  1  0.21411768  0.37852139  0.25309210  1
  O  O29  1  0.41079330  0.19892657  0.47732099  1
