# generated using pymatgen
data_NaLi5Fe2P2(CO7)2
_symmetry_space_group_name_H-M   'P 1'
_cell_length_a   8.53598204
_cell_length_b   6.54091433
_cell_length_c   10.09404336
_cell_angle_alpha   90.00000000
_cell_angle_beta   85.89638632
_cell_angle_gamma   90.00000000
_symmetry_Int_Tables_number   1
_chemical_formula_structural   NaLi5Fe2P2(CO7)2
_chemical_formula_sum   'Na2 Li10 Fe4 P4 C4 O28'
_cell_volume   562.13713618
_cell_formula_units_Z   2
loop_
 _symmetry_equiv_pos_site_id
 _symmetry_equiv_pos_as_xyz
  1  'x, y, z'
loop_
 _atom_site_type_symbol
 _atom_site_label
 _atom_site_symmetry_multiplicity
 _atom_site_fract_x
 _atom_site_fract_y
 _atom_site_fract_z
 _atom_site_occupancy
  Na  Na0  1  0.25680648  0.00130735  0.12831483  1
  Na  Na1  1  0.74319352  0.50130735  0.37168517  1
  Li  Li2  1  0.08629400  0.25599553  0.87318174  1
  Li  Li3  1  0.09230226  0.25016838  0.37899449  1
  Li  Li4  1  0.27244745  0.01979971  0.62535785  1
  Li  Li5  1  0.27536753  0.47333798  0.62169976  1
  Li  Li6  1  0.27573780  0.48003034  0.12332473  1
  Li  Li7  1  0.72755255  0.51979971  0.87464215  1
  Li  Li8  1  0.72463247  0.97333798  0.87830024  1
  Li  Li9  1  0.72426220  0.98003034  0.37667527  1
  Li  Li10  1  0.91370600  0.75599553  0.62681826  1
  Li  Li11  1  0.90769774  0.75016838  0.12100551  1
  Fe  Fe12  1  0.33816782  0.74572172  0.89087418  1
  Fe  Fe13  1  0.34021599  0.74870747  0.39686120  1
  Fe  Fe14  1  0.66183218  0.24572172  0.60912582  1
  Fe  Fe15  1  0.65978401  0.24870747  0.10313880  1
  P  P16  1  0.40946916  0.25093683  0.85316670  1
  P  P17  1  0.41024553  0.24820617  0.35922961  1
  P  P18  1  0.59053084  0.75093683  0.64683330  1
  P  P19  1  0.58975447  0.74820617  0.14077039  1
  C  C20  1  0.03457695  0.75046537  0.85643016  1
  C  C21  1  0.03992028  0.75687742  0.35515652  1
  C  C22  1  0.96542305  0.25046537  0.64356984  1
  C  C23  1  0.96007972  0.25687742  0.14484348  1
  O  O24  1  0.11220416  0.24779204  0.66918877  1
  O  O25  1  0.10250511  0.28075004  0.17810088  1
  O  O26  1  0.07698962  0.75654912  0.97792965  1
  O  O27  1  0.07489643  0.75216137  0.47850853  1
  O  O28  1  0.14274250  0.74654610  0.75782383  1
  O  O29  1  0.15314086  0.73651189  0.26138891  1
  O  O30  1  0.31231216  0.05934594  0.89884569  1
  O  O31  1  0.30375471  0.43251267  0.90606590  1
  O  O32  1  0.29987931  0.06390254  0.39943525  1
  O  O33  1  0.31689959  0.43554964  0.41941412  1
  O  O34  1  0.42768398  0.25566844  0.69784095  1
  O  O35  1  0.42440429  0.75715902  0.59376582  1
  O  O36  1  0.43104055  0.26940694  0.20509871  1
  O  O37  1  0.42645015  0.72458698  0.08552043  1
  O  O38  1  0.57559571  0.25715902  0.90623418  1
  O  O39  1  0.57231602  0.75566844  0.80215905  1
  O  O40  1  0.57354985  0.22458698  0.41447957  1
  O  O41  1  0.56895945  0.76940694  0.29490129  1
  O  O42  1  0.68768784  0.55934594  0.60115431  1
  O  O43  1  0.69624529  0.93251267  0.59393410  1
  O  O44  1  0.70012069  0.56390254  0.10056475  1
  O  O45  1  0.68310041  0.93554964  0.08058588  1
  O  O46  1  0.85725750  0.24654610  0.74217617  1
  O  O47  1  0.84685914  0.23651189  0.23861109  1
  O  O48  1  0.92301038  0.25654912  0.52207035  1
  O  O49  1  0.92510357  0.25216137  0.02149147  1
  O  O50  1  0.88779584  0.74779204  0.83081123  1
  O  O51  1  0.89749489  0.78075004  0.32189912  1
