# generated using pymatgen
data_NaLi2FePCO7
_symmetry_space_group_name_H-M   'P 1'
_cell_length_a   8.62895679
_cell_length_b   6.59100228
_cell_length_c   10.13978377
_cell_angle_alpha   89.98149644
_cell_angle_beta   87.57904004
_cell_angle_gamma   90.70304019
_symmetry_Int_Tables_number   1
_chemical_formula_structural   NaLi2FePCO7
_chemical_formula_sum   'Na4 Li8 Fe4 P4 C4 O28'
_cell_volume   576.12642558
_cell_formula_units_Z   4
loop_
 _symmetry_equiv_pos_site_id
 _symmetry_equiv_pos_as_xyz
  1  'x, y, z'
loop_
 _atom_site_type_symbol
 _atom_site_label
 _atom_site_symmetry_multiplicity
 _atom_site_fract_x
 _atom_site_fract_y
 _atom_site_fract_z
 _atom_site_occupancy
  Na  Na0  1  0.08361906  0.25608331  0.37904432  1
  Na  Na1  1  0.25576051  0.99972157  0.62681241  1
  Na  Na2  1  0.25821327  0.99979284  0.12459857  1
  Na  Na3  1  0.74359904  0.50284998  0.37329577  1
  Li  Li4  1  0.07867932  0.26387564  0.87507093  1
  Li  Li5  1  0.27402847  0.48082933  0.62175112  1
  Li  Li6  1  0.27496087  0.48109591  0.11835382  1
  Li  Li7  1  0.73309279  0.51137625  0.87887930  1
  Li  Li8  1  0.73175751  0.98351939  0.88038791  1
  Li  Li9  1  0.72657838  0.98192128  0.37890993  1
  Li  Li10  1  0.91279892  0.74355587  0.62807691  1
  Li  Li11  1  0.91007701  0.74927592  0.12125248  1
  Fe  Fe12  1  0.34523775  0.74634205  0.89078485  1
  Fe  Fe13  1  0.35104233  0.74344016  0.39266567  1
  Fe  Fe14  1  0.65189664  0.24605012  0.61151203  1
  Fe  Fe15  1  0.65577281  0.25071226  0.10423254  1
  P  P16  1  0.40980312  0.25479751  0.85203634  1
  P  P17  1  0.41737242  0.24664761  0.35251934  1
  P  P18  1  0.59205402  0.74510800  0.65022110  1
  P  P19  1  0.59192774  0.75022292  0.14287275  1
  C  C20  1  0.03875676  0.74703918  0.86274076  1
  C  C21  1  0.04549063  0.75613691  0.36051060  1
  C  C22  1  0.94858187  0.25812518  0.64731008  1
  C  C23  1  0.95560519  0.25837579  0.13220226  1
  O  O24  1  0.09705215  0.27654579  0.66219646  1
  O  O25  1  0.10279527  0.27712419  0.14921391  1
  O  O26  1  0.08608998  0.75274271  0.98321226  1
  O  O27  1  0.08694122  0.75118230  0.48288726  1
  O  O28  1  0.14101202  0.73963803  0.76415880  1
  O  O29  1  0.15076603  0.73277019  0.26531324  1
  O  O30  1  0.31351971  0.05963891  0.88853017  1
  O  O31  1  0.30851444  0.43250782  0.90779379  1
  O  O32  1  0.31395021  0.05611480  0.38680364  1
  O  O33  1  0.32544347  0.43033370  0.41246616  1
  O  O34  1  0.42733711  0.27337930  0.69845048  1
  O  O35  1  0.42922646  0.73168641  0.59191148  1
  O  O36  1  0.43344971  0.27187109  0.19964673  1
  O  O37  1  0.42846224  0.72962604  0.08678790  1
  O  O38  1  0.57416713  0.25467230  0.90809865  1
  O  O39  1  0.57368618  0.75491882  0.80424537  1
  O  O40  1  0.57930969  0.22882851  0.41003740  1
  O  O41  1  0.57436641  0.76831360  0.29636391  1
  O  O42  1  0.69581947  0.56102833  0.61007762  1
  O  O43  1  0.68716922  0.93238444  0.59676957  1
  O  O44  1  0.69797759  0.56638800  0.10498951  1
  O  O45  1  0.68486846  0.93681345  0.08554026  1
  O  O46  1  0.85464844  0.24229913  0.75085398  1
  O  O47  1  0.85794234  0.24407508  0.23410064  1
  O  O48  1  0.89146231  0.25445890  0.53058648  1
  O  O49  1  0.90267096  0.25313931  0.01377605  1
  O  O50  1  0.89218371  0.74794861  0.83834703  1
  O  O51  1  0.90246164  0.78267327  0.33079847  1
