# generated using pymatgen
data_LiMnF4
_symmetry_space_group_name_H-M   'P 1'
_cell_length_a   5.95635674
_cell_length_b   4.84427812
_cell_length_c   10.50041860
_cell_angle_alpha   90.00000000
_cell_angle_beta   90.13941979
_cell_angle_gamma   90.00000000
_symmetry_Int_Tables_number   1
_chemical_formula_structural   LiMnF4
_chemical_formula_sum   'Li4 Mn4 F16'
_cell_volume   302.98079218
_cell_formula_units_Z   4
loop_
 _symmetry_equiv_pos_site_id
 _symmetry_equiv_pos_as_xyz
  1  'x, y, z'
loop_
 _atom_site_type_symbol
 _atom_site_label
 _atom_site_symmetry_multiplicity
 _atom_site_fract_x
 _atom_site_fract_y
 _atom_site_fract_z
 _atom_site_occupancy
  Li  Li0  1  0.12306386  0.49165454  0.85319209  1
  Li  Li1  1  0.12306386  0.00834546  0.35319209  1
  Li  Li2  1  0.87693614  0.99165454  0.64680791  1
  Li  Li3  1  0.87693614  0.50834546  0.14680791  1
  Mn  Mn4  1  0.36832863  0.96845858  0.63487513  1
  Mn  Mn5  1  0.36832863  0.53154142  0.13487513  1
  Mn  Mn6  1  0.63167137  0.46845858  0.86512487  1
  Mn  Mn7  1  0.63167137  0.03154142  0.36512487  1
  F  F8  1  0.13901899  0.74930404  0.70371722  1
  F  F9  1  0.13901899  0.75069596  0.20371722  1
  F  F10  1  0.14099852  0.18148107  0.56543513  1
  F  F11  1  0.14099852  0.31851893  0.06543513  1
  F  F12  1  0.39404236  0.68690407  0.93702001  1
  F  F13  1  0.39404236  0.81309593  0.43702001  1
  F  F14  1  0.39456863  0.24143565  0.80024235  1
  F  F15  1  0.39456863  0.25856435  0.30024235  1
  F  F16  1  0.60543137  0.74143565  0.69975765  1
  F  F17  1  0.60543137  0.75856435  0.19975765  1
  F  F18  1  0.60595764  0.18690407  0.56297999  1
  F  F19  1  0.60595764  0.31309593  0.06297999  1
  F  F20  1  0.85900148  0.68148107  0.93456487  1
  F  F21  1  0.85900148  0.81851893  0.43456487  1
  F  F22  1  0.86098101  0.24930404  0.79628278  1
  F  F23  1  0.86098101  0.25069596  0.29628278  1
