# generated using pymatgen
data_NaLi5Fe2P2(CO7)2
_symmetry_space_group_name_H-M   'P 1'
_cell_length_a   8.56904950
_cell_length_b   6.53581888
_cell_length_c   10.11539341
_cell_angle_alpha   89.91662104
_cell_angle_beta   85.82909763
_cell_angle_gamma   89.17155665
_symmetry_Int_Tables_number   1
_chemical_formula_structural   NaLi5Fe2P2(CO7)2
_chemical_formula_sum   'Na2 Li10 Fe4 P4 C4 O28'
_cell_volume   564.96073709
_cell_formula_units_Z   2
loop_
 _symmetry_equiv_pos_site_id
 _symmetry_equiv_pos_as_xyz
  1  'x, y, z'
loop_
 _atom_site_type_symbol
 _atom_site_label
 _atom_site_symmetry_multiplicity
 _atom_site_fract_x
 _atom_site_fract_y
 _atom_site_fract_z
 _atom_site_occupancy
  Na  Na0  1  0.25594689  0.49992945  0.62828237  1
  Na  Na1  1  0.74405311  0.50007055  0.37171763  1
  Li  Li2  1  0.09152922  0.23437287  0.87822713  1
  Li  Li3  1  0.08681913  0.22943998  0.37403144  1
  Li  Li4  1  0.27697482  0.02272621  0.62224771  1
  Li  Li5  1  0.27654144  0.02393029  0.12256107  1
  Li  Li6  1  0.27154922  0.48263719  0.12562075  1
  Li  Li7  1  0.72845078  0.51736281  0.87437925  1
  Li  Li8  1  0.72345856  0.97606971  0.87743893  1
  Li  Li9  1  0.72302518  0.97727379  0.37775229  1
  Li  Li10  1  0.91318087  0.77056002  0.62596856  1
  Li  Li11  1  0.90847078  0.76562713  0.12177287  1
  Fe  Fe12  1  0.33641854  0.75316082  0.89619975  1
  Fe  Fe13  1  0.34153922  0.75533592  0.39130854  1
  Fe  Fe14  1  0.65846078  0.24466408  0.60869146  1
  Fe  Fe15  1  0.66358146  0.24683918  0.10380025  1
  P  P16  1  0.41117322  0.24731297  0.85808222  1
  P  P17  1  0.41022080  0.24482245  0.35420413  1
  P  P18  1  0.58977920  0.75517755  0.64579587  1
  P  P19  1  0.58882678  0.75268703  0.14191778  1
  C  C20  1  0.03352978  0.75298932  0.85841236  1
  C  C21  1  0.04099991  0.76021278  0.35292079  1
  C  C22  1  0.95900009  0.23978722  0.64707921  1
  C  C23  1  0.96647022  0.24701068  0.14158764  1
  O  O24  1  0.10226709  0.22146701  0.67841908  1
  O  O25  1  0.11189273  0.25423308  0.16923778  1
  O  O26  1  0.07443545  0.75282166  0.97942147  1
  O  O27  1  0.07616624  0.74920621  0.47567727  1
  O  O28  1  0.14240765  0.76151200  0.76132162  1
  O  O29  1  0.15348128  0.75356032  0.25807412  1
  O  O30  1  0.31042064  0.06675688  0.91718621  1
  O  O31  1  0.30932918  0.43971787  0.90060631  1
  O  O32  1  0.29850345  0.06963896  0.40533617  1
  O  O33  1  0.32029037  0.44323923  0.39988924  1
  O  O34  1  0.42843678  0.22925842  0.70420220  1
  O  O35  1  0.42783160  0.77487827  0.58905958  1
  O  O36  1  0.43033185  0.24150743  0.19903934  1
  O  O37  1  0.42366212  0.74628056  0.08994743  1
  O  O38  1  0.57633788  0.25371944  0.91005257  1
  O  O39  1  0.56966815  0.75849257  0.80096066  1
  O  O40  1  0.57216840  0.22512173  0.41094042  1
  O  O41  1  0.57156322  0.77074158  0.29579780  1
  O  O42  1  0.67970963  0.55676077  0.60011076  1
  O  O43  1  0.70149655  0.93036104  0.59466383  1
  O  O44  1  0.69067082  0.56028213  0.09939369  1
  O  O45  1  0.68957936  0.93324312  0.08281379  1
  O  O46  1  0.84651872  0.24643968  0.74192588  1
  O  O47  1  0.85759235  0.23848800  0.23867838  1
  O  O48  1  0.92383376  0.25079379  0.52432273  1
  O  O49  1  0.92556455  0.24717834  0.02057853  1
  O  O50  1  0.88810727  0.74576692  0.83076222  1
  O  O51  1  0.89773291  0.77853299  0.32158092  1
