# generated using pymatgen
data_MgSn2(PO5)2
_symmetry_space_group_name_H-M   'P 1'
_cell_length_a   6.90734494
_cell_length_b   6.90734452
_cell_length_c   9.17722530
_cell_angle_alpha   102.83098904
_cell_angle_beta   102.83098898
_cell_angle_gamma   114.19804327
_symmetry_Int_Tables_number   1
_chemical_formula_structural   MgSn2(PO5)2
_chemical_formula_sum   'Mg2 Sn4 P4 O20'
_cell_volume   364.48215419
_cell_formula_units_Z   2
loop_
 _symmetry_equiv_pos_site_id
 _symmetry_equiv_pos_as_xyz
  1  'x, y, z'
loop_
 _atom_site_type_symbol
 _atom_site_label
 _atom_site_symmetry_multiplicity
 _atom_site_fract_x
 _atom_site_fract_y
 _atom_site_fract_z
 _atom_site_occupancy
  Mg  Mg0  1  0.50342134  0.00342134  0.50000000  1
  Mg  Mg1  1  0.25342134  0.25342134  0.00000000  1
  Sn  Sn2  1  0.87519717  0.61850541  0.25486082  1
  Sn  Sn3  1  0.36364459  0.62033535  0.74513918  1
  Sn  Sn4  1  0.87033535  0.11364459  0.24513918  1
  Sn  Sn5  1  0.86850541  0.62519717  0.75486082  1
  P  P6  1  0.03837852  0.03952976  0.58904236  1
  P  P7  1  0.69933616  0.20048740  0.91095764  1
  P  P8  1  0.45048740  0.44933616  0.41095764  1
  P  P9  1  0.28952976  0.78837852  0.08904236  1
  O  O10  1  0.57110424  0.54511204  0.30082551  1
  O  O11  1  0.66321091  0.67223537  0.84985316  1
  O  O12  1  0.30451689  0.59024562  0.97794938  1
  O  O13  1  0.79511204  0.32110424  0.80082551  1
  O  O14  1  0.22336375  0.24321477  0.29438659  1
  O  O15  1  0.42893852  0.64508735  0.51934484  1
  O  O16  1  0.06335774  0.57238221  0.65014684  1
  O  O17  1  0.82238221  0.81335774  0.15014684  1
  O  O18  1  0.92223537  0.41321091  0.34985316  1
  O  O19  1  0.17897716  0.69882819  0.20561341  1
  O  O20  1  0.24428753  0.27028074  0.69917449  1
  O  O21  1  0.49321477  0.97336375  0.79438659  1
  O  O22  1  0.94882818  0.92897716  0.70561341  1
  O  O23  1  0.15959468  0.87574251  0.98065516  1
  O  O24  1  0.12574251  0.90959468  0.48065516  1
  O  O25  1  0.89508735  0.17893852  0.01934484  1
  O  O26  1  0.84024562  0.05451689  0.47794938  1
  O  O27  1  0.61229525  0.32656651  0.02205062  1
  O  O28  1  0.52028074  0.99428753  0.19917449  1
  O  O29  1  0.57656651  0.36229525  0.52205062  1
