# generated using pymatgen
data_Na3Li3Mn2P2(CO7)2
_symmetry_space_group_name_H-M   'P 1'
_cell_length_a   8.75975251
_cell_length_b   6.71965508
_cell_length_c   5.07933493
_cell_angle_alpha   90.08653735
_cell_angle_beta   89.01034141
_cell_angle_gamma   90.25763984
_symmetry_Int_Tables_number   1
_chemical_formula_structural   Na3Li3Mn2P2(CO7)2
_chemical_formula_sum   'Na3 Li3 Mn2 P2 C2 O14'
_cell_volume   298.93450196
_cell_formula_units_Z   1
loop_
 _symmetry_equiv_pos_site_id
 _symmetry_equiv_pos_as_xyz
  1  'x, y, z'
loop_
 _atom_site_type_symbol
 _atom_site_label
 _atom_site_symmetry_multiplicity
 _atom_site_fract_x
 _atom_site_fract_y
 _atom_site_fract_z
 _atom_site_occupancy
  Na  Na0  1  0.08401510  0.25634708  0.75655755  1
  Na  Na1  1  0.25215791  0.99808191  0.25084585  1
  Na  Na2  1  0.74807760  0.50143250  0.75062780  1
  Li  Li3  1  0.27254819  0.47475158  0.22604687  1
  Li  Li4  1  0.73012825  0.97814299  0.77320955  1
  Li  Li5  1  0.91229518  0.75353889  0.25308376  1
  Mn  Mn6  1  0.35930705  0.74406050  0.77649035  1
  Mn  Mn7  1  0.64420199  0.24465282  0.22404218  1
  P  P8  1  0.41256170  0.24765599  0.70520835  1
  P  P9  1  0.59353253  0.74887725  0.29605647  1
  C  C10  1  0.04460567  0.75834563  0.73100413  1
  C  C11  1  0.94704547  0.25808958  0.26616714  1
  O  O12  1  0.09486348  0.27622220  0.28452272  1
  O  O13  1  0.08437832  0.75381638  0.97650639  1
  O  O14  1  0.14768410  0.73981238  0.54423013  1
  O  O15  1  0.31511807  0.06106939  0.77873167  1
  O  O16  1  0.32577169  0.42903123  0.82523503  1
  O  O17  1  0.42071236  0.26980582  0.39821051  1
  O  O18  1  0.42800761  0.73330377  0.18966164  1
  O  O19  1  0.57805891  0.23243007  0.80682379  1
  O  O20  1  0.58028305  0.77052826  0.60232349  1
  O  O21  1  0.69319631  0.56462586  0.22550426  1
  O  O22  1  0.68401009  0.92874308  0.17893802  1
  O  O23  1  0.86142293  0.24361118  0.47660155  1
  O  O24  1  0.88342279  0.25322114  0.03762197  1
  O  O25  1  0.90259566  0.77980453  0.66574783  1
