# generated using pymatgen
data_MnCr3(PO4)4
_symmetry_space_group_name_H-M   'P 1'
_cell_length_a   4.80196134
_cell_length_b   9.91234834
_cell_length_c   5.83754817
_cell_angle_alpha   90.00000000
_cell_angle_beta   90.00000000
_cell_angle_gamma   90.69555530
_symmetry_Int_Tables_number   1
_chemical_formula_structural   MnCr3(PO4)4
_chemical_formula_sum   'Mn1 Cr3 P4 O16'
_cell_volume   277.83930852
_cell_formula_units_Z   1
loop_
 _symmetry_equiv_pos_site_id
 _symmetry_equiv_pos_as_xyz
  1  'x, y, z'
loop_
 _atom_site_type_symbol
 _atom_site_label
 _atom_site_symmetry_multiplicity
 _atom_site_fract_x
 _atom_site_fract_y
 _atom_site_fract_z
 _atom_site_occupancy
  Mn  Mn0  1  0.05279842  0.72315284  0.75000000  1
  Cr  Cr1  1  0.47055410  0.22969655  0.75000000  1
  Cr  Cr2  1  0.52894379  0.77304310  0.25000000  1
  Cr  Cr3  1  0.97209354  0.26993694  0.25000000  1
  P  P4  1  0.08283792  0.59330792  0.25000000  1
  P  P5  1  0.41155178  0.09289748  0.25000000  1
  P  P6  1  0.58568372  0.90463942  0.75000000  1
  P  P7  1  0.92040514  0.40632881  0.75000000  1
  O  O8  1  0.16608376  0.44587033  0.25000000  1
  O  O9  1  0.23675337  0.67160422  0.04826219  1
  O  O10  1  0.23675337  0.67160422  0.45173781  1
  O  O11  1  0.23437313  0.39056778  0.75000000  1
  O  O12  1  0.26488302  0.88653469  0.75000000  1
  O  O13  1  0.26496897  0.17267379  0.04581426  1
  O  O14  1  0.26496897  0.17267379  0.45418574  1
  O  O15  1  0.32366909  0.94559616  0.25000000  1
  O  O16  1  0.65741201  0.05475850  0.75000000  1
  O  O17  1  0.72488691  0.83042520  0.54274208  1
  O  O18  1  0.72488691  0.83042520  0.95725792  1
  O  O19  1  0.72655344  0.11016574  0.25000000  1
  O  O20  1  0.76959934  0.61098614  0.25000000  1
  O  O21  1  0.76840477  0.32881439  0.54580441  1
  O  O22  1  0.76840477  0.32881439  0.95419559  1
  O  O23  1  0.84253175  0.55548439  0.75000000  1
