# generated using pymatgen
data_TiNi(PO4)2
_symmetry_space_group_name_H-M   'P 1'
_cell_length_a   9.88753678
_cell_length_b   5.86982962
_cell_length_c   4.88308794
_cell_angle_alpha   90.00000000
_cell_angle_beta   89.29344467
_cell_angle_gamma   90.00000000
_symmetry_Int_Tables_number   1
_chemical_formula_structural   TiNi(PO4)2
_chemical_formula_sum   'Ti2 Ni2 P4 O16'
_cell_volume   283.38387220
_cell_formula_units_Z   2
loop_
 _symmetry_equiv_pos_site_id
 _symmetry_equiv_pos_as_xyz
  1  'x, y, z'
loop_
 _atom_site_type_symbol
 _atom_site_label
 _atom_site_symmetry_multiplicity
 _atom_site_fract_x
 _atom_site_fract_y
 _atom_site_fract_z
 _atom_site_occupancy
  Ti  Ti0  1  0.22739214  0.75000000  0.47678532  1
  Ti  Ti1  1  0.77260786  0.25000000  0.52321468  1
  Ni  Ni2  1  0.27013239  0.25000000  0.96492535  1
  Ni  Ni3  1  0.72986761  0.75000000  0.03507465  1
  P  P4  1  0.09736309  0.25000000  0.43745665  1
  P  P5  1  0.40415744  0.75000000  0.90204528  1
  P  P6  1  0.59584256  0.25000000  0.09795472  1
  P  P7  1  0.90263691  0.75000000  0.56254335  1
  O  O8  1  0.05343872  0.75000000  0.65015223  1
  O  O9  1  0.10543263  0.25000000  0.74424795  1
  O  O10  1  0.17199037  0.04267877  0.29570551  1
  O  O11  1  0.17199037  0.45732123  0.29570551  1
  O  O12  1  0.32712523  0.94964686  0.75254967  1
  O  O13  1  0.32712523  0.55035314  0.75254967  1
  O  O14  1  0.36820673  0.75000000  0.21070782  1
  O  O15  1  0.44674260  0.25000000  0.14965444  1
  O  O16  1  0.55325740  0.75000000  0.85034556  1
  O  O17  1  0.63179327  0.25000000  0.78929218  1
  O  O18  1  0.67287477  0.05035314  0.24745033  1
  O  O19  1  0.67287477  0.44964686  0.24745033  1
  O  O20  1  0.82800963  0.54267877  0.70429449  1
  O  O21  1  0.82800963  0.95732123  0.70429449  1
  O  O22  1  0.89456737  0.75000000  0.25575205  1
  O  O23  1  0.94656128  0.25000000  0.34984777  1
