# generated using pymatgen
data_Na2Li(NiO2)3
_symmetry_space_group_name_H-M   'P 1'
_cell_length_a   15.91539062
_cell_length_b   10.28896903
_cell_length_c   10.28896900
_cell_angle_alpha   16.76897282
_cell_angle_beta   15.95615253
_cell_angle_gamma   15.95615778
_symmetry_Int_Tables_number   1
_chemical_formula_structural   Na2Li(NiO2)3
_chemical_formula_sum   'Na2 Li1 Ni3 O6'
_cell_volume   114.50622665
_cell_formula_units_Z   1
loop_
 _symmetry_equiv_pos_site_id
 _symmetry_equiv_pos_as_xyz
  1  'x, y, z'
loop_
 _atom_site_type_symbol
 _atom_site_label
 _atom_site_symmetry_multiplicity
 _atom_site_fract_x
 _atom_site_fract_y
 _atom_site_fract_z
 _atom_site_occupancy
  Na  Na0  1  0.00628344  0.99581886  0.99581886  1
  Na  Na1  1  0.32704956  0.00418114  0.00418114  1
  Li  Li2  1  0.66666700  0.00000000  0.00000000  1
  Ni  Ni3  1  0.16666700  0.50000000  0.50000000  1
  Ni  Ni4  1  0.49676097  0.50345129  0.50345129  1
  Ni  Ni5  1  0.83657203  0.49654871  0.49654871  1
  O  O6  1  0.24526421  0.24188326  0.24188326  1
  O  O7  1  0.08806979  0.75811674  0.75811674  1
  O  O8  1  0.58127877  0.23825518  0.23825518  1
  O  O9  1  0.44207013  0.73954706  0.73954706  1
  O  O10  1  0.89126387  0.26045294  0.26045294  1
  O  O11  1  0.75205523  0.76174482  0.76174482  1
