# generated using pymatgen
data_Li2Cr3P4(HO4)4
_symmetry_space_group_name_H-M   'P 1'
_cell_length_a   9.28352205
_cell_length_b   8.20884418
_cell_length_c   9.08917358
_cell_angle_alpha   90.00000000
_cell_angle_beta   103.50791571
_cell_angle_gamma   90.00000000
_symmetry_Int_Tables_number   1
_chemical_formula_structural   Li2Cr3P4(HO4)4
_chemical_formula_sum   'Li4 Cr6 P8 H8 O32'
_cell_volume   673.49796732
_cell_formula_units_Z   2
loop_
 _symmetry_equiv_pos_site_id
 _symmetry_equiv_pos_as_xyz
  1  'x, y, z'
loop_
 _atom_site_type_symbol
 _atom_site_label
 _atom_site_symmetry_multiplicity
 _atom_site_fract_x
 _atom_site_fract_y
 _atom_site_fract_z
 _atom_site_occupancy
  Li  Li0  1  0.02197885  0.33438223  0.98399119  1
  Li  Li1  1  0.52197885  0.16561777  0.98399119  1
  Li  Li2  1  0.47802115  0.83438223  0.01600881  1
  Li  Li3  1  0.97802115  0.66561777  0.01600881  1
  Cr  Cr4  1  0.00000000  0.50000000  0.50000000  1
  Cr  Cr5  1  0.00372911  0.14763444  0.35967767  1
  Cr  Cr6  1  0.49627089  0.64763444  0.64032233  1
  Cr  Cr7  1  0.50000000  0.00000000  0.50000000  1
  Cr  Cr8  1  0.50372911  0.35236556  0.35967767  1
  Cr  Cr9  1  0.99627089  0.85236556  0.64032233  1
  P  P10  1  0.22845107  0.56937171  0.83042947  1
  P  P11  1  0.20356669  0.81036482  0.37287786  1
  P  P12  1  0.29643331  0.31036482  0.62712214  1
  P  P13  1  0.27154893  0.06937171  0.16957053  1
  P  P14  1  0.72845107  0.93062829  0.83042947  1
  P  P15  1  0.70356669  0.68963518  0.37287786  1
  P  P16  1  0.79643331  0.18963518  0.62712214  1
  P  P17  1  0.77154893  0.43062829  0.16957053  1
  H  H18  1  0.20880744  0.99156045  0.88383830  1
  H  H19  1  0.22803601  0.04040292  0.72336305  1
  H  H20  1  0.27196399  0.54040292  0.27663695  1
  H  H21  1  0.29119256  0.49156045  0.11616170  1
  H  H22  1  0.70880744  0.50843955  0.88383830  1
  H  H23  1  0.72803601  0.45959708  0.72336305  1
  H  H24  1  0.77196399  0.95959708  0.27663695  1
  H  H25  1  0.79119256  0.00843955  0.11616170  1
  O  O26  1  0.12064806  0.63468223  0.68451979  1
  O  O27  1  0.15361113  0.99625337  0.77674024  1
  O  O28  1  0.11277498  0.93376824  0.43857819  1
  O  O29  1  0.14662047  0.53857680  0.95607431  1
  O  O30  1  0.13915960  0.29988035  0.52035298  1
  O  O31  1  0.13491487  0.64479775  0.33149917  1
  O  O32  1  0.13064129  0.16954858  0.12579040  1
  O  O33  1  0.27266343  0.38574884  0.78628415  1
  O  O34  1  0.22733657  0.88574884  0.21371585  1
  O  O35  1  0.36935871  0.66954858  0.87420960  1
  O  O36  1  0.36508513  0.14479775  0.66850083  1
  O  O37  1  0.36084040  0.79988035  0.47964702  1
  O  O38  1  0.35337953  0.03857680  0.04392569  1
  O  O39  1  0.38722502  0.43376824  0.56142181  1
  O  O40  1  0.34638887  0.49625337  0.22325976  1
  O  O41  1  0.37935194  0.13468223  0.31548021  1
  O  O42  1  0.62064806  0.86531777  0.68451979  1
  O  O43  1  0.65361113  0.50374663  0.77674024  1
  O  O44  1  0.61277498  0.56623176  0.43857819  1
  O  O45  1  0.64662047  0.96142320  0.95607431  1
  O  O46  1  0.63915960  0.20011965  0.52035298  1
  O  O47  1  0.63491487  0.85520225  0.33149917  1
  O  O48  1  0.63064129  0.33045142  0.12579040  1
  O  O49  1  0.77266343  0.11425116  0.78628415  1
  O  O50  1  0.72733657  0.61425116  0.21371585  1
  O  O51  1  0.86935871  0.83045142  0.87420960  1
  O  O52  1  0.86508513  0.35520225  0.66850083  1
  O  O53  1  0.86084040  0.70011965  0.47964702  1
  O  O54  1  0.85337953  0.46142320  0.04392569  1
  O  O55  1  0.88722502  0.06623176  0.56142181  1
  O  O56  1  0.84638887  0.00374663  0.22325976  1
  O  O57  1  0.87935194  0.36531777  0.31548021  1
