# generated using pymatgen
data_Li4Ti3Fe3(WO8)2
_symmetry_space_group_name_H-M   'P 1'
_cell_length_a   6.05897637
_cell_length_b   5.98049033
_cell_length_c   9.83431626
_cell_angle_alpha   89.99539219
_cell_angle_beta   91.65965601
_cell_angle_gamma   119.32893037
_symmetry_Int_Tables_number   1
_chemical_formula_structural   Li4Ti3Fe3(WO8)2
_chemical_formula_sum   'Li4 Ti3 Fe3 W2 O16'
_cell_volume   310.50525016
_cell_formula_units_Z   1
loop_
 _symmetry_equiv_pos_site_id
 _symmetry_equiv_pos_as_xyz
  1  'x, y, z'
loop_
 _atom_site_type_symbol
 _atom_site_label
 _atom_site_symmetry_multiplicity
 _atom_site_fract_x
 _atom_site_fract_y
 _atom_site_fract_z
 _atom_site_occupancy
  Li  Li0  1  0.31932643  0.66308311  0.90195593  1
  Li  Li1  1  0.99644114  0.99652683  0.98385392  1
  Li  Li2  1  0.01203870  0.00840844  0.49392646  1
  Li  Li3  1  0.66057248  0.32744785  0.40958716  1
  Ti  Ti4  1  0.17759029  0.84069325  0.21311729  1
  Ti  Ti5  1  0.18815056  0.34460553  0.21750473  1
  Ti  Ti6  1  0.34417661  0.16946109  0.72142832  1
  Fe  Fe7  1  0.65977298  0.82528596  0.20980835  1
  Fe  Fe8  1  0.84029321  0.65894025  0.70879965  1
  Fe  Fe9  1  0.83592771  0.17706970  0.70996274  1
  W  W10  1  0.34278777  0.67243781  0.49027668  1
  W  W11  1  0.67960142  0.33760867  0.98355866  1
  O  O12  1  0.18358875  0.84224088  0.59200223  1
  O  O13  1  0.04739651  0.52358898  0.34053206  1
  O  O14  1  0.29792457  0.64915731  0.10799945  1
  O  O15  1  0.01957579  0.01300322  0.30429256  1
  O  O16  1  0.02147892  0.00829252  0.79968483  1
  O  O17  1  0.18577833  0.34683641  0.59516189  1
  O  O18  1  0.46238836  0.95944597  0.33832490  1
  O  O19  1  0.46216897  0.49754758  0.34169342  1
  O  O20  1  0.32999786  0.16715583  0.10578392  1
  O  O21  1  0.66257902  0.82962360  0.57269421  1
  O  O22  1  0.49885269  0.46121845  0.86021849  1
  O  O23  1  0.49833241  0.03210964  0.85022197  1
  O  O24  1  0.63109780  0.31824673  0.60769843  1
  O  O25  1  0.84905933  0.67442766  0.09691235  1
  O  O26  1  0.95804100  0.47702375  0.85674040  1
  O  O27  1  0.83506040  0.17881498  0.09409996  1
