# generated using pymatgen
data_WN3F5
_symmetry_space_group_name_H-M   'P 1'
_cell_length_a   5.50464777
_cell_length_b   10.07437268
_cell_length_c   11.37560565
_cell_angle_alpha   90.00000000
_cell_angle_beta   102.74145369
_cell_angle_gamma   90.00000000
_symmetry_Int_Tables_number   1
_chemical_formula_structural   WN3F5
_chemical_formula_sum   'W4 N12 F20'
_cell_volume   615.30975075
_cell_formula_units_Z   4
loop_
 _symmetry_equiv_pos_site_id
 _symmetry_equiv_pos_as_xyz
  1  'x, y, z'
loop_
 _atom_site_type_symbol
 _atom_site_label
 _atom_site_symmetry_multiplicity
 _atom_site_fract_x
 _atom_site_fract_y
 _atom_site_fract_z
 _atom_site_occupancy
  N  N0  1  0.59540492  0.16411427  0.99291742  1
  N  N1  1  0.40459508  0.66411427  0.50708258  1
  N  N2  1  0.40459508  0.83588573  0.00708258  1
  N  N3  1  0.59540492  0.33588573  0.49291742  1
  N  N4  1  0.52344718  0.74919972  0.05269906  1
  N  N5  1  0.47655282  0.24919972  0.44730094  1
  N  N6  1  0.35184560  0.34398948  0.90109175  1
  N  N7  1  0.64815440  0.84398948  0.59890825  1
  N  N8  1  0.64815440  0.65601052  0.09890825  1
  N  N9  1  0.35184560  0.15601052  0.40109175  1
  N  N10  1  0.47655282  0.25080028  0.94730094  1
  N  N11  1  0.52344718  0.75080028  0.55269906  1
  F  F12  1  0.85558879  0.36774564  0.79092838  1
  F  F13  1  0.57181135  0.42815246  0.22117809  1
  F  F14  1  0.57181135  0.07184754  0.72117809  1
  F  F15  1  0.42818865  0.92815246  0.27882191  1
  F  F16  1  0.08782996  0.92272671  0.40937871  1
  F  F17  1  0.91217004  0.42272671  0.09062129  1
  F  F18  1  0.91217004  0.07727329  0.59062129  1
  F  F19  1  0.08782996  0.57727329  0.90937871  1
  F  F20  1  0.20482453  0.14102004  0.15650776  1
  F  F21  1  0.79517547  0.64102004  0.34349224  1
  F  F22  1  0.79517547  0.85897996  0.84349224  1
  F  F23  1  0.20482453  0.35897996  0.65650776  1
  F  F24  1  0.14441121  0.63225436  0.20907162  1
  F  F25  1  0.85558879  0.13225436  0.29092838  1
  F  F26  1  0.95331807  0.57537823  0.66972470  1
  F  F27  1  0.04668193  0.07537823  0.83027530  1
  F  F28  1  0.04668193  0.42462177  0.33027530  1
  F  F29  1  0.95331807  0.92462177  0.16972470  1
  F  F30  1  0.42818865  0.57184754  0.77882191  1
  F  F31  1  0.14441121  0.86774564  0.70907162  1
  W  W32  1  0.15093267  0.46285057  0.78704148  1
  W  W33  1  0.84906733  0.96285057  0.71295852  1
  W  W34  1  0.84906733  0.53714943  0.21295852  1
  W  W35  1  0.15093267  0.03714943  0.28704148  1
