# generated using pymatgen
data_Fe2Ni(PO4)3
_symmetry_space_group_name_H-M   'P 1'
_cell_length_a   8.49224651
_cell_length_b   8.49224584
_cell_length_c   8.49224563
_cell_angle_alpha   61.08463142
_cell_angle_beta   61.08462811
_cell_angle_gamma   61.08463065
_symmetry_Int_Tables_number   1
_chemical_formula_structural   Fe2Ni(PO4)3
_chemical_formula_sum   'Fe4 Ni2 P6 O24'
_cell_volume   443.63880756
_cell_formula_units_Z   2
loop_
 _symmetry_equiv_pos_site_id
 _symmetry_equiv_pos_as_xyz
  1  'x, y, z'
loop_
 _atom_site_type_symbol
 _atom_site_label
 _atom_site_symmetry_multiplicity
 _atom_site_fract_x
 _atom_site_fract_y
 _atom_site_fract_z
 _atom_site_occupancy
  Fe  Fe0  1  0.14423577  0.14423577  0.14423577  1
  Fe  Fe1  1  0.35576423  0.35576423  0.35576423  1
  Fe  Fe2  1  0.64423577  0.64423577  0.64423577  1
  Fe  Fe3  1  0.85576423  0.85576423  0.85576423  1
  Ni  Ni4  1  0.00000000  0.00000000  0.00000000  1
  Ni  Ni5  1  0.50000000  0.50000000  0.50000000  1
  P  P6  1  0.04634705  0.75000000  0.45365295  1
  P  P7  1  0.45365295  0.04634705  0.75000000  1
  P  P8  1  0.75000000  0.45365295  0.04634705  1
  P  P9  1  0.25000000  0.54634705  0.95365295  1
  P  P10  1  0.54634705  0.95365295  0.25000000  1
  P  P11  1  0.95365295  0.25000000  0.54634705  1
  O  O12  1  0.10918325  0.31975611  0.50483781  1
  O  O13  1  0.31975611  0.50483781  0.10918325  1
  O  O14  1  0.06100873  0.90759138  0.25397758  1
  O  O15  1  0.50483781  0.10918325  0.31975611  1
  O  O16  1  0.00483781  0.81975611  0.60918325  1
  O  O17  1  0.24602242  0.59240862  0.43899127  1
  O  O18  1  0.25397758  0.06100873  0.90759138  1
  O  O19  1  0.43899127  0.24602242  0.59240862  1
  O  O20  1  0.18024389  0.39081675  0.99516219  1
  O  O21  1  0.59240862  0.43899127  0.24602242  1
  O  O22  1  0.09240862  0.74602242  0.93899127  1
  O  O23  1  0.39081675  0.99516219  0.18024389  1
  O  O24  1  0.60918325  0.00483781  0.81975611  1
  O  O25  1  0.90759138  0.25397758  0.06100873  1
  O  O26  1  0.40759138  0.56100873  0.75397758  1
  O  O27  1  0.81975611  0.60918325  0.00483781  1
  O  O28  1  0.56100873  0.75397758  0.40759138  1
  O  O29  1  0.74602242  0.93899127  0.09240862  1
  O  O30  1  0.75397758  0.40759138  0.56100873  1
  O  O31  1  0.99516219  0.18024389  0.39081675  1
  O  O32  1  0.49516219  0.89081675  0.68024389  1
  O  O33  1  0.93899127  0.09240862  0.74602242  1
  O  O34  1  0.68024389  0.49516219  0.89081675  1
  O  O35  1  0.89081675  0.68024389  0.49516219  1
