# generated using pymatgen
data_Li2MnV3O8
_symmetry_space_group_name_H-M   'P 1'
_cell_length_a   6.04153038
_cell_length_b   6.04153023
_cell_length_c   6.04153065
_cell_angle_alpha   59.10785264
_cell_angle_beta   59.10785627
_cell_angle_gamma   59.10785580
_symmetry_Int_Tables_number   1
_chemical_formula_structural   Li2MnV3O8
_chemical_formula_sum   'Li2 Mn1 V3 O8'
_cell_volume   152.75746314
_cell_formula_units_Z   1
loop_
 _symmetry_equiv_pos_site_id
 _symmetry_equiv_pos_as_xyz
  1  'x, y, z'
loop_
 _atom_site_type_symbol
 _atom_site_label
 _atom_site_symmetry_multiplicity
 _atom_site_fract_x
 _atom_site_fract_y
 _atom_site_fract_z
 _atom_site_occupancy
  Li  Li0  1  0.11998917  0.11998917  0.11998917  1
  Li  Li1  1  0.50167262  0.50167262  0.50167262  1
  Mn  Mn2  1  0.87818879  0.87818879  0.87818879  1
  V  V3  1  0.00731743  0.49801406  0.49801406  1
  V  V4  1  0.49801406  0.00731743  0.49801406  1
  V  V5  1  0.49801406  0.49801406  0.00731743  1
  O  O6  1  0.25978421  0.25978421  0.25978421  1
  O  O7  1  0.24770413  0.24770413  0.71009179  1
  O  O8  1  0.24770413  0.71009179  0.24770413  1
  O  O9  1  0.71009179  0.24770413  0.24770413  1
  O  O10  1  0.29413331  0.74893285  0.74893285  1
  O  O11  1  0.74893285  0.29413331  0.74893285  1
  O  O12  1  0.74893285  0.74893285  0.29413331  1
  O  O13  1  0.73952259  0.73952259  0.73952259  1
