# generated using pymatgen
data_Cr4OF11
_symmetry_space_group_name_H-M   'P 1'
_cell_length_a   5.06494074
_cell_length_b   5.33361757
_cell_length_c   16.90602190
_cell_angle_alpha   91.03389752
_cell_angle_beta   97.96394743
_cell_angle_gamma   62.08000813
_symmetry_Int_Tables_number   1
_chemical_formula_structural   Cr4OF11
_chemical_formula_sum   'Cr8 O2 F22'
_cell_volume   399.08262315
_cell_formula_units_Z   2
loop_
 _symmetry_equiv_pos_site_id
 _symmetry_equiv_pos_as_xyz
  1  'x, y, z'
loop_
 _atom_site_type_symbol
 _atom_site_label
 _atom_site_symmetry_multiplicity
 _atom_site_fract_x
 _atom_site_fract_y
 _atom_site_fract_z
 _atom_site_occupancy
  Cr  Cr0  1  0.74384254  0.61493887  0.12899732  1
  Cr  Cr1  1  0.75615746  0.13506113  0.62100268  1
  Cr  Cr2  1  0.50192816  0.75330835  0.74961446  1
  Cr  Cr3  1  0.50792341  0.25992452  0.24730953  1
  Cr  Cr4  1  0.25000000  0.87500000  0.37500000  1
  Cr  Cr5  1  0.25000000  0.37500000  0.87500000  1
  Cr  Cr6  1  0.99207659  0.49007548  0.50269047  1
  Cr  Cr7  1  0.99807184  0.99669165  0.00038554  1
  O  O8  1  0.68627609  0.46772483  0.21814781  1
  O  O9  1  0.81372391  0.28227517  0.53185219  1
  F  F10  1  0.81395947  0.77882652  0.03491430  1
  F  F11  1  0.74329286  0.93703866  0.18695381  1
  F  F12  1  0.75670714  0.81296134  0.56304619  1
  F  F13  1  0.75181901  0.31222743  0.06250282  1
  F  F14  1  0.68604053  0.97117348  0.71508570  1
  F  F15  1  0.68516153  0.65886616  0.40864983  1
  F  F16  1  0.81436266  0.59239954  0.84258793  1
  F  F17  1  0.81483847  0.09113384  0.34135017  1
  F  F18  1  0.31466332  0.84163056  0.09304610  1
  F  F19  1  0.74818099  0.43777257  0.68749718  1
  F  F20  1  0.25739160  0.56128111  0.31190159  1
  F  F21  1  0.68563734  0.15760046  0.90741207  1
  F  F22  1  0.18533668  0.90836944  0.65695390  1
  F  F23  1  0.18307929  0.40827667  0.15676211  1
  F  F24  1  0.18109862  0.71322190  0.46764405  1
  F  F25  1  0.31406806  0.53309506  0.78146029  1
  F  F26  1  0.31692071  0.34172333  0.59323789  1
  F  F27  1  0.31890138  0.03677710  0.28235595  1
  F  F28  1  0.24483943  0.68769608  0.93737340  1
  F  F29  1  0.24260840  0.18871889  0.43809841  1
  F  F30  1  0.25516057  0.06230392  0.81262660  1
  F  F31  1  0.18593194  0.21690494  0.96853971  1
