# generated using pymatgen
data_Li2TiNi3O8
_symmetry_space_group_name_H-M   'P 1'
_cell_length_a   7.98478583
_cell_length_b   8.16497206
_cell_length_c   8.42009193
_cell_angle_alpha   90.01344584
_cell_angle_beta   89.99027855
_cell_angle_gamma   89.99803093
_symmetry_Int_Tables_number   1
_chemical_formula_structural   Li2TiNi3O8
_chemical_formula_sum   'Li8 Ti4 Ni12 O32'
_cell_volume   548.95252865
_cell_formula_units_Z   4
loop_
 _symmetry_equiv_pos_site_id
 _symmetry_equiv_pos_as_xyz
  1  'x, y, z'
loop_
 _atom_site_type_symbol
 _atom_site_label
 _atom_site_symmetry_multiplicity
 _atom_site_fract_x
 _atom_site_fract_y
 _atom_site_fract_z
 _atom_site_occupancy
  Li  Li0  1  0.99374787  0.99457288  0.00428557  1
  Li  Li1  1  0.25783903  0.25712451  0.25018168  1
  Li  Li2  1  0.24203398  0.74300381  0.75031509  1
  Li  Li3  1  0.50613350  0.00530108  0.50418372  1
  Li  Li4  1  0.49375377  0.50552297  0.99568353  1
  Li  Li5  1  0.75784402  0.24293283  0.74980504  1
  Li  Li6  1  0.74202134  0.75701112  0.24969182  1
  Li  Li7  1  0.00617266  0.49451450  0.49577845  1
  Ti  Ti8  1  0.13550547  0.88416695  0.37519015  1
  Ti  Ti9  1  0.36425601  0.11566978  0.87537934  1
  Ti  Ti10  1  0.63563588  0.61585532  0.62468000  1
  Ti  Ti11  1  0.86409985  0.38441444  0.12463733  1
  Ni  Ni12  1  0.12477484  0.12891825  0.62117981  1
  Ni  Ni13  1  0.12441939  0.37803391  0.87567705  1
  Ni  Ni14  1  0.12653367  0.62439037  0.12769385  1
  Ni  Ni15  1  0.37350256  0.37566363  0.62781136  1
  Ni  Ni16  1  0.37560995  0.62197769  0.37566366  1
  Ni  Ni17  1  0.37530840  0.87097137  0.12117590  1
  Ni  Ni18  1  0.62466940  0.37112255  0.37878565  1
  Ni  Ni19  1  0.62439918  0.12190790  0.12441275  1
  Ni  Ni20  1  0.62658817  0.87554598  0.87236065  1
  Ni  Ni21  1  0.87344603  0.12437143  0.37218455  1
  Ni  Ni22  1  0.87567681  0.87808268  0.62435950  1
  Ni  Ni23  1  0.87535841  0.62894809  0.87881651  1
  O  O24  1  0.10895139  0.11485676  0.36941024  1
  O  O25  1  0.11038465  0.88952392  0.61055683  1
  O  O26  1  0.11042791  0.61947706  0.90365053  1
  O  O27  1  0.13202451  0.13392421  0.87252319  1
  O  O28  1  0.11885916  0.39550234  0.11748328  1
  O  O29  1  0.13973158  0.35965094  0.63516913  1
  O  O30  1  0.14110811  0.63242801  0.35362686  1
  O  O31  1  0.13780156  0.85651465  0.13715514  1
  O  O32  1  0.36230879  0.14355052  0.63717465  1
  O  O33  1  0.35890151  0.36752282  0.85361330  1
  O  O34  1  0.36021929  0.64029720  0.13494038  1
  O  O35  1  0.38121781  0.60456365  0.61787664  1
  O  O36  1  0.36799396  0.86572698  0.37245966  1
  O  O37  1  0.38952440  0.38084287  0.40361648  1
  O  O38  1  0.38977069  0.11044506  0.11065931  1
  O  O39  1  0.39113200  0.88514505  0.86934687  1
  O  O40  1  0.60898590  0.38517174  0.63050556  1
  O  O41  1  0.61033103  0.61057316  0.38943678  1
  O  O42  1  0.61035686  0.88032402  0.09636968  1
  O  O43  1  0.63191796  0.36628965  0.12755967  1
  O  O44  1  0.61901330  0.10448606  0.88275273  1
  O  O45  1  0.63962898  0.14031801  0.36473302  1
  O  O46  1  0.64123105  0.86760581  0.64644277  1
  O  O47  1  0.63786133  0.64346599  0.86279184  1
  O  O48  1  0.86215302  0.35646213  0.36282219  1
  O  O49  1  0.85883568  0.13251972  0.14636331  1
  O  O50  1  0.86030204  0.85961118  0.86508943  1
  O  O51  1  0.88117261  0.89545933  0.38219302  1
  O  O52  1  0.86810551  0.63420350  0.62751747  1
  O  O53  1  0.88957648  0.11925283  0.59636969  1
  O  O54  1  0.88977478  0.38948329  0.88937108  1
  O  O55  1  0.89106396  0.61491647  0.13062929  1
