# generated using pymatgen
data_CaV5H19O23
_symmetry_space_group_name_H-M   'P 1'
_cell_length_a   9.75342528
_cell_length_b   10.11192698
_cell_length_c   10.88458917
_cell_angle_alpha   89.48775814
_cell_angle_beta   76.00839678
_cell_angle_gamma   70.05204245
_symmetry_Int_Tables_number   1
_chemical_formula_structural   CaV5H19O23
_chemical_formula_sum   'Ca2 V10 H38 O46'
_cell_volume   975.96861509
_cell_formula_units_Z   2
loop_
 _symmetry_equiv_pos_site_id
 _symmetry_equiv_pos_as_xyz
  1  'x, y, z'
loop_
 _atom_site_type_symbol
 _atom_site_label
 _atom_site_symmetry_multiplicity
 _atom_site_fract_x
 _atom_site_fract_y
 _atom_site_fract_z
 _atom_site_occupancy
  Ca  Ca0  1  0.16133719  0.73058190  0.59155531  1
  Ca  Ca1  1  0.83866281  0.26941810  0.40844469  1
  V  V2  1  0.34921579  0.95975047  0.05440175  1
  V  V3  1  0.65078421  0.04024953  0.94559825  1
  V  V4  1  0.65881251  0.71995188  0.90654208  1
  V  V5  1  0.34118749  0.28004812  0.09345792  1
  V  V6  1  0.48186631  0.95642627  0.75578343  1
  V  V7  1  0.51813369  0.04357373  0.24421657  1
  V  V8  1  0.17576370  0.19800430  0.90280135  1
  V  V9  1  0.82423630  0.80199570  0.09719865  1
  V  V10  1  0.52701103  0.73231226  0.20632208  1
  V  V11  1  0.47298897  0.26768774  0.79367792  1
  H  H12  1  0.25656579  0.97748390  0.60428403  1
  H  H13  1  0.74343421  0.02251610  0.39571597  1
  H  H14  1  0.33967189  0.91299276  0.46213300  1
  H  H15  1  0.66032811  0.08700724  0.53786700  1
  H  H16  1  0.16744817  0.92707532  0.80511524  1
  H  H17  1  0.83255183  0.07292468  0.19488476  1
  H  H18  1  0.01250751  0.90530984  0.85877277  1
  H  H19  1  0.98749249  0.09469016  0.14122723  1
  H  H20  1  0.87015294  0.93920325  0.56776485  1
  H  H21  1  0.12984706  0.06079675  0.43223515  1
  H  H22  1  0.81816590  0.87238916  0.69609379  1
  H  H23  1  0.18183410  0.12761084  0.30390621  1
  H  H24  1  0.18422259  0.23224727  0.49860883  1
  H  H25  1  0.81577741  0.76775273  0.50139117  1
  H  H26  1  0.23495264  0.25639822  0.62232035  1
  H  H27  1  0.76504736  0.74360178  0.37767965  1
  H  H28  1  0.00492257  0.62186998  0.82905970  1
  H  H29  1  0.99507743  0.37813002  0.17094030  1
  H  H30  1  0.14545320  0.48833466  0.76524407  1
  H  H31  1  0.85454680  0.51166534  0.23475593  1
  H  H32  1  0.47447395  0.69326020  0.61667708  1
  H  H33  1  0.52552605  0.30673980  0.38332292  1
  H  H34  1  0.46182316  0.54187124  0.63243891  1
  H  H35  1  0.53817684  0.45812876  0.36756109  1
  H  H36  1  0.03410895  0.75294304  0.36048281  1
  H  H37  1  0.96589105  0.24705696  0.63951719  1
  H  H38  1  0.17542089  0.79451518  0.29483214  1
  H  H39  1  0.82457911  0.20548482  0.70516786  1
  H  H40  1  0.23526435  0.49880072  0.38434178  1
  H  H41  1  0.76473565  0.50119928  0.61565822  1
  H  H42  1  0.18715400  0.43738087  0.51519886  1
  H  H43  1  0.81284600  0.56261913  0.48480114  1
  H  H44  1  0.64711050  0.47988907  0.03839895  1
  H  H45  1  0.35288950  0.52011093  0.96160105  1
  H  H46  1  0.64676304  0.30024075  0.06206890  1
  H  H47  1  0.35323696  0.69975925  0.93793110  1
  H  H48  1  0.80667770  0.32178284  0.98252819  1
  H  H49  1  0.19332230  0.67821716  0.01747181  1
  O  O50  1  0.57185013  0.90216760  0.06565181  1
  O  O51  1  0.42814987  0.09783240  0.93434819  1
  O  O52  1  0.44152739  0.82998729  0.90352277  1
  O  O53  1  0.55847261  0.17001271  0.09647723  1
  O  O54  1  0.32816951  0.10627246  0.18076317  1
  O  O55  1  0.67183049  0.89372754  0.81923683  1
  O  O56  1  0.33021619  0.83345313  0.15915594  1
  O  O57  1  0.66978381  0.16654687  0.84084406  1
  O  O58  1  0.27748984  0.04132227  0.77588326  1
  O  O59  1  0.72251016  0.95867773  0.22411674  1
  O  O60  1  0.17552937  0.04259261  0.02174544  1
  O  O61  1  0.82447063  0.95740739  0.97825456  1
  O  O62  1  0.53045334  0.10409488  0.68356896  1
  O  O63  1  0.46954666  0.89590512  0.31643104  1
  O  O64  1  0.72922280  0.69564037  0.20144856  1
  O  O65  1  0.27077720  0.30435963  0.79855144  1
  O  O66  1  0.83481349  0.69782466  0.95167486  1
  O  O67  1  0.16518651  0.30217534  0.04832514  1
  O  O68  1  0.58815180  0.62528527  0.04307776  1
  O  O69  1  0.41184820  0.37471473  0.95692224  1
  O  O70  1  0.53659882  0.84016225  0.63333311  1
  O  O71  1  0.46340118  0.15983775  0.36666689  1
  O  O72  1  0.70989084  0.60442419  0.78588948  1
  O  O73  1  0.29010916  0.39557581  0.21411052  1
  O  O74  1  0.00000270  0.25389812  0.89308841  1
  O  O75  1  -0.00000270  0.74610188  0.10691159  1
  O  O76  1  0.47652785  0.62353816  0.30216056  1
  O  O77  1  0.52347215  0.37646184  0.69783944  1
  O  O78  1  0.24485153  0.93165177  0.53028444  1
  O  O79  1  0.75514847  0.06834823  0.46971556  1
  O  O80  1  0.11011384  0.86593087  0.79614554  1
  O  O81  1  0.88988616  0.13406913  0.20385446  1
  O  O82  1  0.89782102  0.85409744  0.61472260  1
  O  O83  1  0.10217898  0.14590256  0.38527740  1
  O  O84  1  0.15523537  0.29287383  0.57764019  1
  O  O85  1  0.84476463  0.70712617  0.42235981  1
  O  O86  1  0.08815153  0.58557666  0.75198233  1
  O  O87  1  0.91184847  0.41442334  0.24801767  1
  O  O88  1  0.40878495  0.63881367  0.61438477  1
  O  O89  1  0.59121505  0.36118633  0.38561523  1
  O  O90  1  0.10975048  0.78951119  0.37692660  1
  O  O91  1  0.89024952  0.21048881  0.62307340  1
  O  O92  1  0.21525278  0.51684235  0.47617030  1
  O  O93  1  0.78474722  0.48315765  0.52382970  1
  O  O94  1  0.70502768  0.36592317  0.04219654  1
  O  O95  1  0.29497232  0.63407683  0.95780346  1
