# generated using pymatgen
data_LiVP2HO8
_symmetry_space_group_name_H-M   'P 1'
_cell_length_a   4.86069874
_cell_length_b   7.99234263
_cell_length_c   7.47356367
_cell_angle_alpha   90.13403173
_cell_angle_beta   105.56403200
_cell_angle_gamma   89.93406662
_symmetry_Int_Tables_number   1
_chemical_formula_structural   LiVP2HO8
_chemical_formula_sum   'Li2 V2 P4 H2 O16'
_cell_volume   279.68869239
_cell_formula_units_Z   2
loop_
 _symmetry_equiv_pos_site_id
 _symmetry_equiv_pos_as_xyz
  1  'x, y, z'
loop_
 _atom_site_type_symbol
 _atom_site_label
 _atom_site_symmetry_multiplicity
 _atom_site_fract_x
 _atom_site_fract_y
 _atom_site_fract_z
 _atom_site_occupancy
  Li  Li0  1  0.39683766  0.86949227  0.85110353  1
  Li  Li1  1  0.90767616  0.63255749  0.35284753  1
  V  V2  1  0.49164371  0.49091291  0.99831501  1
  V  V3  1  0.98919238  0.01021004  0.49250405  1
  P  P4  1  0.13512046  0.34924095  0.26740635  1
  P  P5  1  0.36853876  0.84768998  0.23135151  1
  P  P6  1  0.62778403  0.15550069  0.76165742  1
  P  P7  1  0.87021878  0.65448581  0.73611548  1
  H  H8  1  0.51355915  0.50423844  0.50500961  1
  H  H9  1  0.96477093  0.01004162  0.98956404  1
  O  O10  1  0.13291022  0.55539246  0.85700318  1
  O  O11  1  0.04510043  0.17484231  0.31707751  1
  O  O12  1  0.15746429  0.82952927  0.35374002  1
  O  O13  1  0.26074528  0.45578914  0.43965658  1
  O  O14  1  0.35958665  0.05216540  0.65529661  1
  O  O15  1  0.54135533  0.32825245  0.81584854  1
  O  O16  1  0.23934598  0.94018086  0.05117451  1
  O  O17  1  0.33102286  0.32885866  0.13617268  1
  O  O18  1  0.65317686  0.67345916  0.85305102  1
  O  O19  1  0.74798851  0.04818672  0.93927514  1
  O  O20  1  0.48911877  0.67665192  0.19062634  1
  O  O21  1  0.63428090  0.94644877  0.35429375  1
  O  O22  1  0.74202363  0.55973413  0.55333063  1
  O  O23  1  0.83226003  0.17194075  0.63784305  1
  O  O24  1  0.98698757  0.82289170  0.68741017  1
  O  O25  1  0.86147666  0.44915508  0.15618576  1
