# generated using pymatgen
data_LiVFeO4
_symmetry_space_group_name_H-M   'P 1'
_cell_length_a   5.95331045
_cell_length_b   5.95287059
_cell_length_c   8.32078677
_cell_angle_alpha   89.99991181
_cell_angle_beta   89.99798979
_cell_angle_gamma   89.99949394
_symmetry_Int_Tables_number   1
_chemical_formula_structural   LiVFeO4
_chemical_formula_sum   'Li4 V4 Fe4 O16'
_cell_volume   294.88274774
_cell_formula_units_Z   4
loop_
 _symmetry_equiv_pos_site_id
 _symmetry_equiv_pos_as_xyz
  1  'x, y, z'
loop_
 _atom_site_type_symbol
 _atom_site_label
 _atom_site_symmetry_multiplicity
 _atom_site_fract_x
 _atom_site_fract_y
 _atom_site_fract_z
 _atom_site_occupancy
  Li  Li0  1  0.00001091  0.23315897  0.99996245  1
  Li  Li1  1  0.00001011  0.76686484  0.50003509  1
  Li  Li2  1  0.23332214  0.00001753  0.25001384  1
  Li  Li3  1  0.76670283  0.00001391  0.74998847  1
  V  V4  1  0.22915295  0.50000088  0.24999952  1
  V  V5  1  0.50000547  0.22918985  0.00000020  1
  V  V6  1  0.49999893  0.77080364  0.50000963  1
  V  V7  1  0.77081963  0.49999729  0.74999183  1
  Fe  Fe8  1  0.25646199  0.25646164  0.62502571  1
  Fe  Fe9  1  0.25642493  0.74356143  0.87499112  1
  Fe  Fe10  1  0.74354395  0.25644440  0.37497172  1
  Fe  Fe11  1  0.74354933  0.74354627  0.12500982  1
  O  O12  1  0.01712541  0.26879984  0.25877550  1
  O  O13  1  0.01712447  0.73118517  0.24121151  1
  O  O14  1  0.26884224  0.01712566  0.99122090  1
  O  O15  1  0.26885303  0.98289093  0.50880748  1
  O  O16  1  0.26802903  0.48599522  0.01559059  1
  O  O17  1  0.26802462  0.51400984  0.48440128  1
  O  O18  1  0.48597046  0.26801714  0.23439768  1
  O  O19  1  0.48598384  0.73196863  0.26560927  1
  O  O20  1  0.51403856  0.26800519  0.76559530  1
  O  O21  1  0.51399456  0.73197780  0.73440427  1
  O  O22  1  0.73198104  0.51399280  0.51560051  1
  O  O23  1  0.73197923  0.48598663  0.98440197  1
  O  O24  1  0.73116470  0.01711145  0.00877890  1
  O  O25  1  0.73116731  0.98287538  0.49120085  1
  O  O26  1  0.98287229  0.26879898  0.74121129  1
  O  O27  1  0.98284603  0.73119871  0.75879327  1
