# generated using pymatgen
data_Bi2(SO4)3
_symmetry_space_group_name_H-M   'P 1'
_cell_length_a   9.20329875
_cell_length_b   9.35342879
_cell_length_c   25.75542051
_cell_angle_alpha   90.00000000
_cell_angle_beta   90.00000000
_cell_angle_gamma   90.00000000
_symmetry_Int_Tables_number   1
_chemical_formula_structural   Bi2(SO4)3
_chemical_formula_sum   'Bi16 S24 O96'
_cell_volume   2217.08839741
_cell_formula_units_Z   8
loop_
 _symmetry_equiv_pos_site_id
 _symmetry_equiv_pos_as_xyz
  1  'x, y, z'
loop_
 _atom_site_type_symbol
 _atom_site_label
 _atom_site_symmetry_multiplicity
 _atom_site_fract_x
 _atom_site_fract_y
 _atom_site_fract_z
 _atom_site_occupancy
  Bi  Bi0  1  0.99987673  0.39454614  0.06509349  1
  Bi  Bi1  1  0.99987673  0.10545386  0.56509349  1
  Bi  Bi2  1  0.99470688  0.79994886  0.18010345  1
  Bi  Bi3  1  0.99470688  0.70005114  0.68010345  1
  Bi  Bi4  1  0.50529312  0.29994886  0.18010345  1
  Bi  Bi5  1  0.50529312  0.20005114  0.68010345  1
  Bi  Bi6  1  0.50012327  0.60545386  0.56509349  1
  Bi  Bi7  1  0.50012327  0.89454614  0.06509349  1
  Bi  Bi8  1  0.49987673  0.39454614  0.43490651  1
  Bi  Bi9  1  0.49987673  0.10545386  0.93490651  1
  Bi  Bi10  1  0.49470688  0.70005114  0.81989655  1
  Bi  Bi11  1  0.49470688  0.79994886  0.31989655  1
  Bi  Bi12  1  0.00529312  0.29994886  0.31989655  1
  Bi  Bi13  1  0.00529312  0.20005114  0.81989655  1
  Bi  Bi14  1  0.00012327  0.89454614  0.43490651  1
  Bi  Bi15  1  0.00012327  0.60545386  0.93490651  1
  S  S16  1  0.14538280  0.94663274  0.29727829  1
  S  S17  1  0.14538280  0.55336726  0.79727829  1
  S  S18  1  0.14833633  0.25885654  0.44968874  1
  S  S19  1  0.14833633  0.24114346  0.94968874  1
  S  S20  1  0.19303928  0.08880722  0.11587932  1
  S  S21  1  0.19303928  0.41119278  0.61587932  1
  S  S22  1  0.30696072  0.58880722  0.11587932  1
  S  S23  1  0.30696072  0.91119278  0.61587932  1
  S  S24  1  0.35166367  0.75885654  0.44968874  1
  S  S25  1  0.35166367  0.74114346  0.94968874  1
  S  S26  1  0.35461720  0.44663274  0.29727829  1
  S  S27  1  0.35461720  0.05336726  0.79727829  1
  S  S28  1  0.64538280  0.55336726  0.70272171  1
  S  S29  1  0.64538280  0.94663274  0.20272171  1
  S  S30  1  0.64833633  0.25885654  0.05031126  1
  S  S31  1  0.64833633  0.24114346  0.55031126  1
  S  S32  1  0.69303928  0.08880722  0.38412068  1
  S  S33  1  0.69303928  0.41119278  0.88412068  1
  S  S34  1  0.80696072  0.58880722  0.38412068  1
  S  S35  1  0.80696072  0.91119278  0.88412068  1
  S  S36  1  0.85166367  0.75885654  0.05031126  1
  S  S37  1  0.85166367  0.74114346  0.55031126  1
  S  S38  1  0.85461720  0.44663274  0.20272171  1
  S  S39  1  0.85461720  0.05336726  0.70272171  1
  O  O40  1  0.06630393  0.38433811  0.46303134  1
  O  O41  1  0.06630393  0.11566189  0.96303134  1
  O  O42  1  0.08542656  0.08420692  0.27779962  1
  O  O43  1  0.08542656  0.41579308  0.77779962  1
  O  O44  1  0.08474467  0.12373907  0.47750657  1
  O  O45  1  0.08474467  0.37626093  0.97750657  1
  O  O46  1  0.09293169  0.91776763  0.35077066  1
  O  O47  1  0.09293169  0.58223237  0.85077066  1
  O  O48  1  0.09603376  0.18119570  0.08379782  1
  O  O49  1  0.09603376  0.31880430  0.58379782  1
  O  O50  1  0.09909260  0.82633840  0.26303848  1
  O  O51  1  0.09909260  0.67366160  0.76303848  1
  O  O52  1  0.10185434  0.01544255  0.15540934  1
  O  O53  1  0.10185434  0.48455745  0.65540934  1
  O  O54  1  0.14470139  0.22167633  0.39283300  1
  O  O55  1  0.14470139  0.27832367  0.89283300  1
  O  O56  1  0.19215522  0.45573808  0.29703063  1
  O  O57  1  0.19215522  0.04426192  0.79703063  1
  O  O58  1  0.19562903  0.67645335  0.14262957  1
  O  O59  1  0.19562903  0.82354665  0.64262957  1
  O  O60  1  0.19582106  0.76382077  0.46665910  1
  O  O61  1  0.19582106  0.73617923  0.96665910  1
  O  O62  1  0.23793865  0.01689291  0.58063955  1
  O  O63  1  0.23793865  0.48310709  0.08063955  1
  O  O64  1  0.26206135  0.51689291  0.58063955  1
  O  O65  1  0.26206135  0.98310709  0.08063955  1
  O  O66  1  0.30417894  0.23617923  0.96665910  1
  O  O67  1  0.30417894  0.26382077  0.46665910  1
  O  O68  1  0.30437097  0.17645335  0.14262957  1
  O  O69  1  0.30437097  0.32354665  0.64262957  1
  O  O70  1  0.30784478  0.95573808  0.29703063  1
  O  O71  1  0.30784478  0.54426192  0.79703063  1
  O  O72  1  0.35529861  0.72167633  0.39283300  1
  O  O73  1  0.35529861  0.77832367  0.89283300  1
  O  O74  1  0.39814566  0.98455745  0.65540934  1
  O  O75  1  0.39814566  0.51544255  0.15540934  1
  O  O76  1  0.40090740  0.32633840  0.26303848  1
  O  O77  1  0.40090740  0.17366160  0.76303848  1
  O  O78  1  0.40396624  0.68119570  0.08379782  1
  O  O79  1  0.40396624  0.81880430  0.58379782  1
  O  O80  1  0.40706831  0.08223237  0.85077066  1
  O  O81  1  0.40706831  0.41776763  0.35077066  1
  O  O82  1  0.41525533  0.87626093  0.97750657  1
  O  O83  1  0.41525533  0.62373907  0.47750657  1
  O  O84  1  0.41457344  0.58420692  0.27779962  1
  O  O85  1  0.41457344  0.91579308  0.77779962  1
  O  O86  1  0.43369607  0.61566189  0.96303134  1
  O  O87  1  0.43369607  0.88433811  0.46303134  1
  O  O88  1  0.56630393  0.38433811  0.03696866  1
  O  O89  1  0.56630393  0.11566189  0.53696866  1
  O  O90  1  0.58542656  0.08420692  0.22220038  1
  O  O91  1  0.58542656  0.41579308  0.72220038  1
  O  O92  1  0.58474467  0.12373907  0.02249343  1
  O  O93  1  0.58474467  0.37626093  0.52249343  1
  O  O94  1  0.59293169  0.58223237  0.64922934  1
  O  O95  1  0.59293169  0.91776763  0.14922934  1
  O  O96  1  0.59603376  0.18119570  0.41620218  1
  O  O97  1  0.59603376  0.31880430  0.91620218  1
  O  O98  1  0.59909260  0.82633840  0.23696152  1
  O  O99  1  0.59909260  0.67366160  0.73696152  1
  O  O100  1  0.60185434  0.01544255  0.34459066  1
  O  O101  1  0.60185434  0.48455745  0.84459066  1
  O  O102  1  0.64470139  0.22167633  0.10716700  1
  O  O103  1  0.64470139  0.27832367  0.60716700  1
  O  O104  1  0.69215522  0.45573808  0.20296937  1
  O  O105  1  0.69215522  0.04426192  0.70296937  1
  O  O106  1  0.69562903  0.67645335  0.35737043  1
  O  O107  1  0.69562903  0.82354665  0.85737043  1
  O  O108  1  0.69582106  0.76382077  0.03334090  1
  O  O109  1  0.69582106  0.73617923  0.53334090  1
  O  O110  1  0.73793865  0.48310709  0.41936045  1
  O  O111  1  0.73793865  0.01689291  0.91936045  1
  O  O112  1  0.76206135  0.98310709  0.41936045  1
  O  O113  1  0.76206135  0.51689291  0.91936045  1
  O  O114  1  0.80417894  0.26382077  0.03334090  1
  O  O115  1  0.80417894  0.23617923  0.53334090  1
  O  O116  1  0.80437097  0.17645335  0.35737043  1
  O  O117  1  0.80437097  0.32354665  0.85737043  1
  O  O118  1  0.80784478  0.54426192  0.70296937  1
  O  O119  1  0.80784478  0.95573808  0.20296937  1
  O  O120  1  0.85529861  0.72167633  0.10716700  1
  O  O121  1  0.85529861  0.77832367  0.60716700  1
  O  O122  1  0.89814566  0.51544255  0.34459066  1
  O  O123  1  0.89814566  0.98455745  0.84459066  1
  O  O124  1  0.90090740  0.32633840  0.23696152  1
  O  O125  1  0.90090740  0.17366160  0.73696152  1
  O  O126  1  0.90396624  0.68119570  0.41620218  1
  O  O127  1  0.90396624  0.81880430  0.91620218  1
  O  O128  1  0.90706831  0.41776763  0.14922934  1
  O  O129  1  0.90706831  0.08223237  0.64922934  1
  O  O130  1  0.91525533  0.62373907  0.02249343  1
  O  O131  1  0.91525533  0.87626093  0.52249343  1
  O  O132  1  0.91457344  0.58420692  0.22220038  1
  O  O133  1  0.91457344  0.91579308  0.72220038  1
  O  O134  1  0.93369607  0.61566189  0.53696866  1
  O  O135  1  0.93369607  0.88433811  0.03696866  1
