# generated using pymatgen
data_ZnAg2C4(SN)4
_symmetry_space_group_name_H-M   'P 1'
_cell_length_a   7.93520220
_cell_length_b   8.29809416
_cell_length_c   10.67963399
_cell_angle_alpha   95.80385292
_cell_angle_beta   111.80883413
_cell_angle_gamma   89.99999969
_symmetry_Int_Tables_number   1
_chemical_formula_structural   ZnAg2C4(SN)4
_chemical_formula_sum   'Zn2 Ag4 C8 S8 N8'
_cell_volume   649.00752973
_cell_formula_units_Z   2
loop_
 _symmetry_equiv_pos_site_id
 _symmetry_equiv_pos_as_xyz
  1  'x, y, z'
loop_
 _atom_site_type_symbol
 _atom_site_label
 _atom_site_symmetry_multiplicity
 _atom_site_fract_x
 _atom_site_fract_y
 _atom_site_fract_z
 _atom_site_occupancy
  Zn  Zn0  1  0.66714413  0.75000000  0.00000000  1
  Zn  Zn1  1  0.33285587  0.25000000  1.00000000  1
  Ag  Ag2  1  0.89205096  0.73567542  0.59641442  1
  Ag  Ag3  1  0.10794904  0.26432458  0.40358558  1
  Ag  Ag4  1  0.29563654  0.76432458  0.40358558  1
  Ag  Ag5  1  0.70436346  0.23567542  0.59641442  1
  C  C6  1  0.34062717  0.83224727  0.74450755  1
  C  C7  1  0.98486676  0.04159547  0.83477117  1
  C  C8  1  0.01513324  0.95840453  0.16522883  1
  C  C9  1  0.15009559  0.45840453  0.16522883  1
  C  C10  1  0.40388038  0.33224727  0.74450755  1
  C  C11  1  0.59611962  0.66775273  0.25549245  1
  C  C12  1  0.84990441  0.54159547  0.83477117  1
  C  C13  1  0.65937283  0.16775273  0.25549245  1
  S  S14  1  0.18772447  0.86836480  0.59797341  1
  S  S15  1  0.21802501  0.02321886  0.27053188  1
  S  S16  1  0.41024893  0.36836480  0.59797341  1
  S  S17  1  0.58975107  0.63163520  0.40202659  1
  S  S18  1  0.81227553  0.13163520  0.40202659  1
  S  S19  1  0.94749313  0.47678114  0.72946812  1
  S  S20  1  0.05250687  0.52321886  0.27053188  1
  S  S21  1  0.78197499  0.97678114  0.72946812  1
  N  N22  1  0.86878806  0.91280662  0.08898612  1
  N  N23  1  0.45222745  0.81252277  0.85055592  1
  N  N24  1  0.77980195  0.58719338  0.91101388  1
  N  N25  1  0.22019805  0.41280662  0.08898612  1
  N  N26  1  0.39832847  0.31252277  0.85055592  1
  N  N27  1  0.13121194  0.08719338  0.91101388  1
  N  N28  1  0.54777255  0.18747723  0.14944408  1
  N  N29  1  0.60167153  0.68747723  0.14944408  1
