# generated using pymatgen
data_Li7V5O12
_symmetry_space_group_name_H-M   'P 1'
_cell_length_a   5.08510096
_cell_length_b   5.08510131
_cell_length_c   9.65559830
_cell_angle_alpha   85.81333955
_cell_angle_beta   94.18666295
_cell_angle_gamma   61.97234170
_symmetry_Int_Tables_number   1
_chemical_formula_structural   Li7V5O12
_chemical_formula_sum   'Li7 V5 O12'
_cell_volume   218.16781537
_cell_formula_units_Z   1
loop_
 _symmetry_equiv_pos_site_id
 _symmetry_equiv_pos_as_xyz
  1  'x, y, z'
loop_
 _atom_site_type_symbol
 _atom_site_label
 _atom_site_symmetry_multiplicity
 _atom_site_fract_x
 _atom_site_fract_y
 _atom_site_fract_z
 _atom_site_occupancy
  Li  Li0  1  0.24273852  0.24273852  0.75000000  1
  Li  Li1  1  0.15345953  0.66658772  0.50508044  1
  Li  Li2  1  0.32312491  0.85427335  0.99424565  1
  Li  Li3  1  0.66658772  0.15345953  0.99491956  1
  Li  Li4  1  0.85427335  0.32312491  0.50575435  1
  Li  Li5  1  0.75275181  0.75275181  0.25000000  1
  Li  Li6  1  0.91939583  0.91939583  0.75000000  1
  V  V7  1  0.08251552  0.08251552  0.25000000  1
  V  V8  1  0.00263538  0.51082571  0.98861647  1
  V  V9  1  0.51082571  0.00263538  0.51138353  1
  V  V10  1  0.42426172  0.42426172  0.25000000  1
  V  V11  1  0.57538130  0.57538130  0.75000000  1
  O  O12  1  0.93416634  0.24299325  0.87148098  1
  O  O13  1  0.24299325  0.93416634  0.62851902  1
  O  O14  1  0.15931484  0.34744798  0.37839520  1
  O  O15  1  0.34744798  0.15931484  0.12160480  1
  O  O16  1  0.27605513  0.53690136  0.87948039  1
  O  O17  1  0.53690136  0.27605513  0.62051961  1
  O  O18  1  0.44042465  0.74004442  0.37079768  1
  O  O19  1  0.74004442  0.44042465  0.12920232  1
  O  O20  1  0.64719790  0.83328916  0.88327730  1
  O  O21  1  0.83328916  0.64719790  0.61672270  1
  O  O22  1  0.77306177  0.06115193  0.37216695  1
  O  O23  1  0.06115193  0.77306177  0.12783305  1
