# generated using pymatgen
data_Sb3P6WO24
_symmetry_space_group_name_H-M   'P 1'
_cell_length_a   9.17194717
_cell_length_b   9.17194779
_cell_length_c   9.17194681
_cell_angle_alpha   57.61686550
_cell_angle_beta   57.61685978
_cell_angle_gamma   57.61685884
_symmetry_Int_Tables_number   1
_chemical_formula_structural   Sb3P6WO24
_chemical_formula_sum   'Sb3 P6 W1 O24'
_cell_volume   515.70770538
_cell_formula_units_Z   1
loop_
 _symmetry_equiv_pos_site_id
 _symmetry_equiv_pos_as_xyz
  1  'x, y, z'
loop_
 _atom_site_type_symbol
 _atom_site_label
 _atom_site_symmetry_multiplicity
 _atom_site_fract_x
 _atom_site_fract_y
 _atom_site_fract_z
 _atom_site_occupancy
  Sb  Sb0  1  0.14039656  0.14039656  0.14039656  1
  Sb  Sb1  1  0.35812357  0.35812357  0.35812357  1
  Sb  Sb2  1  0.64473508  0.64473508  0.64473508  1
  P  P3  1  0.04222348  0.72665093  0.47809010  1
  P  P4  1  0.47809010  0.04222348  0.72665093  1
  P  P5  1  0.72665093  0.47809010  0.04222348  1
  P  P6  1  0.25482819  0.54554980  0.95366592  1
  P  P7  1  0.54554980  0.95366592  0.25482819  1
  P  P8  1  0.95366592  0.25482819  0.54554980  1
  W  W9  1  0.85515108  0.85515108  0.85515108  1
  O  O10  1  0.11990374  0.26074028  0.54080192  1
  O  O11  1  0.26074028  0.54080192  0.11990374  1
  O  O12  1  0.07133367  0.88420129  0.29837473  1
  O  O13  1  0.54080192  0.11990374  0.26074028  1
  O  O14  1  0.21186552  0.54798771  0.49060006  1
  O  O15  1  0.99150727  0.77829990  0.64222208  1
  O  O16  1  0.29837473  0.07133367  0.88420129  1
  O  O17  1  0.49060006  0.21186552  0.54798771  1
  O  O18  1  0.54798771  0.49060006  0.21186552  1
  O  O19  1  0.25579279  0.37352364  0.96786280  1
  O  O20  1  0.06653210  0.70976302  0.92791689  1
  O  O21  1  0.37352364  0.96786280  0.25579279  1
  O  O22  1  0.64222208  0.99150727  0.77829990  1
  O  O23  1  0.88420129  0.29837473  0.07133367  1
  O  O24  1  0.77829990  0.64222208  0.99150727  1
  O  O25  1  0.40344407  0.61377880  0.76619770  1
  O  O26  1  0.61377880  0.76619770  0.40344407  1
  O  O27  1  0.70976302  0.92791689  0.06653210  1
  O  O28  1  0.96786280  0.25579279  0.37352364  1
  O  O29  1  0.76619770  0.40344407  0.61377880  1
  O  O30  1  0.51183036  0.88218720  0.68391875  1
  O  O31  1  0.92791689  0.06653210  0.70976302  1
  O  O32  1  0.68391875  0.51183036  0.88218720  1
  O  O33  1  0.88218720  0.68391875  0.51183036  1
