# generated using pymatgen
data_Li4Fe3Cu3(SnO8)2
_symmetry_space_group_name_H-M   'P 1'
_cell_length_a   5.95735873
_cell_length_b   5.98580626
_cell_length_c   9.77258663
_cell_angle_alpha   89.96885193
_cell_angle_beta   90.27061344
_cell_angle_gamma   119.85918135
_symmetry_Int_Tables_number   1
_chemical_formula_structural   Li4Fe3Cu3(SnO8)2
_chemical_formula_sum   'Li4 Fe3 Cu3 Sn2 O16'
_cell_volume   302.22145400
_cell_formula_units_Z   1
loop_
 _symmetry_equiv_pos_site_id
 _symmetry_equiv_pos_as_xyz
  1  'x, y, z'
loop_
 _atom_site_type_symbol
 _atom_site_label
 _atom_site_symmetry_multiplicity
 _atom_site_fract_x
 _atom_site_fract_y
 _atom_site_fract_z
 _atom_site_occupancy
  Li  Li0  1  0.31756209  0.66044559  0.89778380  1
  Li  Li1  1  0.00351491  0.00312217  0.99434356  1
  Li  Li2  1  0.01448999  0.00674101  0.49198054  1
  Li  Li3  1  0.66124051  0.32749320  0.39589229  1
  Fe  Fe4  1  0.66131063  0.83187339  0.21396684  1
  Fe  Fe5  1  0.83238594  0.66205059  0.71442741  1
  Fe  Fe6  1  0.83166728  0.16971038  0.71520987  1
  Cu  Cu7  1  0.16933640  0.82950032  0.21480374  1
  Cu  Cu8  1  0.17243344  0.33959177  0.21456829  1
  Cu  Cu9  1  0.33955786  0.17070573  0.71386879  1
  Sn  Sn10  1  0.34002695  0.66775068  0.49063062  1
  Sn  Sn11  1  0.66638541  0.33606724  0.99047049  1
  O  O12  1  0.15513030  0.82925914  0.59695621  1
  O  O13  1  0.03414223  0.51002286  0.33888588  1
  O  O14  1  0.32059623  0.65966768  0.11263051  1
  O  O15  1  0.01386863  0.00778161  0.30264684  1
  O  O16  1  0.01898743  0.00879471  0.80639854  1
  O  O17  1  0.16103098  0.32145786  0.59911641  1
  O  O18  1  0.47850644  0.96554089  0.33866016  1
  O  O19  1  0.49285724  0.52187745  0.34096524  1
  O  O20  1  0.31881166  0.16363853  0.09873662  1
  O  O21  1  0.68351160  0.84316255  0.59845190  1
  O  O22  1  0.51701320  0.49125443  0.84173626  1
  O  O23  1  0.51008642  0.03179935  0.83938166  1
  O  O24  1  0.65066079  0.32521184  0.60916532  1
  O  O25  1  0.84220673  0.68238681  0.09958941  1
  O  O26  1  0.96224323  0.48017958  0.83970037  1
  O  O27  1  0.83043548  0.15321263  0.09687445  1
