# generated using pymatgen
data_KLi(WO3)6
_symmetry_space_group_name_H-M   'P 1'
_cell_length_a   7.53381125
_cell_length_b   7.53349330
_cell_length_c   7.76985695
_cell_angle_alpha   90.00646263
_cell_angle_beta   89.98532487
_cell_angle_gamma   119.71058486
_symmetry_Int_Tables_number   1
_chemical_formula_structural   KLi(WO3)6
_chemical_formula_sum   'K1 Li1 W6 O18'
_cell_volume   383.01339206
_cell_formula_units_Z   1
loop_
 _symmetry_equiv_pos_site_id
 _symmetry_equiv_pos_as_xyz
  1  'x, y, z'
loop_
 _atom_site_type_symbol
 _atom_site_label
 _atom_site_symmetry_multiplicity
 _atom_site_fract_x
 _atom_site_fract_y
 _atom_site_fract_z
 _atom_site_occupancy
  K  K0  1  0.00007349  0.00005307  0.26668516  1
  Li  Li1  1  0.70380433  0.29619221  0.75079452  1
  W  W2  1  0.00387789  0.50774144  0.49801734  1
  W  W3  1  0.00518358  0.49759821  0.00259965  1
  W  W4  1  0.49489338  0.49346140  0.49955453  1
  W  W5  1  0.50669856  0.50516187  0.00044113  1
  W  W6  1  0.49222756  0.99602982  0.00211544  1
  W  W7  1  0.50236030  0.99492533  0.49755759  1
  O  O8  1  0.00761645  0.50457291  0.75002189  1
  O  O9  1  0.20978589  0.78651904  0.01008805  1
  O  O10  1  0.21319174  0.79051034  0.48989543  1
  O  O11  1  0.21106093  0.42512091  0.49148146  1
  O  O12  1  0.49540134  0.99241494  0.74970536  1
  O  O13  1  0.21508384  0.42494426  0.00875905  1
  O  O14  1  0.57422975  0.78858256  0.00837441  1
  O  O15  1  0.57564952  0.78522939  0.49111702  1
  O  O16  1  0.49721318  0.50280278  0.74979742  1
  O  O17  1  0.50584093  0.49420035  0.25013626  1
  O  O18  1  0.42804637  0.21484869  0.99361070  1
  O  O19  1  0.42682865  0.21097595  0.50606925  1
  O  O20  1  0.78536797  0.57245135  0.50616925  1
  O  O21  1  0.50637452  0.01008888  0.24998945  1
  O  O22  1  0.78879045  0.57262263  0.99369769  1
  O  O23  1  0.78309431  0.21439947  0.98877195  1
  O  O24  1  0.78578257  0.21678402  0.51107193  1
  O  O25  1  0.98995051  0.49361917  0.25036804  1
