# generated using pymatgen
data_Li2Ti3CrO8
_symmetry_space_group_name_H-M   'P 1'
_cell_length_a   5.89560900
_cell_length_b   5.89547955
_cell_length_c   9.64688891
_cell_angle_alpha   89.99035475
_cell_angle_beta   90.00482218
_cell_angle_gamma   119.99927010
_symmetry_Int_Tables_number   1
_chemical_formula_structural   Li2Ti3CrO8
_chemical_formula_sum   'Li4 Ti6 Cr2 O16'
_cell_volume   290.38147548
_cell_formula_units_Z   2
loop_
 _symmetry_equiv_pos_site_id
 _symmetry_equiv_pos_as_xyz
  1  'x, y, z'
loop_
 _atom_site_type_symbol
 _atom_site_label
 _atom_site_symmetry_multiplicity
 _atom_site_fract_x
 _atom_site_fract_y
 _atom_site_fract_z
 _atom_site_occupancy
  Li  Li0  1  0.33332735  0.66668022  0.89218457  1
  Li  Li1  1  0.00001349  0.99996361  0.99660000  1
  Li  Li2  1  0.99998651  0.99995012  0.49660000  1
  Li  Li3  1  0.66667265  0.33335287  0.39218457  1
  Ti  Ti4  1  0.16902256  0.83102343  0.21348083  1
  Ti  Ti5  1  0.16902912  0.33802356  0.21346864  1
  Ti  Ti6  1  0.66199703  0.83101319  0.21347104  1
  Ti  Ti7  1  0.33800297  0.16901616  0.71347104  1
  Ti  Ti8  1  0.83097744  0.66200087  0.71348083  1
  Ti  Ti9  1  0.83097088  0.16899444  0.71346864  1
  Cr  Cr10  1  0.33324100  0.66659427  0.48403860  1
  Cr  Cr11  1  0.66675900  0.33335327  0.98403860  1
  O  O12  1  0.16347864  0.83651561  0.60351184  1
  O  O13  1  0.03991024  0.51999047  0.33835784  1
  O  O14  1  0.33333751  0.66665422  0.10290147  1
  O  O15  1  0.99996232  0.00007127  0.31220657  1
  O  O16  1  0.00003768  0.00010995  0.81220657  1
  O  O17  1  0.16345594  0.32692815  0.60351017  1
  O  O18  1  0.48000783  0.96011597  0.33837262  1
  O  O19  1  0.48000874  0.51996934  0.33831490  1
  O  O20  1  0.32695473  0.16347842  0.10350291  1
  O  O21  1  0.67304527  0.83652270  0.60350291  1
  O  O22  1  0.51999217  0.48010814  0.83837262  1
  O  O23  1  0.51999126  0.03996060  0.83831490  1
  O  O24  1  0.66666249  0.33331670  0.60290147  1
  O  O25  1  0.83652136  0.67303798  0.10351184  1
  O  O26  1  0.96008976  0.48008124  0.83835784  1
  O  O27  1  0.83654406  0.16347222  0.10351017  1
