# generated using pymatgen
data_Li3Mn4(BO3)4
_symmetry_space_group_name_H-M   'P 1'
_cell_length_a   9.09437870
_cell_length_b   9.11085225
_cell_length_c   11.64834252
_cell_angle_alpha   67.06797838
_cell_angle_beta   68.24081110
_cell_angle_gamma   60.01625293
_symmetry_Int_Tables_number   1
_chemical_formula_structural   Li3Mn4(BO3)4
_chemical_formula_sum   'Li9 Mn12 B12 O36'
_cell_volume   750.94527066
_cell_formula_units_Z   3
loop_
 _symmetry_equiv_pos_site_id
 _symmetry_equiv_pos_as_xyz
  1  'x, y, z'
loop_
 _atom_site_type_symbol
 _atom_site_label
 _atom_site_symmetry_multiplicity
 _atom_site_fract_x
 _atom_site_fract_y
 _atom_site_fract_z
 _atom_site_occupancy
  Li  Li0  1  0.22164901  0.02663747  0.66908528  1
  Li  Li1  1  0.03644775  0.90527986  0.17322770  1
  Li  Li2  1  0.39347299  0.25158708  0.14901994  1
  Li  Li3  1  0.26559777  0.41204867  0.91016040  1
  Li  Li4  1  0.42816346  0.56481257  0.41626643  1
  Li  Li5  1  0.72418615  0.56600735  0.15973321  1
  Li  Li6  1  0.92001881  0.08093310  0.91352554  1
  Li  Li7  1  0.73836835  0.92496207  0.41916231  1
  Li  Li8  1  0.86572542  0.70454631  0.67262926  1
  Mn  Mn9  1  0.08268532  0.22624678  0.13310436  1
  Mn  Mn10  1  0.08939051  0.58639476  0.38505763  1
  Mn  Mn11  1  0.28060281  0.06083126  0.88740782  1
  Mn  Mn12  1  0.38527888  0.59582677  0.12875512  1
  Mn  Mn13  1  0.24379840  0.69863482  0.63684121  1
  Mn  Mn14  1  0.54856484  0.12115924  0.62497767  1
  Mn  Mn15  1  0.40068777  0.94607354  0.38222654  1
  Mn  Mn16  1  0.79477692  0.26426391  0.38131646  1
  Mn  Mn17  1  0.61099054  0.45689223  0.88162007  1
  Mn  Mn18  1  0.71425443  0.91488238  0.13347541  1
  Mn  Mn19  1  0.88774050  0.38372267  0.62560355  1
  Mn  Mn20  1  0.91325105  0.76251086  0.88058156  1
  B  B21  1  0.06613298  0.58122635  0.11458291  1
  B  B22  1  0.23280617  0.38408112  0.62253370  1
  B  B23  1  0.09900553  0.92100185  0.37787757  1
  B  B24  1  0.44478609  0.27821272  0.36594282  1
  B  B25  1  0.40113517  0.90430304  0.12489967  1
  B  B26  1  0.74581468  0.24902522  0.11690461  1
  B  B27  1  0.25067138  0.75187653  0.87681368  1
  B  B28  1  0.59832700  0.12020634  0.86817502  1
  B  B29  1  0.90773291  0.03931978  0.64035097  1
  B  B30  1  0.74596936  0.61670740  0.37491352  1
  B  B31  1  0.56352367  0.75160610  0.63542027  1
  B  B32  1  0.94904583  0.40937880  0.87595159  1
  O  O33  1  0.05750128  0.09947638  0.33645684  1
  O  O34  1  0.16934323  0.41353259  0.10239695  1
  O  O35  1  0.11120073  0.66308212  0.16631251  1
  O  O36  1  0.44377705  0.00847128  0.15686036  1
  O  O37  1  0.06782681  0.48718441  0.59755592  1
  O  O38  1  0.99972320  0.85481697  0.36531100  1
  O  O39  1  0.39794184  0.18654144  0.32985477  1
  O  O40  1  0.10495014  0.31173590  0.91473141  1
  O  O41  1  0.29640534  0.19885623  0.65654074  1
  O  O42  1  0.36539076  0.46183915  0.33336736  1
  O  O43  1  0.23842396  0.97809596  0.09324122  1
  O  O44  1  0.59006984  0.36188730  0.07170064  1
  O  O45  1  0.34472186  0.45173937  0.60933012  1
  O  O46  1  0.24743556  0.81040378  0.42938510  1
  O  O47  1  0.58095585  0.19172791  0.43205675  1
  O  O48  1  0.18920532  0.66524174  0.84305662  1
  O  O49  1  0.50991349  0.73576214  0.12167893  1
  O  O50  1  0.82928532  0.07747181  0.10973635  1
  O  O51  1  0.53021141  0.06004270  0.81301856  1
  O  O52  1  0.16690704  0.92941298  0.86363710  1
  O  O53  1  0.80863578  0.31699223  0.16652958  1
  O  O54  1  0.51740005  0.28488311  0.88261708  1
  O  O55  1  0.40691406  0.82297229  0.59845321  1
  O  O56  1  0.67153274  0.53398314  0.35184937  1
  O  O57  1  0.76524566  0.13965280  0.58330777  1
  O  O58  1  0.39964037  0.65696624  0.92613200  1
  O  O59  1  0.75229719  0.99942971  0.91323812  1
  O  O60  1  0.63780864  0.57028096  0.69724659  1
  O  O61  1  0.68343650  0.80002743  0.33728312  1
  O  O62  1  0.90518497  0.67865112  0.07262787  1
  O  O63  1  0.88580008  0.51766679  0.43272920  1
  O  O64  1  0.99715927  0.11890731  0.64327612  1
  O  O65  1  0.65092327  0.85096811  0.60970817  1
  O  O66  1  0.87001310  0.32719880  0.85162739  1
  O  O67  1  0.86317603  0.58733503  0.85966506  1
  O  O68  1  0.95553879  0.85663385  0.68931429  1
