# generated using pymatgen
data_BaYF5
_symmetry_space_group_name_H-M   'P 1'
_cell_length_a   7.68500359
_cell_length_b   7.68382101
_cell_length_c   11.02461664
_cell_angle_alpha   90.02037707
_cell_angle_beta   132.90344205
_cell_angle_gamma   90.00012400
_symmetry_Int_Tables_number   1
_chemical_formula_structural   BaYF5
_chemical_formula_sum   'Ba4 Y4 F20'
_cell_volume   476.86294387
_cell_formula_units_Z   4
loop_
 _symmetry_equiv_pos_site_id
 _symmetry_equiv_pos_as_xyz
  1  'x, y, z'
loop_
 _atom_site_type_symbol
 _atom_site_label
 _atom_site_symmetry_multiplicity
 _atom_site_fract_x
 _atom_site_fract_y
 _atom_site_fract_z
 _atom_site_occupancy
  Ba  Ba0  1  0.39326600  0.75231889  0.03470527  1
  Ba  Ba1  1  0.59562313  0.75149728  0.76463159  1
  Ba  Ba2  1  0.60675686  0.25227432  0.96530995  1
  Ba  Ba3  1  0.40437011  0.25159584  0.23536309  1
  Y  Y4  1  0.94941970  0.24847783  0.75861348  1
  Y  Y5  1  0.19920067  0.24790688  0.48125790  1
  Y  Y6  1  0.80079612  0.74831691  0.51874582  1
  Y  Y7  1  0.05057331  0.74811414  0.24138066  1
  F  F8  1  0.06931207  0.25319517  0.62531657  1
  F  F9  1  0.06273227  0.75079004  0.04840079  1
  F  F10  1  0.19199600  0.74993030  0.71652656  1
  F  F11  1  0.27974617  0.41740612  0.95713076  1
  F  F12  1  0.14795905  0.44750789  0.30513906  1
  F  F13  1  0.15285552  0.03991818  0.31407806  1
  F  F14  1  0.27952586  0.08604756  0.95764541  1
  F  F15  1  0.42339007  0.43938032  0.68101905  1
  F  F16  1  0.42137536  0.06181185  0.68548602  1
  F  F17  1  0.43949771  0.74207589  0.46140065  1
  F  F18  1  0.72005793  0.58602940  0.04226468  1
  F  F19  1  0.56046385  0.24232744  0.53858230  1
  F  F20  1  0.57868533  0.56202999  0.31454797  1
  F  F21  1  0.57650063  0.93958585  0.31893604  1
  F  F22  1  0.72073285  0.91740618  0.04296874  1
  F  F23  1  0.80797938  0.25041032  0.28349173  1
  F  F24  1  0.84755373  0.54048145  0.68617612  1
  F  F25  1  0.85170481  0.94813819  0.69462826  1
  F  F26  1  0.93068848  0.75415201  0.37468194  1
  F  F27  1  0.93723702  0.25171778  0.95157152  1
