# generated using pymatgen
data_Ti3CrNi2(PO4)6
_symmetry_space_group_name_H-M   'P 1'
_cell_length_a   8.50409641
_cell_length_b   8.50409630
_cell_length_c   8.50409591
_cell_angle_alpha   60.83299885
_cell_angle_beta   60.83299686
_cell_angle_gamma   60.83299544
_symmetry_Int_Tables_number   1
_chemical_formula_structural   Ti3CrNi2(PO4)6
_chemical_formula_sum   'Ti3 Cr1 Ni2 P6 O24'
_cell_volume   443.04895684
_cell_formula_units_Z   1
loop_
 _symmetry_equiv_pos_site_id
 _symmetry_equiv_pos_as_xyz
  1  'x, y, z'
loop_
 _atom_site_type_symbol
 _atom_site_label
 _atom_site_symmetry_multiplicity
 _atom_site_fract_x
 _atom_site_fract_y
 _atom_site_fract_z
 _atom_site_occupancy
  Ti  Ti0  1  0.14312157  0.14312157  0.14312157  1
  Ti  Ti1  1  0.35554185  0.35554185  0.35554185  1
  Ti  Ti2  1  0.64407737  0.64407737  0.64407737  1
  Cr  Cr3  1  0.85900495  0.85900495  0.85900495  1
  Ni  Ni4  1  0.00008755  0.00008755  0.00008755  1
  Ni  Ni5  1  0.49887890  0.49887890  0.49887890  1
  P  P6  1  0.24895798  0.54529552  0.95428014  1
  P  P7  1  0.54529552  0.95428014  0.24895798  1
  P  P8  1  0.95428014  0.24895798  0.54529552  1
  P  P9  1  0.04432767  0.75068630  0.45841433  1
  P  P10  1  0.45841433  0.04432767  0.75068630  1
  P  P11  1  0.75068630  0.45841433  0.04432767  1
  O  O12  1  0.11389708  0.31727445  0.49961707  1
  O  O13  1  0.31727445  0.49961707  0.11389708  1
  O  O14  1  0.05534834  0.91073611  0.25925567  1
  O  O15  1  0.49961707  0.11389708  0.31727445  1
  O  O16  1  0.00731313  0.81370496  0.61467611  1
  O  O17  1  0.24177380  0.58809685  0.43968025  1
  O  O18  1  0.25925567  0.05534834  0.91073611  1
  O  O19  1  0.43968025  0.24177380  0.58809685  1
  O  O20  1  0.18338705  0.38460135  0.99817882  1
  O  O21  1  0.58809685  0.43968025  0.24177380  1
  O  O22  1  0.08959698  0.74218847  0.94366757  1
  O  O23  1  0.38460135  0.99817882  0.18338705  1
  O  O24  1  0.61467611  0.00731313  0.81370496  1
  O  O25  1  0.91073611  0.25925567  0.05534834  1
  O  O26  1  0.41189010  0.55635222  0.75784203  1
  O  O27  1  0.81370496  0.61467611  0.00731313  1
  O  O28  1  0.55635222  0.75784203  0.41189010  1
  O  O29  1  0.74218847  0.94366757  0.08959698  1
  O  O30  1  0.75784203  0.41189010  0.55635222  1
  O  O31  1  0.99817882  0.18338705  0.38460135  1
  O  O32  1  0.50176630  0.88287953  0.68360063  1
  O  O33  1  0.94366757  0.08959698  0.74218847  1
  O  O34  1  0.68360063  0.50176630  0.88287953  1
  O  O35  1  0.88287953  0.68360063  0.50176630  1
