# generated using pymatgen
data_Li2VF6
_symmetry_space_group_name_H-M   'P 1'
_cell_length_a   8.70872895
_cell_length_b   8.76330554
_cell_length_c   4.53017552
_cell_angle_alpha   89.66749416
_cell_angle_beta   90.00000000
_cell_angle_gamma   119.79420101
_symmetry_Int_Tables_number   1
_chemical_formula_structural   Li2VF6
_chemical_formula_sum   'Li6 V3 F18'
_cell_volume   300.02370708
_cell_formula_units_Z   3
loop_
 _symmetry_equiv_pos_site_id
 _symmetry_equiv_pos_as_xyz
  1  'x, y, z'
loop_
 _atom_site_type_symbol
 _atom_site_label
 _atom_site_symmetry_multiplicity
 _atom_site_fract_x
 _atom_site_fract_y
 _atom_site_fract_z
 _atom_site_occupancy
  Li  Li0  1  0.99802792  0.65538772  0.00217191  1
  Li  Li1  1  0.00198120  0.34465193  0.99822664  1
  Li  Li2  1  0.34264120  0.34461228  0.99782809  1
  Li  Li3  1  0.34489850  0.00000000  1.00000000  1
  Li  Li4  1  0.65732927  0.65534807  0.00177336  1
  Li  Li5  1  0.65501785  1.00000000  0.00000000  1
  V  V6  1  0.33327959  0.66683479  0.49748361  1
  V  V7  1  0.00053123  0.00000000  1.00000000  1
  V  V8  1  0.66644480  0.33316521  0.50251639  1
  F  F9  1  0.10649249  0.89374921  0.21389819  1
  F  F10  1  0.13040950  0.56405783  0.25374094  1
  F  F11  1  0.23365706  0.76771695  0.73627617  1
  F  F12  1  0.10643186  0.21290881  0.21184009  1
  F  F13  1  0.23102079  0.46204968  0.74078171  1
  F  F14  1  0.43671837  0.87338137  0.24940027  1
  F  F15  1  0.21274429  0.10625079  0.78610181  1
  F  F16  1  0.53428016  0.76790422  0.73645859  1
  F  F17  1  0.43368109  0.56415917  0.25371502  1
  F  F18  1  0.56635167  0.43594217  0.74625906  1
  F  F19  1  0.46594011  0.23228305  0.26372383  1
  F  F20  1  0.78695552  0.89362000  0.21419310  1
  F  F21  1  0.56333701  0.12661863  0.75059973  1
  F  F22  1  0.89352305  0.78709119  0.78815991  1
  F  F23  1  0.76897111  0.53795032  0.25921829  1
  F  F24  1  0.76637594  0.23209578  0.26354141  1
  F  F25  1  0.86952192  0.43584083  0.74628498  1
  F  F26  1  0.89333552  0.10638000  0.78580690  1
