# generated using pymatgen
data_SbH3CSCl6O
_symmetry_space_group_name_H-M   'P 1'
_cell_length_a   6.77427498
_cell_length_b   9.34652980
_cell_length_c   20.16560937
_cell_angle_alpha   90.00000000
_cell_angle_beta   90.00000000
_cell_angle_gamma   99.41004395
_symmetry_Int_Tables_number   1
_chemical_formula_structural   SbH3CSCl6O
_chemical_formula_sum   'Sb4 H12 C4 S4 Cl24 O4'
_cell_volume   1259.62366989
_cell_formula_units_Z   4
loop_
 _symmetry_equiv_pos_site_id
 _symmetry_equiv_pos_as_xyz
  1  'x, y, z'
loop_
 _atom_site_type_symbol
 _atom_site_label
 _atom_site_symmetry_multiplicity
 _atom_site_fract_x
 _atom_site_fract_y
 _atom_site_fract_z
 _atom_site_occupancy
  Sb  Sb0  1  0.66433383  0.71472695  0.37451365  1
  Sb  Sb1  1  0.83566617  0.78527305  0.87451365  1
  Sb  Sb2  1  0.33566617  0.28527305  0.62548635  1
  Sb  Sb3  1  0.16433383  0.21472695  0.12548635  1
  H  H4  1  0.25390158  0.29284453  0.86274701  1
  H  H5  1  0.66987415  0.63093383  0.05669260  1
  H  H6  1  0.24609842  0.20715547  0.36274701  1
  H  H7  1  0.22072513  0.47621176  0.88240884  1
  H  H8  1  0.83012585  0.86906617  0.55669260  1
  H  H9  1  0.74609842  0.70715547  0.13725299  1
  H  H10  1  0.75390158  0.79284453  0.63725299  1
  H  H11  1  0.77927487  0.52378824  0.11759116  1
  H  H12  1  0.72072513  0.97621176  0.61759116  1
  H  H13  1  0.16987415  0.13093383  0.44330740  1
  H  H14  1  0.27927487  0.02378824  0.38240884  1
  H  H15  1  0.33012585  0.36906617  0.94330740  1
  C  C16  1  0.68646193  0.60842442  0.10958279  1
  C  C17  1  0.81353807  0.89157558  0.60958279  1
  C  C18  1  0.18646193  0.10842442  0.39041721  1
  C  C19  1  0.31353807  0.39157558  0.89041721  1
  S  S20  1  0.94773646  0.03760785  0.35555548  1
  S  S21  1  0.44773646  0.53760785  0.14444452  1
  S  S22  1  0.05226354  0.96239215  0.64444452  1
  S  S23  1  0.55226354  0.46239215  0.85555548  1
  Cl  Cl24  1  0.45263474  0.49830251  0.34351634  1
  Cl  Cl25  1  0.54736526  0.50169749  0.65648366  1
  Cl  Cl26  1  0.97232867  0.64045886  0.79337627  1
  Cl  Cl27  1  0.83515376  0.60887628  0.45923020  1
  Cl  Cl28  1  0.02767133  0.35954114  0.20662373  1
  Cl  Cl29  1  0.80288743  0.20878895  0.37641149  1
  Cl  Cl30  1  0.47232867  0.14045886  0.70662373  1
  Cl  Cl31  1  0.44134460  0.78570242  0.45477578  1
  Cl  Cl32  1  0.52767133  0.85954114  0.29337627  1
  Cl  Cl33  1  0.92006151  0.68264274  0.29659893  1
  Cl  Cl34  1  0.16484624  0.39112372  0.54076980  1
  Cl  Cl35  1  0.19711257  0.79121105  0.62358851  1
  Cl  Cl36  1  0.07993849  0.31735726  0.70340107  1
  Cl  Cl37  1  0.05865540  0.71429758  0.95477578  1
  Cl  Cl38  1  0.57993849  0.81735726  0.79659893  1
  Cl  Cl39  1  0.95263474  0.99830251  0.15648366  1
  Cl  Cl40  1  0.55865540  0.21429758  0.54522422  1
  Cl  Cl41  1  0.42006151  0.18264274  0.20340107  1
  Cl  Cl42  1  0.33515376  0.10887628  0.04076980  1
  Cl  Cl43  1  0.30288743  0.70878895  0.12358851  1
  Cl  Cl44  1  0.04736526  0.00169749  0.84351634  1
  Cl  Cl45  1  0.66484624  0.89112372  0.95923020  1
  Cl  Cl46  1  0.69711257  0.29121105  0.87641149  1
  Cl  Cl47  1  0.94134460  0.28570242  0.04522422  1
  O  O48  1  0.63063238  0.58277682  0.90529961  1
  O  O49  1  0.36936762  0.41722318  0.09470039  1
  O  O50  1  0.86936762  0.91722318  0.40529961  1
  O  O51  1  0.13063238  0.08277682  0.59470039  1
