# generated using pymatgen
data_V3O5F
_symmetry_space_group_name_H-M   'P 1'
_cell_length_a   4.66818168
_cell_length_b   13.98185502
_cell_length_c   2.97048884
_cell_angle_alpha   90.00000000
_cell_angle_beta   90.00000000
_cell_angle_gamma   92.52618889
_symmetry_Int_Tables_number   1
_chemical_formula_structural   V3O5F
_chemical_formula_sum   'V6 O10 F2'
_cell_volume   193.69490999
_cell_formula_units_Z   2
loop_
 _symmetry_equiv_pos_site_id
 _symmetry_equiv_pos_as_xyz
  1  'x, y, z'
loop_
 _atom_site_type_symbol
 _atom_site_label
 _atom_site_symmetry_multiplicity
 _atom_site_fract_x
 _atom_site_fract_y
 _atom_site_fract_z
 _atom_site_occupancy
  V  V0  1  0.00000000  0.00000000  0.00000000  1
  V  V1  1  0.97903510  0.34251976  0.00000000  1
  V  V2  1  0.02096490  0.65748024  0.00000000  1
  V  V3  1  0.52659384  0.15905706  0.50000000  1
  V  V4  1  0.50000000  0.50000000  0.50000000  1
  V  V5  1  0.47340616  0.84094294  0.50000000  1
  O  O6  1  0.20140179  0.59992721  0.50000000  1
  O  O7  1  0.19754589  0.93450967  0.50000000  1
  O  O8  1  0.30395577  0.10208416  0.00000000  1
  O  O9  1  0.29211147  0.76483276  0.00000000  1
  O  O10  1  0.29190701  0.43042651  0.00000000  1
  O  O11  1  0.70788853  0.23516724  0.00000000  1
  O  O12  1  0.70809299  0.56957349  0.00000000  1
  O  O13  1  0.69604423  0.89791584  0.00000000  1
  O  O14  1  0.80245411  0.06549033  0.50000000  1
  O  O15  1  0.79859821  0.40007279  0.50000000  1
  F  F16  1  0.19324608  0.26848749  0.50000000  1
  F  F17  1  0.80675392  0.73151251  0.50000000  1
