# generated using pymatgen
data_Li2Cr2(PO4)3
_symmetry_space_group_name_H-M   'P 1'
_cell_length_a   8.63498439
_cell_length_b   8.69399176
_cell_length_c   8.63498474
_cell_angle_alpha   59.68722742
_cell_angle_beta   60.31840052
_cell_angle_gamma   59.68722659
_symmetry_Int_Tables_number   1
_chemical_formula_structural   Li2Cr2(PO4)3
_chemical_formula_sum   'Li4 Cr4 P6 O24'
_cell_volume   457.27981664
_cell_formula_units_Z   2
loop_
 _symmetry_equiv_pos_site_id
 _symmetry_equiv_pos_as_xyz
  1  'x, y, z'
loop_
 _atom_site_type_symbol
 _atom_site_label
 _atom_site_symmetry_multiplicity
 _atom_site_fract_x
 _atom_site_fract_y
 _atom_site_fract_z
 _atom_site_occupancy
  Li  Li0  1  0.32369792  0.44843879  0.67500473  1
  Li  Li1  1  0.82499527  0.05156121  0.17630208  1
  Li  Li2  1  0.17500473  0.94843879  0.82369792  1
  Li  Li3  1  0.67630208  0.55156121  0.32499527  1
  Cr  Cr4  1  0.13895341  0.14337700  0.13889432  1
  Cr  Cr5  1  0.36110568  0.35662300  0.36104659  1
  Cr  Cr6  1  0.63889432  0.64337700  0.63895341  1
  Cr  Cr7  1  0.86104659  0.85662300  0.86110568  1
  P  P8  1  0.03418430  0.75000000  0.46581570  1
  P  P9  1  0.96581570  0.25000000  0.53418430  1
  P  P10  1  0.46149117  0.03340129  0.75308303  1
  P  P11  1  0.74691697  0.46659871  0.03850883  1
  P  P12  1  0.25308303  0.53340129  0.96149117  1
  P  P13  1  0.53850883  0.96659871  0.24691697  1
  O  O14  1  0.13424496  0.28779434  0.50818522  1
  O  O15  1  0.29993952  0.49394227  0.12834071  1
  O  O16  1  0.04863830  0.92108041  0.27770333  1
  O  O17  1  0.52753085  0.11961456  0.29642792  1
  O  O18  1  0.00818522  0.78779434  0.63424496  1
  O  O19  1  0.22229667  0.57891959  0.45136170  1
  O  O20  1  0.26978857  0.05531327  0.91848950  1
  O  O21  1  0.43797285  0.22953632  0.59100709  1
  O  O22  1  0.58151050  0.44468673  0.23021143  1
  O  O23  1  0.20357208  0.38038544  0.97246915  1
  O  O24  1  0.09100709  0.72953632  0.93797285  1
  O  O25  1  0.37165929  0.00605773  0.20006048  1
  O  O26  1  0.62834071  0.99394227  0.79993952  1
  O  O27  1  0.90899291  0.27046368  0.06202715  1
  O  O28  1  0.79642792  0.61961456  0.02753085  1
  O  O29  1  0.41848950  0.55531327  0.76978857  1
  O  O30  1  0.56202715  0.77046368  0.40899291  1
  O  O31  1  0.73021143  0.94468673  0.08151050  1
  O  O32  1  0.77770333  0.42108041  0.54863830  1
  O  O33  1  0.99181478  0.21220566  0.36575504  1
  O  O34  1  0.47246915  0.88038544  0.70357208  1
  O  O35  1  0.95136170  0.07891959  0.72229667  1
  O  O36  1  0.70006048  0.50605773  0.87165929  1
  O  O37  1  0.86575504  0.71220566  0.49181478  1
