# generated using pymatgen
data_Li4Ti5Fe3O16
_symmetry_space_group_name_H-M   'P 1'
_cell_length_a   5.98476573
_cell_length_b   5.93942457
_cell_length_c   9.62887192
_cell_angle_alpha   89.99188238
_cell_angle_beta   90.07666429
_cell_angle_gamma   119.74742140
_symmetry_Int_Tables_number   1
_chemical_formula_structural   Li4Ti5Fe3O16
_chemical_formula_sum   'Li4 Ti5 Fe3 O16'
_cell_volume   297.16443268
_cell_formula_units_Z   1
loop_
 _symmetry_equiv_pos_site_id
 _symmetry_equiv_pos_as_xyz
  1  'x, y, z'
loop_
 _atom_site_type_symbol
 _atom_site_label
 _atom_site_symmetry_multiplicity
 _atom_site_fract_x
 _atom_site_fract_y
 _atom_site_fract_z
 _atom_site_occupancy
  Li  Li0  1  0.32325143  0.66162988  0.89748295  1
  Li  Li1  1  0.99836531  0.99921459  0.99298277  1
  Li  Li2  1  0.00570881  0.00294302  0.49323711  1
  Li  Li3  1  0.66478496  0.33240051  0.39865996  1
  Ti  Ti4  1  0.35245984  0.17624207  0.72933910  1
  Ti  Ti5  1  0.18880211  0.84007420  0.22063779  1
  Ti  Ti6  1  0.33328705  0.66667608  0.49983334  1
  Ti  Ti7  1  0.18876036  0.34876937  0.22067624  1
  Ti  Ti8  1  0.69364149  0.34687883  0.99754913  1
  Fe  Fe9  1  0.65838342  0.82922541  0.21091694  1
  Fe  Fe10  1  0.83186432  0.65991707  0.71013673  1
  Fe  Fe11  1  0.83183311  0.17190550  0.71016988  1
  O  O12  1  0.16698754  0.82697676  0.59475608  1
  O  O13  1  0.03713684  0.51855941  0.33573381  1
  O  O14  1  0.30713751  0.65361668  0.10328875  1
  O  O15  1  0.01615746  0.00803321  0.30481079  1
  O  O16  1  0.00575316  0.00282165  0.80405485  1
  O  O17  1  0.16699542  0.34002640  0.59476389  1
  O  O18  1  0.46236017  0.95799684  0.34638226  1
  O  O19  1  0.46243411  0.50449120  0.34634150  1
  O  O20  1  0.33844070  0.16920105  0.09915175  1
  O  O21  1  0.66284293  0.83142214  0.59076473  1
  O  O22  1  0.50851224  0.47579253  0.83910491  1
  O  O23  1  0.50851926  0.03267860  0.83908852  1
  O  O24  1  0.64984884  0.32495337  0.60406196  1
  O  O25  1  0.84231939  0.66207427  0.09057159  1
  O  O26  1  0.95119229  0.47557322  0.84275689  1
  O  O27  1  0.84221693  0.18020712  0.09058578  1
