# generated using pymatgen
data_Li3Nb3P8O29
_symmetry_space_group_name_H-M   'P 1'
_cell_length_a   10.03787288
_cell_length_b   10.03790003
_cell_length_c   14.08451853
_cell_angle_alpha   89.79949209
_cell_angle_beta   89.79928639
_cell_angle_gamma   60.00397985
_symmetry_Int_Tables_number   1
_chemical_formula_structural   Li3Nb3P8O29
_chemical_formula_sum   'Li6 Nb6 P16 O58'
_cell_volume   1229.05427131
_cell_formula_units_Z   2
loop_
 _symmetry_equiv_pos_site_id
 _symmetry_equiv_pos_as_xyz
  1  'x, y, z'
loop_
 _atom_site_type_symbol
 _atom_site_label
 _atom_site_symmetry_multiplicity
 _atom_site_fract_x
 _atom_site_fract_y
 _atom_site_fract_z
 _atom_site_occupancy
  Li  Li0  1  0.99999604  0.00000510  0.49999907  1
  Li  Li1  1  0.99999806  0.00000510  0.00000097  1
  Li  Li2  1  0.09494682  0.67410122  0.05557248  1
  Li  Li3  1  0.67409940  0.09495542  0.55557135  1
  Li  Li4  1  0.32590065  0.90505420  0.44442674  1
  Li  Li5  1  0.90505648  0.32590260  0.94442878  1
  Nb  Nb6  1  0.00181494  0.43279639  0.74122841  1
  Nb  Nb7  1  0.99819315  0.56720187  0.25877423  1
  Nb  Nb8  1  0.43279545  0.00180917  0.24122612  1
  Nb  Nb9  1  0.56720619  0.99819227  0.75877424  1
  Nb  Nb10  1  0.43293696  0.56707152  0.75000032  1
  Nb  Nb11  1  0.56706869  0.43292911  0.25000027  1
  P  P12  1  0.08319699  0.21793388  0.34400181  1
  P  P13  1  0.21793886  0.08319955  0.84399540  1
  P  P14  1  0.08047778  0.68974693  0.84368834  1
  P  P15  1  0.32840574  0.34099334  0.12391706  1
  P  P16  1  0.34100071  0.32840402  0.62392246  1
  P  P17  1  0.22640989  0.69652836  0.34552576  1
  P  P18  1  0.30347417  0.77358682  0.15446798  1
  P  P19  1  0.68974197  0.08047413  0.34368499  1
  P  P20  1  0.31026332  0.91952324  0.65631687  1
  P  P21  1  0.69653358  0.22640978  0.84552875  1
  P  P22  1  0.77359389  0.30348018  0.65447667  1
  P  P23  1  0.67160211  0.65900614  0.87608604  1
  P  P24  1  0.65900587  0.67159751  0.37608369  1
  P  P25  1  0.91952879  0.31025292  0.15631087  1
  P  P26  1  0.78206620  0.91680194  0.15599866  1
  P  P27  1  0.91680584  0.78206554  0.65599898  1
  O  O28  1  0.01163099  0.20082024  0.24428750  1
  O  O29  1  0.98961539  0.23181590  0.06521671  1
  O  O30  1  0.08505793  0.25496942  0.83729047  1
  O  O31  1  0.20082225  0.01162894  0.74428328  1
  O  O32  1  0.23180806  0.98961765  0.56520558  1
  O  O33  1  0.25496946  0.08505311  0.33729351  1
  O  O34  1  0.08368947  0.37360825  0.33295690  1
  O  O35  1  0.19356102  0.33192273  0.66970380  1
  O  O36  1  0.08245109  0.53622660  0.82709996  1
  O  O37  1  0.99920942  0.79737016  0.57373803  1
  O  O38  1  0.98837218  0.79917997  0.75571514  1
  O  O39  1  0.09353763  0.65885707  0.33928026  1
  O  O40  1  0.33192810  0.19355525  0.16970653  1
  O  O41  1  0.37361380  0.08368406  0.83295575  1
  O  O42  1  0.18287839  0.48412653  0.16944850  1
  O  O43  1  0.32496542  0.34510712  0.01915320  1
  O  O44  1  0.34512348  0.32495531  0.51915650  1
  O  O45  1  0.34067105  0.46963495  0.67229609  1
  O  O46  1  0.53622855  0.08244434  0.32710172  1
  O  O47  1  0.48413257  0.18288184  0.66945528  1
  O  O48  1  0.24867845  0.65634189  0.83186651  1
  O  O49  1  0.20596561  0.79403262  0.24999683  1
  O  O50  1  0.20489734  0.78469646  0.07304892  1
  O  O51  1  0.21530772  0.79510460  0.42694675  1
  O  O52  1  0.37906526  0.54257819  0.33403241  1
  O  O53  1  0.46963576  0.34066644  0.17229399  1
  O  O54  1  0.34367477  0.75132232  0.66812976  1
  O  O55  1  0.54258016  0.37906757  0.83403520  1
  O  O56  1  0.65886072  0.09353678  0.83928255  1
  O  O57  1  0.20263358  0.00079124  0.92626155  1
  O  O58  1  0.79736969  0.99919656  0.07373972  1
  O  O59  1  0.79918014  0.98836776  0.25571744  1
  O  O60  1  0.34114299  0.90646423  0.16072066  1
  O  O61  1  0.45742824  0.62093277  0.16596139  1
  O  O62  1  0.65633378  0.24867556  0.33186828  1
  O  O63  1  0.53036851  0.65933580  0.82770956  1
  O  O64  1  0.62094695  0.45742226  0.66596806  1
  O  O65  1  0.78469791  0.20489568  0.57304448  1
  O  O66  1  0.79511107  0.21530738  0.92694336  1
  O  O67  1  0.79403706  0.20596187  0.74999593  1
  O  O68  1  0.75132268  0.34366362  0.16813444  1
  O  O69  1  0.51587431  0.81712539  0.33055072  1
  O  O70  1  0.46377007  0.91756155  0.67289765  1
  O  O71  1  0.65933164  0.53036922  0.32770277  1
  O  O72  1  0.67505904  0.65487796  0.98084600  1
  O  O73  1  0.65488720  0.67503809  0.48084415  1
  O  O74  1  0.81712781  0.51587460  0.83054693  1
  O  O75  1  0.62638559  0.91631592  0.16704407  1
  O  O76  1  0.66807428  0.80644694  0.83029822  1
  O  O77  1  0.90647311  0.34113670  0.66072058  1
  O  O78  1  0.00079335  0.20263405  0.42626200  1
  O  O79  1  0.91755735  0.46377332  0.17290122  1
  O  O80  1  0.80644684  0.66807348  0.33029662  1
  O  O81  1  0.91632097  0.62638687  0.66704101  1
  O  O82  1  0.74503362  0.91494207  0.66270665  1
  O  O83  1  0.76819162  0.01038298  0.43479229  1
  O  O84  1  0.91494343  0.74502612  0.16271009  1
  O  O85  1  0.01038258  0.76818446  0.93479026  1
