# generated using pymatgen
data_Li5Cu(PO4)2
_symmetry_space_group_name_H-M   'P 1'
_cell_length_a   6.15457625
_cell_length_b   5.38363093
_cell_length_c   9.98142735
_cell_angle_alpha   89.89632408
_cell_angle_beta   90.00000000
_cell_angle_gamma   90.00000000
_symmetry_Int_Tables_number   1
_chemical_formula_structural   Li5Cu(PO4)2
_chemical_formula_sum   'Li10 Cu2 P4 O16'
_cell_volume   330.72374393
_cell_formula_units_Z   2
loop_
 _symmetry_equiv_pos_site_id
 _symmetry_equiv_pos_as_xyz
  1  'x, y, z'
loop_
 _atom_site_type_symbol
 _atom_site_label
 _atom_site_symmetry_multiplicity
 _atom_site_fract_x
 _atom_site_fract_y
 _atom_site_fract_z
 _atom_site_occupancy
  Li  Li0  1  0.00000000  0.15273865  0.74264117  1
  Li  Li1  1  0.00000000  0.15326874  0.24723436  1
  Li  Li2  1  0.24528733  0.32605336  0.49518848  1
  Li  Li3  1  0.25159310  0.67564252  0.24790220  1
  Li  Li4  1  0.25430015  0.67158471  0.74279452  1
  Li  Li5  1  0.50000000  0.84884409  0.99746316  1
  Li  Li6  1  0.50000000  0.84234636  0.49571098  1
  Li  Li7  1  0.74569985  0.67158471  0.74279452  1
  Li  Li8  1  0.74840690  0.67564252  0.24790220  1
  Li  Li9  1  0.75471267  0.32605336  0.49518848  1
  Cu  Cu10  1  0.24592437  0.34057254  0.00519488  1
  Cu  Cu11  1  0.75407563  0.34057254  0.00519488  1
  P  P12  1  0.00000000  0.82549342  0.99669332  1
  P  P13  1  0.00000000  0.82374854  0.49914804  1
  P  P14  1  0.50000000  0.17194846  0.25768008  1
  P  P15  1  0.50000000  0.16961134  0.74180444  1
  O  O16  1  0.00000000  0.81723398  0.65512057  1
  O  O17  1  0.00000000  0.09867420  0.44911649  1
  O  O18  1  0.00000000  0.82519161  0.15233883  1
  O  O19  1  0.00000000  0.09485748  0.93877250  1
  O  O20  1  0.20705989  0.68711379  0.44630581  1
  O  O21  1  0.21018984  0.69747350  0.94189902  1
  O  O22  1  0.29118275  0.31416001  0.21090510  1
  O  O23  1  0.29289109  0.31005573  0.69226316  1
  O  O24  1  0.50000000  0.16086725  0.89826915  1
  O  O25  1  0.50000000  0.89611967  0.69032489  1
  O  O26  1  0.50000000  0.17168021  0.41317946  1
  O  O27  1  0.50000000  0.90206065  0.20218722  1
  O  O28  1  0.70710891  0.31005573  0.69226316  1
  O  O29  1  0.70881725  0.31416001  0.21090510  1
  O  O30  1  0.79294011  0.68711379  0.44630581  1
  O  O31  1  0.78981016  0.69747350  0.94189902  1
