# generated using pymatgen
data_Li4Cr(WO4)3
_symmetry_space_group_name_H-M   'P 1'
_cell_length_a   5.47844482
_cell_length_b   10.89552223
_cell_length_c   9.60979795
_cell_angle_alpha   28.39934284
_cell_angle_beta   51.19748252
_cell_angle_gamma   56.40916854
_symmetry_Int_Tables_number   1
_chemical_formula_structural   Li4Cr(WO4)3
_chemical_formula_sum   'Li4 Cr1 W3 O12'
_cell_volume   212.60735866
_cell_formula_units_Z   1
loop_
 _symmetry_equiv_pos_site_id
 _symmetry_equiv_pos_as_xyz
  1  'x, y, z'
loop_
 _atom_site_type_symbol
 _atom_site_label
 _atom_site_symmetry_multiplicity
 _atom_site_fract_x
 _atom_site_fract_y
 _atom_site_fract_z
 _atom_site_occupancy
  Li  Li0  1  0.25557470  0.99759025  0.30569467  1
  Li  Li1  1  0.30842189  0.50401077  0.26635436  1
  Li  Li2  1  0.76826934  0.00459445  0.74220084  1
  Li  Li3  1  0.77246371  0.49215413  0.80780566  1
  Cr  Cr4  1  0.00334699  0.50077992  0.99709132  1
  W  W5  1  0.99255750  0.99710228  0.00863760  1
  W  W6  1  0.49209993  0.00405949  0.50189528  1
  W  W7  1  0.50361157  0.50086640  0.49847007  1
  O  O8  1  0.36984222  0.29330828  0.14253762  1
  O  O9  1  0.24066614  0.12409334  0.62769223  1
  O  O10  1  0.11779446  0.30560482  0.75220419  1
  O  O11  1  0.85274993  0.19354632  0.24408211  1
  O  O12  1  0.37057520  0.81795087  0.11125296  1
  O  O13  1  0.72546412  0.38678583  0.36964449  1
  O  O14  1  0.24863302  0.61605601  0.62480849  1
  O  O15  1  0.63134347  0.17581961  0.88358408  1
  O  O16  1  0.14632620  0.81843681  0.72877581  1
  O  O17  1  0.88807739  0.69500520  0.23611505  1
  O  O18  1  0.75031474  0.87346346  0.37148964  1
  O  O19  1  0.63306846  0.69877276  0.85086453  1
