# generated using pymatgen
data_PH8C2SNO2
_symmetry_space_group_name_H-M   'P 1'
_cell_length_a   5.51366595
_cell_length_b   9.57156136
_cell_length_c   14.03741328
_cell_angle_alpha   90.00000000
_cell_angle_beta   99.54955530
_cell_angle_gamma   90.00000000
_symmetry_Int_Tables_number   1
_chemical_formula_structural   PH8C2SNO2
_chemical_formula_sum   'P4 H32 C8 S4 N4 O8'
_cell_volume   730.55008079
_cell_formula_units_Z   4
loop_
 _symmetry_equiv_pos_site_id
 _symmetry_equiv_pos_as_xyz
  1  'x, y, z'
loop_
 _atom_site_type_symbol
 _atom_site_label
 _atom_site_symmetry_multiplicity
 _atom_site_fract_x
 _atom_site_fract_y
 _atom_site_fract_z
 _atom_site_occupancy
  P  P0  1  0.53539086  0.85964984  0.63300319  1
  P  P1  1  0.96460914  0.35964984  0.86699681  1
  P  P2  1  0.46460914  0.14035016  0.36699681  1
  P  P3  1  0.03539086  0.64035016  0.13300319  1
  H  H4  1  0.81648500  0.15995490  0.70089723  1
  H  H5  1  0.18430560  0.69948247  0.38374231  1
  H  H6  1  0.31569440  0.19948247  0.11625769  1
  H  H7  1  0.68430560  0.80051753  0.88374231  1
  H  H8  1  0.30028888  0.98936393  0.91046508  1
  H  H9  1  0.12163020  0.92700468  0.61441041  1
  H  H10  1  0.87836980  0.07299532  0.38558959  1
  H  H11  1  0.81569440  0.30051753  0.61625769  1
  H  H12  1  0.62163020  0.57299532  0.11441041  1
  H  H13  1  0.80028888  0.51063607  0.41046508  1
  H  H14  1  0.31648500  0.34004510  0.20089723  1
  H  H15  1  0.60611389  0.30389227  0.70059948  1
  H  H16  1  0.27307130  0.99194729  0.52701270  1
  H  H17  1  0.07797069  0.66307216  0.58050075  1
  H  H18  1  0.76326854  0.40189962  0.30592065  1
  H  H19  1  0.77307130  0.50805271  0.02701270  1
  H  H20  1  0.89388611  0.80389227  0.79940052  1
  H  H21  1  0.22692870  0.49194729  0.97298730  1
  H  H22  1  0.72692870  0.00805271  0.47298730  1
  H  H23  1  0.42202931  0.16307216  0.91949925  1
  H  H24  1  0.57797069  0.83692784  0.08050075  1
  H  H25  1  0.68351500  0.65995490  0.79910277  1
  H  H26  1  0.18351500  0.84004510  0.29910277  1
  H  H27  1  0.39388611  0.69610773  0.29940052  1
  H  H28  1  0.73673146  0.90189962  0.19407935  1
  H  H29  1  0.23673146  0.59810038  0.69407935  1
  H  H30  1  0.92202931  0.33692784  0.41949925  1
  H  H31  1  0.37836980  0.42700468  0.88558959  1
  H  H32  1  0.19971112  0.48936393  0.58953492  1
  H  H33  1  0.10611389  0.19610773  0.20059948  1
  H  H34  1  0.69971112  0.01063607  0.08953492  1
  H  H35  1  0.26326854  0.09810038  0.80592065  1
  C  C36  1  0.27074091  0.09700470  0.88438228  1
  C  C37  1  0.20866971  0.72712019  0.31026317  1
  C  C38  1  0.79133029  0.27287981  0.68973683  1
  C  C39  1  0.72925909  0.90299530  0.11561772  1
  C  C40  1  0.70866971  0.77287981  0.81026317  1
  C  C41  1  0.77074091  0.40299530  0.38438228  1
  C  C42  1  0.29133029  0.22712019  0.18973683  1
  C  C43  1  0.22925909  0.59700470  0.61561772  1
  S  S44  1  0.51952703  0.65298342  0.58264124  1
  S  S45  1  0.48047297  0.34701658  0.41735876  1
  S  S46  1  0.01952703  0.84701658  0.08264124  1
  S  S47  1  0.98047297  0.15298342  0.91735876  1
  N  N48  1  0.71118551  0.04790478  0.40418819  1
  N  N49  1  0.21118551  0.45209522  0.90418819  1
  N  N50  1  0.78881449  0.54790478  0.09581181  1
  N  N51  1  0.28881449  0.95209522  0.59581181  1
  O  O52  1  0.02348281  0.64907087  0.24602543  1
  O  O53  1  0.97651719  0.35092913  0.75397457  1
  O  O54  1  0.26362292  0.57890836  0.10507059  1
  O  O55  1  0.23637708  0.07890836  0.39492941  1
  O  O56  1  0.73637708  0.42109164  0.89492941  1
  O  O57  1  0.52348281  0.85092913  0.74602543  1
  O  O58  1  0.76362292  0.92109164  0.60507059  1
  O  O59  1  0.47651719  0.14907087  0.25397457  1
