# generated using pymatgen
data_Li6MnV3(PO4)6
_symmetry_space_group_name_H-M   'P 1'
_cell_length_a   9.04514154
_cell_length_b   8.48287034
_cell_length_c   8.48287015
_cell_angle_alpha   119.99999600
_cell_angle_beta   89.99999975
_cell_angle_gamma   62.03587328
_symmetry_Int_Tables_number   1
_chemical_formula_structural   Li6MnV3(PO4)6
_chemical_formula_sum   'Li6 Mn1 V3 P6 O24'
_cell_volume   473.89945372
_cell_formula_units_Z   1
loop_
 _symmetry_equiv_pos_site_id
 _symmetry_equiv_pos_as_xyz
  1  'x, y, z'
loop_
 _atom_site_type_symbol
 _atom_site_label
 _atom_site_symmetry_multiplicity
 _atom_site_fract_x
 _atom_site_fract_y
 _atom_site_fract_z
 _atom_site_occupancy
  Li  Li0  1  0.14931484  0.18914714  0.92208636  1
  Li  Li1  1  0.14931484  0.58362438  0.66153902  1
  Li  Li2  1  0.14931484  0.92859980  0.26706078  1
  Li  Li3  1  0.85191303  0.07230680  0.74113689  1
  Li  Li4  1  0.85191303  0.40695008  0.33116991  1
  Li  Li5  1  0.85191303  0.81691706  0.07578017  1
  Mn  Mn6  1  0.56234724  0.29176884  0.14588392  1
  V  V7  1  0.04583525  0.30277650  0.65138825  1
  V  V8  1  0.43839575  0.70773616  0.85386808  1
  V  V9  1  0.95300919  0.69799321  0.34899660  1
  P  P10  1  0.25053109  0.20701256  0.24915851  1
  P  P11  1  0.25053109  0.50031040  0.95785405  1
  P  P12  1  0.25053109  0.79161486  0.54245635  1
  P  P13  1  0.75082205  0.20791002  0.46223741  1
  P  P14  1  0.75082205  0.50350434  0.04126693  1
  P  P15  1  0.75082205  0.78694054  0.74567261  1
  O  O16  1  0.09748136  0.36348344  0.20850678  1
  O  O17  1  0.18959756  0.29584790  0.46398739  1
  O  O18  1  0.18959756  0.34641605  0.83186051  1
  O  O19  1  0.09748136  0.69401186  0.15497665  1
  O  O20  1  0.09748136  0.74754199  0.53903520  1
  O  O21  1  0.41965020  0.18726284  0.20137996  1
  O  O22  1  0.26519014  0.61391410  0.86423991  1
  O  O23  1  0.41965020  0.37896984  0.98588287  1
  O  O24  1  0.18959756  0.97854192  0.51455554  1
  O  O25  1  0.26519014  0.87056994  0.74967519  1
  O  O26  1  0.41965020  0.59446693  0.39308696  1
  O  O27  1  0.26519014  0.98513467  0.12089476  1
  O  O28  1  0.73853352  0.00192131  0.86807940  1
  O  O29  1  0.57925065  0.41781266  0.61726329  1
  O  O30  1  0.73853352  0.12762357  0.25954417  1
  O  O31  1  0.80562487  0.02908911  0.49910387  1
  O  O32  1  0.57925065  0.62019898  0.00293670  1
  O  O33  1  0.73853352  0.39338708  0.13384191  1
  O  O34  1  0.57925065  0.80348607  0.80054937  1
  O  O35  1  0.90222755  0.25351293  0.46735874  1
  O  O36  1  0.90222755  0.31161726  0.84425852  1
  O  O37  1  0.80562487  0.66438989  0.16528602  1
  O  O38  1  0.80562487  0.69527125  0.52998524  1
  O  O39  1  0.90222755  0.63041371  0.78615519  1
