# generated using pymatgen
data_LiV4OF11
_symmetry_space_group_name_H-M   'P 1'
_cell_length_a   5.48826424
_cell_length_b   9.28587535
_cell_length_c   9.27606641
_cell_angle_alpha   68.79398386
_cell_angle_beta   86.44090954
_cell_angle_gamma   87.42428665
_symmetry_Int_Tables_number   1
_chemical_formula_structural   LiV4OF11
_chemical_formula_sum   'Li2 V8 O2 F22'
_cell_volume   439.74967891
_cell_formula_units_Z   2
loop_
 _symmetry_equiv_pos_site_id
 _symmetry_equiv_pos_as_xyz
  1  'x, y, z'
loop_
 _atom_site_type_symbol
 _atom_site_label
 _atom_site_symmetry_multiplicity
 _atom_site_fract_x
 _atom_site_fract_y
 _atom_site_fract_z
 _atom_site_occupancy
  Li  Li0  1  0.55021255  0.12726451  0.13357365  1
  Li  Li1  1  0.96384851  0.60877801  0.11539222  1
  V  V2  1  0.50536205  0.99914580  0.50155734  1
  V  V3  1  0.49803487  0.24651051  0.75004021  1
  V  V4  1  0.01450228  0.26099306  0.24461606  1
  V  V5  1  0.47692354  0.49813821  0.00487169  1
  V  V6  1  0.00624351  0.49874487  0.50064241  1
  V  V7  1  0.99815649  0.74751244  0.74792419  1
  V  V8  1  0.50940578  0.76208455  0.24427565  1
  V  V9  1  0.98122009  0.99545775  0.00608627  1
  O  O10  1  0.18947591  0.43406212  0.12441248  1
  O  O11  1  0.69417778  0.93208484  0.12543226  1
  F  F12  1  0.98251509  0.18010998  0.07548635  1
  F  F13  1  0.79969607  0.07662061  0.36871201  1
  F  F14  1  0.32490233  0.12269461  0.30823557  1
  F  F15  1  0.00382649  0.32115131  0.43196907  1
  F  F16  1  0.79826445  0.12543843  0.81850062  1
  F  F17  1  0.69457755  0.38110437  0.17463928  1
  F  F18  1  0.49753419  0.17574212  0.56861684  1
  F  F19  1  0.29699922  0.07356273  0.87681470  1
  F  F20  1  0.70099822  0.42440076  0.62521842  1
  F  F21  1  0.50150874  0.30518278  0.94181850  1
  F  F22  1  0.81596844  0.62132609  0.31031395  1
  F  F23  1  0.50961366  0.68018142  0.07254276  1
  F  F24  1  0.20483752  0.37515342  0.68099807  1
  F  F25  1  0.30245995  0.57627793  0.37365883  1
  F  F26  1  0.80154424  0.57284715  0.88113005  1
  F  F27  1  0.50288318  0.82352395  0.43259014  1
  F  F28  1  0.30043897  0.62554967  0.81715096  1
  F  F29  1  0.19598685  0.87724937  0.17768905  1
  F  F30  1  0.70244986  0.87381071  0.68191788  1
  F  F31  1  0.99429763  0.67625762  0.56877350  1
  F  F32  1  0.19840056  0.92617822  0.62477711  1
  F  F33  1  0.00314342  0.80416606  0.93954793  1
