# generated using pymatgen
data_V6O7F5
_symmetry_space_group_name_H-M   'P 1'
_cell_length_a   4.67792358
_cell_length_b   7.79968981
_cell_length_c   5.61981486
_cell_angle_alpha   93.62944293
_cell_angle_beta   89.96276395
_cell_angle_gamma   90.27574119
_symmetry_Int_Tables_number   1
_chemical_formula_structural   V6O7F5
_chemical_formula_sum   'V6 O7 F5'
_cell_volume   204.63291054
_cell_formula_units_Z   1
loop_
 _symmetry_equiv_pos_site_id
 _symmetry_equiv_pos_as_xyz
  1  'x, y, z'
loop_
 _atom_site_type_symbol
 _atom_site_label
 _atom_site_symmetry_multiplicity
 _atom_site_fract_x
 _atom_site_fract_y
 _atom_site_fract_z
 _atom_site_occupancy
  V  V0  1  0.54304128  0.65855046  0.17358166  1
  V  V1  1  0.48765036  0.00003651  0.50007512  1
  V  V2  1  0.51572788  0.34210341  0.82105526  1
  V  V3  1  0.97711524  0.68359861  0.66181939  1
  V  V4  1  0.97499449  0.31930226  0.35362627  1
  V  V5  1  0.99054234  0.98593561  0.99671217  1
  O  O6  1  0.80880249  0.43775840  0.62695133  1
  O  O7  1  0.80809418  0.10109472  0.29690395  1
  O  O8  1  0.79538891  0.76884715  0.96989187  1
  O  O9  1  0.69307019  0.77420047  0.46655709  1
  O  O10  1  0.71199307  0.42294372  0.13328086  1
  O  O11  1  0.29554961  0.24238671  0.53141421  1
  O  O12  1  0.19679135  0.90664348  0.70703007  1
  F  F13  1  0.69790522  0.10484551  0.79620036  1
  F  F14  1  0.30063146  0.56990077  0.86932016  1
  F  F15  1  0.30016240  0.88722359  0.19957521  1
  F  F16  1  0.20465513  0.22696077  0.03332275  1
  F  F17  1  0.19788439  0.56766784  0.36268326  1
