# generated using pymatgen
data_Ti17(NO4)6
_symmetry_space_group_name_H-M   'P 1'
_cell_length_a   10.39471822
_cell_length_b   11.47014684
_cell_length_c   10.04243957
_cell_angle_alpha   90.00000000
_cell_angle_beta   90.00000000
_cell_angle_gamma   68.41621234
_symmetry_Int_Tables_number   1
_chemical_formula_structural   Ti17(NO4)6
_chemical_formula_sum   'Ti34 N12 O48'
_cell_volume   1113.39205797
_cell_formula_units_Z   2
loop_
 _symmetry_equiv_pos_site_id
 _symmetry_equiv_pos_as_xyz
  1  'x, y, z'
loop_
 _atom_site_type_symbol
 _atom_site_label
 _atom_site_symmetry_multiplicity
 _atom_site_fract_x
 _atom_site_fract_y
 _atom_site_fract_z
 _atom_site_occupancy
  Ti  Ti0  1  0.80199728  0.89707270  0.75000000  1
  Ti  Ti1  1  0.85606849  0.87691406  0.42267116  1
  Ti  Ti2  1  0.85606849  0.87691406  0.07732884  1
  Ti  Ti3  1  0.63742168  0.78733606  0.93987329  1
  Ti  Ti4  1  0.63742168  0.78733606  0.56012671  1
  Ti  Ti5  1  0.36456212  0.87847197  0.07065443  1
  Ti  Ti6  1  0.36456212  0.87847197  0.42934557  1
  Ti  Ti7  1  0.30133960  0.89829833  0.75000000  1
  Ti  Ti8  1  0.85967207  0.55195564  0.42350793  1
  Ti  Ti9  1  0.19808371  0.76895105  0.25000000  1
  Ti  Ti10  1  0.13561619  0.78916547  0.93062195  1
  Ti  Ti11  1  0.13561619  0.78916547  0.56937805  1
  Ti  Ti12  1  0.85967207  0.55195564  0.07649207  1
  Ti  Ti13  1  0.80375756  0.56920136  0.75000000  1
  Ti  Ti14  1  0.64097370  0.45303943  0.57202155  1
  Ti  Ti15  1  0.64097370  0.45303943  0.92797845  1
  Ti  Ti16  1  0.35902630  0.54696057  0.07202155  1
  Ti  Ti17  1  0.69808768  0.43368393  0.25000000  1
  Ti  Ti18  1  0.35902630  0.54696057  0.42797845  1
  Ti  Ti19  1  0.30191232  0.56631607  0.75000000  1
  Ti  Ti20  1  0.86438381  0.21083453  0.43062195  1
  Ti  Ti21  1  0.80191629  0.23104895  0.75000000  1
  Ti  Ti22  1  0.14032793  0.44804436  0.92350793  1
  Ti  Ti23  1  0.19624244  0.43079864  0.25000000  1
  Ti  Ti24  1  0.86438381  0.21083453  0.06937805  1
  Ti  Ti25  1  0.14032793  0.44804436  0.57649207  1
  Ti  Ti26  1  0.36257832  0.21266394  0.06012671  1
  Ti  Ti27  1  0.36257832  0.21266394  0.43987329  1
  Ti  Ti28  1  0.69866040  0.10170167  0.25000000  1
  Ti  Ti29  1  0.63543788  0.12152803  0.57065443  1
  Ti  Ti30  1  0.63543788  0.12152803  0.92934557  1
  Ti  Ti31  1  0.19800272  0.10292630  0.25000000  1
  Ti  Ti32  1  0.14393151  0.12308594  0.92267116  1
  Ti  Ti33  1  0.14393151  0.12308594  0.57732884  1
  N  N34  1  0.77890058  0.91753818  0.25000000  1
  N  N35  1  0.26731575  0.91231995  0.25000000  1
  N  N36  1  0.73113734  0.75651714  0.75000000  1
  N  N37  1  0.78076416  0.55970076  0.25000000  1
  N  N38  1  0.22690780  0.75643279  0.75000000  1
  N  N39  1  0.27035400  0.57506620  0.25000000  1
  N  N40  1  0.72964600  0.42493380  0.75000000  1
  N  N41  1  0.77309220  0.24356721  0.25000000  1
  N  N42  1  0.21923584  0.44029924  0.75000000  1
  N  N43  1  0.73268425  0.08768005  0.75000000  1
  N  N44  1  0.26886266  0.24348286  0.25000000  1
  N  N45  1  0.22109942  0.08246182  0.75000000  1
  O  O46  1  0.95264453  0.85069001  0.87934607  1
  O  O47  1  0.69010770  0.93623931  0.93752084  1
  O  O48  1  0.95264453  0.85069001  0.62065393  1
  O  O49  1  0.69010770  0.93623931  0.56247916  1
  O  O50  1  0.54396215  0.81889608  0.39142203  1
  O  O51  1  0.45053721  0.84969976  0.87823446  1
  O  O52  1  0.18649897  0.93614883  0.93464661  1
  O  O53  1  0.82427303  0.72503055  0.45003303  1
  O  O54  1  0.45053721  0.84969976  0.62176554  1
  O  O55  1  0.82427303  0.72503055  0.04996697  1
  O  O56  1  0.54396215  0.81889608  0.10857797  1
  O  O57  1  0.18649897  0.93614883  0.56535339  1
  O  O58  1  0.68853721  0.60421349  0.93719771  1
  O  O59  1  0.95160997  0.51298898  0.61971521  1
  O  O60  1  0.95160997  0.51298898  0.88028479  1
  O  O61  1  0.68853721  0.60421349  0.56280229  1
  O  O62  1  0.04875367  0.81632481  0.11842602  1
  O  O63  1  0.04875367  0.81632481  0.38157398  1
  O  O64  1  0.31205820  0.72934135  0.06602381  1
  O  O65  1  0.31205820  0.72934135  0.43397619  1
  O  O66  1  0.45299391  0.51513899  0.88146859  1
  O  O67  1  0.54700609  0.48486101  0.11853141  1
  O  O68  1  0.19053131  0.60482417  0.93704602  1
  O  O69  1  0.80946869  0.39517583  0.06295398  1
  O  O70  1  0.80946869  0.39517583  0.43704602  1
  O  O71  1  0.54700609  0.48486101  0.38146859  1
  O  O72  1  0.45299391  0.51513899  0.61853141  1
  O  O73  1  0.19053131  0.60482417  0.56295398  1
  O  O74  1  0.95124633  0.18367519  0.88157398  1
  O  O75  1  0.68794180  0.27065865  0.93397619  1
  O  O76  1  0.31146279  0.39578651  0.06280229  1
  O  O77  1  0.04839003  0.48701102  0.38028479  1
  O  O78  1  0.31146279  0.39578651  0.43719771  1
  O  O79  1  0.04839003  0.48701102  0.11971521  1
  O  O80  1  0.95124633  0.18367519  0.61842602  1
  O  O81  1  0.68794180  0.27065865  0.56602381  1
  O  O82  1  0.54946279  0.15030024  0.12176554  1
  O  O83  1  0.81350103  0.06385117  0.43464661  1
  O  O84  1  0.54946279  0.15030024  0.37823446  1
  O  O85  1  0.45603785  0.18110392  0.89142203  1
  O  O86  1  0.81350103  0.06385117  0.06535339  1
  O  O87  1  0.45603785  0.18110392  0.60857797  1
  O  O88  1  0.17572697  0.27496945  0.54996697  1
  O  O89  1  0.17572697  0.27496945  0.95003303  1
  O  O90  1  0.30989230  0.06376069  0.43752084  1
  O  O91  1  0.04735547  0.14930999  0.12065393  1
  O  O92  1  0.04735547  0.14930999  0.37934607  1
  O  O93  1  0.30989230  0.06376069  0.06247916  1
