# generated using pymatgen
data_Ti17(NO4)6
_symmetry_space_group_name_H-M   'P 1'
_cell_length_a   15.00148145
_cell_length_b   7.50049661
_cell_length_c   10.03944342
_cell_angle_alpha   90.00000000
_cell_angle_beta   90.00000000
_cell_angle_gamma   80.27427001
_symmetry_Int_Tables_number   1
_chemical_formula_structural   Ti17(NO4)6
_chemical_formula_sum   'Ti34 N12 O48'
_cell_volume   1113.38844036
_cell_formula_units_Z   2
loop_
 _symmetry_equiv_pos_site_id
 _symmetry_equiv_pos_as_xyz
  1  'x, y, z'
loop_
 _atom_site_type_symbol
 _atom_site_label
 _atom_site_symmetry_multiplicity
 _atom_site_fract_x
 _atom_site_fract_y
 _atom_site_fract_z
 _atom_site_occupancy
  Ti  Ti0  1  0.98686497  0.69229468  0.92792855  1
  Ti  Ti1  1  0.98686497  0.69229468  0.57207145  1
  Ti  Ti2  1  0.84646803  0.97437232  0.42792855  1
  Ti  Ti3  1  0.84646803  0.97437232  0.07207145  1
  Ti  Ti4  1  0.67975191  0.96622090  0.25000000  1
  Ti  Ti5  1  0.98404061  0.36386886  0.75000000  1
  Ti  Ti6  1  0.81699689  0.36659782  0.56948571  1
  Ti  Ti7  1  0.84929239  0.30279814  0.25000000  1
  Ti  Ti8  1  0.81699689  0.36659782  0.93051429  1
  Ti  Ti9  1  0.68045296  0.63880463  0.06002940  1
  Ti  Ti10  1  0.68045296  0.63880463  0.43997060  1
  Ti  Ti11  1  0.81937183  0.03340949  0.75000000  1
  Ti  Ti12  1  0.51633982  0.64083717  0.25000000  1
  Ti  Ti13  1  0.48925107  0.69744563  0.92292323  1
  Ti  Ti14  1  0.48925107  0.69744563  0.57707677  1
  Ti  Ti15  1  0.34408293  0.96922137  0.07707677  1
  Ti  Ti16  1  0.34408293  0.96922137  0.42292323  1
  Ti  Ti17  1  0.65246329  0.01965736  0.92264994  1
  Ti  Ti18  1  0.48323569  0.36402046  0.75000000  1
  Ti  Ti19  1  0.65246329  0.01965736  0.57735006  1
  Ti  Ti20  1  0.51458588  0.30513449  0.42970039  1
  Ti  Ti21  1  0.51458588  0.30513449  0.07029961  1
  Ti  Ti22  1  0.31874712  0.36153251  0.92970039  1
  Ti  Ti23  1  0.31874712  0.36153251  0.57029961  1
  Ti  Ti24  1  0.15358209  0.70044610  0.75000000  1
  Ti  Ti25  1  0.35009731  0.30264554  0.25000000  1
  Ti  Ti26  1  0.18086971  0.64700864  0.42264994  1
  Ti  Ti27  1  0.18086971  0.64700864  0.07735006  1
  Ti  Ti28  1  0.01396117  0.63325651  0.25000000  1
  Ti  Ti29  1  0.31699418  0.02582983  0.75000000  1
  Ti  Ti30  1  0.15288104  0.02786237  0.93997060  1
  Ti  Ti31  1  0.01633711  0.30006918  0.43051429  1
  Ti  Ti32  1  0.01633711  0.30006918  0.06948571  1
  Ti  Ti33  1  0.15288104  0.02786237  0.56002940  1
  N  N34  1  0.69957580  0.95947510  0.75000000  1
  N  N35  1  0.96785610  0.39944986  0.25000000  1
  N  N36  1  0.86547690  0.26721714  0.75000000  1
  N  N37  1  0.63356270  0.73167746  0.25000000  1
  N  N38  1  0.80059286  0.06195161  0.25000000  1
  N  N39  1  0.52020030  0.60048707  0.75000000  1
  N  N40  1  0.19977030  0.93498954  0.75000000  1
  N  N41  1  0.47022371  0.39526338  0.25000000  1
  N  N42  1  0.36311029  0.27140262  0.75000000  1
  N  N43  1  0.13375720  0.70719190  0.25000000  1
  N  N44  1  0.31313270  0.06617993  0.25000000  1
  N  N45  1  0.03274114  0.60471539  0.75000000  1
  O  O46  1  0.94004851  0.78590658  0.11850276  1
  O  O47  1  0.94004851  0.78590658  0.38149724  1
  O  O48  1  0.89328549  0.88076042  0.88149724  1
  O  O49  1  0.89328549  0.88076042  0.61850276  1
  O  O50  1  0.73894415  0.85433862  0.43737347  1
  O  O51  1  0.73894415  0.85433862  0.06262653  1
  O  O52  1  0.92574834  0.48088659  0.93251030  1
  O  O53  1  0.92574834  0.48088659  0.56748970  1
  O  O54  1  0.90758566  0.18578041  0.43251030  1
  O  O55  1  0.90758566  0.18578041  0.06748970  1
  O  O56  1  0.77472903  0.45039197  0.12191442  1
  O  O57  1  0.77472903  0.45039197  0.37808558  1
  O  O58  1  0.72721730  0.54372902  0.60876850  1
  O  O59  1  0.72721730  0.54372902  0.89123150  1
  O  O60  1  0.58826765  0.82351933  0.95072767  1
  O  O61  1  0.58826765  0.82351933  0.54927233  1
  O  O62  1  0.57226264  0.52130067  0.06291382  1
  O  O63  1  0.39411381  0.88439324  0.88016486  1
  O  O64  1  0.76263737  0.14261224  0.56199278  1
  O  O65  1  0.43921919  0.78227376  0.11983514  1
  O  O66  1  0.76263737  0.14261224  0.93800722  1
  O  O67  1  0.57226264  0.52130067  0.43708618  1
  O  O68  1  0.43921919  0.78227376  0.38016486  1
  O  O69  1  0.39411381  0.88439324  0.61983514  1
  O  O70  1  0.60790585  0.12142130  0.37978871  1
  O  O71  1  0.60790585  0.12142130  0.12021129  1
  O  O72  1  0.55881527  0.21399387  0.88175620  1
  O  O73  1  0.42753917  0.47598678  0.93633052  1
  O  O74  1  0.24506635  0.84314767  0.45072767  1
  O  O75  1  0.24506635  0.84314767  0.04927233  1
  O  O76  1  0.55881527  0.21399387  0.61824380  1
  O  O77  1  0.42753917  0.47598678  0.56366948  1
  O  O78  1  0.40579383  0.19068022  0.43633052  1
  O  O79  1  0.22542715  0.54524470  0.87978871  1
  O  O80  1  0.22542715  0.54524470  0.62021129  1
  O  O81  1  0.09438885  0.81232838  0.56262653  1
  O  O82  1  0.09438885  0.81232838  0.93737347  1
  O  O83  1  0.40579383  0.19068022  0.06366948  1
  O  O84  1  0.27451773  0.45267313  0.38175620  1
  O  O85  1  0.27451773  0.45267313  0.11824380  1
  O  O86  1  0.26107036  0.14536533  0.56291382  1
  O  O87  1  0.26107036  0.14536533  0.93708618  1
  O  O88  1  0.07069563  0.52405476  0.43800722  1
  O  O89  1  0.07069563  0.52405476  0.06199278  1
  O  O90  1  0.05860397  0.21627503  0.87808558  1
  O  O91  1  0.10611670  0.12293798  0.10876850  1
  O  O92  1  0.10611670  0.12293798  0.39123150  1
  O  O93  1  0.05860397  0.21627503  0.62191442  1
