# generated using pymatgen
data_Li4V(BO3)2
_symmetry_space_group_name_H-M   'P 1'
_cell_length_a   9.26768779
_cell_length_b   7.87214635
_cell_length_c   3.38018300
_cell_angle_alpha   90.00000000
_cell_angle_beta   90.00000000
_cell_angle_gamma   90.00000000
_symmetry_Int_Tables_number   1
_chemical_formula_structural   Li4V(BO3)2
_chemical_formula_sum   'Li8 V2 B4 O12'
_cell_volume   246.60664084
_cell_formula_units_Z   2
loop_
 _symmetry_equiv_pos_site_id
 _symmetry_equiv_pos_as_xyz
  1  'x, y, z'
loop_
 _atom_site_type_symbol
 _atom_site_label
 _atom_site_symmetry_multiplicity
 _atom_site_fract_x
 _atom_site_fract_y
 _atom_site_fract_z
 _atom_site_occupancy
  Li  Li0  1  0.05182844  0.17572806  0.50000000  1
  Li  Li1  1  0.19884078  0.01010989  0.00000000  1
  Li  Li2  1  0.30115922  0.51010989  0.50000000  1
  Li  Li3  1  0.44817156  0.67572806  0.00000000  1
  Li  Li4  1  0.55182844  0.32427194  0.00000000  1
  Li  Li5  1  0.69884078  0.48989011  0.50000000  1
  Li  Li6  1  0.80115922  0.98989011  0.00000000  1
  Li  Li7  1  0.94817156  0.82427194  0.50000000  1
  V  V8  1  0.00000000  0.50000000  0.00000000  1
  V  V9  1  0.50000000  0.00000000  0.50000000  1
  B  B10  1  0.20438910  0.77170585  0.50000000  1
  B  B11  1  0.29561090  0.27170585  0.00000000  1
  B  B12  1  0.70438910  0.72829415  0.00000000  1
  B  B13  1  0.79561090  0.22829415  0.50000000  1
  O  O14  1  0.11789218  0.62338923  0.50000000  1
  O  O15  1  0.14568104  0.25792437  0.00000000  1
  O  O16  1  0.13812895  0.92668601  0.50000000  1
  O  O17  1  0.36187105  0.42668601  0.00000000  1
  O  O18  1  0.35431896  0.75792437  0.50000000  1
  O  O19  1  0.38210782  0.12338923  0.00000000  1
  O  O20  1  0.61789218  0.87661077  0.00000000  1
  O  O21  1  0.64568104  0.24207563  0.50000000  1
  O  O22  1  0.63812895  0.57331399  0.00000000  1
  O  O23  1  0.86187105  0.07331399  0.50000000  1
  O  O24  1  0.85431896  0.74207563  0.00000000  1
  O  O25  1  0.88210782  0.37661077  0.50000000  1
