# generated using pymatgen
data_Ti17(NO4)6
_symmetry_space_group_name_H-M   'P 1'
_cell_length_a   7.64610924
_cell_length_b   14.64017068
_cell_length_c   10.04240762
_cell_angle_alpha   90.00000000
_cell_angle_beta   90.00000000
_cell_angle_gamma   97.51167275
_symmetry_Int_Tables_number   1
_chemical_formula_structural   Ti17(NO4)6
_chemical_formula_sum   'Ti34 N12 O48'
_cell_volume   1114.50338602
_cell_formula_units_Z   2
loop_
 _symmetry_equiv_pos_site_id
 _symmetry_equiv_pos_as_xyz
  1  'x, y, z'
loop_
 _atom_site_type_symbol
 _atom_site_label
 _atom_site_symmetry_multiplicity
 _atom_site_fract_x
 _atom_site_fract_y
 _atom_site_fract_z
 _atom_site_occupancy
  Ti  Ti0  1  0.06138279  0.24354640  0.42971833  1
  Ti  Ti1  1  0.06138279  0.24354640  0.07028167  1
  Ti  Ti2  1  0.05282448  0.20193244  0.75000000  1
  Ti  Ti3  1  0.10626165  0.42566968  0.94033341  1
  Ti  Ti4  1  0.10626165  0.42566968  0.55966659  1
  Ti  Ti5  1  0.22707135  0.90766332  0.44033341  1
  Ti  Ti6  1  0.22707135  0.90766332  0.05966659  1
  Ti  Ti7  1  0.43345293  0.76019162  0.92372743  1
  Ti  Ti8  1  0.38659704  0.57313807  0.42375004  1
  Ti  Ti9  1  0.27195021  0.08978660  0.92971833  1
  Ti  Ti10  1  0.27195021  0.08978660  0.57028167  1
  Ti  Ti11  1  0.37786792  0.53614904  0.75000000  1
  Ti  Ti12  1  0.38659704  0.57313807  0.07624996  1
  Ti  Ti13  1  0.43345293  0.76019162  0.57627257  1
  Ti  Ti14  1  0.28050952  0.13140156  0.25000000  1
  Ti  Ti15  1  0.44312483  0.79715236  0.25000000  1
  Ti  Ti16  1  0.71664559  0.86657287  0.75000000  1
  Ti  Ti17  1  0.54803416  0.20300322  0.75000000  1
  Ti  Ti18  1  0.55954894  0.24073326  0.07223812  1
  Ti  Ti19  1  0.55954894  0.24073326  0.42776188  1
  Ti  Ti20  1  0.61668741  0.46676013  0.25000000  1
  Ti  Ti21  1  0.60699864  0.42839503  0.92783182  1
  Ti  Ti22  1  0.72633536  0.90493797  0.07216818  1
  Ti  Ti23  1  0.72633536  0.90493797  0.42783182  1
  Ti  Ti24  1  0.60699864  0.42839503  0.57216818  1
  Ti  Ti25  1  0.77378506  0.09259974  0.92776188  1
  Ti  Ti26  1  0.89020817  0.53618064  0.75000000  1
  Ti  Ti27  1  0.94673596  0.76019593  0.92375004  1
  Ti  Ti28  1  0.89988007  0.57314138  0.07627257  1
  Ti  Ti29  1  0.89988007  0.57314138  0.42372743  1
  Ti  Ti30  1  0.77378506  0.09259974  0.57223812  1
  Ti  Ti31  1  0.78529984  0.13032978  0.25000000  1
  Ti  Ti32  1  0.95546508  0.79718496  0.25000000  1
  Ti  Ti33  1  0.94673596  0.76019593  0.57624996  1
  N  N34  1  0.12211456  0.48865790  0.75000000  1
  N  N35  1  0.04296089  0.17738528  0.25000000  1
  N  N36  1  0.21121944  0.84467510  0.25000000  1
  N  N37  1  0.29037211  0.15594772  0.75000000  1
  N  N38  1  0.47145954  0.81170184  0.75000000  1
  N  N39  1  0.39898169  0.52166623  0.25000000  1
  N  N40  1  0.62153289  0.48624913  0.75000000  1
  N  N41  1  0.71180011  0.84708387  0.25000000  1
  N  N42  1  0.54654775  0.17989958  0.25000000  1
  N  N43  1  0.78678525  0.15343442  0.75000000  1
  N  N44  1  0.93435131  0.81166677  0.75000000  1
  N  N45  1  0.86187346  0.52163116  0.25000000  1
  O  O46  1  0.03074827  0.12410170  0.56713522  1
  O  O47  1  0.09020251  0.36271431  0.10891993  1
  O  O48  1  0.07513698  0.30036446  0.87833768  1
  O  O49  1  0.03074827  0.12410170  0.93286478  1
  O  O50  1  0.07513698  0.30036446  0.62166232  1
  O  O51  1  0.13708798  0.54848626  0.04996061  1
  O  O52  1  0.19624502  0.78484674  0.54996061  1
  O  O53  1  0.09020251  0.36271431  0.39108007  1
  O  O54  1  0.13708798  0.54848626  0.45003939  1
  O  O55  1  0.19624502  0.78484674  0.95003939  1
  O  O56  1  0.24313049  0.97061869  0.89108007  1
  O  O57  1  0.24313049  0.97061869  0.60891993  1
  O  O58  1  0.46795149  0.87479544  0.43551572  1
  O  O59  1  0.42622499  0.69858501  0.38027521  1
  O  O60  1  0.25819602  0.03296854  0.37833768  1
  O  O61  1  0.36370628  0.45846727  0.93550115  1
  O  O62  1  0.25819602  0.03296854  0.12166232  1
  O  O63  1  0.30258473  0.20923130  0.43286478  1
  O  O64  1  0.30258473  0.20923130  0.06713522  1
  O  O65  1  0.36370628  0.45846727  0.56449885  1
  O  O66  1  0.42622499  0.69858501  0.11972479  1
  O  O67  1  0.41041767  0.63472255  0.88028441  1
  O  O68  1  0.41041767  0.63472255  0.61971559  1
  O  O69  1  0.46795149  0.87479544  0.06448428  1
  O  O70  1  0.69876553  0.79487707  0.94043234  1
  O  O71  1  0.74180422  0.96888488  0.88192867  1
  O  O72  1  0.57566074  0.30164325  0.88133837  1
  O  O73  1  0.63456747  0.53845593  0.05956766  1
  O  O74  1  0.59152878  0.36444912  0.11807133  1
  O  O75  1  0.59152878  0.36444912  0.38192867  1
  O  O76  1  0.69876553  0.79487707  0.55956766  1
  O  O77  1  0.74180422  0.96888488  0.61807133  1
  O  O78  1  0.53173213  0.12642390  0.93535168  1
  O  O79  1  0.57566074  0.30164325  0.61866163  1
  O  O80  1  0.53173213  0.12642390  0.56464832  1
  O  O81  1  0.63456747  0.53845593  0.44043234  1
  O  O82  1  0.90710901  0.63474899  0.88027521  1
  O  O83  1  0.92291633  0.69861045  0.11971559  1
  O  O84  1  0.75767326  0.03168975  0.11866163  1
  O  O85  1  0.86538251  0.45853756  0.93551572  1
  O  O86  1  0.96962772  0.87486573  0.06449885  1
  O  O87  1  0.80160087  0.20690910  0.06464832  1
  O  O88  1  0.86538251  0.45853756  0.56448428  1
  O  O89  1  0.90710901  0.63474899  0.61972479  1
  O  O90  1  0.96962772  0.87486573  0.43550115  1
  O  O91  1  0.75767326  0.03168975  0.38133837  1
  O  O92  1  0.92291633  0.69861045  0.38028441  1
  O  O93  1  0.80160087  0.20690910  0.43535168  1
