# generated using pymatgen
data_V2(OF)3
_symmetry_space_group_name_H-M   'P 1'
_cell_length_a   5.17339478
_cell_length_b   13.23778602
_cell_length_c   5.22743234
_cell_angle_alpha   88.84652947
_cell_angle_beta   119.53039883
_cell_angle_gamma   89.76790062
_symmetry_Int_Tables_number   1
_chemical_formula_structural   V2(OF)3
_chemical_formula_sum   'V6 O9 F9'
_cell_volume   311.38786478
_cell_formula_units_Z   3
loop_
 _symmetry_equiv_pos_site_id
 _symmetry_equiv_pos_as_xyz
  1  'x, y, z'
loop_
 _atom_site_type_symbol
 _atom_site_label
 _atom_site_symmetry_multiplicity
 _atom_site_fract_x
 _atom_site_fract_y
 _atom_site_fract_z
 _atom_site_occupancy
  V  V0  1  0.99544488  0.51276871  0.97301622  1
  V  V1  1  0.95268314  0.00136691  0.98187397  1
  V  V2  1  0.64140160  0.84245976  0.32489385  1
  V  V3  1  0.37626883  0.67076035  0.67530649  1
  V  V4  1  0.71621614  0.33461452  0.34739016  1
  V  V5  1  0.33320536  0.17506150  0.63997053  1
  O  O6  1  0.34927894  0.91711750  0.24979098  1
  O  O7  1  0.97713454  0.24792827  0.57342117  1
  O  O8  1  0.77598816  0.91782192  0.09077281  1
  O  O9  1  0.08362478  0.58286687  0.75981713  1
  O  O10  1  0.41050532  0.24997308  0.42805992  1
  O  O11  1  0.57924890  0.74587682  0.58173610  1
  O  O12  1  0.91024748  0.41152517  0.25294326  1
  O  O13  1  0.67054083  0.08098265  0.76247833  1
  O  O14  1  0.66244510  0.58082686  0.90791675  1
  F  F15  1  0.99846801  0.74588520  0.42053213  1
  F  F16  1  0.40796652  0.74885690  0.99787426  1
  F  F17  1  0.32541953  0.41289001  0.08618032  1
  F  F18  1  0.07429653  0.07989833  0.33417407  1
  F  F19  1  0.25688545  0.57942932  0.33851193  1
  F  F20  1  0.58023317  0.24947978  0.00866490  1
  F  F21  1  0.24589001  0.07951468  0.92350938  1
  F  F22  1  0.74073244  0.41506088  0.66587905  1
  F  F23  1  0.93587336  0.91703500  0.67528629  1
