# generated using pymatgen
data_Ti11BeO20
_symmetry_space_group_name_H-M   'P 1'
_cell_length_a   7.21625322
_cell_length_b   7.73456942
_cell_length_c   13.13853049
_cell_angle_alpha   90.21177604
_cell_angle_beta   93.19152126
_cell_angle_gamma   104.80258546
_symmetry_Int_Tables_number   1
_chemical_formula_structural   Ti11BeO20
_chemical_formula_sum   'Ti22 Be2 O40'
_cell_volume   707.76276876
_cell_formula_units_Z   2
loop_
 _symmetry_equiv_pos_site_id
 _symmetry_equiv_pos_as_xyz
  1  'x, y, z'
loop_
 _atom_site_type_symbol
 _atom_site_label
 _atom_site_symmetry_multiplicity
 _atom_site_fract_x
 _atom_site_fract_y
 _atom_site_fract_z
 _atom_site_occupancy
  Ti  Ti0  1  0.01220466  0.92148633  0.20241171  1
  Ti  Ti1  1  0.03610487  0.43440419  0.71030823  1
  Ti  Ti2  1  0.99567596  0.29619259  0.12596912  1
  Ti  Ti3  1  0.99767173  0.20564141  0.36792410  1
  Ti  Ti4  1  0.31977612  0.94648333  0.42377926  1
  Ti  Ti5  1  0.31547195  0.70949650  0.07968985  1
  Ti  Ti6  1  0.32130725  0.57070724  0.51500695  1
  Ti  Ti7  1  0.33409575  0.43317787  0.92983631  1
  Ti  Ti8  1  0.35444931  0.62901053  0.28572565  1
  Ti  Ti9  1  0.30210971  0.20625247  0.58468644  1
  Ti  Ti10  1  0.31950425  0.08562227  0.01277864  1
  Ti  Ti11  1  0.68049575  0.91437773  0.98722136  1
  Ti  Ti12  1  0.69789029  0.79374753  0.41531356  1
  Ti  Ti13  1  0.64555069  0.37098947  0.71427435  1
  Ti  Ti14  1  0.66590425  0.56682213  0.07016369  1
  Ti  Ti15  1  0.67869275  0.42929376  0.48499305  1
  Ti  Ti16  1  0.68452805  0.29050350  0.92031015  1
  Ti  Ti17  1  0.68022388  0.05351667  0.57622074  1
  Ti  Ti18  1  0.00232827  0.79435859  0.63207590  1
  Ti  Ti19  1  0.00432404  0.70380741  0.87403088  1
  Ti  Ti20  1  0.96389513  0.56559581  0.28969177  1
  Ti  Ti21  1  0.98779534  0.07851367  0.79758829  1
  Be  Be22  1  0.38273508  0.00686412  0.78345635  1
  Be  Be23  1  0.61726492  0.99313588  0.21654365  1
  O  O24  1  0.16014480  0.90067800  0.76846812  1
  O  O25  1  0.17490315  0.82778351  0.98107222  1
  O  O26  1  0.17133968  0.95402587  0.54516517  1
  O  O27  1  0.16314760  0.73952068  0.20065361  1
  O  O28  1  0.16218050  0.54082989  0.83639403  1
  O  O29  1  0.16740137  0.61700342  0.62027633  1
  O  O30  1  0.19006272  0.68159072  0.40110847  1
  O  O31  1  0.13530434  0.39536566  0.26657405  1
  O  O32  1  0.15495163  0.23951913  0.69635936  1
  O  O33  1  0.17539245  0.17562183  0.90520320  1
  O  O34  1  0.17209166  0.32551784  0.47792883  1
  O  O35  1  0.16946166  0.46039698  0.04785967  1
  O  O36  1  0.15875374  0.04237779  0.33380880  1
  O  O37  1  0.15493939  0.11400945  0.12116203  1
  O  O38  1  0.50106203  0.96101350  0.10658454  1
  O  O39  1  0.49840375  0.67917067  0.96843567  1
  O  O40  1  0.51096730  0.89529100  0.31362928  1
  O  O41  1  0.50221682  0.82845368  0.51822626  1
  O  O42  1  0.49333002  0.45622524  0.60228888  1
  O  O43  1  0.49496345  0.60560295  0.17232255  1
  O  O44  1  0.50503655  0.39439705  0.82767745  1
  O  O45  1  0.50666998  0.54377476  0.39771112  1
  O  O46  1  0.49778318  0.17154632  0.48177374  1
  O  O47  1  0.48903270  0.10470900  0.68637072  1
  O  O48  1  0.50159625  0.32082933  0.03156433  1
  O  O49  1  0.49893797  0.03898650  0.89341546  1
  O  O50  1  0.84506061  0.88599055  0.87883797  1
  O  O51  1  0.84124626  0.95762221  0.66619120  1
  O  O52  1  0.83053834  0.53960302  0.95214033  1
  O  O53  1  0.82790834  0.67448216  0.52207117  1
  O  O54  1  0.82460755  0.82437817  0.09479680  1
  O  O55  1  0.84504837  0.76048087  0.30364064  1
  O  O56  1  0.86469566  0.60463434  0.73342595  1
  O  O57  1  0.80993728  0.31840928  0.59889153  1
  O  O58  1  0.83259863  0.38299658  0.37972367  1
  O  O59  1  0.83781950  0.45917011  0.16360597  1
  O  O60  1  0.83685240  0.26047932  0.79934639  1
  O  O61  1  0.82866032  0.04597413  0.45483483  1
  O  O62  1  0.82509685  0.17221649  0.01892778  1
  O  O63  1  0.83985520  0.09932200  0.23153188  1
