# generated using pymatgen
data_Lu4Al2O9
_symmetry_space_group_name_H-M   'P 1'
_cell_length_a   7.21866600
_cell_length_b   10.33590129
_cell_length_c   11.05872418
_cell_angle_alpha   90.00000000
_cell_angle_beta   108.11106289
_cell_angle_gamma   90.00000000
_symmetry_Int_Tables_number   1
_chemical_formula_structural   Lu4Al2O9
_chemical_formula_sum   'Lu16 Al8 O36'
_cell_volume   784.22777445
_cell_formula_units_Z   4
loop_
 _symmetry_equiv_pos_site_id
 _symmetry_equiv_pos_as_xyz
  1  'x, y, z'
loop_
 _atom_site_type_symbol
 _atom_site_label
 _atom_site_symmetry_multiplicity
 _atom_site_fract_x
 _atom_site_fract_y
 _atom_site_fract_z
 _atom_site_occupancy
  Lu  Lu0  1  0.02151004  0.09878459  0.80374714  1
  Lu  Lu1  1  0.02151004  0.40121541  0.30374714  1
  Lu  Lu2  1  0.16170491  0.87878485  0.58424956  1
  Lu  Lu3  1  0.34006622  0.37402311  0.93845713  1
  Lu  Lu4  1  0.16170491  0.62121515  0.08424956  1
  Lu  Lu5  1  0.34006622  0.12597689  0.43845713  1
  Lu  Lu6  1  0.47684213  0.61223983  0.71753690  1
  Lu  Lu7  1  0.52315787  0.11223983  0.78246310  1
  Lu  Lu8  1  0.47684213  0.88776017  0.21753690  1
  Lu  Lu9  1  0.52315787  0.38776017  0.28246310  1
  Lu  Lu10  1  0.65993378  0.87402311  0.56154287  1
  Lu  Lu11  1  0.83829509  0.37878485  0.91575044  1
  Lu  Lu12  1  0.65993378  0.62597689  0.06154287  1
  Lu  Lu13  1  0.83829509  0.12121515  0.41575044  1
  Lu  Lu14  1  0.97848996  0.59878459  0.69625286  1
  Lu  Lu15  1  0.97848996  0.90121541  0.19625286  1
  Al  Al16  1  0.34423601  0.82558654  0.88893162  1
  Al  Al17  1  0.21346669  0.32234160  0.62691407  1
  Al  Al18  1  0.34423601  0.67441346  0.38893162  1
  Al  Al19  1  0.21346669  0.17765840  0.12691407  1
  Al  Al20  1  0.78653331  0.82234160  0.87308593  1
  Al  Al21  1  0.65576399  0.32558654  0.61106838  1
  Al  Al22  1  0.78653331  0.67765840  0.37308593  1
  Al  Al23  1  0.65576399  0.17441346  0.11106838  1
  O  O24  1  0.06798710  0.23377973  0.97836495  1
  O  O25  1  0.07769062  0.50707985  0.89301700  1
  O  O26  1  0.06798710  0.26622027  0.47836495  1
  O  O27  1  0.23259210  0.24117966  0.77161899  1
  O  O28  1  0.20798324  0.74024974  0.75224979  1
  O  O29  1  0.07769062  0.99292015  0.39301700  1
  O  O30  1  0.21160899  0.48806123  0.65431537  1
  O  O31  1  0.30428783  0.98787933  0.84063446  1
  O  O32  1  0.36111915  0.73013650  0.54236062  1
  O  O33  1  0.23259210  0.25882034  0.27161899  1
  O  O34  1  0.20798324  0.75975026  0.25224979  1
  O  O35  1  0.56384645  0.49186955  0.89186831  1
  O  O36  1  0.43194018  0.25664374  0.61307650  1
  O  O37  1  0.21160899  0.01193877  0.15431537  1
  O  O38  1  0.56805982  0.75664374  0.88692350  1
  O  O39  1  0.43615355  0.99186955  0.60813169  1
  O  O40  1  0.30428783  0.51212067  0.34063446  1
  O  O41  1  0.63888085  0.23013650  0.95763938  1
  O  O42  1  0.36111915  0.76986350  0.04236062  1
  O  O43  1  0.69571217  0.48787933  0.65936554  1
  O  O44  1  0.56384645  0.00813045  0.39186831  1
  O  O45  1  0.43194018  0.24335626  0.11307650  1
  O  O46  1  0.78839101  0.98806123  0.84568463  1
  O  O47  1  0.56805982  0.74335626  0.38692350  1
  O  O48  1  0.43615355  0.50813045  0.10813169  1
  O  O49  1  0.79201676  0.24024974  0.74775021  1
  O  O50  1  0.76740790  0.74117966  0.72838101  1
  O  O51  1  0.63888085  0.26986350  0.45763938  1
  O  O52  1  0.69571217  0.01212067  0.15936554  1
  O  O53  1  0.78839101  0.51193877  0.34568463  1
  O  O54  1  0.92230938  0.00707985  0.60698300  1
  O  O55  1  0.79201676  0.25975026  0.24775021  1
  O  O56  1  0.76740790  0.75882034  0.22838101  1
  O  O57  1  0.93201290  0.73377973  0.52163505  1
  O  O58  1  0.92230938  0.49292015  0.10698300  1
  O  O59  1  0.93201290  0.76622027  0.02163505  1
