# generated using pymatgen
data_Ti17(NO4)6
_symmetry_space_group_name_H-M   'P 1'
_cell_length_a   10.39377551
_cell_length_b   11.47144552
_cell_length_c   10.74188777
_cell_angle_alpha   69.13894606
_cell_angle_beta   82.45218112
_cell_angle_gamma   68.41770009
_symmetry_Int_Tables_number   1
_chemical_formula_structural   Ti17(NO4)6
_chemical_formula_sum   'Ti34 N12 O48'
_cell_volume   1112.90543173
_cell_formula_units_Z   2
loop_
 _symmetry_equiv_pos_site_id
 _symmetry_equiv_pos_as_xyz
  1  'x, y, z'
loop_
 _atom_site_type_symbol
 _atom_site_label
 _atom_site_symmetry_multiplicity
 _atom_site_fract_x
 _atom_site_fract_y
 _atom_site_fract_z
 _atom_site_occupancy
  Ti  Ti0  1  0.13906998  0.09658335  0.06994862  1
  Ti  Ti1  1  0.64038310  0.09443454  0.07483479  1
  Ti  Ti2  1  0.36320649  0.02163847  0.57086959  1
  Ti  Ti3  1  0.30256462  0.14872626  0.25002932  1
  Ti  Ti4  1  0.85591920  0.01762494  0.57775460  1
  Ti  Ti5  1  0.14408080  0.31570806  0.42224540  1
  Ti  Ti6  1  0.14087259  0.43243265  0.07614790  1
  Ti  Ti7  1  0.19891495  0.18435709  0.74852648  1
  Ti  Ti8  1  0.80108505  0.14897591  0.25147352  1
  Ti  Ti9  1  0.36230209  0.36042256  0.55754739  1
  Ti  Ti10  1  0.63661925  0.43147344  0.07067416  1
  Ti  Ti11  1  0.35961690  0.23889846  0.92516521  1
  Ti  Ti12  1  0.63679351  0.31169453  0.42913041  1
  Ti  Ti13  1  0.69743538  0.18460774  0.74997068  1
  Ti  Ti14  1  0.14102707  0.75631190  0.07725146  1
  Ti  Ti15  1  0.19594212  0.51839630  0.74994712  1
  Ti  Ti16  1  0.86416961  0.35526899  0.56860075  1
  Ti  Ti17  1  0.14075630  0.64061472  0.42335908  1
  Ti  Ti18  1  0.86093002  0.23674965  0.93005138  1
  Ti  Ti19  1  0.80304964  0.48346217  0.24808653  1
  Ti  Ti20  1  0.35949642  0.68860175  0.57465107  1
  Ti  Ti21  1  0.64050358  0.64473225  0.42534893  1
  Ti  Ti22  1  0.36229593  0.56528043  0.94242057  1
  Ti  Ti23  1  0.63770407  0.76805357  0.05757943  1
  Ti  Ti24  1  0.69758899  0.51779327  0.74968312  1
  Ti  Ti25  1  0.30241101  0.81553973  0.25031688  1
  Ti  Ti26  1  0.13583039  0.97806501  0.43139925  1
  Ti  Ti27  1  0.19695036  0.84987183  0.75191347  1
  Ti  Ti28  1  0.80405788  0.81493770  0.25005288  1
  Ti  Ti29  1  0.85897293  0.57702110  0.92274854  1
  Ti  Ti30  1  0.85924370  0.69271828  0.57664092  1
  Ti  Ti31  1  0.36338075  0.90185956  0.92932584  1
  Ti  Ti32  1  0.63769791  0.97291044  0.44245261  1
  Ti  Ti33  1  0.85912741  0.90090035  0.92385210  1
  N  N34  1  0.22722404  0.00766211  0.24969203  1
  N  N35  1  0.73072413  0.00566548  0.25058705  1
  N  N36  1  0.22131480  0.33141242  0.24984160  1
  N  N37  1  0.73295198  0.33904401  0.24990706  1
  N  N38  1  0.26927587  0.32766852  0.74941295  1
  N  N39  1  0.77277596  0.32567189  0.75030797  1
  N  N40  1  0.22103591  0.68782604  0.25023422  1
  N  N41  1  0.73107418  0.67383592  0.24926781  1
  N  N42  1  0.26892582  0.65949708  0.75073219  1
  N  N43  1  0.77896409  0.64550696  0.74976578  1
  N  N44  1  0.26704802  0.99428899  0.75009294  1
  N  N45  1  0.77868520  0.00192058  0.75015840  1
  O  O46  1  0.18991653  0.24744495  0.06321220  1
  O  O47  1  0.45232938  0.14302158  0.11814517  1
  O  O48  1  0.18726558  0.12440331  0.43418842  1
  O  O49  1  0.45094429  0.05729827  0.37734734  1
  O  O50  1  0.31072408  0.08535708  0.93439388  1
  O  O51  1  0.68987528  0.12400154  0.43746485  1
  O  O52  1  0.04813965  0.18986410  0.88218750  1
  O  O53  1  0.31012472  0.20933246  0.56253515  1
  O  O54  1  0.95186035  0.14346890  0.11781250  1
  O  O55  1  0.04719065  0.27522970  0.62161199  1
  O  O56  1  0.68927592  0.24797592  0.06560612  1
  O  O57  1  0.95280935  0.05810330  0.37838801  1
  O  O58  1  0.81008347  0.08588805  0.93678780  1
  O  O59  1  0.17693196  0.45803761  0.44915444  1
  O  O60  1  0.54767062  0.19031142  0.88185483  1
  O  O61  1  0.54905571  0.27603573  0.62265266  1
  O  O62  1  0.17652164  0.59057134  0.05120882  1
  O  O63  1  0.45665817  0.47813281  0.10906793  1
  O  O64  1  0.45668370  0.38410275  0.39101542  1
  O  O65  1  0.81273442  0.20892969  0.56581158  1
  O  O66  1  0.31119940  0.54213323  0.56300059  1
  O  O67  1  0.04785010  0.61412698  0.61966244  1
  O  O68  1  0.31113674  0.41714979  0.93707914  1
  O  O69  1  0.68959626  0.58299949  0.06260544  1
  O  O70  1  0.95173622  0.38935514  0.38307276  1
  O  O71  1  0.04790536  0.52196376  0.88077520  1
  O  O72  1  0.68893624  0.45946227  0.43412442  1
  O  O73  1  0.95264216  0.47390157  0.12080482  1
  O  O74  1  0.54907358  0.52481446  0.87745822  1
  O  O75  1  0.45236415  0.72186380  0.38191218  1
  O  O76  1  0.45092642  0.80851954  0.12254178  1
  O  O77  1  0.54763585  0.61146920  0.61808782  1
  O  O78  1  0.81285090  0.41592305  0.93415991  1
  O  O79  1  0.81033584  0.54043325  0.56351866  1
  O  O80  1  0.18966416  0.79289975  0.43648134  1
  O  O81  1  0.18714910  0.91741095  0.06584009  1
  O  O82  1  0.04826378  0.94397786  0.61692724  1
  O  O83  1  0.31106376  0.87387173  0.56587558  1
  O  O84  1  0.31040374  0.75033351  0.93739456  1
  O  O85  1  0.68886326  0.91618321  0.06292086  1
  O  O86  1  0.95214990  0.71920702  0.38033756  1
  O  O87  1  0.04735784  0.85943243  0.87919518  1
  O  O88  1  0.95209464  0.81136924  0.11922480  1
  O  O89  1  0.68880060  0.79119977  0.43699941  1
  O  O90  1  0.54331630  0.94923025  0.60898458  1
  O  O91  1  0.54334183  0.85520119  0.89093207  1
  O  O92  1  0.82306804  0.87529539  0.55084556  1
  O  O93  1  0.82347836  0.74276266  0.94879118  1
