# generated using pymatgen
data_Cr3O8
_symmetry_space_group_name_H-M   'P 1'
_cell_length_a   5.64715463
_cell_length_b   10.48930276
_cell_length_c   5.64628178
_cell_angle_alpha   90.49344749
_cell_angle_beta   119.46504478
_cell_angle_gamma   89.46305747
_symmetry_Int_Tables_number   1
_chemical_formula_structural   Cr3O8
_chemical_formula_sum   'Cr6 O16'
_cell_volume   291.18014778
_cell_formula_units_Z   2
loop_
 _symmetry_equiv_pos_site_id
 _symmetry_equiv_pos_as_xyz
  1  'x, y, z'
loop_
 _atom_site_type_symbol
 _atom_site_label
 _atom_site_symmetry_multiplicity
 _atom_site_fract_x
 _atom_site_fract_y
 _atom_site_fract_z
 _atom_site_occupancy
  Cr  Cr0  1  0.91606072  0.31201498  0.08402930  1
  Cr  Cr1  1  0.41573909  0.81247632  0.58370831  1
  Cr  Cr2  1  0.58393594  0.18753508  0.41597374  1
  Cr  Cr3  1  0.08425817  0.68790888  0.91626587  1
  Cr  Cr4  1  0.24999811  0.24973831  0.75000706  1
  Cr  Cr5  1  0.74998500  0.75023727  0.24996552  1
  O  O6  1  0.58318868  0.35605650  0.91588791  1
  O  O7  1  0.08234235  0.85617242  0.41536337  1
  O  O8  1  0.08454769  0.35573838  0.41773044  1
  O  O9  1  0.58403438  0.85639595  0.91680795  1
  O  O10  1  0.91684286  0.14360743  0.58413333  1
  O  O11  1  0.41768632  0.64420568  0.08463460  1
  O  O12  1  0.41544225  0.14392182  0.08225853  1
  O  O13  1  0.91597768  0.64397987  0.58316988  1
  O  O14  1  0.91634897  0.16144708  0.08368869  1
  O  O15  1  0.41639465  0.66185590  0.58374414  1
  O  O16  1  0.58363360  0.33814308  0.41632933  1
  O  O17  1  0.08360212  0.83853532  0.91626257  1
  O  O18  1  0.41240328  0.14307619  0.58741561  1
  O  O19  1  0.91266834  0.64340160  0.08769641  1
  O  O20  1  0.08758214  0.35657899  0.91260922  1
  O  O21  1  0.58732563  0.85697297  0.41231621  1
