# generated using pymatgen
data_Ti17(NO4)6
_symmetry_space_group_name_H-M   'P 1'
_cell_length_a   11.46748927
_cell_length_b   9.67277163
_cell_length_c   10.74096175
_cell_angle_alpha   90.00000000
_cell_angle_beta   69.16935954
_cell_angle_gamma   90.00000000
_symmetry_Int_Tables_number   1
_chemical_formula_structural   Ti17(NO4)6
_chemical_formula_sum   'Ti34 N12 O48'
_cell_volume   1113.53733876
_cell_formula_units_Z   2
loop_
 _symmetry_equiv_pos_site_id
 _symmetry_equiv_pos_as_xyz
  1  'x, y, z'
loop_
 _atom_site_type_symbol
 _atom_site_label
 _atom_site_symmetry_multiplicity
 _atom_site_fract_x
 _atom_site_fract_y
 _atom_site_fract_z
 _atom_site_occupancy
  Ti  Ti0  1  0.02134337  0.85610965  0.42250624  1
  Ti  Ti1  1  0.13679217  0.85914360  0.07704251  1
  Ti  Ti2  1  0.08378014  0.19646847  0.24825501  1
  Ti  Ti3  1  0.19109534  0.35982649  0.42536507  1
  Ti  Ti4  1  0.08226264  0.30202970  0.75011254  1
  Ti  Ti5  1  0.14223766  0.64017351  0.57463493  1
  Ti  Ti6  1  0.01974461  0.63741947  0.94275847  1
  Ti  Ti7  1  0.31358839  0.36258053  0.05724153  1
  Ti  Ti8  1  0.25107036  0.69797030  0.24988746  1
  Ti  Ti9  1  0.31199063  0.14389035  0.57749376  1
  Ti  Ti10  1  0.19654083  0.14085640  0.92295749  1
  Ti  Ti11  1  0.41666700  0.19756771  0.25000000  1
  Ti  Ti12  1  0.24955286  0.80353153  0.75174499  1
  Ti  Ti13  1  0.35660649  0.86424638  0.43077174  1
  Ti  Ti14  1  0.47672751  0.86424638  0.06922826  1
  Ti  Ti15  1  0.47643881  0.63689444  0.57037749  1
  Ti  Ti16  1  0.35689419  0.63689444  0.92962251  1
  Ti  Ti17  1  0.58226264  0.69797030  0.25011254  1
  Ti  Ti18  1  0.64223766  0.35982649  0.07463493  1
  Ti  Ti19  1  0.51974461  0.36258053  0.44275847  1
  Ti  Ti20  1  0.52134337  0.14389035  0.92250624  1
  Ti  Ti21  1  0.63679217  0.14085640  0.57704251  1
  Ti  Ti22  1  0.58378014  0.80353153  0.74825501  1
  Ti  Ti23  1  0.69654083  0.85914360  0.42295749  1
  Ti  Ti24  1  0.81199063  0.85610965  0.07749376  1
  Ti  Ti25  1  0.74955286  0.19646847  0.25174499  1
  Ti  Ti26  1  0.75107036  0.30202970  0.74988746  1
  Ti  Ti27  1  0.97643881  0.36310556  0.07037749  1
  Ti  Ti28  1  0.81358839  0.63741947  0.55724153  1
  Ti  Ti29  1  0.69109534  0.64017351  0.92536507  1
  Ti  Ti30  1  0.85689419  0.36310556  0.42962251  1
  Ti  Ti31  1  0.91666700  0.80243229  0.75000000  1
  Ti  Ti32  1  0.97672751  0.13575362  0.56922826  1
  Ti  Ti33  1  0.85660649  0.13575362  0.93077174  1
  N  N34  1  0.09487804  0.77905561  0.25015147  1
  N  N35  1  0.25064284  0.26911705  0.24945225  1
  N  N36  1  0.08269016  0.73088295  0.75054775  1
  N  N37  1  0.23845496  0.22094439  0.74984853  1
  N  N38  1  0.41666700  0.77274234  0.25000000  1
  N  N39  1  0.41666700  0.73285760  0.75000000  1
  N  N40  1  0.58269016  0.26911705  0.25054775  1
  N  N41  1  0.59487804  0.22094439  0.75015147  1
  N  N42  1  0.73845496  0.77905561  0.24984853  1
  N  N43  1  0.91666700  0.26714240  0.25000000  1
  N  N44  1  0.75064284  0.73088295  0.74945225  1
  N  N45  1  0.91666700  0.22725766  0.75000000  1
  O  O46  1  0.12306033  0.04776213  0.12043678  1
  O  O47  1  0.14581486  0.31058108  0.06277831  1
  O  O48  1  0.03883727  0.04819242  0.38247218  1
  O  O49  1  0.02237410  0.31124015  0.43390123  1
  O  O50  1  0.14419718  0.19010808  0.56282094  1
  O  O51  1  0.04087042  0.45114037  0.87745523  1
  O  O52  1  0.29246258  0.54885963  0.12254477  1
  O  O53  1  0.02014661  0.18699838  0.93424123  1
  O  O54  1  0.12707006  0.45254284  0.61801255  1
  O  O55  1  0.20626294  0.54745716  0.38198745  1
  O  O56  1  0.31318639  0.81300162  0.06575877  1
  O  O57  1  0.18913582  0.80989192  0.43717906  1
  O  O58  1  0.47905385  0.31088327  0.06300158  1
  O  O59  1  0.29449573  0.95180758  0.61752782  1
  O  O60  1  0.46283785  0.04773981  0.12069908  1
  O  O61  1  0.37049615  0.04773981  0.37930092  1
  O  O62  1  0.35428015  0.31088327  0.43699842  1
  O  O63  1  0.31095990  0.68875985  0.56609877  1
  O  O64  1  0.18751914  0.68941892  0.93722169  1
  O  O65  1  0.21027267  0.95223787  0.87956322  1
  O  O66  1  0.64419718  0.80989192  0.06282094  1
  O  O67  1  0.48328641  0.17662104  0.55021744  1
  O  O68  1  0.36956280  0.45674305  0.89110168  1
  O  O69  1  0.35004659  0.17662104  0.94978256  1
  O  O70  1  0.46377120  0.45674305  0.60889832  1
  O  O71  1  0.62707006  0.54745716  0.11801255  1
  O  O72  1  0.54087042  0.54885963  0.37745523  1
  O  O73  1  0.52014661  0.81300162  0.43424123  1
  O  O74  1  0.79449573  0.04819242  0.11752782  1
  O  O75  1  0.64581486  0.68941892  0.56277831  1
  O  O76  1  0.52237410  0.68875985  0.93390123  1
  O  O77  1  0.62306033  0.95223787  0.62043678  1
  O  O78  1  0.53883727  0.95180758  0.88247218  1
  O  O79  1  0.71027267  0.04776213  0.37956322  1
  O  O80  1  0.81095990  0.31124015  0.06609877  1
  O  O81  1  0.68751914  0.31058108  0.43722169  1
  O  O82  1  0.81318639  0.18699838  0.56575877  1
  O  O83  1  0.70626294  0.45254284  0.88198745  1
  O  O84  1  0.96377120  0.54325695  0.10889832  1
  O  O85  1  0.85004659  0.82337896  0.44978256  1
  O  O86  1  0.98328641  0.82337896  0.05021744  1
  O  O87  1  0.68913582  0.19010808  0.93717906  1
  O  O88  1  0.79246258  0.45114037  0.62254477  1
  O  O89  1  0.86956280  0.54325695  0.39110168  1
  O  O90  1  0.85428015  0.68911673  0.93699842  1
  O  O91  1  0.96283785  0.95226019  0.62069908  1
  O  O92  1  0.97905385  0.68911673  0.56300158  1
  O  O93  1  0.87049615  0.95226019  0.87930092  1
