# generated using pymatgen
data_LiVP2HO8
_symmetry_space_group_name_H-M   'P 1'
_cell_length_a   9.73184011
_cell_length_b   7.99199562
_cell_length_c   7.75989039
_cell_angle_alpha   90.09158900
_cell_angle_beta   68.15452086
_cell_angle_gamma   89.97338180
_symmetry_Int_Tables_number   1
_chemical_formula_structural   LiVP2HO8
_chemical_formula_sum   'Li4 V4 P8 H4 O32'
_cell_volume   560.19882127
_cell_formula_units_Z   4
loop_
 _symmetry_equiv_pos_site_id
 _symmetry_equiv_pos_as_xyz
  1  'x, y, z'
loop_
 _atom_site_type_symbol
 _atom_site_label
 _atom_site_symmetry_multiplicity
 _atom_site_fract_x
 _atom_site_fract_y
 _atom_site_fract_z
 _atom_site_occupancy
  Li  Li0  1  0.22640464  0.37121561  0.64874300  1
  Li  Li1  1  0.27203493  0.87049085  0.85075942  1
  Li  Li2  1  0.77875300  0.63268928  0.35364594  1
  Li  Li3  1  0.77412624  0.87080274  0.85076466  1
  V  V4  1  0.24705964  0.49727827  0.01385957  1
  V  V5  1  0.25249567  0.99720402  0.48620692  1
  V  V6  1  0.74698804  0.49271081  0.99896263  1
  V  V7  1  0.74862138  0.01193294  0.49194634  1
  P  P8  1  0.06694970  0.84796337  0.23016693  1
  P  P9  1  0.06772088  0.65375238  0.73603148  1
  P  P10  1  0.43373651  0.34646825  0.26839188  1
  P  P11  1  0.56921162  0.84835047  0.23169683  1
  P  P12  1  0.43204628  0.15503296  0.76160646  1
  P  P13  1  0.56680410  0.65678167  0.73840647  1
  P  P14  1  0.93243037  0.35146297  0.26832580  1
  P  P15  1  0.93332732  0.15598150  0.76205639  1
  H  H16  1  0.00849148  0.50846706  0.50825253  1
  H  H17  1  0.50869288  0.50698028  0.50978322  1
  H  H18  1  0.48788455  0.01039571  0.98887205  1
  H  H19  1  0.98797116  0.01030623  0.98924223  1
  O  O20  1  0.09394330  0.94385974  0.05209844  1
  O  O21  1  0.09654394  0.33234432  0.13625495  1
  O  O22  1  0.13867802  0.67317469  0.18450477  1
  O  O23  1  0.14077560  0.94295079  0.35190404  1
  O  O24  1  0.09481563  0.54743071  0.55964299  1
  O  O25  1  0.09969895  0.17451301  0.64136758  1
  O  O26  1  0.14627639  0.82409499  0.68631700  1
  O  O27  1  0.14417585  0.55130368  0.84749378  1
  O  O28  1  0.35592421  0.44361726  0.15173032  1
  O  O29  1  0.36092788  0.17279793  0.31554454  1
  O  O30  1  0.40421300  0.83212100  0.35952971  1
  O  O31  1  0.40919851  0.44107703  0.44790244  1
  O  O32  1  0.35254907  0.05061583  0.65452466  1
  O  O33  1  0.35373664  0.32549678  0.81239853  1
  O  O34  1  0.59397081  0.93954354  0.05166258  1
  O  O35  1  0.59753549  0.33035764  0.13795024  1
  O  O36  1  0.39985345  0.67568553  0.85530965  1
  O  O37  1  0.40447535  0.05057021  0.94013869  1
  O  O38  1  0.64850221  0.67640222  0.19206658  1
  O  O39  1  0.64349704  0.94732229  0.35196006  1
  O  O40  1  0.59393724  0.56223999  0.55415517  1
  O  O41  1  0.59663615  0.17370005  0.63901679  1
  O  O42  1  0.65016791  0.82429098  0.68715298  1
  O  O43  1  0.63828720  0.55645099  0.85640324  1
  O  O44  1  0.85202490  0.44900209  0.15464024  1
  O  O45  1  0.86504240  0.17559361  0.31617320  1
  O  O46  1  0.90068529  0.83145412  0.35524503  1
  O  O47  1  0.90750354  0.45872895  0.43905359  1
  O  O48  1  0.85481358  0.05378076  0.65349917  1
  O  O49  1  0.86243921  0.32851799  0.81720134  1
  O  O50  1  0.90086955  0.67449509  0.85507801  1
  O  O51  1  0.90471530  0.04761983  0.93821395  1
