# generated using pymatgen
data_Cr4OF11
_symmetry_space_group_name_H-M   'P 1'
_cell_length_a   5.05681765
_cell_length_b   5.36117948
_cell_length_c   8.80062824
_cell_angle_alpha   74.05356475
_cell_angle_beta   90.47428114
_cell_angle_gamma   61.41681666
_symmetry_Int_Tables_number   1
_chemical_formula_structural   Cr4OF11
_chemical_formula_sum   'Cr4 O1 F11'
_cell_volume   198.67140430
_cell_formula_units_Z   1
loop_
 _symmetry_equiv_pos_site_id
 _symmetry_equiv_pos_as_xyz
  1  'x, y, z'
loop_
 _atom_site_type_symbol
 _atom_site_label
 _atom_site_symmetry_multiplicity
 _atom_site_fract_x
 _atom_site_fract_y
 _atom_site_fract_z
 _atom_site_occupancy
  Cr  Cr0  1  0.77204198  0.48622077  0.25587226  1
  Cr  Cr1  1  0.47987215  0.01387603  0.49190590  1
  Cr  Cr2  1  0.24525104  0.50290957  0.74959888  1
  Cr  Cr3  1  0.00290506  0.99747401  0.00181395  1
  O  O4  1  0.18690346  0.25002162  0.31308099  1
  F  F5  1  0.80767067  0.75611770  0.68040216  1
  F  F6  1  0.81471344  0.74972614  0.06707595  1
  F  F7  1  0.74497589  0.74955223  0.37618119  1
  F  F8  1  0.75542293  0.25075647  0.12623108  1
  F  F9  1  0.68584139  0.24998063  0.81392708  1
  F  F10  1  0.68487467  0.24852498  0.43703491  1
  F  F11  1  0.31304710  0.75098432  0.56353455  1
  F  F12  1  0.32419835  0.74424657  0.18730603  1
  F  F13  1  0.24652405  0.74914237  0.87553752  1
  F  F14  1  0.24991958  0.25059953  0.62484775  1
  F  F15  1  0.18583726  0.24986804  0.93564879  1
