# generated using pymatgen
data_LiCoH8(SO6)2
_symmetry_space_group_name_H-M   'P 1'
_cell_length_a   10.96166565
_cell_length_b   8.11719914
_cell_length_c   5.50053796
_cell_angle_alpha   90.00000000
_cell_angle_beta   101.84238096
_cell_angle_gamma   90.00000000
_symmetry_Int_Tables_number   1
_chemical_formula_structural   LiCoH8(SO6)2
_chemical_formula_sum   'Li2 Co2 H16 S4 O24'
_cell_volume   479.00995927
_cell_formula_units_Z   2
loop_
 _symmetry_equiv_pos_site_id
 _symmetry_equiv_pos_as_xyz
  1  'x, y, z'
loop_
 _atom_site_type_symbol
 _atom_site_label
 _atom_site_symmetry_multiplicity
 _atom_site_fract_x
 _atom_site_fract_y
 _atom_site_fract_z
 _atom_site_occupancy
  Li  Li0  1  0.37106253  0.05644950  0.11646330  1
  Li  Li1  1  0.87106253  0.44355050  0.11646330  1
  Co  Co2  1  0.99968770  0.99358728  0.99846552  1
  Co  Co3  1  0.49968770  0.50641272  0.99846552  1
  H  H4  1  0.01951728  0.71511391  0.22680658  1
  H  H5  1  0.15583511  0.13504404  0.77508760  1
  H  H6  1  0.18168610  0.93579355  0.77879636  1
  H  H7  1  0.14409503  0.80584908  0.33356552  1
  H  H8  1  0.35588450  0.30665050  0.67742419  1
  H  H9  1  0.31375795  0.44028638  0.21343298  1
  H  H10  1  0.34413722  0.63818382  0.22497674  1
  H  H11  1  0.48401374  0.21730435  0.77184291  1
  H  H12  1  0.51951728  0.78488609  0.22680658  1
  H  H13  1  0.65583511  0.36495596  0.77508760  1
  H  H14  1  0.68168610  0.56420645  0.77879636  1
  H  H15  1  0.64409503  0.69415092  0.33356552  1
  H  H16  1  0.85588450  0.19334950  0.67742419  1
  H  H17  1  0.81375795  0.05971362  0.21343298  1
  H  H18  1  0.84413722  0.86181618  0.22497674  1
  H  H19  1  0.98401374  0.28269565  0.77184291  1
  S  S20  1  0.13233543  0.28447220  0.36559535  1
  S  S21  1  0.36387200  0.79676105  0.63489755  1
  S  S22  1  0.63233543  0.21552780  0.36559535  1
  S  S23  1  0.86387200  0.70323895  0.63489755  1
  O  O24  1  0.07084558  0.11814789  0.29561811  1
  O  O25  1  0.06395607  0.41381141  0.21126067  1
  O  O26  1  0.07963529  0.79213276  0.17820470  1
  O  O27  1  0.13129265  0.30680498  0.63341588  1
  O  O28  1  0.16545858  0.03234302  0.88262893  1
  O  O29  1  0.22866445  0.77528322  0.63413183  1
  O  O30  1  0.26523138  0.27230720  0.33508775  1
  O  O31  1  0.34428776  0.53579100  0.12671048  1
  O  O32  1  0.37736740  0.83114583  0.37382063  1
  O  O33  1  0.42134542  0.28811333  0.82770886  1
  O  O34  1  0.41883770  0.92354226  0.81079724  1
  O  O35  1  0.42930416  0.63116028  0.70160832  1
  O  O36  1  0.57084558  0.38185211  0.29561811  1
  O  O37  1  0.56395607  0.08618859  0.21126067  1
  O  O38  1  0.57963529  0.70786724  0.17820470  1
  O  O39  1  0.63129265  0.19319502  0.63341588  1
  O  O40  1  0.66545858  0.46765698  0.88262893  1
  O  O41  1  0.72866445  0.72471678  0.63413183  1
  O  O42  1  0.76523138  0.22769280  0.33508775  1
  O  O43  1  0.84428776  0.96420900  0.12671048  1
  O  O44  1  0.87736740  0.66885417  0.37382063  1
  O  O45  1  0.92134542  0.21188667  0.82770886  1
  O  O46  1  0.91883770  0.57645774  0.81079724  1
  O  O47  1  0.92930416  0.86883972  0.70160832  1
