# generated using pymatgen
data_Ti17(NO4)6
_symmetry_space_group_name_H-M   'P 1'
_cell_length_a   10.39368921
_cell_length_b   10.71132286
_cell_length_c   11.29538055
_cell_angle_alpha   110.09137162
_cell_angle_beta   70.41000661
_cell_angle_gamma   95.24100631
_symmetry_Int_Tables_number   1
_chemical_formula_structural   Ti17(NO4)6
_chemical_formula_sum   'Ti34 N12 O48'
_cell_volume   1112.22744012
_cell_formula_units_Z   2
loop_
 _symmetry_equiv_pos_site_id
 _symmetry_equiv_pos_as_xyz
  1  'x, y, z'
loop_
 _atom_site_type_symbol
 _atom_site_label
 _atom_site_symmetry_multiplicity
 _atom_site_fract_x
 _atom_site_fract_y
 _atom_site_fract_z
 _atom_site_occupancy
  Ti  Ti0  1  0.84122932  0.97835203  0.57071106  1
  Ti  Ti1  1  0.99911709  0.85156719  0.25102822  1
  Ti  Ti2  1  0.77559048  0.90493205  0.07417473  1
  Ti  Ti3  1  0.83639280  0.81652606  0.74950648  1
  Ti  Ti4  1  0.34560306  0.98217889  0.57784181  1
  Ti  Ti5  1  0.98773032  0.68449076  0.42215249  1
  Ti  Ti6  1  0.49693517  0.85013766  0.25049320  1
  Ti  Ti7  1  0.27682393  0.90427240  0.07091500  1
  Ti  Ti8  1  0.67858038  0.63956858  0.55568054  1
  Ti  Ti9  1  0.33422498  0.81510100  0.74897181  1
  Ti  Ti10  1  0.55775181  0.76172916  0.92581794  1
  Ti  Ti11  1  0.49210543  0.68830922  0.42929743  1
  Ti  Ti12  1  0.61276138  0.56844599  0.07018113  1
  Ti  Ti13  1  0.88309493  0.43466278  0.94274609  1
  Ti  Ti14  1  0.33025723  0.51678328  0.24860404  1
  Ti  Ti15  1  0.05649904  0.76240260  0.92909571  1
  Ti  Ti16  1  0.17387511  0.64406488  0.57061605  1
  Ti  Ti17  1  0.82541349  0.36015654  0.42303093  1
  Ti  Ti18  1  0.66928603  0.48492487  0.74938807  1
  Ti  Ti19  1  0.10430573  0.56751781  0.07691980  1
  Ti  Ti20  1  0.94130266  0.24371322  0.07773040  1
  Ti  Ti21  1  0.39203575  0.42295414  0.92226836  1
  Ti  Ti22  1  0.66404282  0.18174875  0.25061623  1
  Ti  Ti23  1  0.32657710  0.35465541  0.42569555  1
  Ti  Ti24  1  0.16915055  0.47890306  0.75046856  1
  Ti  Ti25  1  0.50792030  0.30651838  0.57697409  1
  Ti  Ti26  1  0.45022808  0.23200589  0.05725932  1
  Ti  Ti27  1  0.00675202  0.31200663  0.57429970  1
  Ti  Ti28  1  0.16418406  0.18775876  0.24953087  1
  Ti  Ti29  1  0.72057479  0.09821097  0.92980801  1
  Ti  Ti30  1  0.65475723  0.02710059  0.44432318  1
  Ti  Ti31  1  0.22903106  0.09915156  0.92308018  1
  Ti  Ti32  1  0.15945809  0.02260484  0.42937384  1
  Ti  Ti33  1  0.00307226  0.14987958  0.75139843  1
  N  N34  1  0.64173694  0.99218233  0.25008459  1
  N  N35  1  0.98717537  0.66829292  0.24997069  1
  N  N36  1  0.14299517  0.99404986  0.24962376  1
  N  N37  1  0.69159078  0.67448032  0.74991676  1
  N  N38  1  0.47239810  0.66138538  0.24998911  1
  N  N39  1  0.19033933  0.67261317  0.75037435  1
  N  N40  1  0.80949039  0.31200481  0.25051065  1
  N  N41  1  0.52383907  0.35465283  0.74948501  1
  N  N42  1  0.30655772  0.32708179  0.24921659  1
  N  N43  1  0.86094005  0.00529314  0.75001515  1
  N  N44  1  0.02678027  0.33959042  0.75078171  1
  N  N45  1  0.34615472  0.99836783  0.75003655  1
  O  O46  1  0.83155332  0.94270233  0.37736261  1
  O  O47  1  0.91757078  0.85653806  0.11743399  1
  O  O48  1  0.91658074  0.80959477  0.88124190  1
  O  O49  1  0.80333189  0.79088418  0.56315475  1
  O  O50  1  0.67909694  0.91447556  0.93483815  1
  O  O51  1  0.32847665  0.94201206  0.37875902  1
  O  O52  1  0.52998987  0.87577814  0.43683053  1
  O  O53  1  0.65421553  0.75220243  0.06518248  1
  O  O54  1  0.41675346  0.85707482  0.11877483  1
  O  O55  1  0.03294842  0.87556572  0.43478779  1
  O  O56  1  0.00188288  0.40938174  0.05152982  1
  O  O57  1  0.30038769  0.79109150  0.56521510  1
  O  O58  1  0.86948887  0.54254522  0.44892803  1
  O  O59  1  0.15450984  0.75190595  0.06354784  1
  O  O60  1  0.74984669  0.52214951  0.10949732  1
  O  O61  1  0.17880661  0.91475299  0.93643882  1
  O  O62  1  0.65593338  0.61566758  0.39036008  1
  O  O63  1  0.50176070  0.72397280  0.62264293  1
  O  O64  1  0.41574647  0.81013201  0.88256075  1
  O  O65  1  0.16227325  0.61084824  0.38270264  1
  O  O66  1  0.99716609  0.27878073  0.38171581  1
  O  O67  1  0.51221413  0.58374605  0.93421286  1
  O  O68  1  0.00487006  0.72464419  0.62123754  1
  O  O69  1  0.24989545  0.52584905  0.12065399  1
  O  O70  1  0.63844959  0.45827529  0.56157804  1
  O  O71  1  0.36431694  0.54040687  0.43498972  1
  O  O72  1  0.48823685  0.41706441  0.06263269  1
  O  O73  1  0.83691977  0.38695209  0.61962193  1
  O  O74  1  0.75013968  0.47610502  0.87786237  1
  O  O75  1  0.33616289  0.38789305  0.61828936  1
  O  O76  1  0.82111818  0.08291952  0.06579921  1
  O  O77  1  0.49643072  0.27970987  0.38036737  1
  O  O78  1  0.69488852  0.20837654  0.43841460  1
  O  O79  1  0.84510619  0.24961323  0.93737079  1
  O  O80  1  0.25063236  0.47734827  0.88027069  1
  O  O81  1  0.01118510  0.58301081  0.93711608  1
  O  O82  1  0.96901177  0.12627445  0.56501303  1
  O  O83  1  0.13452412  0.45920287  0.56519616  1
  O  O84  1  0.58320740  0.19055644  0.12213845  1
  O  O85  1  0.33144831  0.25727934  0.94846837  1
  O  O86  1  0.58349199  0.14451915  0.89049718  1
  O  O87  1  0.67738747  0.05100283  0.60963383  1
  O  O88  1  0.46385529  0.12411569  0.55106728  1
  O  O89  1  0.32216126  0.08364817  0.06286409  1
  O  O90  1  0.19881520  0.20747433  0.43482165  1
  O  O91  1  0.08269784  0.18931894  0.11971607  1
  O  O92  1  0.08344710  0.14081760  0.87934924  1
  O  O93  1  0.17106834  0.05582230  0.61730803  1
