# generated using pymatgen
data_LiFePH2O5
_symmetry_space_group_name_H-M   'P 1'
_cell_length_a   11.15119250
_cell_length_b   8.16108591
_cell_length_c   5.11479920
_cell_angle_alpha   90.00000000
_cell_angle_beta   90.00000000
_cell_angle_gamma   90.00000000
_symmetry_Int_Tables_number   1
_chemical_formula_structural   LiFePH2O5
_chemical_formula_sum   'Li4 Fe4 P4 H8 O20'
_cell_volume   465.47659758
_cell_formula_units_Z   4
loop_
 _symmetry_equiv_pos_site_id
 _symmetry_equiv_pos_as_xyz
  1  'x, y, z'
loop_
 _atom_site_type_symbol
 _atom_site_label
 _atom_site_symmetry_multiplicity
 _atom_site_fract_x
 _atom_site_fract_y
 _atom_site_fract_z
 _atom_site_occupancy
  Li  Li0  1  0.18759195  0.31734705  0.69708017  1
  Li  Li1  1  0.31240805  0.81734705  0.19708017  1
  Li  Li2  1  0.68759195  0.18265295  0.69708017  1
  Li  Li3  1  0.81240805  0.68265295  0.19708017  1
  Fe  Fe4  1  0.12258034  0.12834223  0.18753553  1
  Fe  Fe5  1  0.37741966  0.62834223  0.68753553  1
  Fe  Fe6  1  0.62258034  0.37165777  0.18753553  1
  Fe  Fe7  1  0.87741966  0.87165777  0.68753553  1
  P  P8  1  0.16966200  0.91605664  0.69541352  1
  P  P9  1  0.33033800  0.41605664  0.19541352  1
  P  P10  1  0.66966200  0.58394336  0.69541352  1
  P  P11  1  0.83033800  0.08394336  0.19541352  1
  H  H12  1  0.00243751  0.55613507  0.36407474  1
  H  H13  1  0.04051226  0.68234011  0.15022687  1
  H  H14  1  0.45948774  0.18234011  0.65022687  1
  H  H15  1  0.49756249  0.05613507  0.86407474  1
  H  H16  1  0.50243751  0.94386493  0.36407474  1
  H  H17  1  0.54051226  0.81765989  0.15022687  1
  H  H18  1  0.95948774  0.31765989  0.65022687  1
  H  H19  1  0.99756249  0.44386493  0.86407474  1
  O  O20  1  0.01752620  0.40493610  0.68698849  1
  O  O21  1  0.04954259  0.82656383  0.64728240  1
  O  O22  1  0.16642346  0.09109342  0.57359657  1
  O  O23  1  0.19337187  0.93248880  0.99525482  1
  O  O24  1  0.22694274  0.31655657  0.06881688  1
  O  O25  1  0.27305726  0.81655657  0.56881688  1
  O  O26  1  0.30662813  0.43248780  0.49525482  1
  O  O27  1  0.33357654  0.59109342  0.07359657  1
  O  O28  1  0.45045741  0.32656383  0.14728240  1
  O  O29  1  0.48247380  0.90493610  0.18698849  1
  O  O30  1  0.51752620  0.09506390  0.68698849  1
  O  O31  1  0.54954259  0.67343617  0.64728240  1
  O  O32  1  0.66642346  0.40890658  0.57359657  1
  O  O33  1  0.69337187  0.56751120  0.99525482  1
  O  O34  1  0.72694274  0.18344343  0.06881688  1
  O  O35  1  0.77305726  0.68344343  0.56881688  1
  O  O36  1  0.80662813  0.06751220  0.49525482  1
  O  O37  1  0.83357654  0.90890658  0.07359657  1
  O  O38  1  0.95045741  0.17343617  0.14728240  1
  O  O39  1  0.98247380  0.59506390  0.18698849  1
