# generated using pymatgen
data_Li3MnNb4O12
_symmetry_space_group_name_H-M   'P 1'
_cell_length_a   5.62465704
_cell_length_b   11.24856505
_cell_length_c   9.92734337
_cell_angle_alpha   28.01370217
_cell_angle_beta   50.71502313
_cell_angle_gamma   55.95681882
_symmetry_Int_Tables_number   1
_chemical_formula_structural   Li3MnNb4O12
_chemical_formula_sum   'Li3 Mn1 Nb4 O12'
_cell_volume   228.33586626
_cell_formula_units_Z   1
loop_
 _symmetry_equiv_pos_site_id
 _symmetry_equiv_pos_as_xyz
  1  'x, y, z'
loop_
 _atom_site_type_symbol
 _atom_site_label
 _atom_site_symmetry_multiplicity
 _atom_site_fract_x
 _atom_site_fract_y
 _atom_site_fract_z
 _atom_site_occupancy
  Li  Li0  1  0.27815759  0.50043575  0.28385884  1
  Li  Li1  1  0.78485715  0.00005866  0.78514407  1
  Li  Li2  1  0.78191083  0.50078655  0.78010471  1
  Mn  Mn3  1  0.28351607  0.99756495  0.28221385  1
  Nb  Nb4  1  0.01483725  0.00612709  0.98690391  1
  Nb  Nb5  1  0.98113748  0.49799983  0.00488502  1
  Nb  Nb6  1  0.48640697  0.99972892  0.50074228  1
  Nb  Nb7  1  0.51077932  0.50222807  0.48914738  1
  O  O8  1  0.35514526  0.30223536  0.12003952  1
  O  O9  1  0.22618240  0.12341611  0.61646787  1
  O  O10  1  0.11522421  0.31874649  0.72441933  1
  O  O11  1  0.85956232  0.19529469  0.22533948  1
  O  O12  1  0.36220036  0.80391604  0.11784992  1
  O  O13  1  0.72384374  0.37577685  0.36473118  1
  O  O14  1  0.22658725  0.61756238  0.61957454  1
  O  O15  1  0.61625399  0.17946275  0.86080266  1
  O  O16  1  0.11800127  0.81484890  0.72822542  1
  O  O17  1  0.85882663  0.69591353  0.22641709  1
  O  O18  1  0.72758874  0.88222768  0.35438012  1
  O  O19  1  0.61858016  0.68566840  0.85835282  1
