# generated using pymatgen
data_Li8CoO5F
_symmetry_space_group_name_H-M   'P 1'
_cell_length_a   5.56834655
_cell_length_b   5.54506093
_cell_length_c   10.93619589
_cell_angle_alpha   90.06464250
_cell_angle_beta   89.70569794
_cell_angle_gamma   119.52824277
_symmetry_Int_Tables_number   1
_chemical_formula_structural   Li8CoO5F
_chemical_formula_sum   'Li16 Co2 O10 F2'
_cell_volume   293.81106860
_cell_formula_units_Z   2
loop_
 _symmetry_equiv_pos_site_id
 _symmetry_equiv_pos_as_xyz
  1  'x, y, z'
loop_
 _atom_site_type_symbol
 _atom_site_label
 _atom_site_symmetry_multiplicity
 _atom_site_fract_x
 _atom_site_fract_y
 _atom_site_fract_z
 _atom_site_occupancy
  Li  Li0  1  0.97538919  0.68517409  0.77259406  1
  Li  Li1  1  0.02035823  0.63997590  0.12055867  1
  Li  Li2  1  0.97824942  0.35625404  0.61931670  1
  Li  Li3  1  0.02277648  0.31206173  0.27319765  1
  Li  Li4  1  0.32856140  0.66394050  0.41364672  1
  Li  Li5  1  0.33151769  0.66915417  0.92487328  1
  Li  Li6  1  0.31045273  0.28932789  0.77247314  1
  Li  Li7  1  0.36587894  0.38463246  0.12230305  1
  Li  Li8  1  0.63596995  0.61762222  0.62196450  1
  Li  Li9  1  0.29091324  0.97914681  0.27189818  1
  Li  Li10  1  0.68886646  0.71411392  0.27286633  1
  Li  Li11  1  0.38338784  0.01851604  0.62202612  1
  Li  Li12  1  0.66643977  0.33117850  0.91375802  1
  Li  Li13  1  0.66896813  0.33630143  0.42495466  1
  Li  Li14  1  0.62121652  0.98062130  0.11999864  1
  Li  Li15  1  0.71333045  0.02302342  0.77331431  1
  Co  Co16  1  0.00559473  0.00519327  0.98780699  1
  Co  Co17  1  0.00044198  0.99230557  0.48760855  1
  O  O18  1  0.99506645  0.67476318  0.94747432  1
  O  O19  1  0.99666699  0.32066628  0.44684929  1
  O  O20  1  0.33457777  0.66833549  0.21321995  1
  O  O21  1  0.00153971  0.99867667  0.67145798  1
  O  O22  1  0.00211026  0.00257734  0.17137851  1
  O  O23  1  0.31990748  0.32215446  0.94888659  1
  O  O24  1  0.32539169  0.00738803  0.44798182  1
  O  O25  1  0.67635390  0.68232733  0.44857835  1
  O  O26  1  0.66525822  0.33173342  0.71327949  1
  O  O27  1  0.67533744  0.99230005  0.94710861  1
  F  F28  1  0.33308191  0.66504884  0.71001918  1
  F  F29  1  0.66619703  0.33548665  0.20986332  1
