# generated using pymatgen
data_Li5Mn6(BO3)6
_symmetry_space_group_name_H-M   'P 1'
_cell_length_a   7.93205852
_cell_length_b   5.29968122
_cell_length_c   9.60229627
_cell_angle_alpha   75.49729615
_cell_angle_beta   76.22809008
_cell_angle_gamma   87.40080014
_symmetry_Int_Tables_number   1
_chemical_formula_structural   Li5Mn6(BO3)6
_chemical_formula_sum   'Li5 Mn6 B6 O18'
_cell_volume   379.51468309
_cell_formula_units_Z   1
loop_
 _symmetry_equiv_pos_site_id
 _symmetry_equiv_pos_as_xyz
  1  'x, y, z'
loop_
 _atom_site_type_symbol
 _atom_site_label
 _atom_site_symmetry_multiplicity
 _atom_site_fract_x
 _atom_site_fract_y
 _atom_site_fract_z
 _atom_site_occupancy
  Li  Li0  1  0.23478724  0.47208860  0.91634474  1
  Li  Li1  1  0.08211364  0.87572004  0.42588788  1
  Li  Li2  1  0.43199688  0.19234333  0.75344036  1
  Li  Li3  1  0.57089576  0.80532659  0.24779907  1
  Li  Li4  1  0.76312283  0.52309077  0.08582710  1
  Mn  Mn5  1  0.36394853  0.77095741  0.61326721  1
  Mn  Mn6  1  0.03443323  0.43267569  0.28826614  1
  Mn  Mn7  1  0.29664750  0.89382789  0.05962132  1
  Mn  Mn8  1  0.70672895  0.09997502  0.94070724  1
  Mn  Mn9  1  0.95777931  0.56069913  0.71348892  1
  Mn  Mn10  1  0.63195282  0.22264655  0.39380185  1
  B  B11  1  0.08797672  0.01533289  0.82660097  1
  B  B12  1  0.58113925  0.65146662  0.84138559  1
  B  B13  1  0.25116868  0.31907260  0.50700548  1
  B  B14  1  0.74964140  0.68492563  0.48485784  1
  B  B15  1  0.41828432  0.34694485  0.16005140  1
  B  B16  1  0.91382154  0.98148425  0.17685885  1
  O  O17  1  0.12442505  0.77010773  0.79666683  1
  O  O18  1  0.19500566  0.12636855  0.89079820  1
  O  O19  1  0.05388123  0.84900663  0.22669902  1
  O  O20  1  0.53892573  0.89466324  0.86971469  1
  O  O21  1  0.19954540  0.56104448  0.53740933  1
  O  O22  1  0.47901427  0.53350495  0.77744279  1
  O  O23  1  0.17043040  0.20379186  0.42845871  1
  O  O24  1  0.72316506  0.51963632  0.88822603  1
  O  O25  1  0.39094889  0.19136508  0.56154933  1
  O  O26  1  0.60272287  0.81535745  0.44310484  1
  O  O27  1  0.27548923  0.47823881  0.11261008  1
  O  O28  1  0.84613756  0.79265851  0.55517401  1
  O  O29  1  0.52064749  0.46508847  0.22367125  1
  O  O30  1  0.79509809  0.45519227  0.44178826  1
  O  O31  1  0.46264780  0.10405324  0.13075788  1
  O  O32  1  0.94801442  0.15561663  0.78757956  1
  O  O33  1  0.81317398  0.86419569  0.11136425  1
  O  O34  1  0.87371826  0.22718321  0.20269096  1
