# generated using pymatgen
data_Fe6OF11
_symmetry_space_group_name_H-M   'P 1'
_cell_length_a   7.50707451
_cell_length_b   5.83781764
_cell_length_c   5.83781764
_cell_angle_alpha   71.67693250
_cell_angle_beta   73.92788479
_cell_angle_gamma   73.92788479
_symmetry_Int_Tables_number   1
_chemical_formula_structural   Fe6OF11
_chemical_formula_sum   'Fe6 O1 F11'
_cell_volume   228.26925322
_cell_formula_units_Z   1
loop_
 _symmetry_equiv_pos_site_id
 _symmetry_equiv_pos_as_xyz
  1  'x, y, z'
loop_
 _atom_site_type_symbol
 _atom_site_label
 _atom_site_symmetry_multiplicity
 _atom_site_fract_x
 _atom_site_fract_y
 _atom_site_fract_z
 _atom_site_occupancy
  Fe  Fe0  1  0.83679178  0.66890496  0.66890496  1
  Fe  Fe1  1  0.65428544  0.33636445  0.33636445  1
  Fe  Fe2  1  0.33435456  0.64632527  0.64632527  1
  Fe  Fe3  1  0.17200328  0.33943827  0.33943827  1
  Fe  Fe4  1  0.49737560  0.99699389  0.99699389  1
  Fe  Fe5  1  0.00182542  0.00339379  0.00339379  1
  O  O6  1  0.36098510  0.44528926  0.44528926  1
  F  F7  1  0.67513728  0.03415206  0.63601925  1
  F  F8  1  0.33137170  0.36866566  0.95826639  1
  F  F9  1  0.31016669  0.88042863  0.88042863  1
  F  F10  1  0.96760244  0.23759358  0.23759358  1
  F  F11  1  0.62067726  0.58147756  0.58147756  1
  F  F12  1  0.05046456  0.75919292  0.75919292  1
  F  F13  1  0.69612269  0.10065640  0.10065640  1
  F  F14  1  0.33137170  0.95826639  0.36866566  1
  F  F15  1  0.67513728  0.63601925  0.03415206  1
  F  F16  1  0.99216361  0.29876412  0.70807354  1
  F  F17  1  0.99216361  0.70807354  0.29876412  1
