# generated using pymatgen
data_CuCClO
_symmetry_space_group_name_H-M   'P 1'
_cell_length_a   3.66227286
_cell_length_b   5.04768403
_cell_length_c   8.38342123
_cell_angle_alpha   90.00000000
_cell_angle_beta   90.00000000
_cell_angle_gamma   90.00000000
_symmetry_Int_Tables_number   1
_chemical_formula_structural   CuCClO
_chemical_formula_sum   'Cu2 C2 Cl2 O2'
_cell_volume   154.97589324
_cell_formula_units_Z   2
loop_
 _symmetry_equiv_pos_site_id
 _symmetry_equiv_pos_as_xyz
  1  'x, y, z'
loop_
 _atom_site_type_symbol
 _atom_site_label
 _atom_site_symmetry_multiplicity
 _atom_site_fract_x
 _atom_site_fract_y
 _atom_site_fract_z
 _atom_site_occupancy
  Cu  Cu0  1  0.50000000  0.50514507  0.14237727  1
  Cu  Cu1  1  0.00000000  0.00514507  0.85762273  1
  C  C2  1  0.00000000  0.20682323  0.67991229  1
  C  C3  1  0.50000000  0.70682323  0.32008771  1
  Cl  Cl4  1  0.00000000  0.21085441  0.11147557  1
  Cl  Cl5  1  0.50000000  0.71085441  0.88852443  1
  O  O6  1  0.00000000  0.33257729  0.56516605  1
  O  O7  1  0.50000000  0.83257729  0.43483395  1
