# generated using pymatgen
data_LiV4OF11
_symmetry_space_group_name_H-M   'P 1'
_cell_length_a   5.28186994
_cell_length_b   5.50188472
_cell_length_c   17.41704137
_cell_angle_alpha   92.14975473
_cell_angle_beta   98.46584752
_cell_angle_gamma   61.27884062
_symmetry_Int_Tables_number   1
_chemical_formula_structural   LiV4OF11
_chemical_formula_sum   'Li2 V8 O2 F22'
_cell_volume   438.71304936
_cell_formula_units_Z   2
loop_
 _symmetry_equiv_pos_site_id
 _symmetry_equiv_pos_as_xyz
  1  'x, y, z'
loop_
 _atom_site_type_symbol
 _atom_site_label
 _atom_site_symmetry_multiplicity
 _atom_site_fract_x
 _atom_site_fract_y
 _atom_site_fract_z
 _atom_site_occupancy
  Li  Li0  1  0.66348395  0.08648301  0.44468458  1
  Li  Li1  1  0.83661462  0.16344610  0.80538720  1
  V  V2  1  0.25403698  0.35421832  0.87345385  1
  V  V3  1  0.00723610  0.99413934  0.00033566  1
  V  V4  1  0.01910869  0.47490549  0.49658430  1
  V  V5  1  0.48095135  0.77517401  0.75351592  1
  V  V6  1  0.75024657  0.12502387  0.62514650  1
  V  V7  1  0.49237910  0.25592630  0.24954069  1
  V  V8  1  0.24570869  0.89555832  0.37652785  1
  V  V9  1  0.74972218  0.62509603  0.12490950  1
  O  O10  1  0.25441819  0.06559913  0.81332388  1
  O  O11  1  0.24604980  0.18449145  0.43671139  1
  F  F12  1  0.18354929  0.20781773  0.96689177  1
  F  F13  1  0.22973097  0.68229349  0.93724574  1
  F  F14  1  0.32484596  0.33171631  0.59161962  1
  F  F15  1  0.32630327  0.52563664  0.78749169  1
  F  F16  1  0.31674693  0.04220810  0.28312318  1
  F  F17  1  0.17371446  0.72426765  0.46251696  1
  F  F18  1  0.17480962  0.91845565  0.65828177  1
  F  F19  1  0.16950139  0.41871622  0.15938267  1
  F  F20  1  0.70163933  0.14983670  0.90452949  1
  F  F21  1  0.27060210  0.56776092  0.31282517  1
  F  F22  1  0.72665094  0.43123342  0.69112213  1
  F  F23  1  0.79875917  0.09993894  0.34547923  1
  F  F24  1  0.81174758  0.56438000  0.83759170  1
  F  F25  1  0.79854459  0.27917819  0.52797345  1
  F  F26  1  0.33006544  0.83164032  0.09068040  1
  F  F27  1  0.67812009  0.46136099  0.21415356  1
  F  F28  1  0.70141270  0.97089647  0.72199426  1
  F  F29  1  0.68828928  0.68552214  0.41244789  1
  F  F30  1  0.77448483  0.30773722  0.06072856  1
  F  F31  1  0.77343547  0.81870768  0.55878330  1
  F  F32  1  0.72508152  0.94235565  0.18918449  1
  F  F33  1  0.82200086  0.78825320  0.03582866  1
