# generated using pymatgen
data_LiVP2HO8
_symmetry_space_group_name_H-M   'P 1'
_cell_length_a   9.74457806
_cell_length_b   7.98248753
_cell_length_c   7.46057732
_cell_angle_alpha   89.90922197
_cell_angle_beta   104.78890720
_cell_angle_gamma   89.85932171
_symmetry_Int_Tables_number   1
_chemical_formula_structural   LiVP2HO8
_chemical_formula_sum   'Li4 V4 P8 H4 O32'
_cell_volume   561.10047093
_cell_formula_units_Z   4
loop_
 _symmetry_equiv_pos_site_id
 _symmetry_equiv_pos_as_xyz
  1  'x, y, z'
loop_
 _atom_site_type_symbol
 _atom_site_label
 _atom_site_symmetry_multiplicity
 _atom_site_fract_x
 _atom_site_fract_y
 _atom_site_fract_z
 _atom_site_occupancy
  Li  Li0  1  0.05292525  0.37039597  0.65206262  1
  Li  Li1  1  0.29000151  0.13047336  0.14462536  1
  Li  Li2  1  0.70494821  0.87220876  0.85450523  1
  Li  Li3  1  0.95006001  0.63097071  0.35158831  1
  V  V4  1  0.25497844  0.51183510  0.00679913  1
  V  V5  1  0.50098502  0.99979758  0.49731220  1
  V  V6  1  0.74612360  0.49118742  0.99726840  1
  V  V7  1  0.99930568  0.00026371  0.49843847  1
  P  P8  1  0.06328915  0.34605572  0.26510641  1
  P  P9  1  0.18183438  0.85118662  0.23069014  1
  P  P10  1  0.31208275  0.15077213  0.76059842  1
  P  P11  1  0.43727235  0.65223908  0.73414184  1
  P  P12  1  0.56515042  0.35160637  0.26865340  1
  P  P13  1  0.68791793  0.85212671  0.23331329  1
  P  P14  1  0.81690898  0.15381850  0.76599598  1
  P  P15  1  0.93733508  0.65633791  0.73757635  1
  H  H16  1  0.27015794  0.51278063  0.51363557  1
  H  H17  1  0.48518118  0.00685643  0.98886388  1
  H  H18  1  0.74051674  0.49163461  0.49234483  1
  H  H19  1  0.99163704  0.00571417  0.99459900  1
  O  O20  1  0.07126411  0.55379708  0.84664813  1
  O  O21  1  0.02060958  0.17096358  0.31560427  1
  O  O22  1  0.07807513  0.82659768  0.35770980  1
  O  O23  1  0.12128533  0.45001318  0.44050360  1
  O  O24  1  0.18044393  0.05147844  0.65097303  1
  O  O25  1  0.26112340  0.32369992  0.80899751  1
  O  O26  1  0.12044588  0.95781303  0.05929865  1
  O  O27  1  0.16803709  0.33130159  0.14008608  1
  O  O28  1  0.33526822  0.67210941  0.85983058  1
  O  O29  1  0.37925115  0.06048001  0.94723172  1
  O  O30  1  0.22388081  0.67475317  0.17975837  1
  O  O31  1  0.31439551  0.94907921  0.34061396  1
  O  O32  1  0.37391405  0.55480700  0.55401616  1
  O  O33  1  0.41865710  0.15779828  0.63900907  1
  O  O34  1  0.49330745  0.82274903  0.68504314  1
  O  O35  1  0.57128007  0.55561610  0.84946731  1
  O  O36  1  0.43039628  0.45025618  0.15605328  1
  O  O37  1  0.50690739  0.18122451  0.31578435  1
  O  O38  1  0.58410764  0.84503221  0.36234133  1
  O  O39  1  0.63425634  0.44611211  0.44723980  1
  O  O40  1  0.68620463  0.05344124  0.65844385  1
  O  O41  1  0.77481735  0.32823824  0.82022536  1
  O  O42  1  0.61862301  0.93959764  0.05208615  1
  O  O43  1  0.66288240  0.32917404  0.13709070  1
  O  O44  1  0.83292932  0.67257753  0.86251403  1
  O  O45  1  0.87751094  0.04605118  0.93996956  1
  O  O46  1  0.74144835  0.67624036  0.19545707  1
  O  O47  1  0.82006629  0.95079785  0.34834812  1
  O  O48  1  0.87837938  0.55216140  0.56173387  1
  O  O49  1  0.92275850  0.17631039  0.64276626  1
  O  O50  1  0.97980634  0.83032220  0.68339282  1
  O  O51  1  0.92905638  0.44684275  0.15364224  1
