# generated using pymatgen
data_Li5Mn6(BO3)6
_symmetry_space_group_name_H-M   'P 1'
_cell_length_a   10.43447635
_cell_length_b   8.87872495
_cell_length_c   8.83475247
_cell_angle_alpha   108.44315992
_cell_angle_beta   98.71572299
_cell_angle_gamma   98.22384002
_symmetry_Int_Tables_number   1
_chemical_formula_structural   Li5Mn6(BO3)6
_chemical_formula_sum   'Li10 Mn12 B12 O36'
_cell_volume   751.40130069
_cell_formula_units_Z   2
loop_
 _symmetry_equiv_pos_site_id
 _symmetry_equiv_pos_as_xyz
  1  'x, y, z'
loop_
 _atom_site_type_symbol
 _atom_site_label
 _atom_site_symmetry_multiplicity
 _atom_site_fract_x
 _atom_site_fract_y
 _atom_site_fract_z
 _atom_site_occupancy
  Li  Li0  1  0.20460907  0.90233005  0.18970104  1
  Li  Li1  1  0.23112781  0.51123465  0.53397685  1
  Li  Li2  1  0.48001279  0.76518855  0.77584274  1
  Li  Li3  1  0.44556343  0.45871090  0.16775382  1
  Li  Li4  1  0.45533348  0.16046780  0.43836105  1
  Li  Li5  1  0.69084370  0.70793215  0.40874680  1
  Li  Li6  1  0.72719315  0.01463363  0.02625290  1
  Li  Li7  1  0.93469919  0.95164345  0.65647278  1
  Li  Li8  1  0.95518859  0.65154528  0.93311935  1
  Li  Li9  1  0.97936561  0.25829929  0.28170054  1
  Mn  Mn10  1  0.17513768  0.83566147  0.81430827  1
  Mn  Mn11  1  0.15891591  0.51545371  0.16224371  1
  Mn  Mn12  1  0.16236083  0.14876372  0.52874621  1
  Mn  Mn13  1  0.40418211  0.77596145  0.41293340  1
  Mn  Mn14  1  0.41144836  0.39864184  0.78374382  1
  Mn  Mn15  1  0.42572533  0.07656252  0.06429285  1
  Mn  Mn16  1  0.64959704  0.04764306  0.65991222  1
  Mn  Mn17  1  0.66783498  0.64965588  0.00749305  1
  Mn  Mn18  1  0.68422864  0.32069285  0.31826190  1
  Mn  Mn19  1  0.91291762  0.27054953  0.91050071  1
  Mn  Mn20  1  0.91453052  0.89322808  0.27251039  1
  Mn  Mn21  1  0.92914313  0.57041588  0.56472255  1
  B  B22  1  0.12687297  0.78969204  0.45956751  1
  B  B23  1  0.13244307  0.46793389  0.79058270  1
  B  B24  1  0.25233723  0.25011059  0.26150709  1
  B  B25  1  0.37274119  0.70668982  0.03446519  1
  B  B26  1  0.38407809  0.05028631  0.71283166  1
  B  B27  1  0.49782105  0.49980707  0.49997973  1
  B  B28  1  0.61542574  0.28818698  0.95207412  1
  B  B29  1  0.62808907  0.95795993  0.28966038  1
  B  B30  1  0.74884943  0.76716281  0.74969567  1
  B  B31  1  0.87467946  0.53410307  0.20511286  1
  B  B32  1  0.87386154  0.19845880  0.53924744  1
  B  B33  1  0.99258537  0.99243908  0.00336064  1
  O  O34  1  0.06846671  0.87393137  0.00032808  1
  O  O35  1  0.05164650  0.79980872  0.57764255  1
  O  O36  1  0.06032803  0.46736230  0.90948082  1
  O  O37  1  0.11861557  0.57144679  0.70415651  1
  O  O38  1  0.12308934  0.89646312  0.37320059  1
  O  O39  1  0.20668490  0.67536507  0.42611436  1
  O  O40  1  0.21818967  0.36082313  0.75101666  1
  O  O41  1  0.16919108  0.28229002  0.37320119  1
  O  O42  1  0.36849359  0.80998653  0.94720158  1
  O  O43  1  0.30867012  0.72202168  0.16314392  1
  O  O44  1  0.31112972  0.04537502  0.82612399  1
  O  O45  1  0.27436444  0.34953438  0.17257477  1
  O  O46  1  0.46971874  0.94108108  0.67191374  1
  O  O47  1  0.31486823  0.11765833  0.24434636  1
  O  O48  1  0.37807019  0.16349936  0.63226706  1
  O  O49  1  0.42505331  0.53594102  0.62352323  1
  O  O50  1  0.44574182  0.58241879  0.99665249  1
  O  O51  1  0.56318795  0.98325888  0.42231332  1
  O  O52  1  0.51138772  0.59888555  0.40417289  1
  O  O53  1  0.59734896  0.38905791  0.86067554  1
  O  O54  1  0.55408538  0.36617205  0.46760717  1
  O  O55  1  0.66905685  0.79555657  0.86574936  1
  O  O56  1  0.55779908  0.30151714  0.08459273  1
  O  O57  1  0.69228397  0.17090028  0.90488328  1
  O  O58  1  0.69715329  0.83411595  0.25462262  1
  O  O59  1  0.74532689  0.85188552  0.64006775  1
  O  O60  1  0.61775442  0.05734549  0.19787684  1
  O  O61  1  0.83113790  0.65888185  0.74707422  1
  O  O62  1  0.80655067  0.54829122  0.33106050  1
  O  O63  1  0.80113284  0.20360830  0.66044723  1
  O  O64  1  0.86994900  0.30609535  0.45617520  1
  O  O65  1  0.86564580  0.63716146  0.11465151  1
  O  O66  1  0.98966257  0.06682037  0.88870844  1
  O  O67  1  0.95236909  0.41746558  0.16824479  1
  O  O68  1  0.95281892  0.08440786  0.50884935  1
  O  O69  1  0.91736256  0.03327984  0.12374640  1
