# generated using pymatgen
data_V2O3
_symmetry_space_group_name_H-M   'P 1'
_cell_length_a   5.13475632
_cell_length_b   5.47013352
_cell_length_c   15.06834135
_cell_angle_alpha   89.99631598
_cell_angle_beta   90.00014791
_cell_angle_gamma   90.00078258
_symmetry_Int_Tables_number   1
_chemical_formula_structural   V2O3
_chemical_formula_sum   'V16 O24'
_cell_volume   423.23659757
_cell_formula_units_Z   8
loop_
 _symmetry_equiv_pos_site_id
 _symmetry_equiv_pos_as_xyz
  1  'x, y, z'
loop_
 _atom_site_type_symbol
 _atom_site_label
 _atom_site_symmetry_multiplicity
 _atom_site_fract_x
 _atom_site_fract_y
 _atom_site_fract_z
 _atom_site_occupancy
  V  V0  1  0.00067980  0.18390143  0.07343588  1
  V  V1  1  0.99724698  0.74925481  0.17919469  1
  V  V2  1  0.00063841  0.31617922  0.57342676  1
  V  V3  1  0.99724431  0.75080226  0.67920005  1
  V  V4  1  0.50276207  0.24926420  0.17920172  1
  V  V5  1  0.50273827  0.25080498  0.67919974  1
  V  V6  1  0.49938362  0.81618097  0.57343145  1
  V  V7  1  0.49933974  0.68389198  0.07343677  1
  V  V8  1  0.50065086  0.18385843  0.42656826  1
  V  V9  1  0.50067504  0.31605978  0.92656421  1
  V  V10  1  0.49723783  0.74923116  0.32079678  1
  V  V11  1  0.49725322  0.75072109  0.82080960  1
  V  V12  1  0.99937682  0.68386741  0.42656871  1
  V  V13  1  0.00278078  0.24925299  0.32078819  1
  V  V14  1  0.00272468  0.25071957  0.82080237  1
  V  V15  1  0.99933482  0.81606316  0.92656837  1
  O  O16  1  0.14204457  0.11599196  0.20252966  1
  O  O17  1  0.14199884  0.38394503  0.70252222  1
  O  O18  1  0.15015851  0.83633083  0.05087740  1
  O  O19  1  0.15016403  0.66379164  0.55087054  1
  O  O20  1  0.19924958  0.96694822  0.37536404  1
  O  O21  1  0.19919101  0.53300876  0.87538130  1
  O  O22  1  0.30077476  0.46694525  0.37536653  1
  O  O23  1  0.30081203  0.03301578  0.87537461  1
  O  O24  1  0.34982147  0.16378832  0.55087323  1
  O  O25  1  0.34981520  0.33632434  0.05089352  1
  O  O26  1  0.35794533  0.61599959  0.20252327  1
  O  O27  1  0.35798455  0.88393500  0.70251776  1
  O  O28  1  0.64202157  0.11611120  0.29747432  1
  O  O29  1  0.64202924  0.38399918  0.79747077  1
  O  O30  1  0.65015600  0.83624453  0.44913061  1
  O  O31  1  0.65016748  0.66360553  0.94912470  1
  O  O32  1  0.69923083  0.53306140  0.62462802  1
  O  O33  1  0.69920480  0.96692608  0.12462374  1
  O  O34  1  0.80081340  0.46691943  0.12462864  1
  O  O35  1  0.80077544  0.03307626  0.62463891  1
  O  O36  1  0.84984452  0.33624357  0.44911625  1
  O  O37  1  0.84980122  0.16362133  0.94911270  1
  O  O38  1  0.85795091  0.88398884  0.79748439  1
  O  O39  1  0.85797746  0.61612449  0.29747932  1
