# generated using pymatgen
data_Li5Mn6(BO3)6
_symmetry_space_group_name_H-M   'P 1'
_cell_length_a   8.28395333
_cell_length_b   12.63403597
_cell_length_c   8.80141210
_cell_angle_alpha   70.22015069
_cell_angle_beta   62.49720912
_cell_angle_gamma   71.06586818
_symmetry_Int_Tables_number   1
_chemical_formula_structural   Li5Mn6(BO3)6
_chemical_formula_sum   'Li10 Mn12 B12 O36'
_cell_volume   753.07160407
_cell_formula_units_Z   2
loop_
 _symmetry_equiv_pos_site_id
 _symmetry_equiv_pos_as_xyz
  1  'x, y, z'
loop_
 _atom_site_type_symbol
 _atom_site_label
 _atom_site_symmetry_multiplicity
 _atom_site_fract_x
 _atom_site_fract_y
 _atom_site_fract_z
 _atom_site_occupancy
  Li  Li0  1  0.98955874  0.80518250  0.90628501  1
  Li  Li1  1  0.72300612  0.69664985  0.59768523  1
  Li  Li2  1  0.71577460  0.44846484  0.84961785  1
  Li  Li3  1  0.99056249  0.55165217  0.15993841  1
  Li  Li4  1  0.97829426  0.05594787  0.66508923  1
  Li  Li5  1  0.97647522  0.30311366  0.41877684  1
  Li  Li6  1  0.71886818  0.20328061  0.09940766  1
  Li  Li7  1  0.30283236  0.87392436  0.11034828  1
  Li  Li8  1  0.30045613  0.62524030  0.36175651  1
  Li  Li9  1  0.29020258  0.11620697  0.86553120  1
  Mn  Mn10  1  0.38055451  0.90265040  0.70234989  1
  Mn  Mn11  1  0.36518007  0.65799639  0.97192626  1
  Mn  Mn12  1  0.64475167  0.75410925  0.25649697  1
  Mn  Mn13  1  0.62532904  0.50070621  0.50668603  1
  Mn  Mn14  1  0.59928669  0.25626645  0.76620359  1
  Mn  Mn15  1  0.01794436  0.58366646  0.76226728  1
  Mn  Mn16  1  0.99992100  0.84117697  0.51895514  1
  Mn  Mn17  1  0.35631517  0.16119352  0.48042732  1
  Mn  Mn18  1  0.36277904  0.40941647  0.23092488  1
  Mn  Mn19  1  0.63651406  0.00416239  0.02163203  1
  Mn  Mn20  1  0.01606877  0.33850919  0.00868995  1
  Mn  Mn21  1  0.00239090  0.08943314  0.26995038  1
  B  B22  1  0.66898223  0.79757829  0.86994449  1
  B  B23  1  0.98064318  0.24599151  0.75854507  1
  B  B24  1  0.99421410  0.50348303  0.49467978  1
  B  B25  1  0.67532083  0.28546597  0.37973210  1
  B  B26  1  0.67239823  0.54349220  0.12180014  1
  B  B27  1  0.65665277  0.04437590  0.63824534  1
  B  B28  1  0.33186664  0.45566205  0.87882735  1
  B  B29  1  0.33883144  0.71128440  0.62052303  1
  B  B30  1  0.32847293  0.95496279  0.37992617  1
  B  B31  1  0.01201306  0.74544068  0.24590967  1
  B  B32  1  0.33059969  0.21114982  0.12503680  1
  B  B33  1  0.01136786  0.99958206  0.98595549  1
  O  O34  1  0.92361127  0.96862299  0.90871473  1
  O  O35  1  0.85918316  0.76241245  0.79340926  1
  O  O36  1  0.89798527  0.78005377  0.40049165  1
  O  O37  1  0.87461858  0.30256453  0.89628883  1
  O  O38  1  0.87920398  0.54480877  0.64789792  1
  O  O39  1  0.93593933  0.71879517  0.15322356  1
  O  O40  1  0.91416543  0.46933122  0.41360302  1
  O  O41  1  0.89163200  0.22226519  0.67469809  1
  O  O42  1  0.55857119  0.78121885  0.79849143  1
  O  O43  1  0.20513434  0.96865692  0.92947540  1
  O  O44  1  0.86404685  0.51521611  0.04356208  1
  O  O45  1  0.86579350  0.26312004  0.28915633  1
  O  O46  1  0.84526054  0.01647278  0.55071742  1
  O  O47  1  0.52963697  0.67605649  0.54495309  1
  O  O48  1  0.52757510  0.41769914  0.79687941  1
  O  O49  1  0.51736255  0.92742459  0.29320344  1
  O  O50  1  0.60104791  0.32842004  0.53069809  1
  O  O51  1  0.57871244  0.10090632  0.77660651  1
  O  O52  1  0.26351810  0.77084953  0.75733982  1
  O  O53  1  0.58391268  0.59292344  0.26736422  1
  O  O54  1  0.58395279  0.84560371  0.01416770  1
  O  O55  1  0.90534593  0.06186030  0.11394758  1
  O  O56  1  0.56017719  0.26835398  0.31954825  1
  O  O57  1  0.56468972  0.52222710  0.05619234  1
  O  O58  1  0.53071440  0.02058909  0.59690390  1
  O  O59  1  0.21964499  0.43730107  0.81979743  1
  O  O60  1  0.22094090  0.69050408  0.56866698  1
  O  O61  1  0.20714564  0.94245516  0.32177466  1
  O  O62  1  0.20458164  0.73491201  0.18158654  1
  O  O63  1  0.18261357  0.49860886  0.42160839  1
  O  O64  1  0.16999318  0.21172217  0.70700043  1
  O  O65  1  0.52653931  0.19347960  0.02818388  1
  O  O66  1  0.26280454  0.50973384  0.01612765  1
  O  O67  1  0.25516518  0.25392604  0.27468877  1
  O  O68  1  0.25482942  0.99673202  0.53469396  1
  O  O69  1  0.22320747  0.18584492  0.06555186  1
