# generated using pymatgen
data_Li3Mn2(P2O7)2
_symmetry_space_group_name_H-M   'P 1'
_cell_length_a   9.86006280
_cell_length_b   9.86105016
_cell_length_c   11.37230242
_cell_angle_alpha   90.13759188
_cell_angle_beta   103.22206311
_cell_angle_gamma   89.57153402
_symmetry_Int_Tables_number   1
_chemical_formula_structural   Li3Mn2(P2O7)2
_chemical_formula_sum   'Li12 Mn8 P16 O56'
_cell_volume   1076.39306689
_cell_formula_units_Z   4
loop_
 _symmetry_equiv_pos_site_id
 _symmetry_equiv_pos_as_xyz
  1  'x, y, z'
loop_
 _atom_site_type_symbol
 _atom_site_label
 _atom_site_symmetry_multiplicity
 _atom_site_fract_x
 _atom_site_fract_y
 _atom_site_fract_z
 _atom_site_occupancy
  Li  Li0  1  0.11540175  0.72058265  0.44828525  1
  Li  Li1  1  0.17979804  0.41217166  0.55062815  1
  Li  Li2  1  0.08890962  0.10831000  0.02541865  1
  Li  Li3  1  0.41131387  0.60894423  0.97292027  1
  Li  Li4  1  0.35078055  0.93370772  0.47117990  1
  Li  Li5  1  0.64960177  0.06401099  0.52975697  1
  Li  Li6  1  0.58726633  0.39381702  0.03140431  1
  Li  Li7  1  0.85379693  0.58998173  0.95666229  1
  Li  Li8  1  0.64791518  0.08955443  0.04244857  1
  Li  Li9  1  0.91351972  0.89419589  0.97054702  1
  Li  Li10  1  0.81785087  0.58734721  0.44801636  1
  Li  Li11  1  0.88455640  0.27939613  0.55115902  1
  Mn  Mn12  1  0.20155680  0.92500145  0.67488271  1
  Mn  Mn13  1  0.25918221  0.21490747  0.82527163  1
  Mn  Mn14  1  0.24647376  0.71294128  0.17501844  1
  Mn  Mn15  1  0.29809234  0.42146920  0.32506430  1
  Mn  Mn16  1  0.70332461  0.57953474  0.67333023  1
  Mn  Mn17  1  0.75448260  0.28467993  0.82474166  1
  Mn  Mn18  1  0.74143991  0.78317537  0.17425863  1
  Mn  Mn19  1  0.79623560  0.07499388  0.32610732  1
  P  P20  1  0.02674619  0.45005495  0.75546356  1
  P  P21  1  0.12011660  0.70984097  0.88681299  1
  P  P22  1  0.06114089  0.93071988  0.24182860  1
  P  P23  1  0.12187513  0.14815350  0.42615217  1
  P  P24  1  0.37827774  0.64598406  0.57488990  1
  P  P25  1  0.43837027  0.43121505  0.75936417  1
  P  P26  1  0.52164755  0.04884452  0.75591084  1
  P  P27  1  0.38004095  0.20998865  0.11060576  1
  P  P28  1  0.61666353  0.79252949  0.89163891  1
  P  P29  1  0.47601163  0.95076099  0.24661318  1
  P  P30  1  0.56236319  0.57007830  0.24250374  1
  P  P31  1  0.61966536  0.35237918  0.42118214  1
  P  P32  1  0.87902283  0.85071877  0.57668865  1
  P  P33  1  0.93811384  0.07042849  0.75654950  1
  P  P34  1  0.88275196  0.29201610  0.11059051  1
  P  P35  1  0.97783896  0.54636084  0.24354388  1
  O  O36  1  0.02045788  0.41890206  0.62361455  1
  O  O37  1  0.03307056  0.83899379  0.56446150  1
  O  O38  1  0.08422072  0.08909279  0.73037575  1
  O  O39  1  0.11178012  0.34665175  0.84477568  1
  O  O40  1  0.10271131  0.59304424  0.78187124  1
  O  O41  1  0.17565456  0.82987848  0.82781585  1
  O  O42  1  0.22823890  0.65393767  0.99782909  1
  O  O43  1  0.01974175  0.26537362  0.08067985  1
  O  O44  1  0.11720214  0.07653470  0.29666760  1
  O  O45  1  0.06354744  0.93587910  0.10965592  1
  O  O46  1  0.13272064  0.53613088  0.22554720  1
  O  O47  1  0.18216830  0.28897523  0.41550616  1
  O  O48  1  0.16600908  0.82140033  0.30760021  1
  O  O49  1  0.21238028  0.05509039  0.52121446  1
  O  O50  1  0.27659928  0.56081996  0.47893299  1
  O  O51  1  0.32821304  0.32488304  0.69822300  1
  O  O52  1  0.31367206  0.78794633  0.58027252  1
  O  O53  1  0.36728290  0.04332392  0.77845712  1
  O  O54  1  0.37683503  0.57622394  0.70381123  1
  O  O55  1  0.44162683  0.43745315  0.89253128  1
  O  O56  1  0.48055588  0.76696489  0.92290087  1
  O  O57  1  0.27131301  0.15610914  0.99815359  1
  O  O58  1  0.32402007  0.33094091  0.16968307  1
  O  O59  1  0.39606448  0.09313745  0.21276559  1
  O  O60  1  0.41714844  0.58622107  0.27214667  1
  O  O61  1  0.39554026  0.84551721  0.15799961  1
  O  O62  1  0.52201734  0.08013151  0.62740607  1
  O  O63  1  0.46702004  0.35031156  0.43256329  1
  O  O64  1  0.52788508  0.65067298  0.56189117  1
  O  O65  1  0.48329386  0.92998442  0.37832428  1
  O  O66  1  0.60666029  0.14142761  0.85509220  1
  O  O67  1  0.58232474  0.41279676  0.72843395  1
  O  O68  1  0.58968936  0.89982290  0.77964775  1
  O  O69  1  0.68882352  0.67230455  0.84309496  1
  O  O70  1  0.72331909  0.86310036  0.99854227  1
  O  O71  1  0.51979541  0.22730325  0.07928020  1
  O  O72  1  0.56098645  0.56492243  0.10937044  1
  O  O73  1  0.62155209  0.42129587  0.29328687  1
  O  O74  1  0.62517047  0.96443394  0.21682185  1
  O  O75  1  0.68005565  0.20866655  0.41624512  1
  O  O76  1  0.67112070  0.67273388  0.30732579  1
  O  O77  1  0.72019085  0.43493383  0.51814873  1
  O  O78  1  0.78873662  0.94153308  0.48126806  1
  O  O79  1  0.83389618  0.17717071  0.68779682  1
  O  O80  1  0.82277172  0.70817496  0.58716173  1
  O  O81  1  0.87758974  0.46465150  0.78304978  1
  O  O82  1  0.93372112  0.06680250  0.88863107  1
  O  O83  1  0.88317339  0.92216547  0.70565772  1
  O  O84  1  0.98001528  0.72809887  0.91791517  1
  O  O85  1  0.77717708  0.36401309  0.00405767  1
  O  O86  1  0.81092991  0.17241713  0.15885333  1
  O  O87  1  0.90842452  0.39954515  0.22450825  1
  O  O88  1  0.89395478  0.63957420  0.14405175  1
  O  O89  1  0.91561560  0.91142014  0.26924732  1
  O  O90  1  0.96957172  0.16149201  0.43908225  1
  O  O91  1  0.97506498  0.58710507  0.37157538  1
