# generated using pymatgen
data_Li3Mn2(P2O7)2
_symmetry_space_group_name_H-M   'P 1'
_cell_length_a   9.84863824
_cell_length_b   9.87021663
_cell_length_c   11.34084857
_cell_angle_alpha   90.09688901
_cell_angle_beta   103.01728940
_cell_angle_gamma   89.41707014
_symmetry_Int_Tables_number   1
_chemical_formula_structural   Li3Mn2(P2O7)2
_chemical_formula_sum   'Li12 Mn8 P16 O56'
_cell_volume   1074.03768077
_cell_formula_units_Z   4
loop_
 _symmetry_equiv_pos_site_id
 _symmetry_equiv_pos_as_xyz
  1  'x, y, z'
loop_
 _atom_site_type_symbol
 _atom_site_label
 _atom_site_symmetry_multiplicity
 _atom_site_fract_x
 _atom_site_fract_y
 _atom_site_fract_z
 _atom_site_occupancy
  Li  Li0  1  0.11565449  0.71170586  0.45089419  1
  Li  Li1  1  0.08895301  0.10756652  0.02612319  1
  Li  Li2  1  0.41147190  0.61018347  0.97286765  1
  Li  Li3  1  0.33644128  0.91971882  0.45929843  1
  Li  Li4  1  0.37752895  0.22564016  0.55048709  1
  Li  Li5  1  0.65999634  0.06611307  0.53728360  1
  Li  Li6  1  0.58587202  0.39357534  0.03021505  1
  Li  Li7  1  0.85217630  0.58806328  0.95533115  1
  Li  Li8  1  0.64834617  0.08991150  0.04353493  1
  Li  Li9  1  0.91357668  0.89385907  0.97040206  1
  Li  Li10  1  0.82598135  0.58155937  0.45406820  1
  Li  Li11  1  0.89330375  0.28006653  0.55109462  1
  Mn  Mn12  1  0.20431256  0.91949572  0.67749493  1
  Mn  Mn13  1  0.25664102  0.21381097  0.82508603  1
  Mn  Mn14  1  0.24474619  0.71389284  0.17485944  1
  Mn  Mn15  1  0.29498668  0.42668471  0.32742587  1
  Mn  Mn16  1  0.70469233  0.57838755  0.67398289  1
  Mn  Mn17  1  0.75933077  0.28513710  0.82632652  1
  Mn  Mn18  1  0.73965500  0.78282049  0.17452339  1
  Mn  Mn19  1  0.79707511  0.07471659  0.32626419  1
  P  P20  1  0.02552871  0.45160441  0.75357289  1
  P  P21  1  0.11925653  0.70849758  0.88944183  1
  P  P22  1  0.05971359  0.92947668  0.24160545  1
  P  P23  1  0.12364494  0.14989589  0.42456080  1
  P  P24  1  0.37923172  0.64407699  0.57274142  1
  P  P25  1  0.44049197  0.43066275  0.75892142  1
  P  P26  1  0.52318289  0.05072365  0.75967562  1
  P  P27  1  0.37903782  0.21141276  0.11215672  1
  P  P28  1  0.61645888  0.79378086  0.89066201  1
  P  P29  1  0.47426028  0.95007783  0.24618781  1
  P  P30  1  0.56131930  0.57020379  0.24246374  1
  P  P31  1  0.62090111  0.35113236  0.42435813  1
  P  P32  1  0.87884094  0.84937499  0.57593159  1
  P  P33  1  0.93902620  0.06897474  0.75586664  1
  P  P34  1  0.88269129  0.29285180  0.11039132  1
  P  P35  1  0.97444156  0.54921036  0.24073778  1
  O  O36  1  0.01502332  0.42174898  0.62267634  1
  O  O37  1  0.03111217  0.83753577  0.56134176  1
  O  O38  1  0.08520665  0.08726844  0.72975849  1
  O  O39  1  0.11000834  0.34885093  0.84428702  1
  O  O40  1  0.10141143  0.59437053  0.78306941  1
  O  O41  1  0.17402686  0.82941375  0.83303279  1
  O  O42  1  0.22801108  0.65119217  0.00019735  1
  O  O43  1  0.01932481  0.26611841  0.07914171  1
  O  O44  1  0.11514339  0.07431523  0.29541277  1
  O  O45  1  0.06382405  0.93315424  0.10926235  1
  O  O46  1  0.12826914  0.54259738  0.22031438  1
  O  O47  1  0.19345638  0.28363693  0.41354071  1
  O  O48  1  0.16696713  0.82141840  0.30862712  1
  O  O49  1  0.22137555  0.06034339  0.52020141  1
  O  O50  1  0.28360107  0.56906690  0.46801702  1
  O  O51  1  0.34448736  0.31374945  0.70038081  1
  O  O52  1  0.31543414  0.78546546  0.58199494  1
  O  O53  1  0.36962991  0.04356177  0.78074758  1
  O  O54  1  0.37294285  0.57034501  0.69842270  1
  O  O55  1  0.44059334  0.44055862  0.89113947  1
  O  O56  1  0.47955371  0.76887643  0.92102038  1
  O  O57  1  0.27093996  0.15715580  0.00055542  1
  O  O58  1  0.32367961  0.33184095  0.17237801  1
  O  O59  1  0.39743977  0.09439406  0.21488387  1
  O  O60  1  0.41660260  0.58989343  0.27072222  1
  O  O61  1  0.39087685  0.84692517  0.15687422  1
  O  O62  1  0.52187060  0.08873849  0.62961415  1
  O  O63  1  0.46971397  0.34456872  0.44090642  1
  O  O64  1  0.53284533  0.65058857  0.56674864  1
  O  O65  1  0.48058542  0.92843031  0.37804128  1
  O  O66  1  0.61071225  0.14113748  0.85690826  1
  O  O67  1  0.58685928  0.41685771  0.72925028  1
  O  O68  1  0.59072010  0.90176855  0.77742967  1
  O  O69  1  0.68811970  0.67354740  0.84183161  1
  O  O70  1  0.72220362  0.86358772  0.99780248  1
  O  O71  1  0.51874761  0.22839863  0.07937058  1
  O  O72  1  0.56163213  0.56357301  0.10936434  1
  O  O73  1  0.61632992  0.42079451  0.29547062  1
  O  O74  1  0.62267643  0.96141348  0.21503217  1
  O  O75  1  0.68217364  0.20909851  0.41799973  1
  O  O76  1  0.67141134  0.67177351  0.30677179  1
  O  O77  1  0.72076106  0.43567771  0.51938941  1
  O  O78  1  0.78706315  0.93963877  0.48167740  1
  O  O79  1  0.83415635  0.17526825  0.68668639  1
  O  O80  1  0.82172612  0.70703751  0.58896459  1
  O  O81  1  0.87519460  0.46810190  0.78468023  1
  O  O82  1  0.93418932  0.06665450  0.88835615  1
  O  O83  1  0.88371382  0.92120645  0.70564579  1
  O  O84  1  0.97913562  0.72585351  0.92183775  1
  O  O85  1  0.77663676  0.36474718  0.00427748  1
  O  O86  1  0.81154049  0.17330287  0.15876706  1
  O  O87  1  0.90894127  0.40086447  0.22391104  1
  O  O88  1  0.88734418  0.64027563  0.14074225  1
  O  O89  1  0.91465916  0.90900572  0.26799903  1
  O  O90  1  0.97367289  0.16202825  0.44013796  1
  O  O91  1  0.97153880  0.59148164  0.36800364  1
