# generated using pymatgen
data_Li5Mn6(BO3)6
_symmetry_space_group_name_H-M   'P 1'
_cell_length_a   5.93024776
_cell_length_b   5.29730051
_cell_length_c   13.24580767
_cell_angle_alpha   89.25243716
_cell_angle_beta   82.22963278
_cell_angle_gamma   113.16559090
_symmetry_Int_Tables_number   1
_chemical_formula_structural   Li5Mn6(BO3)6
_chemical_formula_sum   'Li5 Mn6 B6 O18'
_cell_volume   378.04179483
_cell_formula_units_Z   1
loop_
 _symmetry_equiv_pos_site_id
 _symmetry_equiv_pos_as_xyz
  1  'x, y, z'
loop_
 _atom_site_type_symbol
 _atom_site_label
 _atom_site_symmetry_multiplicity
 _atom_site_fract_x
 _atom_site_fract_y
 _atom_site_fract_z
 _atom_site_occupancy
  Li  Li0  1  0.69744938  0.26007348  0.64557089  1
  Li  Li1  1  0.65667607  0.39796090  0.02101742  1
  Li  Li2  1  0.34161195  0.60254083  0.97751501  1
  Li  Li3  1  0.32424634  0.73501315  0.35712189  1
  Li  Li4  1  0.01265807  0.93873232  0.31296019  1
  Mn  Mn5  1  0.96192285  0.56245440  0.79565665  1
  Mn  Mn6  1  0.37807987  0.11528602  0.86240314  1
  Mn  Mn7  1  0.71921612  0.77941260  0.53679073  1
  Mn  Mn8  1  0.28978124  0.22793651  0.47408608  1
  Mn  Mn9  1  0.62205545  0.88546837  0.13785384  1
  Mn  Mn10  1  0.04106517  0.44820797  0.19721560  1
  B  B11  1  0.83750837  0.34796993  0.42322406  1
  B  B12  1  0.82686518  0.98416227  0.91261021  1
  B  B13  1  0.50183945  0.67660718  0.75411035  1
  B  B14  1  0.49158061  0.32017007  0.24648268  1
  B  B15  1  0.17330809  0.01477972  0.08864804  1
  B  B16  1  0.16522354  0.65598556  0.57347427  1
  O  O17  1  0.90146759  0.12214652  0.42723815  1
  O  O18  1  0.76478009  0.21260313  0.90426344  1
  O  O19  1  0.00461199  0.95348116  0.84079052  1
  O  O20  1  0.94984914  0.55455318  0.34614339  1
  O  O21  1  0.70323410  0.77922912  0.99069380  1
  O  O22  1  0.66755058  0.37029241  0.50377249  1
  O  O23  1  0.58393865  0.46278826  0.75937795  1
  O  O24  1  0.65824341  0.29507858  0.16548965  1
  O  O25  1  0.58735270  0.87287963  0.67419390  1
  O  O26  1  0.38165893  0.11498315  0.32462313  1
  O  O27  1  0.32981341  0.69403329  0.83485508  1
  O  O28  1  0.43093249  0.54883216  0.24502199  1
  O  O29  1  0.35516350  0.64327880  0.49826463  1
  O  O30  1  0.28688847  0.22298546  0.01177545  1
  O  O31  1  0.05488256  0.45776522  0.65114985  1
  O  O32  1  0.00566260  0.03926427  0.16951340  1
  O  O33  1  0.23026359  0.78407094  0.08994224  1
  O  O34  1  0.08368546  0.86340245  0.55657288  1
