# generated using pymatgen
data_Li21(CoO4)4
_symmetry_space_group_name_H-M   'P 1'
_cell_length_a   9.08905265
_cell_length_b   9.43185011
_cell_length_c   9.37424577
_cell_angle_alpha   90.00000000
_cell_angle_beta   90.00000000
_cell_angle_gamma   90.19366594
_symmetry_Int_Tables_number   1
_chemical_formula_structural   Li21(CoO4)4
_chemical_formula_sum   'Li42 Co8 O32'
_cell_volume   803.61746021
_cell_formula_units_Z   2
loop_
 _symmetry_equiv_pos_site_id
 _symmetry_equiv_pos_as_xyz
  1  'x, y, z'
loop_
 _atom_site_type_symbol
 _atom_site_label
 _atom_site_symmetry_multiplicity
 _atom_site_fract_x
 _atom_site_fract_y
 _atom_site_fract_z
 _atom_site_occupancy
  Li  Li0  1  0.88813963  0.63594230  0.86406500  1
  Li  Li1  1  0.88273701  0.86494305  0.64121621  1
  Li  Li2  1  0.88813963  0.13594230  0.63593500  1
  Li  Li3  1  0.88273701  0.36494305  0.85878379  1
  Li  Li4  1  0.87927857  0.84014612  0.10818764  1
  Li  Li5  1  0.87927857  0.34014612  0.39181236  1
  Li  Li6  1  0.84742018  0.89818438  0.37787119  1
  Li  Li7  1  0.84742018  0.39818438  0.12212881  1
  Li  Li8  1  0.67259789  0.88511858  0.88689052  1
  Li  Li9  1  0.67259789  0.38511858  0.61310948  1
  Li  Li10  1  0.65566429  0.60743272  0.13188690  1
  Li  Li11  1  0.63308890  0.88023485  0.15861274  1
  Li  Li12  1  0.65566429  0.10743272  0.36811310  1
  Li  Li13  1  0.63308890  0.38023485  0.34138726  1
  Li  Li14  1  0.61249627  0.86096843  0.61696813  1
  Li  Li15  1  0.61249627  0.36096843  0.88303187  1
  Li  Li16  1  0.64844915  0.62227106  0.60444003  1
  Li  Li17  1  0.64844915  0.12227106  0.89555997  1
  Li  Li18  1  0.60429907  0.64738772  0.36939432  1
  Li  Li19  1  0.60429907  0.14738772  0.13060568  1
  Li  Li20  1  0.39398356  0.85102382  0.86403954  1
  Li  Li21  1  0.39398356  0.35102382  0.63596046  1
  Li  Li22  1  0.38635774  0.88503993  0.10494607  1
  Li  Li23  1  0.38635774  0.38503993  0.39505393  1
  Li  Li24  1  0.37113544  0.62043704  0.64692224  1
  Li  Li25  1  0.38042691  0.63842995  0.11702936  1
  Li  Li26  1  0.37113544  0.12043704  0.85307776  1
  Li  Li27  1  0.38042691  0.13842995  0.38297064  1
  Li  Li28  1  0.33743322  0.88675078  0.62068099  1
  Li  Li29  1  0.33743322  0.38675078  0.87931901  1
  Li  Li30  1  0.33162644  0.62529420  0.38124711  1
  Li  Li31  1  0.33162644  0.12529420  0.11875289  1
  Li  Li32  1  0.16126106  0.60491070  0.88510732  1
  Li  Li33  1  0.13493612  0.89254330  0.12136366  1
  Li  Li34  1  0.16126106  0.10491070  0.61489268  1
  Li  Li35  1  0.13493612  0.39254330  0.37863634  1
  Li  Li36  1  0.11973308  0.86273663  0.37799365  1
  Li  Li37  1  0.11609944  0.62586947  0.14504480  1
  Li  Li38  1  0.11973308  0.36273663  0.12200635  1
  Li  Li39  1  0.11609944  0.12586947  0.35495520  1
  Li  Li40  1  0.10117258  0.65214119  0.61502083  1
  Li  Li41  1  0.10117258  0.15214119  0.88497917  1
  Co  Co42  1  0.88863840  0.62147282  0.36951941  1
  Co  Co43  1  0.88863840  0.12147282  0.13048059  1
  Co  Co44  1  0.60648365  0.62455789  0.86880901  1
  Co  Co45  1  0.60648365  0.12455789  0.63119099  1
  Co  Co46  1  0.39758839  0.87894826  0.36847527  1
  Co  Co47  1  0.39758839  0.37894826  0.13152473  1
  Co  Co48  1  0.11084879  0.87571515  0.85334043  1
  Co  Co49  1  0.11084879  0.37571515  0.64665957  1
  O  O50  1  0.99009555  0.98838285  0.23922905  1
  O  O51  1  0.99009555  0.48838285  0.26077095  1
  O  O52  1  0.97400660  0.75610353  0.48347098  1
  O  O53  1  0.97400660  0.25610353  0.01652902  1
  O  O54  1  0.74458669  0.50442664  0.46492244  1
  O  O55  1  0.75808579  0.74223242  0.25431069  1
  O  O56  1  0.74458669  0.00442664  0.03507756  1
  O  O57  1  0.75808579  0.24223242  0.24568931  1
  O  O58  1  0.74134579  0.00567900  0.53150457  1
  O  O59  1  0.74134579  0.50567900  0.96849543  1
  O  O60  1  0.72975547  0.74261966  0.75258918  1
  O  O61  1  0.72975547  0.24261966  0.74741082  1
  O  O62  1  0.52762387  0.75370526  0.00199107  1
  O  O63  1  0.52762387  0.25370526  0.49800893  1
  O  O64  1  0.51702387  0.99494024  0.75507136  1
  O  O65  1  0.51702387  0.49494024  0.74492864  1
  O  O66  1  0.49106000  0.51515564  0.26024132  1
  O  O67  1  0.49106000  0.01515564  0.23975868  1
  O  O68  1  0.47889309  0.74266702  0.50978299  1
  O  O69  1  0.47889309  0.24266702  0.99021701  1
  O  O70  1  0.26139155  0.76647914  0.23641956  1
  O  O71  1  0.25346310  0.98662968  0.97293178  1
  O  O72  1  0.25403602  0.49909392  0.02956065  1
  O  O73  1  0.26139155  0.26647914  0.26358044  1
  O  O74  1  0.24489523  0.75331142  0.75045105  1
  O  O75  1  0.25346310  0.48662968  0.52706822  1
  O  O76  1  0.25403602  0.99909492  0.47043935  1
  O  O77  1  0.24489523  0.25331142  0.74954895  1
  O  O78  1  0.02925750  0.75331009  0.98671119  1
  O  O79  1  0.02925750  0.25331009  0.51328881  1
  O  O80  1  0.02019312  0.50447714  0.75772069  1
  O  O81  1  0.02019312  0.00447714  0.74227931  1
