# generated using pymatgen
data_Li5Mn6(BO3)6
_symmetry_space_group_name_H-M   'P 1'
_cell_length_a   8.25186761
_cell_length_b   12.71197489
_cell_length_c   8.85542019
_cell_angle_alpha   92.37395908
_cell_angle_beta   62.17453761
_cell_angle_gamma   71.03437671
_symmetry_Int_Tables_number   1
_chemical_formula_structural   Li5Mn6(BO3)6
_chemical_formula_sum   'Li10 Mn12 B12 O36'
_cell_volume   755.91264205
_cell_formula_units_Z   2
loop_
 _symmetry_equiv_pos_site_id
 _symmetry_equiv_pos_as_xyz
  1  'x, y, z'
loop_
 _atom_site_type_symbol
 _atom_site_label
 _atom_site_symmetry_multiplicity
 _atom_site_fract_x
 _atom_site_fract_y
 _atom_site_fract_z
 _atom_site_occupancy
  Li  Li0  1  0.08301899  0.19759755  0.89624927  1
  Li  Li1  1  0.21749198  0.80696661  0.08192534  1
  Li  Li2  1  0.32372719  0.37387022  0.39014215  1
  Li  Li3  1  0.07686006  0.62153279  0.64167855  1
  Li  Li4  1  0.58313554  0.11943011  0.13621121  1
  Li  Li5  1  0.32472173  0.94913532  0.65364124  1
  Li  Li6  1  0.83650327  0.44445610  0.15037840  1
  Li  Li7  1  0.45182206  0.55689369  0.84196934  1
  Li  Li8  1  0.70756335  0.30669094  0.59098156  1
  Li  Li9  1  0.83382603  0.86913217  0.88638273  1
  Mn  Mn10  1  0.11174593  0.24811110  0.24769004  1
  Mn  Mn11  1  0.15484149  0.84488979  0.46824240  1
  Mn  Mn12  1  0.41402292  0.58954293  0.23231718  1
  Mn  Mn13  1  0.22459697  0.40672228  0.78460583  1
  Mn  Mn14  1  0.50111651  0.16051046  0.51825530  1
  Mn  Mn15  1  0.36687367  0.00218444  0.99210496  1
  Mn  Mn16  1  0.89524744  0.09324838  0.72540588  1
  Mn  Mn17  1  0.64305683  0.34187359  0.97965734  1
  Mn  Mn18  1  0.97195517  0.65561980  0.03902361  1
  Mn  Mn19  1  0.73374812  0.90523037  0.28939614  1
  Mn  Mn20  1  0.86148479  0.50151791  0.48887280  1
  Mn  Mn21  1  0.61577323  0.74906272  0.73218116  1
  B  B22  1  0.20394185  0.45958816  0.13016488  1
  B  B23  1  0.04356496  0.28999320  0.62227281  1
  B  B24  1  0.30970116  0.03342456  0.37046817  1
  B  B25  1  0.23611563  0.75149594  0.75610362  1
  B  B26  1  0.00155617  0.99765219  0.99548847  1
  B  B27  1  0.49754236  0.49468736  0.50467384  1
  B  B28  1  0.74461329  0.25635519  0.24647096  1
  B  B29  1  0.45515346  0.20581988  0.87742348  1
  B  B30  1  0.54384786  0.80240469  0.12496858  1
  B  B31  1  0.71555201  0.95165495  0.61446937  1
  B  B32  1  0.78608551  0.54318998  0.87579771  1
  B  B33  1  0.96588362  0.71461316  0.37897589  1
  O  O34  1  0.04774398  0.42362049  0.20684957  1
  O  O35  1  0.15295770  0.00030258  0.46555635  1
  O  O36  1  0.32859476  0.08526058  0.23401765  1
  O  O37  1  0.07750014  0.34007037  0.48053248  1
  O  O38  1  0.05139964  0.05319366  0.85616258  1
  O  O39  1  0.12936128  0.96018328  0.05712306  1
  O  O40  1  0.17616498  0.26536379  0.68336930  1
  O  O41  1  0.33512470  0.44450399  0.19189886  1
  O  O42  1  0.44913575  0.01475317  0.42521665  1
  O  O43  1  0.10260787  0.70346895  0.43746323  1
  O  O44  1  0.31707403  0.47990365  0.56966180  1
  O  O45  1  0.06726059  0.72532805  0.81995398  1
  O  O46  1  0.57155395  0.23417577  0.30322463  1
  O  O47  1  0.29254251  0.17546008  0.96055181  1
  O  O48  1  0.38029760  0.77262935  0.21347370  1
  O  O49  1  0.74958216  0.99556536  0.46542748  1
  O  O50  1  0.22981677  0.51096930  0.98892519  1
  O  O51  1  0.48614332  0.25609759  0.73463525  1
  O  O52  1  0.27800811  0.81022405  0.62464467  1
  O  O53  1  0.57394597  0.52931741  0.35049548  1
  O  O54  1  0.81773568  0.29657247  0.09348035  1
  O  O55  1  0.59883649  0.47222717  0.59719917  1
  O  O56  1  0.83778253  0.24004371  0.34260662  1
  O  O57  1  0.35617363  0.71970727  0.83118295  1
  O  O58  1  0.58992494  0.18592754  0.93575707  1
  O  O59  1  0.67712066  0.79124896  0.18394095  1
  O  O60  1  0.82509672  0.97811100  0.06608831  1
  O  O61  1  0.61716190  0.51804814  0.95622241  1
  O  O62  1  0.54917201  0.92640757  0.70413744  1
  O  O63  1  0.87524271  0.26376887  0.70329034  1
  O  O64  1  0.82220095  0.67349926  0.45461053  1
  O  O65  1  0.57749269  0.84025145  0.97363349  1
  O  O66  1  0.98352925  0.77002528  0.24059908  1
  O  O67  1  0.82736373  0.58995527  0.73085929  1
  O  O68  1  0.91137757  0.52115493  0.94524008  1
  O  O69  1  0.85435057  0.93347909  0.66962596  1
