# generated using pymatgen
data_Fe6OF11
_symmetry_space_group_name_H-M   'P 1'
_cell_length_a   4.83779202
_cell_length_b   8.11251331
_cell_length_c   5.84457580
_cell_angle_alpha   92.38047620
_cell_angle_beta   89.59270505
_cell_angle_gamma   90.48654026
_symmetry_Int_Tables_number   1
_chemical_formula_structural   Fe6OF11
_chemical_formula_sum   'Fe6 O1 F11'
_cell_volume   229.16858546
_cell_formula_units_Z   1
loop_
 _symmetry_equiv_pos_site_id
 _symmetry_equiv_pos_as_xyz
  1  'x, y, z'
loop_
 _atom_site_type_symbol
 _atom_site_label
 _atom_site_symmetry_multiplicity
 _atom_site_fract_x
 _atom_site_fract_y
 _atom_site_fract_z
 _atom_site_occupancy
  Fe  Fe0  1  0.49726995  0.66518022  0.17028305  1
  Fe  Fe1  1  0.51122282  0.00463141  0.49124050  1
  Fe  Fe2  1  0.50429555  0.33411707  0.82913907  1
  Fe  Fe3  1  0.00650586  0.67040701  0.66515376  1
  Fe  Fe4  1  0.98752828  0.32181889  0.33262594  1
  Fe  Fe5  1  0.98333632  0.00597395  0.02222716  1
  O  O6  1  0.80561760  0.08989574  0.28146783  1
  F  F7  1  0.80173423  0.43502416  0.63240021  1
  F  F8  1  0.80624548  0.77736099  0.97378947  1
  F  F9  1  0.71182306  0.09795222  0.80208991  1
  F  F10  1  0.69465836  0.76123449  0.47410968  1
  F  F11  1  0.70257134  0.43682337  0.12856714  1
  F  F12  1  0.30170352  0.56973374  0.86497729  1
  F  F13  1  0.30034210  0.23516212  0.53391615  1
  F  F14  1  0.28828047  0.89663180  0.19440549  1
  F  F15  1  0.20274825  0.22417981  0.02085667  1
  F  F16  1  0.19587880  0.56231458  0.36503323  1
  F  F17  1  0.19823898  0.91155842  0.71771744  1
