# generated using pymatgen
data_Li5V3P8O29
_symmetry_space_group_name_H-M   'P 1'
_cell_length_a   9.78789769
_cell_length_b   9.77499351
_cell_length_c   14.07686948
_cell_angle_alpha   90.15717100
_cell_angle_beta   89.80428639
_cell_angle_gamma   59.92496702
_symmetry_Int_Tables_number   1
_chemical_formula_structural   Li5V3P8O29
_chemical_formula_sum   'Li10 V6 P16 O58'
_cell_volume   1165.48172143
_cell_formula_units_Z   2
loop_
 _symmetry_equiv_pos_site_id
 _symmetry_equiv_pos_as_xyz
  1  'x, y, z'
loop_
 _atom_site_type_symbol
 _atom_site_label
 _atom_site_symmetry_multiplicity
 _atom_site_fract_x
 _atom_site_fract_y
 _atom_site_fract_z
 _atom_site_occupancy
  Li  Li0  1  0.90184330  0.76446612  0.05897022  1
  Li  Li1  1  0.75924491  0.90476756  0.55972520  1
  Li  Li2  1  0.90013950  0.33600530  0.55892395  1
  Li  Li3  1  0.75840693  0.33455907  0.06020701  1
  Li  Li4  1  0.33590812  0.90051194  0.06015493  1
  Li  Li5  1  0.33765143  0.76355720  0.55943032  1
  Li  Li6  1  0.09819642  0.66692262  0.44018269  1
  Li  Li7  1  0.09898960  0.23502364  0.94018189  1
  Li  Li8  1  0.97617075  0.97993478  0.99465863  1
  Li  Li9  1  0.97756252  0.04408991  0.49480185  1
  V  V10  1  0.56162085  0.43566141  0.25112558  1
  V  V11  1  0.43545102  0.56417166  0.75214189  1
  V  V12  1  0.56238660  0.00403664  0.75077189  1
  V  V13  1  0.43898864  0.00149239  0.25369931  1
  V  V14  1  0.99974236  0.56542641  0.24636997  1
  V  V15  1  0.99868936  0.43400502  0.74759060  1
  P  P16  1  0.90957890  0.77672859  0.84104241  1
  P  P17  1  0.77649031  0.91266003  0.34503878  1
  P  P18  1  0.90884925  0.31492205  0.34090347  1
  P  P19  1  0.66454696  0.66693190  0.13095456  1
  P  P20  1  0.66561065  0.66904325  0.63027007  1
  P  P21  1  0.77419790  0.31245395  0.84603996  1
  P  P22  1  0.69642250  0.22118248  0.66182396  1
  P  P23  1  0.31292788  0.91415464  0.84210244  1
  P  P24  1  0.69720070  0.08297163  0.16164785  1
  P  P25  1  0.31019059  0.77580161  0.34318227  1
  P  P26  1  0.22241923  0.69403800  0.15775687  1
  P  P27  1  0.33146711  0.33693240  0.36877939  1
  P  P28  1  0.32811934  0.33482228  0.86868516  1
  P  P29  1  0.08896408  0.68547472  0.65950613  1
  P  P30  1  0.22269675  0.08272875  0.65725322  1
  P  P31  1  0.08864945  0.22306704  0.15906326  1
  O  O32  1  0.99991510  0.76980357  0.57101063  1
  O  O33  1  0.92138511  0.74217131  0.33309305  1
  O  O34  1  0.80784496  0.99108260  0.08191198  1
  O  O35  1  0.73830274  0.91876204  0.82902269  1
  O  O36  1  0.91335455  0.61978445  0.83056088  1
  O  O37  1  0.81188827  0.67562279  0.16762431  1
  O  O38  1  0.91292948  0.46778324  0.33004390  1
  O  O39  1  0.99798353  0.23132526  0.07050448  1
  O  O40  1  0.91897249  0.33793920  0.83450102  1
  O  O41  1  0.67440361  0.81464195  0.67288084  1
  O  O42  1  0.62436219  0.90585264  0.33135646  1
  O  O43  1  0.81079882  0.51297086  0.66938436  1
  O  O44  1  0.66281768  0.66193378  0.02476923  1
  O  O45  1  0.67091758  0.67251864  0.52403935  1
  O  O46  1  0.67297981  0.51325240  0.17324575  1
  O  O47  1  0.47053919  0.91326458  0.82655113  1
  O  O48  1  0.51282216  0.81330863  0.17315775  1
  O  O49  1  0.73734539  0.34558271  0.32930954  1
  O  O50  1  0.79135060  0.19546691  0.76000346  1
  O  O51  1  0.80462853  0.20436523  0.58142751  1
  O  O52  1  0.79038774  0.22814892  0.93778507  1
  O  O53  1  0.62137935  0.46910446  0.83141210  1
  O  O54  1  0.51130735  0.67824244  0.66897798  1
  O  O55  1  0.65997804  0.25810161  0.15988775  1
  O  O56  1  0.46787309  0.61629294  0.32655281  1
  O  O57  1  0.34132620  0.91245435  0.33884350  1
  O  O58  1  0.79248074  0.01352890  0.26024779  1
  O  O59  1  0.79026810  0.98079126  0.43767857  1
  O  O60  1  0.21166300  0.98937711  0.57637880  1
  O  O61  1  0.65852753  0.08414388  0.65923293  1
  O  O62  1  0.54362681  0.38255487  0.66996458  1
  O  O63  1  0.34314954  0.74446975  0.83550562  1
  O  O64  1  0.47941872  0.33481189  0.31804238  1
  O  O65  1  0.38262592  0.53839042  0.16926264  1
  O  O66  1  0.21320220  0.79745347  0.07709021  1
  O  O67  1  0.23020510  0.76954067  0.43392527  1
  O  O68  1  0.19658662  0.79011678  0.25679502  1
  O  O69  1  0.25755159  0.65987233  0.65891715  1
  O  O70  1  0.47707501  0.18562944  0.81775711  1
  O  O71  1  0.54492626  0.07529271  0.16754847  1
  O  O72  1  0.32699913  0.47927281  0.82301921  1
  O  O73  1  0.33867206  0.31891376  0.97369861  1
  O  O74  1  0.34217899  0.33712965  0.47387895  1
  O  O75  1  0.18532189  0.48856517  0.33062195  1
  O  O76  1  0.38282956  0.07728481  0.66878737  1
  O  O77  1  0.33377316  0.18883736  0.32265110  1
  O  O78  1  0.08466548  0.65908026  0.15494340  1
  O  O79  1  0.00429494  0.79458293  0.75172222  1
  O  O80  1  0.97670022  0.79695107  0.93197629  1
  O  O81  1  0.09072067  0.52779920  0.67391642  1
  O  O82  1  0.18425466  0.32383733  0.83014391  1
  O  O83  1  0.09012486  0.37994061  0.17431147  1
  O  O84  1  0.25649462  0.08182964  0.15831695  1
  O  O85  1  0.23145575  0.99671714  0.93336084  1
  O  O86  1  0.19824444  0.01113910  0.75621326  1
  O  O87  1  0.08407515  0.25550995  0.65565201  1
  O  O88  1  0.97602027  0.22760276  0.43178347  1
  O  O89  1  0.00280655  0.20158347  0.25139676  1
