# generated using pymatgen
data_Li5Mn6(BO3)6
_symmetry_space_group_name_H-M   'P 1'
_cell_length_a   8.28421483
_cell_length_b   12.64850341
_cell_length_c   8.80218504
_cell_angle_alpha   109.82630277
_cell_angle_beta   117.79497512
_cell_angle_gamma   71.24275151
_symmetry_Int_Tables_number   1
_chemical_formula_structural   Li5Mn6(BO3)6
_chemical_formula_sum   'Li10 Mn12 B12 O36'
_cell_volume   752.59938487
_cell_formula_units_Z   2
loop_
 _symmetry_equiv_pos_site_id
 _symmetry_equiv_pos_as_xyz
  1  'x, y, z'
loop_
 _atom_site_type_symbol
 _atom_site_label
 _atom_site_symmetry_multiplicity
 _atom_site_fract_x
 _atom_site_fract_y
 _atom_site_fract_z
 _atom_site_occupancy
  Li  Li0  1  0.29352158  0.30715269  0.59039170  1
  Li  Li1  1  0.30149464  0.55923799  0.83996841  1
  Li  Li2  1  0.97726003  0.20041141  0.89722519  1
  Li  Li3  1  0.29249150  0.79952114  0.07484009  1
  Li  Li4  1  0.71382419  0.36782637  0.38341338  1
  Li  Li5  1  0.72625676  0.86614379  0.88537092  1
  Li  Li6  1  0.70963326  0.12002977  0.13617892  1
  Li  Li7  1  0.98026968  0.94811608  0.64672736  1
  Li  Li8  1  0.99278425  0.70318909  0.40824891  1
  Li  Li9  1  0.98012768  0.44822229  0.14545065  1
  Mn  Mn10  1  0.99848132  0.41208086  0.76956346  1
  Mn  Mn11  1  0.01548738  0.16018842  0.52421635  1
  Mn  Mn12  1  0.35395720  0.00144158  0.00564660  1
  Mn  Mn13  1  0.62066439  0.09132734  0.72510828  1
  Mn  Mn14  1  0.61810094  0.34028133  0.97681973  1
  Mn  Mn15  1  0.00556614  0.65625772  0.02468493  1
  Mn  Mn16  1  0.02174186  0.91350050  0.27303424  1
  Mn  Mn17  1  0.35453606  0.24979219  0.24700271  1
  Mn  Mn18  1  0.36418355  0.50151043  0.49068646  1
  Mn  Mn19  1  0.38758642  0.75085129  0.74127984  1
  Mn  Mn20  1  0.61538756  0.84248012  0.46986531  1
  Mn  Mn21  1  0.64765117  0.58355084  0.25443385  1
  B  B22  1  0.32763938  0.20616311  0.87577686  1
  B  B23  1  0.00853799  0.75467005  0.74920465  1
  B  B24  1  0.01153091  0.49673858  0.49804548  1
  B  B25  1  0.33892894  0.94922480  0.62479447  1
  B  B26  1  0.66042614  0.54745525  0.88594869  1
  B  B27  1  0.32663762  0.45999796  0.12360644  1
  B  B28  1  0.33981485  0.71648123  0.37932883  1
  B  B29  1  0.66424585  0.29135533  0.62298850  1
  B  B30  1  0.67864536  0.03347228  0.37665058  1
  B  B31  1  0.98769786  0.99797694  0.98885203  1
  B  B32  1  0.67334403  0.79150464  0.13100112  1
  B  B33  1  0.98783611  0.25560403  0.24668757  1
  O  O34  1  0.24990857  0.17370045  0.95977862  1
  O  O35  1  0.22347296  0.00805666  0.49756867  1
  O  O36  1  0.21533979  0.50962301  0.97901858  1
  O  O37  1  0.21595942  0.26112744  0.73768689  1
  O  O38  1  0.17710954  0.24055144  0.34188289  1
  O  O39  1  0.20441477  0.72238219  0.81633948  1
  O  O40  1  0.20392717  0.47472204  0.59354206  1
  O  O41  1  0.52039653  0.18315876  0.93106663  1
  O  O42  1  0.26830952  0.91159875  0.71207446  1
  O  O43  1  0.58212607  0.52023797  0.97254642  1
  O  O44  1  0.24648870  0.43061896  0.20772185  1
  O  O45  1  0.57454953  0.26440890  0.70122322  1
  O  O46  1  0.26934393  0.68801384  0.47437018  1
  O  O47  1  0.61019949  0.99646077  0.46494606  1
  O  O48  1  0.54116004  0.59860249  0.74235878  1
  O  O49  1  0.22156328  0.75696055  0.22983157  1
  O  O50  1  0.55812113  0.08473549  0.23687229  1
  O  O51  1  0.56148269  0.83120058  0.97526344  1
  O  O52  1  0.55794638  0.34115039  0.47844559  1
  O  O53  1  0.91132965  0.05085038  0.84750046  1
  O  O54  1  0.17642190  0.95647135  0.06229359  1
  O  O55  1  0.85037908  0.52291913  0.93547066  1
  O  O56  1  0.53286947  0.92237076  0.67264452  1
  O  O57  1  0.52037811  0.43974850  0.18707949  1
  O  O58  1  0.53261745  0.70392964  0.44168659  1
  O  O59  1  0.85637244  0.26937247  0.68712749  1
  O  O60  1  0.86867889  0.01911121  0.43572496  1
  O  O61  1  0.87391874  0.22830328  0.29989040  1
  O  O62  1  0.91543071  0.74420247  0.83583486  1
  O  O63  1  0.89439873  0.46535425  0.53839934  1
  O  O64  1  0.58402766  0.77261397  0.21784211  1
  O  O65  1  0.90649300  0.30066974  0.09596547  1
  O  O66  1  0.91108538  0.79964033  0.59781228  1
  O  O67  1  0.93661105  0.55072231  0.35678691  1
  O  O68  1  0.86340585  0.77273569  0.19394861  1
  O  O69  1  0.87108878  0.98490341  0.05344402  1
