# generated using pymatgen
data_Ba9La5I33
_symmetry_space_group_name_H-M   'P 1'
_cell_length_a   13.21090534
_cell_length_b   13.16773008
_cell_length_c   25.17294702
_cell_angle_alpha   99.79060794
_cell_angle_beta   80.33423424
_cell_angle_gamma   71.17391818
_symmetry_Int_Tables_number   1
_chemical_formula_structural   Ba9La5I33
_chemical_formula_sum   'Ba18 La10 I66'
_cell_volume   3966.18296128
_cell_formula_units_Z   2
loop_
 _symmetry_equiv_pos_site_id
 _symmetry_equiv_pos_as_xyz
  1  'x, y, z'
loop_
 _atom_site_type_symbol
 _atom_site_label
 _atom_site_symmetry_multiplicity
 _atom_site_fract_x
 _atom_site_fract_y
 _atom_site_fract_z
 _atom_site_occupancy
  Ba  Ba0  1  0.74633665  0.92226604  0.92861860  1
  Ba  Ba1  1  0.90564271  0.32059312  0.96547565  1
  Ba  Ba2  1  0.97882795  0.47374892  0.19416783  1
  Ba  Ba3  1  0.73764017  0.86569964  0.33806660  1
  Ba  Ba4  1  0.87201316  0.24918910  0.37692000  1
  Ba  Ba5  1  0.60087715  0.67800514  0.54218768  1
  Ba  Ba6  1  0.75602036  0.07765283  0.56629222  1
  Ba  Ba7  1  0.64063004  0.75947553  0.12165519  1
  Ba  Ba8  1  0.76699504  0.13863068  0.15990894  1
  Ba  Ba9  1  0.23300496  0.86136932  0.84009106  1
  Ba  Ba10  1  0.35936996  0.24052447  0.87834481  1
  Ba  Ba11  1  0.24397964  0.92234717  0.43370778  1
  Ba  Ba12  1  0.39912285  0.32199486  0.45781232  1
  Ba  Ba13  1  0.12798684  0.75081090  0.62308000  1
  Ba  Ba14  1  0.26235983  0.13430036  0.66193340  1
  Ba  Ba15  1  0.02117205  0.52625108  0.80583217  1
  Ba  Ba16  1  0.09435729  0.67940688  0.03452435  1
  Ba  Ba17  1  0.25366335  0.07773396  0.07138140  1
  La  La18  1  0.95452322  0.38097781  0.58583937  1
  La  La19  1  0.85845379  0.18035254  0.76518859  1
  La  La20  1  0.64784966  0.85574547  0.73357723  1
  La  La21  1  0.54374914  0.62505583  0.92594618  1
  La  La22  1  0.46427048  0.46317356  0.68668188  1
  La  La23  1  0.53572952  0.53682644  0.31331812  1
  La  La24  1  0.45625086  0.37494417  0.07405382  1
  La  La25  1  0.35215034  0.14425453  0.26642277  1
  La  La26  1  0.14154621  0.81964746  0.23481141  1
  La  La27  1  0.04547678  0.61902219  0.41416063  1
  I  I28  1  0.86044358  0.77152662  0.78407198  1
  I  I29  1  0.84640718  0.94964253  0.67549066  1
  I  I30  1  0.79083031  0.62087413  0.91956684  1
  I  I31  1  0.95422454  0.74142671  0.19402674  1
  I  I32  1  0.98394692  0.16139821  0.63709023  1
  I  I33  1  0.92359348  0.06107502  0.87398237  1
  I  I34  1  0.81475686  0.65433347  0.62777979  1
  I  I35  1  0.81509649  0.44492604  0.73928042  1
  I  I36  1  0.77642612  0.81052234  0.47570828  1
  I  I37  1  0.88524591  0.58209780  0.33854808  1
  I  I38  1  0.88114597  0.47875410  0.47416470  1
  I  I39  1  0.96231191  0.15790260  0.48731585  1
  I  I40  1  0.70162156  0.35600840  0.87926606  1
  I  I41  1  0.81604502  0.88624592  0.06063673  1
  I  I42  1  0.54440233  0.82029931  0.85591158  1
  I  I43  1  0.89419244  0.55256009  0.07253738  1
  I  I44  1  0.57018182  0.94655553  0.62722324  1
  I  I45  1  0.96230891  0.24227688  0.09370071  1
  I  I46  1  0.69746692  0.39705780  0.58944026  1
  I  I47  1  0.62081222  0.98025501  0.22575098  1
  I  I48  1  0.78965915  0.35218695  0.26321014  1
  I  I49  1  0.68367585  0.65698198  0.24076442  1
  I  I50  1  0.88110558  0.03432784  0.27486098  1
  I  I51  1  0.64103564  0.25182836  0.71133327  1
  I  I52  1  0.49774557  0.70536735  0.69358621  1
  I  I53  1  0.64549353  0.07535092  0.82242121  1
  I  I54  1  0.53492307  0.75147488  0.40551325  1
  I  I55  1  0.43935212  0.56775323  0.82146475  1
  I  I56  1  0.60603085  0.45077512  0.42432779  1
  I  I57  1  0.28642445  0.79789266  0.96993797  1
  I  I58  1  0.38961938  0.47153957  0.96462598  1
  I  I59  1  0.68168311  0.12482453  0.43700459  1
  I  I60  1  0.47038643  0.14703093  0.98359661  1
  I  I61  1  0.52961357  0.85296907  0.01640339  1
  I  I62  1  0.31831689  0.87517547  0.56299541  1
  I  I63  1  0.61038062  0.52846043  0.03537402  1
  I  I64  1  0.71357555  0.20210734  0.03006203  1
  I  I65  1  0.39396915  0.54922488  0.57567221  1
  I  I66  1  0.56064788  0.43224677  0.17853525  1
  I  I67  1  0.46507693  0.24852512  0.59448675  1
  I  I68  1  0.35450647  0.92464908  0.17757879  1
  I  I69  1  0.50225443  0.29463265  0.30641379  1
  I  I70  1  0.35896436  0.74817164  0.28866673  1
  I  I71  1  0.11889442  0.96567216  0.72513902  1
  I  I72  1  0.31632415  0.34301802  0.75923558  1
  I  I73  1  0.21034085  0.64781305  0.73678986  1
  I  I74  1  0.37918778  0.01974499  0.77424902  1
  I  I75  1  0.30253308  0.60294220  0.41055974  1
  I  I76  1  0.03769109  0.75772312  0.90629929  1
  I  I77  1  0.42981818  0.05344447  0.37277676  1
  I  I78  1  0.10580756  0.44743991  0.92746262  1
  I  I79  1  0.45559767  0.17970069  0.14408842  1
  I  I80  1  0.18395498  0.11375408  0.93936327  1
  I  I81  1  0.29837844  0.64399160  0.12073394  1
  I  I82  1  0.03768809  0.84209740  0.51268415  1
  I  I83  1  0.11885403  0.52124590  0.52583530  1
  I  I84  1  0.11475409  0.41790220  0.66145192  1
  I  I85  1  0.22357488  0.18947766  0.52429172  1
  I  I86  1  0.18490351  0.55507396  0.26071958  1
  I  I87  1  0.18524314  0.34566653  0.37222021  1
  I  I88  1  0.07640652  0.93892498  0.12601763  1
  I  I89  1  0.01605308  0.83860179  0.36290977  1
  I  I90  1  0.04577546  0.25857329  0.80597326  1
  I  I91  1  0.20916969  0.37912587  0.08043316  1
  I  I92  1  0.15359282  0.05035747  0.32450934  1
  I  I93  1  0.13955642  0.22847338  0.21592802  1
