# generated using pymatgen
data_Li4V2Si4O13
_symmetry_space_group_name_H-M   'P 1'
_cell_length_a   13.81325529
_cell_length_b   5.02940525
_cell_length_c   14.15574466
_cell_angle_alpha   90.00000000
_cell_angle_beta   90.00000000
_cell_angle_gamma   90.00000000
_symmetry_Int_Tables_number   1
_chemical_formula_structural   Li4V2Si4O13
_chemical_formula_sum   'Li16 V8 Si16 O52'
_cell_volume   983.43438591
_cell_formula_units_Z   4
loop_
 _symmetry_equiv_pos_site_id
 _symmetry_equiv_pos_as_xyz
  1  'x, y, z'
loop_
 _atom_site_type_symbol
 _atom_site_label
 _atom_site_symmetry_multiplicity
 _atom_site_fract_x
 _atom_site_fract_y
 _atom_site_fract_z
 _atom_site_occupancy
  Li  Li0  1  0.04130008  0.18293895  0.21880825  1
  Li  Li1  1  0.10028969  0.66268520  0.91607608  1
  Li  Li2  1  0.14042359  0.64777310  0.11044806  1
  Li  Li3  1  0.20954180  0.25102349  0.83751798  1
  Li  Li4  1  0.29045820  0.75102349  0.33751798  1
  Li  Li5  1  0.35957641  0.14777310  0.61044806  1
  Li  Li6  1  0.39971031  0.16268520  0.41607608  1
  Li  Li7  1  0.45869992  0.68293895  0.71880825  1
  Li  Li8  1  0.54130008  0.31706105  0.21880825  1
  Li  Li9  1  0.60028969  0.83731480  0.91607608  1
  Li  Li10  1  0.64042359  0.85222690  0.11044806  1
  Li  Li11  1  0.70954180  0.24897651  0.83751798  1
  Li  Li12  1  0.79045820  0.74897651  0.33751798  1
  Li  Li13  1  0.85957641  0.35222690  0.61044806  1
  Li  Li14  1  0.89971031  0.33731480  0.41607608  1
  Li  Li15  1  0.95869992  0.81706105  0.71880825  1
  V  V16  1  0.07912158  0.35384964  0.62619273  1
  V  V17  1  0.17212916  0.18255630  0.42136722  1
  V  V18  1  0.32787084  0.68255630  0.92136722  1
  V  V19  1  0.42087842  0.85384964  0.12619273  1
  V  V20  1  0.57912158  0.14615036  0.62619273  1
  V  V21  1  0.67212916  0.31744370  0.42136722  1
  V  V22  1  0.82787084  0.81744370  0.92136722  1
  V  V23  1  0.92087842  0.64615036  0.12619273  1
  Si  Si24  1  0.02205726  0.14992540  0.00161120  1
  Si  Si25  1  0.06129243  0.68942661  0.31746544  1
  Si  Si26  1  0.18975054  0.84477886  0.72871719  1
  Si  Si27  1  0.22562455  0.17072040  0.04600288  1
  Si  Si28  1  0.27437545  0.67072040  0.54600288  1
  Si  Si29  1  0.31024946  0.34477886  0.22871719  1
  Si  Si30  1  0.43870757  0.18942661  0.81746544  1
  Si  Si31  1  0.47794274  0.64992540  0.50161120  1
  Si  Si32  1  0.52205726  0.35007460  0.00161120  1
  Si  Si33  1  0.56129243  0.81057339  0.31746544  1
  Si  Si34  1  0.68975054  0.65522114  0.72871719  1
  Si  Si35  1  0.72562455  0.32927960  0.04600288  1
  Si  Si36  1  0.77437545  0.82927960  0.54600288  1
  Si  Si37  1  0.81024946  0.15522114  0.22871719  1
  Si  Si38  1  0.93870757  0.31057339  0.81746544  1
  Si  Si39  1  0.97794274  0.85007460  0.50161120  1
  O  O40  1  0.02540195  0.42328989  0.06126452  1
  O  O41  1  0.03684436  0.77377594  0.20831822  1
  O  O42  1  0.03260645  0.21768454  0.88694222  1
  O  O43  1  0.06425139  0.06216308  0.52103970  1
  O  O44  1  0.07330772  0.37203060  0.33813790  1
  O  O45  1  0.09358259  0.66863302  0.70938869  1
  O  O46  1  0.12553489  0.98680789  0.02542977  1
  O  O47  1  0.15665870  0.85899819  0.34714562  1
  O  O48  1  0.17768779  0.15940645  0.70226279  1
  O  O49  1  0.18401648  0.47266867  0.52483026  1
  O  O50  1  0.21756228  0.24085758  0.16049338  1
  O  O51  1  0.21516922  0.82640242  0.84165480  1
  O  O52  1  0.21744379  0.44515516  0.98574309  1
  O  O53  1  0.28255621  0.94515516  0.48574309  1
  O  O54  1  0.28483078  0.32640242  0.34165480  1
  O  O55  1  0.28243772  0.74085758  0.66049338  1
  O  O56  1  0.31598352  0.97266867  0.02483026  1
  O  O57  1  0.32231221  0.65940645  0.20226279  1
  O  O58  1  0.34334130  0.35899819  0.84714562  1
  O  O59  1  0.37446511  0.48680789  0.52542977  1
  O  O60  1  0.40641741  0.16863302  0.20938869  1
  O  O61  1  0.42669228  0.87203060  0.83813790  1
  O  O62  1  0.43574861  0.56216308  0.02103970  1
  O  O63  1  0.46739355  0.71768454  0.38694222  1
  O  O64  1  0.46315564  0.27377594  0.70831822  1
  O  O65  1  0.47459805  0.92328989  0.56126452  1
  O  O66  1  0.52540195  0.07671011  0.06126452  1
  O  O67  1  0.53684436  0.72622406  0.20831822  1
  O  O68  1  0.53260645  0.28231546  0.88694222  1
  O  O69  1  0.56425139  0.43783692  0.52103970  1
  O  O70  1  0.57330772  0.12796940  0.33813790  1
  O  O71  1  0.59358259  0.83136698  0.70938869  1
  O  O72  1  0.62553489  0.51319211  0.02542977  1
  O  O73  1  0.65665870  0.64100181  0.34714562  1
  O  O74  1  0.67768779  0.34059355  0.70226279  1
  O  O75  1  0.68401648  0.02733133  0.52483026  1
  O  O76  1  0.71756228  0.25914242  0.16049338  1
  O  O77  1  0.71516922  0.67359758  0.84165480  1
  O  O78  1  0.71744379  0.05484484  0.98574309  1
  O  O79  1  0.78255621  0.55484484  0.48574309  1
  O  O80  1  0.78483078  0.17359758  0.34165480  1
  O  O81  1  0.78243772  0.75914242  0.66049338  1
  O  O82  1  0.81598352  0.52733133  0.02483026  1
  O  O83  1  0.82231221  0.84059355  0.20226279  1
  O  O84  1  0.84334130  0.14100181  0.84714562  1
  O  O85  1  0.87446511  0.01319211  0.52542977  1
  O  O86  1  0.90641741  0.33136698  0.20938869  1
  O  O87  1  0.92669228  0.62796940  0.83813790  1
  O  O88  1  0.93574861  0.93783692  0.02103970  1
  O  O89  1  0.96739355  0.78231546  0.38694222  1
  O  O90  1  0.96315564  0.22622406  0.70831822  1
  O  O91  1  0.97459805  0.57671011  0.56126452  1
