# generated using pymatgen
data_LiVGeO5
_symmetry_space_group_name_H-M   'P 1'
_cell_length_a   6.57267181
_cell_length_b   6.46030391
_cell_length_c   4.76175774
_cell_angle_alpha   90.00000000
_cell_angle_beta   87.30816799
_cell_angle_gamma   90.00000000
_symmetry_Int_Tables_number   1
_chemical_formula_structural   LiVGeO5
_chemical_formula_sum   'Li2 V2 Ge2 O10'
_cell_volume   201.96807149
_cell_formula_units_Z   2
loop_
 _symmetry_equiv_pos_site_id
 _symmetry_equiv_pos_as_xyz
  1  'x, y, z'
loop_
 _atom_site_type_symbol
 _atom_site_label
 _atom_site_symmetry_multiplicity
 _atom_site_fract_x
 _atom_site_fract_y
 _atom_site_fract_z
 _atom_site_occupancy
  Li  Li0  1  0.50000000  0.00000000  0.00000000  1
  Li  Li1  1  0.50000000  0.50000000  0.00000000  1
  V  V2  1  0.24599841  0.25000000  0.61352578  1
  V  V3  1  0.75400159  0.75000000  0.38647422  1
  Ge  Ge4  1  0.25629169  0.75000000  0.50276276  1
  Ge  Ge5  1  0.74370831  0.25000000  0.49723724  1
  O  O6  1  0.02767315  0.75000000  0.32079459  1
  O  O7  1  0.28563836  0.25000000  0.27200790  1
  O  O8  1  0.27129484  0.52972115  0.72351423  1
  O  O9  1  0.27129484  0.97027885  0.72351423  1
  O  O10  1  0.45980144  0.75000000  0.24741185  1
  O  O11  1  0.54019856  0.25000000  0.75258815  1
  O  O12  1  0.72870516  0.02972115  0.27648577  1
  O  O13  1  0.72870516  0.47027885  0.27648577  1
  O  O14  1  0.71436164  0.75000000  0.72799210  1
  O  O15  1  0.97232685  0.25000000  0.67920541  1
