# generated using pymatgen
data_Li2Si3Ni3O10
_symmetry_space_group_name_H-M   'P 1'
_cell_length_a   4.77355626
_cell_length_b   8.18177224
_cell_length_c   10.22695139
_cell_angle_alpha   93.09363302
_cell_angle_beta   90.00000000
_cell_angle_gamma   73.03910398
_symmetry_Int_Tables_number   1
_chemical_formula_structural   Li2Si3Ni3O10
_chemical_formula_sum   'Li4 Si6 Ni6 O20'
_cell_volume   381.44336893
_cell_formula_units_Z   2
loop_
 _symmetry_equiv_pos_site_id
 _symmetry_equiv_pos_as_xyz
  1  'x, y, z'
loop_
 _atom_site_type_symbol
 _atom_site_label
 _atom_site_symmetry_multiplicity
 _atom_site_fract_x
 _atom_site_fract_y
 _atom_site_fract_z
 _atom_site_occupancy
  Li  Li0  1  0.26551004  0.89013154  0.02728088  1
  Li  Li1  1  0.84435843  0.89013154  0.52728088  1
  Li  Li2  1  0.15564157  0.10986846  0.47271912  1
  Li  Li3  1  0.73448996  0.10986846  0.97271912  1
  Si  Si4  1  0.84360776  0.68711895  0.09346728  1
  Si  Si5  1  0.46927329  0.68711895  0.59346728  1
  Si  Si6  1  0.53072671  0.31288105  0.40653272  1
  Si  Si7  1  0.15639124  0.31288105  0.90653272  1
  Si  Si8  1  0.81092467  0.00000000  0.25000000  1
  Si  Si9  1  0.18907533  0.00000000  0.75000000  1
  Ni  Ni10  1  0.38035461  0.68482072  0.28470385  1
  Ni  Ni11  1  0.93482468  0.68482072  0.78470385  1
  Ni  Ni12  1  0.50000000  0.50000000  0.00000000  1
  Ni  Ni13  1  0.00000000  0.50000000  0.50000000  1
  Ni  Ni14  1  0.06517532  0.31517928  0.21529615  1
  Ni  Ni15  1  0.61964539  0.31517928  0.71529615  1
  O  O16  1  0.04410725  0.90327902  0.35752581  1
  O  O17  1  0.64405026  0.86999508  0.16990532  1
  O  O18  1  0.05261274  0.90327902  0.85752581  1
  O  O19  1  0.48595365  0.86999508  0.66990532  1
  O  O20  1  0.18260802  0.68958186  0.10237603  1
  O  O21  1  0.61266456  0.68670111  0.44844040  1
  O  O22  1  0.12781112  0.68958186  0.60237603  1
  O  O23  1  0.70063433  0.68670111  0.94844040  1
  O  O24  1  0.75154206  0.53402657  0.16681753  1
  O  O25  1  0.71443137  0.53402657  0.66681753  1
  O  O26  1  0.28556863  0.46597343  0.33318247  1
  O  O27  1  0.24845794  0.46597343  0.83318247  1
  O  O28  1  0.29936567  0.31329889  0.05155960  1
  O  O29  1  0.87218888  0.31041814  0.39762397  1
  O  O30  1  0.38733544  0.31329889  0.55155960  1
  O  O31  1  0.81739198  0.31041814  0.89762397  1
  O  O32  1  0.51404635  0.13000492  0.33009468  1
  O  O33  1  0.94738726  0.09672098  0.14247419  1
  O  O34  1  0.35594974  0.13000492  0.83009468  1
  O  O35  1  0.95589275  0.09672098  0.64247419  1
