# generated using pymatgen
data_Li5Mn6(BO3)6
_symmetry_space_group_name_H-M   'P 1'
_cell_length_a   5.94490390
_cell_length_b   5.26948433
_cell_length_c   12.37565678
_cell_angle_alpha   78.76403172
_cell_angle_beta   91.41497347
_cell_angle_gamma   89.91116398
_symmetry_Int_Tables_number   1
_chemical_formula_structural   Li5Mn6(BO3)6
_chemical_formula_sum   'Li5 Mn6 B6 O18'
_cell_volume   380.13223848
_cell_formula_units_Z   1
loop_
 _symmetry_equiv_pos_site_id
 _symmetry_equiv_pos_as_xyz
  1  'x, y, z'
loop_
 _atom_site_type_symbol
 _atom_site_label
 _atom_site_symmetry_multiplicity
 _atom_site_fract_x
 _atom_site_fract_y
 _atom_site_fract_z
 _atom_site_occupancy
  Li  Li0  1  0.19574692  0.10341315  0.47869560  1
  Li  Li1  1  0.46913168  0.22682206  0.85344769  1
  Li  Li2  1  0.51481830  0.76507115  0.14909019  1
  Li  Li3  1  0.79982565  0.89367690  0.51597436  1
  Li  Li4  1  0.86294591  0.44043115  0.81427528  1
  Mn  Mn5  1  0.04166961  0.96971237  0.72013870  1
  Mn  Mn6  1  0.28651551  0.69827585  0.95250957  1
  Mn  Mn7  1  0.36213824  0.62486710  0.38087647  1
  Mn  Mn8  1  0.62283385  0.36215646  0.61364917  1
  Mn  Mn9  1  0.70756621  0.30496796  0.05328220  1
  Mn  Mn10  1  0.97158123  0.03915222  0.27306525  1
  B  B11  1  0.13362220  0.52932146  0.60241257  1
  B  B12  1  0.19809284  0.14403205  0.06023371  1
  B  B13  1  0.47852631  0.19066566  0.27086897  1
  B  B14  1  0.53042101  0.80325734  0.73092243  1
  B  B15  1  0.79899536  0.86143832  0.93674613  1
  B  B16  1  0.86330889  0.47436817  0.39990793  1
  O  O17  1  0.01595490  0.64503524  0.34139698  1
  O  O18  1  0.03758629  0.25320900  0.11706464  1
  O  O19  1  0.11666605  0.79546570  0.58522119  1
  O  O20  1  0.22241396  0.88228770  0.07745183  1
  O  O21  1  0.28329048  0.41040675  0.54148312  1
  O  O22  1  0.33052591  0.03562062  0.34148106  1
  O  O23  1  0.34322053  0.30449767  0.98872823  1
  O  O24  1  0.38143189  0.92012185  0.79274777  1
  O  O25  1  0.48061699  0.45451448  0.25949833  1
  O  O26  1  0.54811573  0.53733005  0.74771760  1
  O  O27  1  0.62455810  0.07053129  0.20847396  1
  O  O28  1  0.65793672  0.70444499  0.00930279  1
  O  O29  1  0.66775415  0.95967622  0.65519912  1
  O  O30  1  0.69480618  0.58581960  0.45550452  1
  O  O31  1  0.78223333  0.12751679  0.91808262  1
  O  O32  1  0.88524551  0.21012875  0.41288766  1
  O  O33  1  0.95228703  0.74411346  0.87646517  1
  O  O34  1  0.99455355  0.37323247  0.67677320  1
