# generated using pymatgen
data_LiTiMnO4
_symmetry_space_group_name_H-M   'P 1'
_cell_length_a   6.14652823
_cell_length_b   5.96133660
_cell_length_c   5.96133665
_cell_angle_alpha   61.18928496
_cell_angle_beta   58.96692486
_cell_angle_gamma   58.96692458
_symmetry_Int_Tables_number   1
_chemical_formula_structural   LiTiMnO4
_chemical_formula_sum   'Li2 Ti2 Mn2 O8'
_cell_volume   153.27200400
_cell_formula_units_Z   2
loop_
 _symmetry_equiv_pos_site_id
 _symmetry_equiv_pos_as_xyz
  1  'x, y, z'
loop_
 _atom_site_type_symbol
 _atom_site_label
 _atom_site_symmetry_multiplicity
 _atom_site_fract_x
 _atom_site_fract_y
 _atom_site_fract_z
 _atom_site_occupancy
  Li  Li0  1  0.12470972  0.12529028  0.12529028  1
  Li  Li1  1  0.87529028  0.87470972  0.87470972  1
  Ti  Ti2  1  0.50000000  0.00000000  0.50000000  1
  Ti  Ti3  1  0.50000000  0.50000000  0.00000000  1
  Mn  Mn4  1  0.00000000  0.50000000  0.50000000  1
  Mn  Mn5  1  0.50000000  0.50000000  0.50000000  1
  O  O6  1  0.26743906  0.26264922  0.26264922  1
  O  O7  1  0.26626992  0.24993208  0.71752708  1
  O  O8  1  0.26626992  0.71752708  0.24993208  1
  O  O9  1  0.70726250  0.26264922  0.26264922  1
  O  O10  1  0.29273750  0.73735078  0.73735078  1
  O  O11  1  0.73373008  0.75006792  0.28247292  1
  O  O12  1  0.73373008  0.28247292  0.75006792  1
  O  O13  1  0.73256094  0.73735078  0.73735078  1
