# generated using pymatgen
data_AlSn2P(H3C)8
_symmetry_space_group_name_H-M   'P 1'
_cell_length_a   9.70317295
_cell_length_b   10.02596878
_cell_length_c   10.24171815
_cell_angle_alpha   76.86068977
_cell_angle_beta   82.24922632
_cell_angle_gamma   64.99017819
_symmetry_Int_Tables_number   1
_chemical_formula_structural   AlSn2P(H3C)8
_chemical_formula_sum   'Al2 Sn4 P2 H48 C16'
_cell_volume   878.44273066
_cell_formula_units_Z   2
loop_
 _symmetry_equiv_pos_site_id
 _symmetry_equiv_pos_as_xyz
  1  'x, y, z'
loop_
 _atom_site_type_symbol
 _atom_site_label
 _atom_site_symmetry_multiplicity
 _atom_site_fract_x
 _atom_site_fract_y
 _atom_site_fract_z
 _atom_site_occupancy
  Al  Al0  1  0.01688554  0.63789975  0.06868932  1
  Al  Al1  1  0.98311446  0.36210025  0.93131068  1
  Sn  Sn2  1  0.16534188  0.65772247  0.66772107  1
  Sn  Sn3  1  0.71108523  0.81248069  0.76255726  1
  Sn  Sn4  1  0.28891477  0.18751931  0.23744274  1
  Sn  Sn5  1  0.83465812  0.34227753  0.33227893  1
  P  P6  1  0.96903037  0.61801664  0.84479440  1
  P  P7  1  0.03096963  0.38198336  0.15520560  1
  H  H8  1  0.18626787  0.68537425  0.39470291  1
  H  H9  1  0.25467299  0.21659828  0.50419988  1
  H  H10  1  0.25703669  0.88924663  0.59784443  1
  H  H11  1  0.66023448  0.66315166  0.59229988  1
  H  H12  1  0.68812056  0.44496859  0.97579542  1
  H  H13  1  0.57478342  0.11609304  0.12345740  1
  H  H14  1  0.42662169  0.46888528  0.80280489  1
  H  H15  1  0.38491331  0.37037072  0.69902377  1
  H  H16  1  0.26575746  0.94481917  0.17599222  1
  H  H17  1  0.74296331  0.11075337  0.40215557  1
  H  H18  1  0.75046223  0.36717772  0.82839554  1
  H  H19  1  0.46943161  0.49941569  0.62626904  1
  H  H20  1  0.20151883  0.95571917  0.34664763  1
  H  H21  1  0.17564703  0.09422296  0.91022963  1
  H  H22  1  0.53301152  0.68709171  0.92832842  1
  H  H23  1  0.14460837  0.21111107  0.74938504  1
  H  H24  1  0.90410128  0.43934941  0.53563842  1
  H  H25  1  0.42521658  0.88390696  0.87654260  1
  H  H26  1  0.06151282  0.96175009  0.65513229  1
  H  H27  1  0.98996377  0.75861250  0.44636059  1
  H  H28  1  0.81373213  0.31462575  0.60529709  1
  H  H29  1  0.31187944  0.55503141  0.02420458  1
  H  H30  1  0.74532701  0.78340172  0.49580012  1
  H  H31  1  0.21759679  0.75175786  0.01209365  1
  H  H32  1  0.20722774  0.86555772  0.77349803  1
  H  H33  1  0.55597097  0.81757259  0.00748138  1
  H  H34  1  0.40063648  0.88133528  0.30302113  1
  H  H35  1  0.93848718  0.03824991  0.34486771  1
  H  H36  1  0.57337831  0.53111472  0.19719511  1
  H  H37  1  0.73424254  0.05518083  0.82400778  1
  H  H38  1  0.79277226  0.13444228  0.22650197  1
  H  H39  1  0.78240321  0.24824214  0.98790635  1
  H  H40  1  0.44402903  0.18242741  0.99251862  1
  H  H41  1  0.73084613  0.78268360  0.14246026  1
  H  H42  1  0.26915387  0.21731640  0.85753974  1
  H  H43  1  0.09589872  0.56065059  0.46436158  1
  H  H44  1  0.46698848  0.31290829  0.07167158  1
  H  H45  1  0.33976552  0.33684834  0.40770012  1
  H  H46  1  0.54816751  0.85964621  0.54612621  1
  H  H47  1  0.79848117  0.04428083  0.65335237  1
  H  H48  1  0.82435297  0.90577704  0.08977037  1
  H  H49  1  0.24953777  0.63282228  0.17160446  1
  H  H50  1  0.01003623  0.24138750  0.55363941  1
  H  H51  1  0.59936352  0.11866472  0.69697887  1
  H  H52  1  0.85539163  0.78888893  0.25061496  1
  H  H53  1  0.45183249  0.14035379  0.45387379  1
  H  H54  1  0.53056839  0.50058431  0.37373096  1
  H  H55  1  0.61508669  0.62962928  0.30097623  1
  C  C56  1  0.46453983  0.20212170  0.08761882  1
  C  C57  1  0.16128760  0.20696953  0.85473118  1
  C  C58  1  0.10107402  0.66638402  0.46984405  1
  C  C59  1  0.61163465  0.52312782  0.29566078  1
  C  C60  1  0.83871240  0.79303047  0.14526882  1
  C  C61  1  0.17348452  0.86931673  0.67435674  1
  C  C62  1  0.82651548  0.13068327  0.32564326  1
  C  C63  1  0.28854902  0.96583795  0.26970107  1
  C  C64  1  0.89892598  0.33361598  0.53015595  1
  C  C65  1  0.71145098  0.03416205  0.73029893  1
  C  C66  1  0.21884391  0.64372174  0.06882699  1
  C  C67  1  0.33877143  0.22535925  0.42354306  1
  C  C68  1  0.38836535  0.47687218  0.70433922  1
  C  C69  1  0.78115609  0.35627826  0.93117301  1
  C  C70  1  0.66122857  0.77464075  0.57645694  1
  C  C71  1  0.53546017  0.79787830  0.91238118  1
