# generated using pymatgen
data_Na3VP2O9
_symmetry_space_group_name_H-M   'P 1'
_cell_length_a   9.76674839
_cell_length_b   6.47005310
_cell_length_c   6.31857243
_cell_angle_alpha   90.00000000
_cell_angle_beta   108.62880817
_cell_angle_gamma   90.00000000
_symmetry_Int_Tables_number   1
_chemical_formula_structural   Na3VP2O9
_chemical_formula_sum   'Na6 V2 P4 O18'
_cell_volume   378.36024179
_cell_formula_units_Z   2
loop_
 _symmetry_equiv_pos_site_id
 _symmetry_equiv_pos_as_xyz
  1  'x, y, z'
loop_
 _atom_site_type_symbol
 _atom_site_label
 _atom_site_symmetry_multiplicity
 _atom_site_fract_x
 _atom_site_fract_y
 _atom_site_fract_z
 _atom_site_occupancy
  Na  Na0  1  0.82495084  0.49235152  0.22343452  1
  Na  Na1  1  0.17504916  0.99235152  0.77656548  1
  Na  Na2  1  0.17504916  0.50764848  0.77656548  1
  Na  Na3  1  0.82495084  0.00764848  0.22343452  1
  Na  Na4  1  0.81975364  0.75000000  0.73153100  1
  Na  Na5  1  0.18024636  0.25000000  0.26846900  1
  V  V6  1  0.42184858  0.75000000  0.21208327  1
  V  V7  1  0.57815142  0.25000000  0.78791673  1
  P  P8  1  0.50024146  0.75000000  0.75652508  1
  P  P9  1  0.49975854  0.25000000  0.24347492  1
  P  P10  1  0.09699751  0.75000000  0.26028963  1
  P  P11  1  0.90300249  0.25000000  0.73971037  1
  O  O12  1  0.38544934  0.75000000  0.87906476  1
  O  O13  1  0.61455066  0.25000000  0.12093524  1
  O  O14  1  0.39928259  0.44156076  0.18531233  1
  O  O15  1  0.60071741  0.94156076  0.81468767  1
  O  O16  1  0.60071741  0.55843924  0.81468767  1
  O  O17  1  0.39928259  0.05843924  0.18531233  1
  O  O18  1  0.39988436  0.25000000  0.72220771  1
  O  O19  1  0.60011564  0.75000000  0.27779229  1
  O  O20  1  0.58662980  0.25000000  0.49621504  1
  O  O21  1  0.41337020  0.75000000  0.50378496  1
  O  O22  1  0.79494627  0.25000000  0.89046093  1
  O  O23  1  0.20505373  0.75000000  0.10953907  1
  O  O24  1  0.05972488  0.25000000  0.90307744  1
  O  O25  1  0.94027512  0.75000000  0.09692256  1
  O  O26  1  0.87533793  0.44867260  0.59914380  1
  O  O27  1  0.12466207  0.94867260  0.40085620  1
  O  O28  1  0.12466207  0.55132740  0.40085620  1
  O  O29  1  0.87533793  0.05132740  0.59914380  1
