# generated using pymatgen
data_LiTm2Pt
_symmetry_space_group_name_H-M   'P 1'
_cell_length_a   4.90610881
_cell_length_b   4.90610716
_cell_length_c   4.90610958
_cell_angle_alpha   59.99996977
_cell_angle_beta   60.00001955
_cell_angle_gamma   59.99997330
_symmetry_Int_Tables_number   1
_chemical_formula_structural   LiTm2Pt
_chemical_formula_sum   'Li1 Tm2 Pt1'
_cell_volume   83.50189451
_cell_formula_units_Z   1
loop_
 _symmetry_equiv_pos_site_id
 _symmetry_equiv_pos_as_xyz
  1  'x, y, z'
loop_
 _atom_site_type_symbol
 _atom_site_label
 _atom_site_symmetry_multiplicity
 _atom_site_fract_x
 _atom_site_fract_y
 _atom_site_fract_z
 _atom_site_occupancy
  Li  Li0  1  0.24999984  0.25000007  0.25000021  1
  Tm  Tm1  1  0.00000008  0.99999991  0.99999997  1
  Tm  Tm2  1  0.49999981  0.50000013  0.49999992  1
  Pt  Pt3  1  0.75000026  0.74999988  0.74999990  1
