# generated using pymatgen
data_BaSi4O9
_symmetry_space_group_name_H-M   'P 1'
_cell_length_a   6.57940927
_cell_length_b   6.57940927
_cell_length_c   9.46998775
_cell_angle_alpha   90.00000000
_cell_angle_beta   90.00000000
_cell_angle_gamma   120.00000004
_symmetry_Int_Tables_number   1
_chemical_formula_structural   BaSi4O9
_chemical_formula_sum   'Ba2 Si8 O18'
_cell_volume   355.02084529
_cell_formula_units_Z   2
loop_
 _symmetry_equiv_pos_site_id
 _symmetry_equiv_pos_as_xyz
  1  'x, y, z'
loop_
 _atom_site_type_symbol
 _atom_site_label
 _atom_site_symmetry_multiplicity
 _atom_site_fract_x
 _atom_site_fract_y
 _atom_site_fract_z
 _atom_site_occupancy
  O  O0  1  0.55689462  0.89387394  0.60694046  1
  O  O1  1  0.10612606  0.44310538  0.39305954  1
  O  O2  1  0.10612606  0.66302069  0.60694046  1
  O  O3  1  0.33697931  0.44310538  0.60694046  1
  O  O4  1  0.10612606  0.66302069  0.89305954  1
  O  O5  1  0.33697931  0.44310538  0.89305954  1
  O  O6  1  0.55689462  0.89387394  0.89305954  1
  O  O7  1  0.33697931  0.89387394  0.10694046  1
  O  O8  1  0.55689462  0.66302069  0.10694046  1
  O  O9  1  0.55689462  0.66302069  0.39305954  1
  O  O10  1  0.92264869  0.73565700  0.25000000  1
  O  O11  1  0.81300831  0.07735131  0.25000000  1
  O  O12  1  0.26434300  0.18699169  0.25000000  1
  O  O13  1  0.26434300  0.07735131  0.75000000  1
  O  O14  1  0.81300831  0.73565700  0.75000000  1
  O  O15  1  0.92264869  0.18699169  0.75000000  1
  O  O16  1  0.10612606  0.44310538  0.10694046  1
  O  O17  1  0.33697931  0.89387394  0.39305954  1
  Si  Si18  1  0.08915202  0.78869932  0.75000000  1
  Si  Si19  1  0.21130068  0.30045270  0.75000000  1
  Si  Si20  1  0.69954730  0.91084798  0.75000000  1
  Si  Si21  1  0.69954730  0.78869932  0.25000000  1
  Si  Si22  1  0.21130068  0.91084798  0.25000000  1
  Si  Si23  1  0.08915202  0.30045270  0.25000000  1
  Si  Si24  1  0.33333333  0.66666667  0.50000000  1
  Si  Si25  1  0.33333333  0.66666667  0.00000000  1
  Ba  Ba26  1  0.66666667  0.33333333  0.50000000  1
  Ba  Ba27  1  0.66666667  0.33333333  0.00000000  1
