# generated using pymatgen
data_Tm2S3
_symmetry_space_group_name_H-M   'P 1'
_cell_length_a   3.81051563
_cell_length_b   10.38896234
_cell_length_c   10.50531110
_cell_angle_alpha   90.00000000
_cell_angle_beta   90.00000000
_cell_angle_gamma   90.00000000
_symmetry_Int_Tables_number   1
_chemical_formula_structural   Tm2S3
_chemical_formula_sum   'Tm8 S12'
_cell_volume   415.87693758
_cell_formula_units_Z   4
loop_
 _symmetry_equiv_pos_site_id
 _symmetry_equiv_pos_as_xyz
  1  'x, y, z'
loop_
 _atom_site_type_symbol
 _atom_site_label
 _atom_site_symmetry_multiplicity
 _atom_site_fract_x
 _atom_site_fract_y
 _atom_site_fract_z
 _atom_site_occupancy
  Tm  Tm0  1  0.25000000  0.99613461  0.80774512  1
  Tm  Tm1  1  0.75000000  0.68725244  0.01097274  1
  Tm  Tm2  1  0.25000000  0.31274756  0.98902726  1
  Tm  Tm3  1  0.75000000  0.81274756  0.51097274  1
  Tm  Tm4  1  0.75000000  0.49613461  0.69225488  1
  Tm  Tm5  1  0.75000000  0.00386539  0.19225488  1
  Tm  Tm6  1  0.25000000  0.18725244  0.48902726  1
  Tm  Tm7  1  0.25000000  0.50386539  0.30774512  1
  S  S8  1  0.75000000  0.44475014  0.11859398  1
  S  S9  1  0.25000000  0.94475014  0.38140602  1
  S  S10  1  0.75000000  0.05524986  0.61859398  1
  S  S11  1  0.25000000  0.55524986  0.88140602  1
  S  S12  1  0.75000000  0.80532081  0.77360305  1
  S  S13  1  0.75000000  0.37352787  0.45413276  1
  S  S14  1  0.25000000  0.62647213  0.54586724  1
  S  S15  1  0.25000000  0.19467919  0.22639695  1
  S  S16  1  0.25000000  0.30532081  0.72639695  1
  S  S17  1  0.25000000  0.87352787  0.04586724  1
  S  S18  1  0.75000000  0.69467919  0.27360305  1
  S  S19  1  0.75000000  0.12647213  0.95413276  1
