# generated using pymatgen
data_MoPCl5O3
_symmetry_space_group_name_H-M   'P 1'
_cell_length_a   8.90008733
_cell_length_b   15.10063209
_cell_length_c   15.49338710
_cell_angle_alpha   90.00000000
_cell_angle_beta   90.00000000
_cell_angle_gamma   96.03367259
_symmetry_Int_Tables_number   1
_chemical_formula_structural   MoPCl5O3
_chemical_formula_sum   'Mo8 P8 Cl40 O24'
_cell_volume   2070.72875042
_cell_formula_units_Z   8
loop_
 _symmetry_equiv_pos_site_id
 _symmetry_equiv_pos_as_xyz
  1  'x, y, z'
loop_
 _atom_site_type_symbol
 _atom_site_label
 _atom_site_symmetry_multiplicity
 _atom_site_fract_x
 _atom_site_fract_y
 _atom_site_fract_z
 _atom_site_occupancy
  Mo  Mo0  1  0.26073199  0.24453077  0.55458573  1
  Mo  Mo1  1  0.78040978  0.73924466  0.69617609  1
  Mo  Mo2  1  0.23926801  0.25546923  0.05458573  1
  Mo  Mo3  1  0.71959022  0.76075534  0.19617609  1
  Mo  Mo4  1  0.28040978  0.23924466  0.80382391  1
  Mo  Mo5  1  0.21959022  0.26075534  0.30382391  1
  Mo  Mo6  1  0.76073199  0.74453077  0.94541427  1
  Mo  Mo7  1  0.73926801  0.75546923  0.44541427  1
  P  P8  1  0.08228003  0.44540809  0.82785205  1
  P  P9  1  0.87532250  0.33187020  0.56540383  1
  P  P10  1  0.37532250  0.83187020  0.93459617  1
  P  P11  1  0.58228003  0.94540809  0.67214795  1
  P  P12  1  0.12467750  0.66812980  0.43459617  1
  P  P13  1  0.41771997  0.05459191  0.32785205  1
  P  P14  1  0.62467750  0.16812980  0.06540383  1
  P  P15  1  0.91771997  0.55459191  0.17214795  1
  Cl  Cl16  1  0.04839107  0.13243943  0.32174091  1
  Cl  Cl17  1  0.06163227  0.14182393  0.82590805  1
  Cl  Cl18  1  0.27534013  0.77635169  0.03940905  1
  Cl  Cl19  1  0.88422539  0.88813882  0.93056635  1
  Cl  Cl20  1  0.17741303  0.50951628  0.92940527  1
  Cl  Cl21  1  0.54839107  0.63243943  0.17825909  1
  Cl  Cl22  1  0.45160893  0.36756057  0.82174091  1
  Cl  Cl23  1  0.22465987  0.72364831  0.53940905  1
  Cl  Cl24  1  0.66799382  0.01316439  0.77395106  1
  Cl  Cl25  1  0.81722856  0.45567167  0.56764618  1
  Cl  Cl26  1  0.76705004  0.27037149  0.66471820  1
  Cl  Cl27  1  0.67741303  0.00951628  0.57059473  1
  Cl  Cl28  1  0.31722856  0.95567167  0.93235382  1
  Cl  Cl29  1  0.16799382  0.51316439  0.72604894  1
  Cl  Cl30  1  0.38422539  0.38813882  0.56943365  1
  Cl  Cl31  1  0.92758132  0.87390010  0.42190883  1
  Cl  Cl32  1  0.11577461  0.11186118  0.06943365  1
  Cl  Cl33  1  0.13511819  0.53330670  0.16811265  1
  Cl  Cl34  1  0.73294996  0.22962851  0.16471820  1
  Cl  Cl35  1  0.36488181  0.96669330  0.66811265  1
  Cl  Cl36  1  0.93836773  0.85817607  0.17409195  1
  Cl  Cl37  1  0.57241868  0.62609990  0.92190883  1
  Cl  Cl38  1  0.56163227  0.64182393  0.67409195  1
  Cl  Cl39  1  0.33200618  0.98683561  0.22604894  1
  Cl  Cl40  1  0.23294996  0.72962851  0.33528180  1
  Cl  Cl41  1  0.82258697  0.49048372  0.07059473  1
  Cl  Cl42  1  0.95160893  0.86756057  0.67825909  1
  Cl  Cl43  1  0.72465987  0.22364831  0.96059095  1
  Cl  Cl44  1  0.32258697  0.99048372  0.42940527  1
  Cl  Cl45  1  0.63511819  0.03330670  0.33188735  1
  Cl  Cl46  1  0.42758132  0.37390010  0.07809117  1
  Cl  Cl47  1  0.86488181  0.46669330  0.83188735  1
  Cl  Cl48  1  0.18277144  0.54432833  0.43235382  1
  Cl  Cl49  1  0.68277144  0.04432833  0.06764618  1
  Cl  Cl50  1  0.43836773  0.35817607  0.32590805  1
  Cl  Cl51  1  0.83200618  0.48683561  0.27395106  1
  Cl  Cl52  1  0.77534013  0.27635169  0.46059095  1
  Cl  Cl53  1  0.61577461  0.61186118  0.43056635  1
  Cl  Cl54  1  0.26705004  0.77037149  0.83528180  1
  Cl  Cl55  1  0.07241868  0.12609990  0.57809117  1
  O  O56  1  0.40923121  0.16344652  0.80047279  1
  O  O57  1  0.24564575  0.25621731  0.69105236  1
  O  O58  1  0.40005438  0.15111674  0.32566585  1
  O  O59  1  0.95872851  0.67013628  0.43262727  1
  O  O60  1  0.75435425  0.74378269  0.30894764  1
  O  O61  1  0.58635159  0.81444559  0.44337298  1
  O  O62  1  0.09076879  0.33655348  0.30047279  1
  O  O63  1  0.59994562  0.84888326  0.67433415  1
  O  O64  1  0.91364841  0.68555441  0.94337298  1
  O  O65  1  0.25435425  0.24378269  0.19105236  1
  O  O66  1  0.54127149  0.82986372  0.93262727  1
  O  O67  1  0.59076879  0.83655348  0.19952721  1
  O  O68  1  0.04127149  0.32986372  0.56737273  1
  O  O69  1  0.27228627  0.24667907  0.94059012  1
  O  O70  1  0.74564575  0.75621731  0.80894764  1
  O  O71  1  0.09994562  0.34888326  0.82566585  1
  O  O72  1  0.45872851  0.17013628  0.06737273  1
  O  O73  1  0.08635159  0.31444559  0.05662702  1
  O  O74  1  0.41364841  0.18555441  0.55662702  1
  O  O75  1  0.90005438  0.65111674  0.17433415  1
  O  O76  1  0.72771373  0.75332093  0.05940988  1
  O  O77  1  0.77228627  0.74667907  0.55940988  1
  O  O78  1  0.90923121  0.66344652  0.69952721  1
  O  O79  1  0.22771373  0.25332093  0.44059012  1
