# generated using pymatgen
data_Sr2AlCu2NiO7
_symmetry_space_group_name_H-M   'P 1'
_cell_length_a   5.30523738
_cell_length_b   5.41385000
_cell_length_c   12.07865474
_cell_angle_alpha   102.96703554
_cell_angle_beta   102.72426869
_cell_angle_gamma   89.99066639
_symmetry_Int_Tables_number   1
_chemical_formula_structural   Sr2AlCu2NiO7
_chemical_formula_sum   'Sr4 Al2 Cu4 Ni2 O14'
_cell_volume   329.32776550
_cell_formula_units_Z   2
loop_
 _symmetry_equiv_pos_site_id
 _symmetry_equiv_pos_as_xyz
  1  'x, y, z'
loop_
 _atom_site_type_symbol
 _atom_site_label
 _atom_site_symmetry_multiplicity
 _atom_site_fract_x
 _atom_site_fract_y
 _atom_site_fract_z
 _atom_site_occupancy
  Sr  Sr0  1  0.33611482  0.33565585  0.69879792  1
  Sr  Sr1  1  0.63894548  0.66276209  0.30172365  1
  Sr  Sr2  1  0.83567740  0.86277797  0.69890359  1
  Sr  Sr3  1  0.13904292  0.13712785  0.30190087  1
  Al  Al4  1  0.98817873  0.00417371  0.00057396  1
  Al  Al5  1  0.48998795  0.49922602  0.00043311  1
  Cu  Cu6  1  0.92799436  0.44531817  0.88209930  1
  Cu  Cu7  1  0.04661747  0.55938215  0.11955197  1
  Cu  Cu8  1  0.42670224  0.93824630  0.88139675  1
  Cu  Cu9  1  0.54574739  0.06021332  0.11901436  1
  Ni  Ni10  1  0.27487545  0.67953992  0.50035136  1
  Ni  Ni11  1  0.77463365  0.32008469  0.50026498  1
  O  O12  1  0.13440354  0.35807303  0.50024121  1
  O  O13  1  0.63475082  0.64152313  0.50025706  1
  O  O14  1  0.25072100  0.26793795  0.89374219  1
  O  O15  1  0.36181175  0.73196810  0.10762454  1
  O  O16  1  0.74995786  0.12929262  0.89316204  1
  O  O17  1  0.86093187  0.87515093  0.10704402  1
  O  O18  1  0.60283180  0.61883944  0.88835807  1
  O  O19  1  0.71877237  0.37932090  0.11184162  1
  O  O20  1  0.10192631  0.77307615  0.88898293  1
  O  O21  1  0.21845598  0.23285134  0.11267026  1
  O  O22  1  0.29314721  0.85944142  0.65266898  1
  O  O23  1  0.64152556  0.13930735  0.34807738  1
  O  O24  1  0.79271412  0.29190379  0.65218536  1
  O  O25  1  0.14177896  0.70683881  0.34781354  1
