# generated using pymatgen
data_Ti3O2
_symmetry_space_group_name_H-M   'P 1'
_cell_length_a   5.12810463
_cell_length_b   5.12882805
_cell_length_c   5.79228847
_cell_angle_alpha   116.29838502
_cell_angle_beta   63.71310912
_cell_angle_gamma   119.98146101
_symmetry_Int_Tables_number   1
_chemical_formula_structural   Ti3O2
_chemical_formula_sum   'Ti6 O4'
_cell_volume   113.38731281
_cell_formula_units_Z   2
loop_
 _symmetry_equiv_pos_site_id
 _symmetry_equiv_pos_as_xyz
  1  'x, y, z'
loop_
 _atom_site_type_symbol
 _atom_site_label
 _atom_site_symmetry_multiplicity
 _atom_site_fract_x
 _atom_site_fract_y
 _atom_site_fract_z
 _atom_site_occupancy
  Ti  Ti0  1  0.58007357  0.75003013  0.25002981  1
  Ti  Ti1  1  0.91990423  0.41986342  0.25001706  1
  Ti  Ti2  1  0.24997260  0.08021030  0.25001992  1
  Ti  Ti3  1  0.75002844  0.91978115  0.74997936  1
  Ti  Ti4  1  0.08010453  0.58014655  0.74998588  1
  Ti  Ti5  1  0.41992503  0.24997123  0.74997343  1
  O  O6  1  0.66226782  0.33774870  0.01318915  1
  O  O7  1  0.83771454  0.16229367  0.48685788  1
  O  O8  1  0.16227616  0.83767522  0.51312296  1
  O  O9  1  0.33772908  0.66228163  0.98683355  1
