# generated using pymatgen
data_LiTi2O4
_symmetry_space_group_name_H-M   'P 1'
_cell_length_a   8.24631681
_cell_length_b   3.85105103
_cell_length_c   9.05297881
_cell_angle_alpha   90.00047386
_cell_angle_beta   89.96343100
_cell_angle_gamma   89.99978241
_symmetry_Int_Tables_number   1
_chemical_formula_structural   LiTi2O4
_chemical_formula_sum   'Li4 Ti8 O16'
_cell_volume   287.49527030
_cell_formula_units_Z   4
loop_
 _symmetry_equiv_pos_site_id
 _symmetry_equiv_pos_as_xyz
  1  'x, y, z'
loop_
 _atom_site_type_symbol
 _atom_site_label
 _atom_site_symmetry_multiplicity
 _atom_site_fract_x
 _atom_site_fract_y
 _atom_site_fract_z
 _atom_site_occupancy
  Li  Li0  1  0.99674323  0.00000415  0.02682307  1
  Li  Li1  1  0.00326384  0.49999534  0.22323316  1
  Li  Li2  1  0.25071953  0.50000283  0.53284192  1
  Li  Li3  1  0.74927560  0.99999718  0.71715783  1
  Ti  Ti4  1  0.27566311  0.99998134  0.25527127  1
  Ti  Ti5  1  0.73818593  0.99998762  0.26688357  1
  Ti  Ti6  1  0.98705971  0.99998258  0.48489405  1
  Ti  Ti7  1  0.50989354  0.99998758  0.48799956  1
  Ti  Ti8  1  0.49011482  0.50001170  0.76201269  1
  Ti  Ti9  1  0.01292235  0.50001398  0.76510280  1
  Ti  Ti10  1  0.26181414  0.50001170  0.98312709  1
  Ti  Ti11  1  0.72434217  0.50001676  0.99473977  1
  O  O12  1  0.24149001  0.00000463  0.02469647  1
  O  O13  1  0.75346916  0.00000754  0.02863904  1
  O  O14  1  0.24653268  0.49999462  0.22135114  1
  O  O15  1  0.75851392  0.49999559  0.22527671  1
  O  O16  1  0.50240489  0.00002614  0.26586320  1
  O  O17  1  0.00108195  -0.00000011  0.27004143  1
  O  O18  1  0.24897791  0.00000571  0.46742828  1
  O  O19  1  0.75158333  0.00000906  0.48939338  1
  O  O20  1  0.00751302  0.50001440  0.52455795  1
  O  O21  1  0.49224432  0.50001133  0.52683832  1
  O  O22  1  0.50774972  0.99998686  0.72314600  1
  O  O23  1  0.99247877  0.99997881  0.72540297  1
  O  O24  1  0.24840679  0.49998997  0.76064580  1
  O  O25  1  0.75101229  0.49999258  0.78256962  1
  O  O26  1  0.99893788  0.50000040  0.97993326  1
  O  O27  1  0.49759338  0.49997771  0.98412863  1
