# generated using pymatgen
data_Sm(C2N3)3
_symmetry_space_group_name_H-M   'P 1'
_cell_length_a   7.10072556
_cell_length_b   7.10072626
_cell_length_c   10.59271687
_cell_angle_alpha   90.00000000
_cell_angle_beta   90.00000000
_cell_angle_gamma   113.80040844
_symmetry_Int_Tables_number   1
_chemical_formula_structural   Sm(C2N3)3
_chemical_formula_sum   'Sm2 C12 N18'
_cell_volume   488.66749008
_cell_formula_units_Z   2
loop_
 _symmetry_equiv_pos_site_id
 _symmetry_equiv_pos_as_xyz
  1  'x, y, z'
loop_
 _atom_site_type_symbol
 _atom_site_label
 _atom_site_symmetry_multiplicity
 _atom_site_fract_x
 _atom_site_fract_y
 _atom_site_fract_z
 _atom_site_occupancy
  Sm  Sm0  1  0.28366562  0.71633438  0.75000000  1
  Sm  Sm1  1  0.71633438  0.28366562  0.25000000  1
  C  C2  1  0.26784664  0.44170455  0.25000000  1
  C  C3  1  0.55829545  0.73215336  0.25000000  1
  C  C4  1  -0.00019290  0.70794465  0.05403760  1
  C  C5  1  0.70794465  -0.00019290  0.55403760  1
  C  C6  1  0.44170455  0.26784664  0.75000000  1
  C  C7  1  1.00019290  0.29205535  0.94596240  1
  C  C8  1  -0.00019290  0.70794465  0.44596240  1
  C  C9  1  0.73215336  0.55829545  0.75000000  1
  C  C10  1  1.00019290  0.29205535  0.55403760  1
  C  C11  1  0.70794465  -0.00019290  0.94596240  1
  C  C12  1  0.29205535  1.00019290  0.05403760  1
  C  C13  1  0.29205535  1.00019290  0.44596240  1
  N  N14  1  0.85782665  0.57487063  0.10084204  1
  N  N15  1  0.08756412  0.35202742  0.25000000  1
  N  N16  1  0.14217335  0.42512937  0.89915796  1
  N  N17  1  0.85782665  0.57487063  0.39915796  1
  N  N18  1  0.15413786  0.84586214  0.50544127  1
  N  N19  1  0.46801586  0.53198414  0.25000000  1
  N  N20  1  0.14217335  0.42512937  0.60084204  1
  N  N21  1  0.91243588  0.64797258  0.75000000  1
  N  N22  1  0.64797258  0.91243588  0.25000000  1
  N  N23  1  0.35202742  0.08756412  0.75000000  1
  N  N24  1  0.42512937  0.14217335  0.10084204  1
  N  N25  1  0.84586214  0.15413786  0.00544127  1
  N  N26  1  0.15413786  0.84586214  0.99455873  1
  N  N27  1  0.42512937  0.14217335  0.39915796  1
  N  N28  1  0.84586214  0.15413786  0.49455873  1
  N  N29  1  0.53198414  0.46801586  0.75000000  1
  N  N30  1  0.57487063  0.85782665  0.60084204  1
  N  N31  1  0.57487063  0.85782665  0.89915796  1
