# generated using pymatgen
data_Li9Mg(Ni6O13)2
_symmetry_space_group_name_H-M   'P 1'
_cell_length_a   7.55183999
_cell_length_b   7.73008889
_cell_length_c   8.15825136
_cell_angle_alpha   76.30037170
_cell_angle_beta   75.42154132
_cell_angle_gamma   87.79952331
_symmetry_Int_Tables_number   1
_chemical_formula_structural   Li9Mg(Ni6O13)2
_chemical_formula_sum   'Li9 Mg1 Ni12 O26'
_cell_volume   447.68915525
_cell_formula_units_Z   1
loop_
 _symmetry_equiv_pos_site_id
 _symmetry_equiv_pos_as_xyz
  1  'x, y, z'
loop_
 _atom_site_type_symbol
 _atom_site_label
 _atom_site_symmetry_multiplicity
 _atom_site_fract_x
 _atom_site_fract_y
 _atom_site_fract_z
 _atom_site_occupancy
  Li  Li0  1  0.00321688  0.00633851  0.50005057  1
  Li  Li1  1  0.06973001  0.38273266  0.88269427  1
  Li  Li2  1  0.30660017  0.55037021  0.04119925  1
  Li  Li3  1  0.38724554  0.93593756  0.43681834  1
  Li  Li4  1  0.52715981  0.69313671  0.19297122  1
  Li  Li5  1  0.46163909  0.29468435  0.79717049  1
  Li  Li6  1  0.77667696  0.85022044  0.35183568  1
  Li  Li7  1  0.91590556  0.60914722  0.11458222  1
  Li  Li8  1  0.84114641  0.23173801  0.72556083  1
  Mg  Mg9  1  0.00375256  0.99681739  0.00103199  1
  Ni  Ni10  1  0.08086438  0.38849110  0.37809382  1
  Ni  Ni11  1  0.23491547  0.14992002  0.15643519  1
  Ni  Ni12  1  0.15371315  0.76818302  0.77053426  1
  Ni  Ni13  1  0.30517696  0.54487466  0.53310692  1
  Ni  Ni14  1  0.46385736  0.30326364  0.31064349  1
  Ni  Ni15  1  0.61929013  0.07396021  0.07603013  1
  Ni  Ni16  1  0.38467702  0.92901198  0.92027320  1
  Ni  Ni17  1  0.53559219  0.69435899  0.69414827  1
  Ni  Ni18  1  0.69036517  0.46263052  0.46302769  1
  Ni  Ni19  1  0.84805338  0.23050133  0.23076766  1
  Ni  Ni20  1  0.76715611  0.84048684  0.84564837  1
  Ni  Ni21  1  0.92222191  0.61127653  0.61567212  1
  O  O22  1  0.99664449  0.03124859  0.24555934  1
  O  O23  1  0.06245268  0.37690001  0.14658468  1
  O  O24  1  0.07198959  0.40992591  0.61551626  1
  O  O25  1  0.14699125  0.74891294  0.54390790  1
  O  O26  1  0.24679869  0.16420460  0.38051268  1
  O  O27  1  0.30363888  0.51921523  0.29018162  1
  O  O28  1  0.16817024  0.78183086  0.99345402  1
  O  O29  1  0.40501946  0.93243943  0.14770805  1
  O  O30  1  0.24230500  0.13742666  0.92635833  1
  O  O31  1  0.46677904  0.27397743  0.07644429  1
  O  O32  1  0.30620237  0.56557393  0.78418490  1
  O  O33  1  0.36610308  0.91243785  0.69804570  1
  O  O34  1  0.45834689  0.34391713  0.54242637  1
  O  O35  1  0.52400714  0.69232250  0.46361015  1
  O  O36  1  0.63364446  0.08289224  0.30230795  1
  O  O37  1  0.68871350  0.43696573  0.23527106  1
  O  O38  1  0.53273565  0.72257928  0.92183012  1
  O  O39  1  0.75963749  0.85727087  0.08139511  1
  O  O40  1  0.60546142  0.06822433  0.84983000  1
  O  O41  1  0.83879781  0.21420906  0.00287275  1
  O  O42  1  0.70499095  0.47115276  0.68851143  1
  O  O43  1  0.77300467  0.81358763  0.61386883  1
  O  O44  1  0.86556628  0.24553230  0.45602265  1
  O  O45  1  0.90735020  0.60589224  0.38827695  1
  O  O46  1  0.94103454  0.62066027  0.84329093  1
  O  O47  1  0.99192702  0.96551035  0.75912091  1
