# generated using pymatgen
data_Mg(CoO2)4
_symmetry_space_group_name_H-M   'P 1'
_cell_length_a   5.86955218
_cell_length_b   5.86955205
_cell_length_c   5.86955270
_cell_angle_alpha   57.22274672
_cell_angle_beta   57.22274285
_cell_angle_gamma   57.22274733
_symmetry_Int_Tables_number   1
_chemical_formula_structural   Mg(CoO2)4
_chemical_formula_sum   'Mg1 Co4 O8'
_cell_volume   133.84175323
_cell_formula_units_Z   1
loop_
 _symmetry_equiv_pos_site_id
 _symmetry_equiv_pos_as_xyz
  1  'x, y, z'
loop_
 _atom_site_type_symbol
 _atom_site_label
 _atom_site_symmetry_multiplicity
 _atom_site_fract_x
 _atom_site_fract_y
 _atom_site_fract_z
 _atom_site_occupancy
  Mg  Mg0  1  0.50000000  0.50000100  0.49999900  1
  Co  Co1  1  0.50000100  0.99999900  0.50000100  1
  Co  Co2  1  0.99999900  0.50000000  0.50000100  1
  Co  Co3  1  0.50000000  0.50000000  0.00000000  1
  Co  Co4  1  0.00000000  0.00000000  0.00000000  1
  O  O5  1  0.76132529  0.27229946  0.76132529  1
  O  O6  1  0.23867371  0.23867471  0.72770054  1
  O  O7  1  0.23867371  0.72770154  0.23867371  1
  O  O8  1  0.72769954  0.23867471  0.23867471  1
  O  O9  1  0.27079659  0.27079759  0.27079659  1
  O  O10  1  0.72920341  0.72920341  0.72920341  1
  O  O11  1  0.27230046  0.76132629  0.76132529  1
  O  O12  1  0.76132629  0.76132629  0.27229946  1
