# generated using pymatgen
data_MgSbF5
_symmetry_space_group_name_H-M   'P 1'
_cell_length_a   5.67714963
_cell_length_b   8.06366383
_cell_length_c   10.15095988
_cell_angle_alpha   90.00000000
_cell_angle_beta   90.00000000
_cell_angle_gamma   120.02123099
_symmetry_Int_Tables_number   1
_chemical_formula_structural   MgSbF5
_chemical_formula_sum   'Mg4 Sb4 F20'
_cell_volume   402.35328049
_cell_formula_units_Z   4
loop_
 _symmetry_equiv_pos_site_id
 _symmetry_equiv_pos_as_xyz
  1  'x, y, z'
loop_
 _atom_site_type_symbol
 _atom_site_label
 _atom_site_symmetry_multiplicity
 _atom_site_fract_x
 _atom_site_fract_y
 _atom_site_fract_z
 _atom_site_occupancy
  Mg  Mg0  1  0.52673763  0.81086203  0.02605643  1
  Mg  Mg1  1  0.47326237  0.68913797  0.52605643  1
  Mg  Mg2  1  0.47326237  0.18913797  0.97394357  1
  Mg  Mg3  1  0.52673763  0.31086203  0.47394357  1
  Sb  Sb4  1  0.93844152  0.66897700  0.77695241  1
  Sb  Sb5  1  0.06155848  0.83102300  0.27695241  1
  Sb  Sb6  1  0.06155848  0.33102300  0.22304759  1
  Sb  Sb7  1  0.93844152  0.16897700  0.72304759  1
  F  F8  1  0.69822010  0.68479923  0.93121084  1
  F  F9  1  0.30177990  0.81520077  0.43121084  1
  F  F10  1  0.30177990  0.31520077  0.06878916  1
  F  F11  1  0.69822010  0.18479923  0.56878916  1
  F  F12  1  0.63547780  0.53315280  0.60273803  1
  F  F13  1  0.36452220  0.96684720  0.10273803  1
  F  F14  1  0.36452220  0.46684720  0.39726197  1
  F  F15  1  0.63547780  0.03315280  0.89726197  1
  F  F16  1  0.81697175  0.83626230  0.42189155  1
  F  F17  1  0.18302825  0.66373770  0.92189155  1
  F  F18  1  0.18302825  0.16373770  0.57810845  1
  F  F19  1  0.81697175  0.33626230  0.07810845  1
  F  F20  1  0.83795620  0.93707510  0.15395124  1
  F  F21  1  0.16204380  0.56292490  0.65395124  1
  F  F22  1  0.16204380  0.06292490  0.84604876  1
  F  F23  1  0.83795620  0.43707510  0.34604876  1
  F  F24  1  0.69737500  0.88690682  0.67500664  1
  F  F25  1  0.30262500  0.61309318  0.17500664  1
  F  F26  1  0.30262500  0.11309318  0.32499336  1
  F  F27  1  0.69737500  0.38690682  0.82499336  1
