# generated using pymatgen
data_RbPdCl3
_symmetry_space_group_name_H-M   'P 1'
_cell_length_a   5.00841594
_cell_length_b   5.00751044
_cell_length_c   5.00366949
_cell_angle_alpha   90.09543625
_cell_angle_beta   90.06408229
_cell_angle_gamma   89.99712263
_symmetry_Int_Tables_number   1
_chemical_formula_structural   RbPdCl3
_chemical_formula_sum   'Rb1 Pd1 Cl3'
_cell_volume   125.49025252
_cell_formula_units_Z   1
loop_
 _symmetry_equiv_pos_site_id
 _symmetry_equiv_pos_as_xyz
  1  'x, y, z'
loop_
 _atom_site_type_symbol
 _atom_site_label
 _atom_site_symmetry_multiplicity
 _atom_site_fract_x
 _atom_site_fract_y
 _atom_site_fract_z
 _atom_site_occupancy
  Rb  Rb0  1  0.99972581  0.00665940  0.99983255  1
  Pd  Pd1  1  0.50028324  0.51432779  0.50316118  1
  Cl  Cl2  1  0.00028137  0.51316576  0.50374004  1
  Cl  Cl3  1  0.49854175  0.01433688  0.50011737  1
  Cl  Cl4  1  0.50116683  0.51150916  0.00314686  1
