# generated using pymatgen
data_Ba4CaFe4Cu2F28
_symmetry_space_group_name_H-M   'P 1'
_cell_length_a   5.47339404
_cell_length_b   7.59638444
_cell_length_c   15.19483738
_cell_angle_alpha   90.63003467
_cell_angle_beta   89.99458802
_cell_angle_gamma   111.08117763
_symmetry_Int_Tables_number   1
_chemical_formula_structural   Ba4CaFe4Cu2F28
_chemical_formula_sum   'Ba4 Ca1 Fe4 Cu2 F28'
_cell_volume   589.44701378
_cell_formula_units_Z   1
loop_
 _symmetry_equiv_pos_site_id
 _symmetry_equiv_pos_as_xyz
  1  'x, y, z'
loop_
 _atom_site_type_symbol
 _atom_site_label
 _atom_site_symmetry_multiplicity
 _atom_site_fract_x
 _atom_site_fract_y
 _atom_site_fract_z
 _atom_site_occupancy
  Ba  Ba0  1  0.12496706  0.37027858  0.63396655  1
  Ba  Ba1  1  0.26100438  0.38242932  0.11585859  1
  Ba  Ba2  1  0.87838107  0.61851063  0.38556126  1
  Ba  Ba3  1  0.75278047  0.62835398  0.86725419  1
  Ca  Ca4  1  0.59106792  0.00059176  0.25036964  1
  Fe  Fe5  1  0.10043398  0.23916277  0.87030780  1
  Fe  Fe6  1  0.91061552  0.75992013  0.12753429  1
  Fe  Fe7  1  0.15040235  0.24067114  0.37336406  1
  Fe  Fe8  1  0.86087982  0.75980170  0.63082360  1
  Cu  Cu9  1  0.49939607  0.00152539  0.00089645  1
  Cu  Cu10  1  0.49824752  0.99857196  0.49975931  1
  F  F11  1  0.92230100  0.98291141  0.34569233  1
  F  F12  1  0.89112886  0.27618643  0.45328243  1
  F  F13  1  0.11658950  0.73470656  0.54096603  1
  F  F14  1  0.65134143  0.50844706  0.58350159  1
  F  F15  1  0.60246473  0.10516708  0.60430055  1
  F  F16  1  0.49808283  0.89451249  0.89663075  1
  F  F17  1  0.38170210  0.26584331  0.96009528  1
  F  F18  1  0.93998988  0.01782445  0.15484181  1
  F  F19  1  0.36872008  0.35192776  0.78348265  1
  F  F20  1  0.35497207  0.50065712  0.39949969  1
  F  F21  1  0.84549537  0.25954684  0.79182162  1
  F  F22  1  0.14207753  0.49125136  0.91711476  1
  F  F23  1  0.41802472  0.23235898  0.28940219  1
  F  F24  1  0.18738661  0.76838159  0.21100069  1
  F  F25  1  0.49897615  0.10426005  0.11125514  1
  F  F26  1  0.64975660  0.68252339  0.22397627  1
  F  F27  1  0.15159105  0.84030902  0.02207751  1
  F  F28  1  0.06391471  0.01422493  0.64919499  1
  F  F29  1  0.84464803  0.15585314  0.98368340  1
  F  F30  1  0.68981443  0.84417955  0.51731476  1
  F  F31  1  0.61524050  0.72394808  0.04796323  1
  F  F32  1  0.58506214  0.73825754  0.70939504  1
  F  F33  1  0.96635211  0.31801631  0.27712791  1
  F  F34  1  0.31096916  0.15996870  0.47835249  1
  F  F35  1  0.39500141  0.89600440  0.38918199  1
  F  F36  1  0.04947868  0.98448465  0.85250465  1
  F  F37  1  0.01534874  0.64634898  0.71767691  1
  F  F38  1  0.85526644  0.49992045  0.10113561  1
