# generated using pymatgen
data_CaTi2F10
_symmetry_space_group_name_H-M   'P 1'
_cell_length_a   5.63500413
_cell_length_b   5.63500399
_cell_length_c   7.79540756
_cell_angle_alpha   69.54640428
_cell_angle_beta   69.54639993
_cell_angle_gamma   72.01608901
_symmetry_Int_Tables_number   1
_chemical_formula_structural   CaTi2F10
_chemical_formula_sum   'Ca1 Ti2 F10'
_cell_volume   212.33522095
_cell_formula_units_Z   1
loop_
 _symmetry_equiv_pos_site_id
 _symmetry_equiv_pos_as_xyz
  1  'x, y, z'
loop_
 _atom_site_type_symbol
 _atom_site_label
 _atom_site_symmetry_multiplicity
 _atom_site_fract_x
 _atom_site_fract_y
 _atom_site_fract_z
 _atom_site_occupancy
  Ca  Ca0  1  0.45705566  0.54294434  0.75000000  1
  Ti  Ti1  1  0.99103766  0.99576073  0.00655247  1
  Ti  Ti2  1  0.00423927  0.00896234  0.49344753  1
  F  F3  1  0.20351916  0.24823258  0.88571565  1
  F  F4  1  0.75176742  0.79648084  0.61428435  1
  F  F5  1  0.79065324  0.76190679  0.11763955  1
  F  F6  1  0.23809321  0.20934676  0.38236045  1
  F  F7  1  0.06799332  0.93200668  0.75000000  1
  F  F8  1  0.94561607  0.05438393  0.25000000  1
  F  F9  1  0.26244063  0.70734890  0.49177354  1
  F  F10  1  0.29265110  0.73755937  0.00822646  1
  F  F11  1  0.73776472  0.28360647  0.55817324  1
  F  F12  1  0.71639353  0.26223528  0.94182676  1
