# generated using pymatgen
data_Ca2Fe3O8
_symmetry_space_group_name_H-M   'P 1'
_cell_length_a   5.09460887
_cell_length_b   6.05202908
_cell_length_c   6.31300581
_cell_angle_alpha   118.64166900
_cell_angle_beta   106.58703719
_cell_angle_gamma   89.99999694
_symmetry_Int_Tables_number   1
_chemical_formula_structural   Ca2Fe3O8
_chemical_formula_sum   'Ca2 Fe3 O8'
_cell_volume   161.53936854
_cell_formula_units_Z   1
loop_
 _symmetry_equiv_pos_site_id
 _symmetry_equiv_pos_as_xyz
  1  'x, y, z'
loop_
 _atom_site_type_symbol
 _atom_site_label
 _atom_site_symmetry_multiplicity
 _atom_site_fract_x
 _atom_site_fract_y
 _atom_site_fract_z
 _atom_site_occupancy
  Ca  Ca0  1  0.66279958  0.72247608  0.44495117  1
  Ca  Ca1  1  0.33719942  0.27752492  0.55504883  1
  Fe  Fe2  1  0.50000000  0.99999900  0.00000000  1
  Fe  Fe3  1  0.99999900  0.74035148  0.00000000  1
  Fe  Fe4  1  0.99999900  0.25964852  0.00000000  1
  O  O5  1  0.02988129  0.39037773  0.78075645  1
  O  O6  1  0.97011871  0.60962127  0.21924355  1
  O  O7  1  0.09688796  0.90026052  0.80052103  1
  O  O8  1  0.90311204  0.09973848  0.19947797  1
  O  O9  1  0.39680433  0.32040955  0.20593642  1
  O  O10  1  0.39680433  0.88552687  0.20593642  1
  O  O11  1  0.60319667  0.11447213  0.79406358  1
  O  O12  1  0.60319667  0.67959045  0.79406358  1
