# generated using pymatgen
data_CaTi2Fe2(PO4)6
_symmetry_space_group_name_H-M   'P 1'
_cell_length_a   8.83943610
_cell_length_b   8.83943613
_cell_length_c   8.83943626
_cell_angle_alpha   58.76724088
_cell_angle_beta   58.76724363
_cell_angle_gamma   58.76724753
_symmetry_Int_Tables_number   1
_chemical_formula_structural   CaTi2Fe2(PO4)6
_chemical_formula_sum   'Ca1 Ti2 Fe2 P6 O24'
_cell_volume   474.62927400
_cell_formula_units_Z   1
loop_
 _symmetry_equiv_pos_site_id
 _symmetry_equiv_pos_as_xyz
  1  'x, y, z'
loop_
 _atom_site_type_symbol
 _atom_site_label
 _atom_site_symmetry_multiplicity
 _atom_site_fract_x
 _atom_site_fract_y
 _atom_site_fract_z
 _atom_site_occupancy
  Ca  Ca0  1  0.99888112  0.99888112  0.99888112  1
  Ti  Ti1  1  0.14843356  0.14843356  0.14843356  1
  Ti  Ti2  1  0.63739779  0.63739779  0.63739779  1
  Fe  Fe3  1  0.35801824  0.35801824  0.35801824  1
  Fe  Fe4  1  0.85242117  0.85242117  0.85242117  1
  P  P5  1  0.03570435  0.46121366  0.74956531  1
  P  P6  1  0.46121366  0.74956531  0.03570435  1
  P  P7  1  0.74956531  0.03570435  0.46121366  1
  P  P8  1  0.24767607  0.96626029  0.54119319  1
  P  P9  1  0.54119319  0.24767607  0.96626029  1
  P  P10  1  0.96626029  0.54119319  0.24767607  1
  O  O11  1  0.13177184  0.51277677  0.28306441  1
  O  O12  1  0.28306441  0.13177184  0.51277677  1
  O  O13  1  0.05948365  0.27265790  0.92004838  1
  O  O14  1  0.51277677  0.28306441  0.13177184  1
  O  O15  1  0.00768471  0.62465144  0.78951286  1
  O  O16  1  0.21934845  0.43900763  0.58155907  1
  O  O17  1  0.27265790  0.92004838  0.05948365  1
  O  O18  1  0.43900763  0.58155907  0.21934845  1
  O  O19  1  0.20331491  0.00339603  0.37308190  1
  O  O20  1  0.58155907  0.21934845  0.43900763  1
  O  O21  1  0.07959704  0.93864561  0.72611763  1
  O  O22  1  0.37308190  0.20331491  0.00339603  1
  O  O23  1  0.62465144  0.78951286  0.00768471  1
  O  O24  1  0.92004838  0.05948365  0.27265790  1
  O  O25  1  0.42174525  0.78531936  0.55734709  1
  O  O26  1  0.78951286  0.00768471  0.62465144  1
  O  O27  1  0.55734709  0.42174525  0.78531936  1
  O  O28  1  0.72611763  0.07959704  0.93864561  1
  O  O29  1  0.78531936  0.55734709  0.42174525  1
  O  O30  1  0.00339603  0.37308190  0.20331491  1
  O  O31  1  0.49742998  0.71084280  0.86657355  1
  O  O32  1  0.93864561  0.72611763  0.07959704  1
  O  O33  1  0.71084280  0.86657355  0.49742998  1
  O  O34  1  0.86657355  0.49742998  0.71084280  1
