# generated using pymatgen
data_Mg(CrS2)4
_symmetry_space_group_name_H-M   'P 1'
_cell_length_a   6.98017559
_cell_length_b   6.95833441
_cell_length_c   6.95833515
_cell_angle_alpha   60.00000095
_cell_angle_beta   60.10345030
_cell_angle_gamma   60.10344474
_symmetry_Int_Tables_number   1
_chemical_formula_structural   Mg(CrS2)4
_chemical_formula_sum   'Mg1 Cr4 S8'
_cell_volume   239.35322983
_cell_formula_units_Z   1
loop_
 _symmetry_equiv_pos_site_id
 _symmetry_equiv_pos_as_xyz
  1  'x, y, z'
loop_
 _atom_site_type_symbol
 _atom_site_label
 _atom_site_symmetry_multiplicity
 _atom_site_fract_x
 _atom_site_fract_y
 _atom_site_fract_z
 _atom_site_occupancy
  Mg  Mg0  1  0.50000000  0.00000000  0.00000000  1
  Cr  Cr1  1  0.00000000  0.50000000  0.50000000  1
  Cr  Cr2  1  0.50000000  0.50000000  0.00000000  1
  Cr  Cr3  1  0.50000000  0.50000000  0.50000000  1
  Cr  Cr4  1  0.50000000  0.00000000  0.50000000  1
  S  S5  1  0.25658286  0.25769194  0.25769194  1
  S  S6  1  0.25658286  0.25769194  0.72803326  1
  S  S7  1  0.25658286  0.72803326  0.25769194  1
  S  S8  1  0.72457477  0.25847474  0.25847474  1
  S  S9  1  0.27542523  0.74152526  0.74152526  1
  S  S10  1  0.74341714  0.74230806  0.27196674  1
  S  S11  1  0.74341714  0.27196674  0.74230806  1
  S  S12  1  0.74341714  0.74230806  0.74230806  1
