# generated using pymatgen
data_MgVF5
_symmetry_space_group_name_H-M   'P 1'
_cell_length_a   5.32857913
_cell_length_b   5.32040335
_cell_length_c   7.51275546
_cell_angle_alpha   97.87792415
_cell_angle_beta   110.15043373
_cell_angle_gamma   108.45583394
_symmetry_Int_Tables_number   1
_chemical_formula_structural   MgVF5
_chemical_formula_sum   'Mg2 V2 F10'
_cell_volume   182.27961664
_cell_formula_units_Z   2
loop_
 _symmetry_equiv_pos_site_id
 _symmetry_equiv_pos_as_xyz
  1  'x, y, z'
loop_
 _atom_site_type_symbol
 _atom_site_label
 _atom_site_symmetry_multiplicity
 _atom_site_fract_x
 _atom_site_fract_y
 _atom_site_fract_z
 _atom_site_occupancy
  Mg  Mg0  1  0.27686523  0.52796699  0.74902076  1
  Mg  Mg1  1  0.72148416  0.46988561  0.25146385  1
  V  V2  1  0.00092771  0.99955587  0.00155719  1
  V  V3  1  0.49951397  0.99868728  0.50100550  1
  F  F4  1  0.37767934  0.13002447  0.25234398  1
  F  F5  1  0.62312730  0.86909613  0.75061855  1
  F  F6  1  0.59234900  0.72536655  0.36990098  1
  F  F7  1  0.85186218  0.21729300  0.13140650  1
  F  F8  1  0.76414883  0.67899326  0.05209217  1
  F  F9  1  0.13174763  0.70689224  0.45175225  1
  F  F10  1  0.24119891  0.31906351  0.95108552  1
  F  F11  1  0.86718733  0.29052019  0.55079473  1
  F  F12  1  0.14916528  0.77951385  0.87255720  1
  F  F13  1  0.40807413  0.27432604  0.63118883  1
