# generated using pymatgen
data_CaAgF5
_symmetry_space_group_name_H-M   'P 1'
_cell_length_a   5.81747742
_cell_length_b   5.75146582
_cell_length_c   8.12080860
_cell_angle_alpha   96.32344513
_cell_angle_beta   110.44537382
_cell_angle_gamma   108.87016950
_symmetry_Int_Tables_number   1
_chemical_formula_structural   CaAgF5
_chemical_formula_sum   'Ca2 Ag2 F10'
_cell_volume   233.16162768
_cell_formula_units_Z   2
loop_
 _symmetry_equiv_pos_site_id
 _symmetry_equiv_pos_as_xyz
  1  'x, y, z'
loop_
 _atom_site_type_symbol
 _atom_site_label
 _atom_site_symmetry_multiplicity
 _atom_site_fract_x
 _atom_site_fract_y
 _atom_site_fract_z
 _atom_site_occupancy
  Ca  Ca0  1  0.28776796  0.54131855  0.74584939  1
  Ca  Ca1  1  0.70868341  0.45747261  0.25002726  1
  Ag  Ag2  1  0.99739095  0.99785938  -0.00173280  1
  Ag  Ag3  1  0.49937565  -0.00115445  0.49856923  1
  F  F4  1  0.35757736  0.09952447  0.25588655  1
  F  F5  1  0.64044287  0.89961492  0.74028326  1
  F  F6  1  0.59301845  0.73906949  0.37240767  1
  F  F7  1  0.86261484  0.21084087  0.12021688  1
  F  F8  1  0.71812848  0.67386898  0.02118360  1
  F  F9  1  0.14621648  0.69541681  0.46897389  1
  F  F10  1  0.27359646  0.32076984  0.97298502  1
  F  F11  1  0.84895066  0.30506964  0.52648312  1
  F  F12  1  0.12823911  0.78101925  0.87649558  1
  F  F13  1  0.40428430  0.26018563  0.62520135  1
