# generated using pymatgen
data_ReWO6
_symmetry_space_group_name_H-M   'P 1'
_cell_length_a   5.32979485
_cell_length_b   5.38250509
_cell_length_c   7.57997279
_cell_angle_alpha   90.00000000
_cell_angle_beta   90.01036967
_cell_angle_gamma   90.00000000
_symmetry_Int_Tables_number   1
_chemical_formula_structural   ReWO6
_chemical_formula_sum   'Re2 W2 O12'
_cell_volume   217.45158698
_cell_formula_units_Z   2
loop_
 _symmetry_equiv_pos_site_id
 _symmetry_equiv_pos_as_xyz
  1  'x, y, z'
loop_
 _atom_site_type_symbol
 _atom_site_label
 _atom_site_symmetry_multiplicity
 _atom_site_fract_x
 _atom_site_fract_y
 _atom_site_fract_z
 _atom_site_occupancy
  Re  Re0  1  0.50000000  0.00000000  0.00000000  1
  Re  Re1  1  0.00000100  0.49999900  0.50000000  1
  W  W2  1  0.50000000  0.00000000  0.49999900  1
  W  W3  1  0.00000000  0.49999900  0.00000000  1
  O  O4  1  0.72314115  0.28191628  0.47404700  1
  O  O5  1  0.77685885  0.78191728  0.02595300  1
  O  O6  1  0.27685785  0.71808372  0.52595300  1
  O  O7  1  0.22314215  0.21808272  0.97404700  1
  O  O8  1  0.21773184  0.22363485  0.52597677  1
  O  O9  1  0.28226816  0.72363385  0.97402323  1
  O  O10  1  0.78226916  0.77636515  0.47402323  1
  O  O11  1  0.71773084  0.27636615  0.02597677  1
  O  O12  1  0.05306401  0.49427794  0.25263571  1
  O  O13  1  0.44693699  0.99427894  0.24736329  1
  O  O14  1  0.55306401  0.00572106  0.75263671  1
  O  O15  1  0.94693699  0.50572206  0.74736429  1
