# generated using pymatgen
data_ReC2(IO)2
_symmetry_space_group_name_H-M   'P 1'
_cell_length_a   13.30969048
_cell_length_b   13.30969088
_cell_length_c   13.30969062
_cell_angle_alpha   31.85772495
_cell_angle_beta   31.85772205
_cell_angle_gamma   31.85772207
_symmetry_Int_Tables_number   1
_chemical_formula_structural   ReC2(IO)2
_chemical_formula_sum   'Re3 C6 I6 O6'
_cell_volume   583.47111259
_cell_formula_units_Z   3
loop_
 _symmetry_equiv_pos_site_id
 _symmetry_equiv_pos_as_xyz
  1  'x, y, z'
loop_
 _atom_site_type_symbol
 _atom_site_label
 _atom_site_symmetry_multiplicity
 _atom_site_fract_x
 _atom_site_fract_y
 _atom_site_fract_z
 _atom_site_occupancy
  Re  Re0  1  0.90810136  0.90810136  0.90810136  1
  Re  Re1  1  0.00000000  0.00000000  0.00000000  1
  Re  Re2  1  0.09189864  0.09189864  0.09189864  1
  C  C3  1  0.34113126  0.11283863  0.90632942  1
  C  C4  1  0.09367058  0.65886874  0.88716137  1
  C  C5  1  0.11283863  0.90632942  0.34113126  1
  C  C6  1  0.88716137  0.09367058  0.65886874  1
  C  C7  1  0.65886874  0.88716137  0.09367058  1
  C  C8  1  0.90632942  0.34113126  0.11283863  1
  I  I9  1  0.25833766  0.95251629  0.65839150  1
  I  I10  1  0.04748371  0.34160850  0.74166234  1
  I  I11  1  0.65839150  0.25833766  0.95251629  1
  I  I12  1  0.95251629  0.65839150  0.25833766  1
  I  I13  1  0.34160850  0.74166234  0.04748371  1
  I  I14  1  0.74166234  0.04748371  0.34160850  1
  O  O15  1  0.20920865  0.50446404  0.87667385  1
  O  O16  1  0.49553596  0.12332615  0.79079135  1
  O  O17  1  0.50446404  0.87667385  0.20920865  1
  O  O18  1  0.12332615  0.79079135  0.49553596  1
  O  O19  1  0.87667385  0.20920865  0.50446404  1
  O  O20  1  0.79079135  0.49553596  0.12332615  1
