# generated using pymatgen
data_PuGe2
_symmetry_space_group_name_H-M   'P 1'
_cell_length_a   4.04007389
_cell_length_b   4.04007388
_cell_length_c   8.51088401
_cell_angle_alpha   103.73003967
_cell_angle_beta   103.73003963
_cell_angle_gamma   89.99999997
_symmetry_Int_Tables_number   1
_chemical_formula_structural   PuGe2
_chemical_formula_sum   'Pu2 Ge4'
_cell_volume   130.85684426
_cell_formula_units_Z   2
loop_
 _symmetry_equiv_pos_site_id
 _symmetry_equiv_pos_as_xyz
  1  'x, y, z'
loop_
 _atom_site_type_symbol
 _atom_site_label
 _atom_site_symmetry_multiplicity
 _atom_site_fract_x
 _atom_site_fract_y
 _atom_site_fract_z
 _atom_site_occupancy
  Ge  Ge0  1  0.20468296  0.45468296  0.90936592  1
  Ge  Ge1  1  0.95468296  0.70468296  0.40936592  1
  Ge  Ge2  1  0.04531704  0.29531704  0.59063408  1
  Ge  Ge3  1  0.79531704  0.54531704  0.09063408  1
  Pu  Pu4  1  0.62500000  0.87500000  0.75000000  1
  Pu  Pu5  1  0.37500000  0.12500000  0.25000000  1
