# generated using pymatgen
data_Ca2TiAlO5
_symmetry_space_group_name_H-M   'P 1'
_cell_length_a   5.43008030
_cell_length_b   5.71986823
_cell_length_c   8.25145594
_cell_angle_alpha   110.27318703
_cell_angle_beta   109.18475381
_cell_angle_gamma   90.02850228
_symmetry_Int_Tables_number   1
_chemical_formula_structural   Ca2TiAlO5
_chemical_formula_sum   'Ca4 Ti2 Al2 O10'
_cell_volume   225.15731908
_cell_formula_units_Z   2
loop_
 _symmetry_equiv_pos_site_id
 _symmetry_equiv_pos_as_xyz
  1  'x, y, z'
loop_
 _atom_site_type_symbol
 _atom_site_label
 _atom_site_symmetry_multiplicity
 _atom_site_fract_x
 _atom_site_fract_y
 _atom_site_fract_z
 _atom_site_occupancy
  Ca  Ca0  1  0.12009314  0.64548616  0.22052491  1
  Ca  Ca1  1  0.40139366  0.92436929  0.77871275  1
  Ca  Ca2  1  0.90134340  0.35674357  0.77897418  1
  Ca  Ca3  1  0.62128924  0.07786272  0.22072202  1
  Ti  Ti4  1  0.49760807  0.50155856  -0.00012382  1
  Ti  Ti5  1  0.99776623  0.00122193  0.99982581  1
  Al  Al6  1  0.28778632  0.32812103  0.49970316  1
  Al  Al7  1  0.78860641  0.67422805  0.49994639  1
  O  O8  1  0.61628942  0.40104577  0.49999151  1
  O  O9  1  0.11681898  0.60129988  0.49991284  1
  O  O10  1  0.61845031  0.72071275  0.29425888  1
  O  O11  1  0.32020702  0.28186120  0.70532852  1
  O  O12  1  0.11622688  0.07647731  0.29381869  1
  O  O13  1  0.82252069  0.92579915  0.70586051  1
  O  O14  1  0.24062469  0.74482096  0.97377554  1
  O  O15  1  0.25980994  0.26569442  0.02725677  1
  O  O16  1  0.75918503  0.26408054  0.02577915  1
  O  O17  1  0.73989156  0.73140670  0.97262721  1
