# generated using pymatgen
data_MoW3(SeS)4
_symmetry_space_group_name_H-M   'P 1'
_cell_length_a   3.25406079
_cell_length_b   3.25401877
_cell_length_c   36.91877618
_cell_angle_alpha   90.00011887
_cell_angle_beta   90.00000000
_cell_angle_gamma   120.00042708
_symmetry_Int_Tables_number   1
_chemical_formula_structural   MoW3(SeS)4
_chemical_formula_sum   'Mo1 W3 Se4 S4'
_cell_volume   338.54918621
_cell_formula_units_Z   1
loop_
 _symmetry_equiv_pos_site_id
 _symmetry_equiv_pos_as_xyz
  1  'x, y, z'
loop_
 _atom_site_type_symbol
 _atom_site_label
 _atom_site_symmetry_multiplicity
 _atom_site_fract_x
 _atom_site_fract_y
 _atom_site_fract_z
 _atom_site_occupancy
  Mo  Mo0  1  0.33331148  0.66662295  0.09391811  1
  W  W1  1  0.33331153  0.66662307  0.46965799  1
  W  W2  1  0.66668552  0.33337105  0.28179178  1
  W  W3  1  0.66668978  0.33337955  0.65754404  1
  Se  Se4  1  0.33335161  0.66670423  0.32807478  1
  Se  Se5  1  0.33335261  0.66670623  0.70386181  1
  Se  Se6  1  0.33335895  0.66671890  0.23549348  1
  Se  Se7  1  0.33335989  0.66672077  0.61124090  1
  S  S8  1  0.66664590  0.33329080  0.05203503  1
  S  S9  1  0.66664563  0.33329026  0.42770607  1
  S  S10  1  0.66664540  0.33328980  0.13580488  1
  S  S11  1  0.66664170  0.33328239  0.51161912  1
