# generated using pymatgen
data_Pr5O9
_symmetry_space_group_name_H-M   'P 1'
_cell_length_a   6.73584942
_cell_length_b   13.30201908
_cell_length_c   21.04667762
_cell_angle_alpha   90.00000000
_cell_angle_beta   90.00000000
_cell_angle_gamma   79.30244787
_symmetry_Int_Tables_number   1
_chemical_formula_structural   Pr5O9
_chemical_formula_sum   'Pr40 O72'
_cell_volume   1853.01701300
_cell_formula_units_Z   8
loop_
 _symmetry_equiv_pos_site_id
 _symmetry_equiv_pos_as_xyz
  1  'x, y, z'
loop_
 _atom_site_type_symbol
 _atom_site_label
 _atom_site_symmetry_multiplicity
 _atom_site_fract_x
 _atom_site_fract_y
 _atom_site_fract_z
 _atom_site_occupancy
  Pr  Pr0  1  0.06216442  0.74531155  0.29207047  1
  Pr  Pr1  1  0.50000000  0.00000000  0.50000000  1
  Pr  Pr2  1  0.97455698  0.73090145  0.49180342  1
  Pr  Pr3  1  0.01885465  0.24305495  0.90819473  1
  Pr  Pr4  1  0.49954389  0.47621683  0.11085353  1
  Pr  Pr5  1  0.97900126  0.51974547  0.61375685  1
  Pr  Pr6  1  0.93783558  0.25468845  0.70792953  1
  Pr  Pr7  1  0.98114535  0.75694505  0.09180527  1
  Pr  Pr8  1  0.96938286  0.01022742  0.20530021  1
  Pr  Pr9  1  0.43783558  0.75468845  0.79207047  1
  Pr  Pr10  1  0.47455698  0.23090145  0.00819658  1
  Pr  Pr11  1  0.56209856  0.73863838  0.20518255  1
  Pr  Pr12  1  0.99706472  0.51965809  0.18818039  1
  Pr  Pr13  1  0.47900126  0.01974547  0.88624315  1
  Pr  Pr14  1  0.03061714  0.98977258  0.79469979  1
  Pr  Pr15  1  0.45283063  0.75839382  0.41240007  1
  Pr  Pr16  1  0.02099874  0.48025453  0.38624315  1
  Pr  Pr17  1  0.50045611  0.52378317  0.88914647  1
  Pr  Pr18  1  0.46938286  0.51022742  0.29469979  1
  Pr  Pr19  1  0.00293528  0.48034191  0.81181961  1
  Pr  Pr20  1  0.06209856  0.23863838  0.29481745  1
  Pr  Pr21  1  0.00000000  0.50000000  0.00000000  1
  Pr  Pr22  1  0.00000000  0.00000000  0.00000000  1
  Pr  Pr23  1  0.04716937  0.74160618  0.91240007  1
  Pr  Pr24  1  0.52099874  0.98025453  0.11375685  1
  Pr  Pr25  1  0.49706472  0.01965809  0.31181961  1
  Pr  Pr26  1  0.43790144  0.26136162  0.79481745  1
  Pr  Pr27  1  0.02544302  0.26909855  0.50819658  1
  Pr  Pr28  1  0.99954389  0.97621683  0.38914647  1
  Pr  Pr29  1  0.52544302  0.76909855  0.99180342  1
  Pr  Pr30  1  0.50000000  0.50000000  0.50000000  1
  Pr  Pr31  1  0.56216442  0.24531155  0.20792953  1
  Pr  Pr32  1  0.95283063  0.25839382  0.08759993  1
  Pr  Pr33  1  0.51885465  0.74305495  0.59180527  1
  Pr  Pr34  1  0.53061714  0.48977258  0.70530021  1
  Pr  Pr35  1  0.54716937  0.24160618  0.58759993  1
  Pr  Pr36  1  0.00045611  0.02378317  0.61085353  1
  Pr  Pr37  1  0.48114535  0.25694505  0.40819473  1
  Pr  Pr38  1  0.50293528  0.98034191  0.68818039  1
  Pr  Pr39  1  0.93790144  0.76136162  0.70518255  1
  O  O40  1  0.88814188  0.43750052  0.70428000  1
  O  O41  1  0.61185812  0.06249948  0.20428000  1
  O  O42  1  0.06313289  0.04231910  0.49570779  1
  O  O43  1  0.83598002  0.91312053  0.29386170  1
  O  O44  1  0.88642731  0.93423920  0.69613702  1
  O  O45  1  0.33923928  0.92081603  0.59937871  1
  O  O46  1  0.89512102  0.70223023  0.60041428  1
  O  O47  1  0.84069697  0.41213659  0.29197843  1
  O  O48  1  0.16478698  0.07722405  0.09649906  1
  O  O49  1  0.37880874  0.44734437  0.39849300  1
  O  O50  1  0.07279099  0.53753251  0.49786841  1
  O  O51  1  0.66478698  0.57722405  0.40350094  1
  O  O52  1  0.62554690  0.06445136  0.60046882  1
  O  O53  1  0.36171481  0.18221857  0.50005149  1
  O  O54  1  0.19651670  0.34393504  0.59987546  1
  O  O55  1  0.39512102  0.20223023  0.89958572  1
  O  O56  1  0.61357269  0.56576080  0.19613702  1
  O  O57  1  0.90881917  0.70361178  0.19738482  1
  O  O58  1  0.16401998  0.08687947  0.70613830  1
  O  O59  1  0.11185812  0.56249948  0.29572000  1
  O  O60  1  0.58523913  0.29911738  0.69709906  1
  O  O61  1  0.13828519  0.31778143  1.00005149  1
  O  O62  1  0.70110577  0.33573641  0.30323971  1
  O  O63  1  0.33724664  0.67960694  0.50427113  1
  O  O64  1  0.38814188  0.93750052  0.79572000  1
  O  O65  1  0.29889423  0.66426359  0.69676029  1
  O  O66  1  0.08523913  0.79911738  0.80290094  1
  O  O67  1  0.42720901  0.96246749  0.99786841  1
  O  O68  1  0.69651670  0.84393504  0.90012454  1
  O  O69  1  0.65930303  0.08786341  0.79197843  1
  O  O70  1  0.83724664  0.17960694  0.99572887  1
  O  O71  1  0.16275336  0.82039306  0.00427113  1
  O  O72  1  0.37445310  0.93554864  0.39953118  1
  O  O73  1  0.10487898  0.29776977  0.39958572  1
  O  O74  1  0.86171481  0.68221857  -0.00005149  1
  O  O75  1  0.38642731  0.43423920  0.80386298  1
  O  O76  1  0.30348330  0.15606496  0.09987546  1
  O  O77  1  0.57279099  0.03753251  0.00213159  1
  O  O78  1  0.90960827  0.20537104  0.60141359  1
  O  O79  1  0.40960827  0.70537104  0.89858641  1
  O  O80  1  0.12554690  0.56445136  0.89953118  1
  O  O81  1  0.66275336  0.32039306  0.49572887  1
  O  O82  1  0.59039173  0.29462896  0.10141359  1
  O  O83  1  0.11357269  0.06576080  0.30386298  1
  O  O84  1  0.41476087  0.70088262  0.30290094  1
  O  O85  1  0.66076072  0.07918397  0.40062129  1
  O  O86  1  0.87445310  0.43554864  0.10046882  1
  O  O87  1  0.87880874  0.94734437  0.10150700  1
  O  O88  1  0.63828519  0.81778143  0.49994851  1
  O  O89  1  0.92720901  0.46246749  0.50213159  1
  O  O90  1  0.09118083  0.29638822  0.80261518  1
  O  O91  1  0.40881917  0.20361178  0.30261518  1
  O  O92  1  0.83521302  0.92277595  0.90350094  1
  O  O93  1  0.91476087  0.20088262  0.19709906  1
  O  O94  1  0.33521302  0.42277595  0.59649906  1
  O  O95  1  0.66401998  0.58687947  0.79386170  1
  O  O96  1  0.62119126  0.55265563  0.60150700  1
  O  O97  1  0.60487898  0.79776977  0.10041428  1
  O  O98  1  0.80348330  0.65606496  0.40012454  1
  O  O99  1  0.79889423  0.16426359  0.80323971  1
  O  O100  1  0.20110577  0.83573641  0.19676029  1
  O  O101  1  0.34069697  0.91213659  0.20802157  1
  O  O102  1  0.83923928  0.42081603  0.90062129  1
  O  O103  1  0.56313289  0.54231910  0.00429221  1
  O  O104  1  0.12119126  0.05265563  0.89849300  1
  O  O105  1  0.33598002  0.41312053  0.20613830  1
  O  O106  1  0.93686711  0.95768090  0.50429221  1
  O  O107  1  0.59118083  0.79638822  0.69738482  1
  O  O108  1  0.15930303  0.58786341  0.70802157  1
  O  O109  1  0.16076072  0.57918397  0.09937871  1
  O  O110  1  0.09039173  0.79462896  0.39858641  1
  O  O111  1  0.43686711  0.45768090  0.99570779  1
