# generated using pymatgen
data_MoW(SeS)2
_symmetry_space_group_name_H-M   'P 1'
_cell_length_a   3.25366468
_cell_length_b   3.25362909
_cell_length_c   36.87740234
_cell_angle_alpha   89.99967848
_cell_angle_beta   90.00000000
_cell_angle_gamma   120.00036187
_symmetry_Int_Tables_number   1
_chemical_formula_structural   MoW(SeS)2
_chemical_formula_sum   'Mo2 W2 Se4 S4'
_cell_volume   338.08834897
_cell_formula_units_Z   2
loop_
 _symmetry_equiv_pos_site_id
 _symmetry_equiv_pos_as_xyz
  1  'x, y, z'
loop_
 _atom_site_type_symbol
 _atom_site_label
 _atom_site_symmetry_multiplicity
 _atom_site_fract_x
 _atom_site_fract_y
 _atom_site_fract_z
 _atom_site_occupancy
  Mo  Mo0  1  0.33330974  0.66661948  0.09390701  1
  Mo  Mo1  1  0.66668914  0.33337829  0.28179577  1
  W  W2  1  0.33331117  0.66662233  0.46966352  1
  W  W3  1  0.66669039  0.33338078  0.65754064  1
  Se  Se4  1  0.66663684  0.33327267  0.04788005  1
  Se  Se5  1  0.66664795  0.33329489  0.42332506  1
  Se  Se6  1  0.66664744  0.33329389  0.13995622  1
  Se  Se7  1  0.66664853  0.33329606  0.51600467  1
  S  S8  1  0.33335405  0.66670911  0.32368832  1
  S  S9  1  0.33335704  0.66671508  0.69954969  1
  S  S10  1  0.33335356  0.66670812  0.23990095  1
  S  S11  1  0.33335415  0.66670930  0.61553610  1
