# generated using pymatgen
data_MoW(SeS)2
_symmetry_space_group_name_H-M   'P 1'
_cell_length_a   3.25343682
_cell_length_b   3.25340489
_cell_length_c   36.86782065
_cell_angle_alpha   89.99997448
_cell_angle_beta   90.00000000
_cell_angle_gamma   120.00032462
_symmetry_Int_Tables_number   1
_chemical_formula_structural   MoW(SeS)2
_chemical_formula_sum   'Mo2 W2 Se4 S4'
_cell_volume   337.95367242
_cell_formula_units_Z   2
loop_
 _symmetry_equiv_pos_site_id
 _symmetry_equiv_pos_as_xyz
  1  'x, y, z'
loop_
 _atom_site_type_symbol
 _atom_site_label
 _atom_site_symmetry_multiplicity
 _atom_site_fract_x
 _atom_site_fract_y
 _atom_site_fract_z
 _atom_site_occupancy
  Mo  Mo0  1  0.33330801  0.66661602  0.09390260  1
  Mo  Mo1  1  0.66668777  0.33337553  0.28179307  1
  W  W2  1  0.33330898  0.66661796  0.46964898  1
  W  W3  1  0.66669391  0.33338783  0.65755630  1
  Se  Se4  1  0.33335586  0.66671272  0.70391408  1
  Se  Se5  1  0.66664465  0.33328830  0.04787100  1
  Se  Se6  1  0.66664445  0.33328789  0.13996579  1
  Se  Se7  1  0.33336230  0.66672560  0.61118026  1
  S  S8  1  0.33335316  0.66670731  0.32371643  1
  S  S9  1  0.66664401  0.33328702  0.42764636  1
  S  S10  1  0.66664454  0.33328808  0.51166655  1
  S  S11  1  0.33335237  0.66670573  0.23988659  1
