# generated using pymatgen
data_Mo3W(SeS)4
_symmetry_space_group_name_H-M   'P 1'
_cell_length_a   3.25648455
_cell_length_b   3.25650004
_cell_length_c   36.85964721
_cell_angle_alpha   89.99955437
_cell_angle_beta   90.00000564
_cell_angle_gamma   119.99983238
_symmetry_Int_Tables_number   1
_chemical_formula_structural   Mo3W(SeS)4
_chemical_formula_sum   'Mo3 W1 Se4 S4'
_cell_volume   338.51868819
_cell_formula_units_Z   1
loop_
 _symmetry_equiv_pos_site_id
 _symmetry_equiv_pos_as_xyz
  1  'x, y, z'
loop_
 _atom_site_type_symbol
 _atom_site_label
 _atom_site_symmetry_multiplicity
 _atom_site_fract_x
 _atom_site_fract_y
 _atom_site_fract_z
 _atom_site_occupancy
  Mo  Mo0  1  0.33331009  0.66661940  0.09391277  1
  Mo  Mo1  1  0.33331065  0.66662031  0.46965493  1
  Mo  Mo2  1  0.66669802  0.33339691  0.65754921  1
  W  W3  1  0.66669145  0.33338383  0.28177190  1
  Se  Se4  1  0.33335050  0.66670158  0.32810988  1
  Se  Se5  1  0.33335235  0.66670513  0.70360643  1
  Se  Se6  1  0.33334793  0.66669633  0.23546091  1
  Se  Se7  1  0.33335629  0.66671307  0.61150526  1
  S  S8  1  0.66663449  0.33326852  0.05205200  1
  S  S9  1  0.66664874  0.33329705  0.42781498  1
  S  S10  1  0.66664883  0.33329690  0.13579019  1
  S  S11  1  0.66665067  0.33330097  0.51151955  1
