# generated using pymatgen
data_MoW3(SeS)4
_symmetry_space_group_name_H-M   'P 1'
_cell_length_a   3.25811763
_cell_length_b   3.25808360
_cell_length_c   36.91997131
_cell_angle_alpha   89.99985551
_cell_angle_beta   90.00000000
_cell_angle_gamma   120.00034545
_symmetry_Int_Tables_number   1
_chemical_formula_structural   MoW3(SeS)4
_chemical_formula_sum   'Mo1 W3 Se4 S4'
_cell_volume   339.40595503
_cell_formula_units_Z   1
loop_
 _symmetry_equiv_pos_site_id
 _symmetry_equiv_pos_as_xyz
  1  'x, y, z'
loop_
 _atom_site_type_symbol
 _atom_site_label
 _atom_site_symmetry_multiplicity
 _atom_site_fract_x
 _atom_site_fract_y
 _atom_site_fract_z
 _atom_site_occupancy
  Mo  Mo0  1  0.33330436  0.66660872  0.46966901  1
  W  W1  1  0.33330985  0.66661970  0.09389340  1
  W  W2  1  0.66669743  0.33339487  0.28178954  1
  W  W3  1  0.66669990  0.33339980  0.65759341  1
  Se  Se4  1  0.33334587  0.66669275  0.32803222  1
  Se  Se5  1  0.33334938  0.66669977  0.70382486  1
  Se  Se6  1  0.33334652  0.66669403  0.23552234  1
  Se  Se7  1  0.33335047  0.66670193  0.61130630  1
  S  S8  1  0.66665055  0.33330009  0.05190710  1
  S  S9  1  0.66664827  0.33329555  0.42793594  1
  S  S10  1  0.66664998  0.33329896  0.13587555  1
  S  S11  1  0.66664742  0.33329384  0.51139831  1
