# generated using pymatgen
data_TeW2Se3
_symmetry_space_group_name_H-M   'P 1'
_cell_length_a   3.38076446
_cell_length_b   3.38072024
_cell_length_c   38.55062072
_cell_angle_alpha   90.00034291
_cell_angle_beta   89.99997591
_cell_angle_gamma   120.00041703
_symmetry_Int_Tables_number   1
_chemical_formula_structural   TeW2Se3
_chemical_formula_sum   'Te2 W4 Se6'
_cell_volume   381.57888108
_cell_formula_units_Z   2
loop_
 _symmetry_equiv_pos_site_id
 _symmetry_equiv_pos_as_xyz
  1  'x, y, z'
loop_
 _atom_site_type_symbol
 _atom_site_label
 _atom_site_symmetry_multiplicity
 _atom_site_fract_x
 _atom_site_fract_y
 _atom_site_fract_z
 _atom_site_occupancy
  Te  Te0  1  0.66664883  0.33329682  0.42062139  1
  Te  Te1  1  0.66664829  0.33329572  0.51867931  1
  W  W2  1  0.33331111  0.66662181  0.09392127  1
  W  W3  1  0.33331008  0.66661984  0.46968416  1
  W  W4  1  0.66668763  0.33337567  0.28179417  1
  W  W5  1  0.66668934  0.33337903  0.65756462  1
  Se  Se6  1  0.33335426  0.66670917  0.32490448  1
  Se  Se7  1  0.33335318  0.66670747  0.70066004  1
  Se  Se8  1  0.66664087  0.33328103  0.05081301  1
  Se  Se9  1  0.66665377  0.33330678  0.13703777  1
  Se  Se10  1  0.33335024  0.66670119  0.23865748  1
  Se  Se11  1  0.33335240  0.66670546  0.61441030  1
