# generated using pymatgen
data_MoW(SeS)2
_symmetry_space_group_name_H-M   'P 1'
_cell_length_a   3.25389495
_cell_length_b   3.25387262
_cell_length_c   36.89224066
_cell_angle_alpha   89.99980078
_cell_angle_beta   89.99999759
_cell_angle_gamma   120.00021298
_symmetry_Int_Tables_number   1
_chemical_formula_structural   MoW(SeS)2
_chemical_formula_sum   'Mo2 W2 Se4 S4'
_cell_volume   338.27414715
_cell_formula_units_Z   2
loop_
 _symmetry_equiv_pos_site_id
 _symmetry_equiv_pos_as_xyz
  1  'x, y, z'
loop_
 _atom_site_type_symbol
 _atom_site_label
 _atom_site_symmetry_multiplicity
 _atom_site_fract_x
 _atom_site_fract_y
 _atom_site_fract_z
 _atom_site_occupancy
  Mo  Mo0  1  0.33331106  0.66662127  0.09391827  1
  Mo  Mo1  1  0.33331045  0.66662039  0.46967529  1
  W  W2  1  0.66668762  0.33337587  0.28177474  1
  W  W3  1  0.66669026  0.33338116  0.65754391  1
  Se  Se4  1  0.33335101  0.66670268  0.32809860  1
  Se  Se5  1  0.66664756  0.33329453  0.42367652  1
  Se  Se6  1  0.66664794  0.33329523  0.51568361  1
  Se  Se7  1  0.33335402  0.66670864  0.23545664  1
  S  S8  1  0.33335778  0.66671631  0.69954232  1
  S  S9  1  0.66664202  0.33328368  0.05203144  1
  S  S10  1  0.66664632  0.33329189  0.13580814  1
  S  S11  1  0.33335397  0.66670836  0.61553852  1
