# generated using pymatgen
data_MoW(SeS)2
_symmetry_space_group_name_H-M   'P 1'
_cell_length_a   3.25390216
_cell_length_b   3.25388838
_cell_length_c   36.89824573
_cell_angle_alpha   89.99926716
_cell_angle_beta   90.00000528
_cell_angle_gamma   120.00012202
_symmetry_Int_Tables_number   1
_chemical_formula_structural   MoW(SeS)2
_chemical_formula_sum   'Mo2 W2 Se4 S4'
_cell_volume   338.33190741
_cell_formula_units_Z   2
loop_
 _symmetry_equiv_pos_site_id
 _symmetry_equiv_pos_as_xyz
  1  'x, y, z'
loop_
 _atom_site_type_symbol
 _atom_site_label
 _atom_site_symmetry_multiplicity
 _atom_site_fract_x
 _atom_site_fract_y
 _atom_site_fract_z
 _atom_site_occupancy
  Mo  Mo0  1  0.33331236  0.66662391  0.09391243  1
  Mo  Mo1  1  0.66669058  0.33338171  0.28176900  1
  W  W2  1  0.33331218  0.66662367  0.46967724  1
  W  W3  1  0.66669088  0.33338264  0.65754570  1
  Se  Se4  1  0.33335060  0.66670186  0.32775824  1
  Se  Se5  1  0.66663501  0.33326943  0.42335940  1
  Se  Se6  1  0.66664949  0.33329838  0.51600176  1
  Se  Se7  1  0.33335141  0.66670348  0.23580020  1
  S  S8  1  0.33335837  0.66671710  0.69953917  1
  S  S9  1  0.66664662  0.33329292  0.05203604  1
  S  S10  1  0.66664757  0.33329466  0.13579962  1
  S  S11  1  0.33335494  0.66671023  0.61554920  1
