# generated using pymatgen
data_Mo3W(SeS)4
_symmetry_space_group_name_H-M   'P 1'
_cell_length_a   3.25704028
_cell_length_b   3.25705783
_cell_length_c   36.86000072
_cell_angle_alpha   90.00027166
_cell_angle_beta   90.00000000
_cell_angle_gamma   119.99982174
_symmetry_Int_Tables_number   1
_chemical_formula_structural   Mo3W(SeS)4
_chemical_formula_sum   'Mo3 W1 Se4 S4'
_cell_volume   338.63773487
_cell_formula_units_Z   1
loop_
 _symmetry_equiv_pos_site_id
 _symmetry_equiv_pos_as_xyz
  1  'x, y, z'
loop_
 _atom_site_type_symbol
 _atom_site_label
 _atom_site_symmetry_multiplicity
 _atom_site_fract_x
 _atom_site_fract_y
 _atom_site_fract_z
 _atom_site_occupancy
  Mo  Mo0  1  0.33331049  0.66662098  0.09389902  1
  Mo  Mo1  1  0.33330984  0.66661968  0.46968600  1
  Mo  Mo2  1  0.66669138  0.33338277  0.28180607  1
  W  W3  1  0.66669585  0.33339169  0.65755569  1
  Se  Se4  1  0.33335044  0.66670187  0.32781566  1
  Se  Se5  1  0.33335458  0.66671017  0.70389158  1
  Se  Se6  1  0.33334965  0.66670029  0.23575065  1
  Se  Se7  1  0.33335134  0.66670368  0.61120846  1
  S  S8  1  0.66663788  0.33327475  0.05203468  1
  S  S9  1  0.66664999  0.33329897  0.42781338  1
  S  S10  1  0.66664885  0.33329670  0.13578540  1
  S  S11  1  0.66664972  0.33329845  0.51150139  1
