# generated using pymatgen
data_Mo3W(SeS)4
_symmetry_space_group_name_H-M   'P 1'
_cell_length_a   3.25714434
_cell_length_b   3.25716242
_cell_length_c   36.88678736
_cell_angle_alpha   90.00036121
_cell_angle_beta   90.00000000
_cell_angle_gamma   119.99981637
_symmetry_Int_Tables_number   1
_chemical_formula_structural   Mo3W(SeS)4
_chemical_formula_sum   'Mo3 W1 Se4 S4'
_cell_volume   338.90555519
_cell_formula_units_Z   1
loop_
 _symmetry_equiv_pos_site_id
 _symmetry_equiv_pos_as_xyz
  1  'x, y, z'
loop_
 _atom_site_type_symbol
 _atom_site_label
 _atom_site_symmetry_multiplicity
 _atom_site_fract_x
 _atom_site_fract_y
 _atom_site_fract_z
 _atom_site_occupancy
  Mo  Mo0  1  0.33331041  0.66662083  0.09391310  1
  Mo  Mo1  1  0.66669461  0.33338922  0.28175966  1
  Mo  Mo2  1  0.66669836  0.33339673  0.65752689  1
  W  W3  1  0.33330541  0.66661082  0.46967276  1
  Se  Se4  1  0.33335044  0.66670188  0.32778408  1
  Se  Se5  1  0.66665104  0.33330107  0.42339039  1
  Se  Se6  1  0.66665196  0.33330292  0.51600184  1
  Se  Se7  1  0.33334872  0.66669845  0.23577624  1
  S  S8  1  0.33335673  0.66671445  0.69940594  1
  S  S9  1  0.66663015  0.33325929  0.05205581  1
  S  S10  1  0.66664903  0.33329707  0.13577997  1
  S  S11  1  0.33335313  0.66670727  0.61568132  1
