# generated using pymatgen
data_TeW2Se3
_symmetry_space_group_name_H-M   'P 1'
_cell_length_a   3.38044504
_cell_length_b   3.38038257
_cell_length_c   38.56044460
_cell_angle_alpha   90.00011574
_cell_angle_beta   90.00000000
_cell_angle_gamma   120.00061129
_symmetry_Int_Tables_number   1
_chemical_formula_structural   TeW2Se3
_chemical_formula_sum   'Te2 W4 Se6'
_cell_volume   381.60119212
_cell_formula_units_Z   2
loop_
 _symmetry_equiv_pos_site_id
 _symmetry_equiv_pos_as_xyz
  1  'x, y, z'
loop_
 _atom_site_type_symbol
 _atom_site_label
 _atom_site_symmetry_multiplicity
 _atom_site_fract_x
 _atom_site_fract_y
 _atom_site_fract_z
 _atom_site_occupancy
  Te  Te0  1  0.33335110  0.66670320  0.70660041  1
  Te  Te1  1  0.33335621  0.66671342  0.60847638  1
  W  W2  1  0.33330843  0.66661686  0.09392380  1
  W  W3  1  0.33331206  0.66662411  0.46964511  1
  W  W4  1  0.66668822  0.33337644  0.28179545  1
  W  W5  1  0.66669184  0.33338368  0.65753696  1
  Se  Se6  1  0.33335233  0.66670567  0.32493393  1
  Se  Se7  1  0.66664760  0.33329419  0.05080031  1
  Se  Se8  1  0.66665012  0.33329924  0.42653107  1
  Se  Se9  1  0.66664023  0.33327945  0.13705471  1
  Se  Se10  1  0.66664947  0.33329794  0.51278790  1
  Se  Se11  1  0.33335240  0.66670579  0.23866197  1
