# generated using pymatgen
data_Te2MoWSe2
_symmetry_space_group_name_H-M   'P 1'
_cell_length_a   3.43544945
_cell_length_b   3.43540378
_cell_length_c   39.11859687
_cell_angle_alpha   90.00031711
_cell_angle_beta   90.00000000
_cell_angle_gamma   120.00043962
_symmetry_Int_Tables_number   1
_chemical_formula_structural   Te2MoWSe2
_chemical_formula_sum   'Te4 Mo2 W2 Se4'
_cell_volume   399.82811459
_cell_formula_units_Z   2
loop_
 _symmetry_equiv_pos_site_id
 _symmetry_equiv_pos_as_xyz
  1  'x, y, z'
loop_
 _atom_site_type_symbol
 _atom_site_label
 _atom_site_symmetry_multiplicity
 _atom_site_fract_x
 _atom_site_fract_y
 _atom_site_fract_z
 _atom_site_occupancy
  Te  Te0  1  0.33335635  0.66671370  0.70501092  1
  Te  Te1  1  0.66664365  0.33328630  0.04644708  1
  Te  Te2  1  0.66664479  0.33328857  0.14141193  1
  Te  Te3  1  0.33335521  0.66671143  0.61004607  1
  Mo  Mo4  1  0.33330823  0.66661647  0.09391985  1
  Mo  Mo5  1  0.66669177  0.33338353  0.65753815  1
  W  W6  1  0.33331314  0.66662628  0.46964005  1
  W  W7  1  0.66668686  0.33337372  0.28181795  1
  Se  Se8  1  0.33335414  0.66670927  0.32383818  1
  Se  Se9  1  0.66664586  0.33329073  0.42761982  1
  Se  Se10  1  0.66664842  0.33329583  0.51168148  1
  Se  Se11  1  0.33335158  0.66670417  0.23977652  1
