# generated using pymatgen
data_Te3MoWSe
_symmetry_space_group_name_H-M   'P 1'
_cell_length_a   3.49703656
_cell_length_b   3.49700551
_cell_length_c   39.64070771
_cell_angle_alpha   89.99989206
_cell_angle_beta   90.00000000
_cell_angle_gamma   120.00029376
_symmetry_Int_Tables_number   1
_chemical_formula_structural   Te3MoWSe
_chemical_formula_sum   'Te6 Mo2 W2 Se2'
_cell_volume   419.82397297
_cell_formula_units_Z   2
loop_
 _symmetry_equiv_pos_site_id
 _symmetry_equiv_pos_as_xyz
  1  'x, y, z'
loop_
 _atom_site_type_symbol
 _atom_site_label
 _atom_site_symmetry_multiplicity
 _atom_site_fract_x
 _atom_site_fract_y
 _atom_site_fract_z
 _atom_site_occupancy
  Te  Te0  1  0.33335426  0.66670952  0.32833725  1
  Te  Te1  1  0.66664288  0.33328476  0.04767075  1
  Te  Te2  1  0.66665118  0.33330135  0.42341973  1
  Te  Te3  1  0.66664881  0.33329662  0.14017857  1
  Te  Te4  1  0.66663898  0.33327696  0.51591722  1
  Te  Te5  1  0.33335222  0.66670544  0.23526257  1
  Mo  Mo6  1  0.33330830  0.66661660  0.09390290  1
  Mo  Mo7  1  0.33330907  0.66661815  0.46968316  1
  W  W8  1  0.66669017  0.33338033  0.28179679  1
  W  W9  1  0.66668966  0.33337933  0.65753958  1
  Se  Se10  1  0.33335539  0.66671177  0.69846715  1
  Se  Se11  1  0.33335909  0.66671918  0.61657232  1
