# generated using pymatgen
data_MoW3(SeS)4
_symmetry_space_group_name_H-M   'P 1'
_cell_length_a   3.25389047
_cell_length_b   3.25386088
_cell_length_c   36.92303917
_cell_angle_alpha   89.99979855
_cell_angle_beta   90.00000000
_cell_angle_gamma   120.00030075
_symmetry_Int_Tables_number   1
_chemical_formula_structural   MoW3(SeS)4
_chemical_formula_sum   'Mo1 W3 Se4 S4'
_cell_volume   338.55455921
_cell_formula_units_Z   1
loop_
 _symmetry_equiv_pos_site_id
 _symmetry_equiv_pos_as_xyz
  1  'x, y, z'
loop_
 _atom_site_type_symbol
 _atom_site_label
 _atom_site_symmetry_multiplicity
 _atom_site_fract_x
 _atom_site_fract_y
 _atom_site_fract_z
 _atom_site_occupancy
  Mo  Mo0  1  0.66668849  0.33337699  0.28179901  1
  W  W1  1  0.33331128  0.66662255  0.09392226  1
  W  W2  1  0.33331205  0.66662409  0.46965316  1
  W  W3  1  0.66668882  0.33337763  0.65755616  1
  Se  Se4  1  0.33335439  0.66670977  0.70385038  1
  Se  Se5  1  0.66664249  0.33328398  0.42336114  1
  Se  Se6  1  0.66664791  0.33329482  0.51592570  1
  Se  Se7  1  0.33335405  0.66670910  0.61125918  1
  S  S8  1  0.33335637  0.66671373  0.32368260  1
  S  S9  1  0.66664547  0.33328993  0.05195044  1
  S  S10  1  0.66664364  0.33328629  0.13588874  1
  S  S11  1  0.33335505  0.66671111  0.23989923  1
