# generated using pymatgen
data_MoW3(SeS)4
_symmetry_space_group_name_H-M   'P 1'
_cell_length_a   3.25502598
_cell_length_b   3.25503384
_cell_length_c   36.91939789
_cell_angle_alpha   89.99999382
_cell_angle_beta   90.00000000
_cell_angle_gamma   119.99992007
_symmetry_Int_Tables_number   1
_chemical_formula_structural   MoW3(SeS)4
_chemical_formula_sum   'Mo1 W3 Se4 S4'
_cell_volume   338.76267915
_cell_formula_units_Z   1
loop_
 _symmetry_equiv_pos_site_id
 _symmetry_equiv_pos_as_xyz
  1  'x, y, z'
loop_
 _atom_site_type_symbol
 _atom_site_label
 _atom_site_symmetry_multiplicity
 _atom_site_fract_x
 _atom_site_fract_y
 _atom_site_fract_z
 _atom_site_occupancy
  Mo  Mo0  1  0.66669228  0.33338456  0.28180434  1
  W  W1  1  0.33330751  0.66661502  0.09391413  1
  W  W2  1  0.33330898  0.66661796  0.46964992  1
  W  W3  1  0.66669060  0.33338119  0.65755892  1
  Se  Se4  1  0.33335066  0.66670233  0.70382717  1
  Se  Se5  1  0.66664641  0.33329182  0.04763396  1
  Se  Se6  1  0.66664643  0.33329185  0.14020755  1
  Se  Se7  1  0.33335096  0.66670293  0.61125887  1
  S  S8  1  0.33335317  0.66670733  0.32360600  1
  S  S9  1  0.66664788  0.33329475  0.42770763  1
  S  S10  1  0.66664736  0.33329372  0.51158517  1
  S  S11  1  0.33335777  0.66671655  0.23999434  1
