# generated using pymatgen
data_MoW(SeS)2
_symmetry_space_group_name_H-M   'P 1'
_cell_length_a   3.25399094
_cell_length_b   3.25396379
_cell_length_c   36.88029070
_cell_angle_alpha   90.00013395
_cell_angle_beta   90.00000000
_cell_angle_gamma   120.00027599
_symmetry_Int_Tables_number   1
_chemical_formula_structural   MoW(SeS)2
_chemical_formula_sum   'Mo2 W2 Se4 S4'
_cell_volume   338.18381188
_cell_formula_units_Z   2
loop_
 _symmetry_equiv_pos_site_id
 _symmetry_equiv_pos_as_xyz
  1  'x, y, z'
loop_
 _atom_site_type_symbol
 _atom_site_label
 _atom_site_symmetry_multiplicity
 _atom_site_fract_x
 _atom_site_fract_y
 _atom_site_fract_z
 _atom_site_occupancy
  Mo  Mo0  1  0.33331139  0.66662277  0.46967435  1
  Mo  Mo1  1  0.66668809  0.33337618  0.28181287  1
  W  W2  1  0.33331190  0.66662380  0.09391430  1
  W  W3  1  0.66669156  0.33338312  0.65754607  1
  Se  Se4  1  0.33335163  0.66670427  0.32779021  1
  Se  Se5  1  0.33335689  0.66671478  0.70391013  1
  Se  Se6  1  0.33335181  0.66670462  0.23577911  1
  Se  Se7  1  0.33335303  0.66670706  0.61118471  1
  S  S8  1  0.66664214  0.33328328  0.05190554  1
  S  S9  1  0.66664738  0.33329376  0.42777575  1
  S  S10  1  0.66664728  0.33329357  0.13591838  1
  S  S11  1  0.66664690  0.33329280  0.51153658  1
