# generated using pymatgen
data_MoW(SeS)2
_symmetry_space_group_name_H-M   'P 1'
_cell_length_a   3.25397726
_cell_length_b   3.25395294
_cell_length_c   36.88467461
_cell_angle_alpha   89.99957424
_cell_angle_beta   89.99999081
_cell_angle_gamma   120.00025121
_symmetry_Int_Tables_number   1
_chemical_formula_structural   MoW(SeS)2
_chemical_formula_sum   'Mo2 W2 Se4 S4'
_cell_volume   338.22154582
_cell_formula_units_Z   2
loop_
 _symmetry_equiv_pos_site_id
 _symmetry_equiv_pos_as_xyz
  1  'x, y, z'
loop_
 _atom_site_type_symbol
 _atom_site_label
 _atom_site_symmetry_multiplicity
 _atom_site_fract_x
 _atom_site_fract_y
 _atom_site_fract_z
 _atom_site_occupancy
  Mo  Mo0  1  0.33330946  0.66661842  0.46966296  1
  Mo  Mo1  1  0.66668986  0.33338037  0.28180618  1
  W  W2  1  0.33330878  0.66661686  0.09391897  1
  W  W3  1  0.66669008  0.33338077  0.65756861  1
  Se  Se4  1  0.33335101  0.66670264  0.70390006  1
  Se  Se5  1  0.66664612  0.33329158  0.42363359  1
  Se  Se6  1  0.66664688  0.33329310  0.51564903  1
  Se  Se7  1  0.33336817  0.66673688  0.61121617  1
  S  S8  1  0.33335240  0.66670586  0.32368113  1
  S  S9  1  0.66664073  0.33328063  0.05190639  1
  S  S10  1  0.66664446  0.33328825  0.13592115  1
  S  S11  1  0.33335206  0.66670465  0.23988375  1
