# generated using pymatgen
data_Te3MoWSe
_symmetry_space_group_name_H-M   'P 1'
_cell_length_a   3.49548437
_cell_length_b   3.49545138
_cell_length_c   39.66210138
_cell_angle_alpha   90.00104592
_cell_angle_beta   90.00002548
_cell_angle_gamma   120.00033125
_symmetry_Int_Tables_number   1
_chemical_formula_structural   Te3MoWSe
_chemical_formula_sum   'Te6 Mo2 W2 Se2'
_cell_volume   419.67735173
_cell_formula_units_Z   2
loop_
 _symmetry_equiv_pos_site_id
 _symmetry_equiv_pos_as_xyz
  1  'x, y, z'
loop_
 _atom_site_type_symbol
 _atom_site_label
 _atom_site_symmetry_multiplicity
 _atom_site_fract_x
 _atom_site_fract_y
 _atom_site_fract_z
 _atom_site_occupancy
  Te  Te0  1  0.33335533  0.66670851  0.32801547  1
  Te  Te1  1  0.33335953  0.66671987  0.70401705  1
  Te  Te2  1  0.66664184  0.33328367  0.42343024  1
  Te  Te3  1  0.66664155  0.33328423  0.51588725  1
  Te  Te4  1  0.33335466  0.66671099  0.23554495  1
  Te  Te5  1  0.33336988  0.66674051  0.61107678  1
  Mo  Mo6  1  0.33330611  0.66661258  0.46966096  1
  Mo  Mo7  1  0.66668993  0.33338101  0.28177200  1
  W  W8  1  0.33330893  0.66661485  0.09393191  1
  W  W9  1  0.66669032  0.33338216  0.65756614  1
  Se  Se10  1  0.66663665  0.33327264  0.05298445  1
  Se  Se11  1  0.66664527  0.33328897  0.13486078  1
