# generated using pymatgen
data_Te3MoWSe
_symmetry_space_group_name_H-M   'P 1'
_cell_length_a   3.49659036
_cell_length_b   3.49656450
_cell_length_c   39.63029489
_cell_angle_alpha   89.99988025
_cell_angle_beta   90.00000000
_cell_angle_gamma   120.00024463
_symmetry_Int_Tables_number   1
_chemical_formula_structural   Te3MoWSe
_chemical_formula_sum   'Te6 Mo2 W2 Se2'
_cell_volume   419.60742563
_cell_formula_units_Z   2
loop_
 _symmetry_equiv_pos_site_id
 _symmetry_equiv_pos_as_xyz
  1  'x, y, z'
loop_
 _atom_site_type_symbol
 _atom_site_label
 _atom_site_symmetry_multiplicity
 _atom_site_fract_x
 _atom_site_fract_y
 _atom_site_fract_z
 _atom_site_occupancy
  Te  Te0  1  0.33335562  0.66671224  0.70378036  1
  Te  Te1  1  0.66664222  0.33328344  0.04768027  1
  Te  Te2  1  0.66664733  0.33329365  0.42312663  1
  Te  Te3  1  0.66664882  0.33329665  0.14017781  1
  Te  Te4  1  0.66665203  0.33330306  0.51618599  1
  Te  Te5  1  0.33335052  0.66670204  0.61128461  1
  Mo  Mo6  1  0.33330696  0.66661392  0.09392165  1
  Mo  Mo7  1  0.66668924  0.33337848  0.65755265  1
  W  W8  1  0.33330955  0.66661911  0.46964195  1
  W  W9  1  0.66668583  0.33337165  0.28179846  1
  Se  Se10  1  0.33335397  0.66670894  0.32276290  1
  Se  Se11  1  0.33335791  0.66671683  0.24083472  1
