# generated using pymatgen
data_Te3MoWSe
_symmetry_space_group_name_H-M   'P 1'
_cell_length_a   3.49655089
_cell_length_b   3.49652665
_cell_length_c   39.63504952
_cell_angle_alpha   90.00006629
_cell_angle_beta   90.00000000
_cell_angle_gamma   120.00022923
_symmetry_Int_Tables_number   1
_chemical_formula_structural   Te3MoWSe
_chemical_formula_sum   'Te6 Mo2 W2 Se2'
_cell_volume   419.64855301
_cell_formula_units_Z   2
loop_
 _symmetry_equiv_pos_site_id
 _symmetry_equiv_pos_as_xyz
  1  'x, y, z'
loop_
 _atom_site_type_symbol
 _atom_site_label
 _atom_site_symmetry_multiplicity
 _atom_site_fract_x
 _atom_site_fract_y
 _atom_site_fract_z
 _atom_site_occupancy
  Te  Te0  1  0.33335562  0.66671224  0.70406420  1
  Te  Te1  1  0.66664422  0.33328743  0.04768279  1
  Te  Te2  1  0.66664839  0.33329578  0.42341580  1
  Te  Te3  1  0.66664852  0.33329604  0.14017221  1
  Te  Te4  1  0.66663552  0.33327004  0.51589493  1
  Te  Te5  1  0.33335462  0.66671024  0.61100810  1
  Mo  Mo6  1  0.33330918  0.66661837  0.09392110  1
  Mo  Mo7  1  0.33330859  0.66661719  0.46964431  1
  W  W8  1  0.66668789  0.33337579  0.28179691  1
  W  W9  1  0.66669070  0.33338140  0.65755220  1
  Se  Se10  1  0.33335867  0.66671834  0.32276070  1
  Se  Se11  1  0.33335807  0.66671715  0.24083475  1
