# generated using pymatgen
data_MoW(SeS)2
_symmetry_space_group_name_H-M   'P 1'
_cell_length_a   3.25324639
_cell_length_b   3.25321064
_cell_length_c   36.87791549
_cell_angle_alpha   89.99995038
_cell_angle_beta   89.99996966
_cell_angle_gamma   120.00038323
_symmetry_Int_Tables_number   1
_chemical_formula_structural   MoW(SeS)2
_chemical_formula_sum   'Mo2 W2 Se4 S4'
_cell_volume   338.00603937
_cell_formula_units_Z   2
loop_
 _symmetry_equiv_pos_site_id
 _symmetry_equiv_pos_as_xyz
  1  'x, y, z'
loop_
 _atom_site_type_symbol
 _atom_site_label
 _atom_site_symmetry_multiplicity
 _atom_site_fract_x
 _atom_site_fract_y
 _atom_site_fract_z
 _atom_site_occupancy
  Mo  Mo0  1  0.33331002  0.66661991  0.09390069  1
  Mo  Mo1  1  0.33331039  0.66662082  0.46965336  1
  W  W2  1  0.66668619  0.33337315  0.28180169  1
  W  W3  1  0.66668966  0.33338013  0.65753719  1
  Se  Se4  1  0.33335862  0.66671826  0.32816217  1
  Se  Se5  1  0.66664598  0.33329151  0.04786745  1
  Se  Se6  1  0.66664641  0.33329257  0.13995458  1
  Se  Se7  1  0.33335376  0.66670851  0.23544333  1
  S  S8  1  0.33335980  0.66672072  0.69955524  1
  S  S9  1  0.66664522  0.33328972  0.42776815  1
  S  S10  1  0.66663905  0.33327435  0.51158959  1
  S  S11  1  0.33335490  0.66671035  0.61551456  1
