# generated using pymatgen
data_Te3MoWSe
_symmetry_space_group_name_H-M   'P 1'
_cell_length_a   3.49505282
_cell_length_b   3.49502683
_cell_length_c   40.60914726
_cell_angle_alpha   90.00022909
_cell_angle_beta   90.00000000
_cell_angle_gamma   120.00024122
_symmetry_Int_Tables_number   1
_chemical_formula_structural   Te3MoWSe
_chemical_formula_sum   'Te6 Mo2 W2 Se2'
_cell_volume   429.59350199
_cell_formula_units_Z   2
loop_
 _symmetry_equiv_pos_site_id
 _symmetry_equiv_pos_as_xyz
  1  'x, y, z'
loop_
 _atom_site_type_symbol
 _atom_site_label
 _atom_site_symmetry_multiplicity
 _atom_site_fract_x
 _atom_site_fract_y
 _atom_site_fract_z
 _atom_site_occupancy
  Te  Te0  1  0.33334944  0.66669987  0.32696915  1
  Te  Te1  1  0.66665031  0.33329962  0.04880052  1
  Te  Te2  1  0.66663972  0.33327844  0.42428658  1
  Te  Te3  1  0.66664888  0.33329677  0.13909088  1
  Te  Te4  1  0.66664468  0.33328836  0.51504641  1
  Te  Te5  1  0.33335390  0.66670880  0.23663718  1
  Mo  Mo6  1  0.33331305  0.66662611  0.09392382  1
  Mo  Mo7  1  0.66669091  0.33338182  0.28180042  1
  W  W8  1  0.33330758  0.66661515  0.46967428  1
  W  W9  1  0.66668998  0.33337995  0.65751222  1
  Se  Se10  1  0.33335878  0.66671855  0.69749584  1
  Se  Se11  1  0.33335277  0.66670655  0.61751070  1
