# generated using pymatgen
data_Te3MoWSe
_symmetry_space_group_name_H-M   'P 1'
_cell_length_a   3.49689987
_cell_length_b   3.49687991
_cell_length_c   39.61647947
_cell_angle_alpha   89.99982110
_cell_angle_beta   90.00000000
_cell_angle_gamma   120.00018870
_symmetry_Int_Tables_number   1
_chemical_formula_structural   Te3MoWSe
_chemical_formula_sum   'Te6 Mo2 W2 Se2'
_cell_volume   419.53635472
_cell_formula_units_Z   2
loop_
 _symmetry_equiv_pos_site_id
 _symmetry_equiv_pos_as_xyz
  1  'x, y, z'
loop_
 _atom_site_type_symbol
 _atom_site_label
 _atom_site_symmetry_multiplicity
 _atom_site_fract_x
 _atom_site_fract_y
 _atom_site_fract_z
 _atom_site_occupancy
  Te  Te0  1  0.33335469  0.66671038  0.32806049  1
  Te  Te1  1  0.33335558  0.66671215  0.70407351  1
  Te  Te2  1  0.66663545  0.33326989  0.04766412  1
  Te  Te3  1  0.66664568  0.33329036  0.14018768  1
  Te  Te4  1  0.33335875  0.66671850  0.23554039  1
  Te  Te5  1  0.33335595  0.66671290  0.61098336  1
  Mo  Mo6  1  0.33330724  0.66661447  0.09390347  1
  Mo  Mo7  1  0.66669294  0.33338589  0.28182294  1
  W  W8  1  0.33330981  0.66661962  0.46966187  1
  W  W9  1  0.66669151  0.33338302  0.65753289  1
  Se  Se10  1  0.66664717  0.33329333  0.42867796  1
  Se  Se11  1  0.66664524  0.33328949  0.51063931  1
