# generated using pymatgen
data_VH4(CO3)2
_symmetry_space_group_name_H-M   'P 1'
_cell_length_a   7.52714943
_cell_length_b   8.49113414
_cell_length_c   8.62610674
_cell_angle_alpha   90.00000000
_cell_angle_beta   90.00000000
_cell_angle_gamma   90.00000000
_symmetry_Int_Tables_number   1
_chemical_formula_structural   VH4(CO3)2
_chemical_formula_sum   'V4 H16 C8 O24'
_cell_volume   551.32929242
_cell_formula_units_Z   4
loop_
 _symmetry_equiv_pos_site_id
 _symmetry_equiv_pos_as_xyz
  1  'x, y, z'
loop_
 _atom_site_type_symbol
 _atom_site_label
 _atom_site_symmetry_multiplicity
 _atom_site_fract_x
 _atom_site_fract_y
 _atom_site_fract_z
 _atom_site_occupancy
  V  V0  1  0.22814674  0.50000000  0.75000000  1
  V  V1  1  0.77185326  0.50000000  0.25000000  1
  V  V2  1  0.77185326  0.00000000  0.75000000  1
  V  V3  1  0.22814674  0.00000000  0.25000000  1
  H  H4  1  0.82432184  0.16989134  0.42721419  1
  H  H5  1  0.59890128  0.07244691  0.19136411  1
  H  H6  1  0.40109872  0.42755309  0.19136411  1
  H  H7  1  0.59890128  0.92755309  0.30863589  1
  H  H8  1  0.17567816  0.83010866  0.57278581  1
  H  H9  1  0.59890128  0.42755309  0.69136411  1
  H  H10  1  0.82432184  0.33010866  0.92721419  1
  H  H11  1  0.40109872  0.57244691  0.30863589  1
  H  H12  1  0.17567816  0.66989134  0.07278581  1
  H  H13  1  0.82432184  0.83010866  0.07278581  1
  H  H14  1  0.40109872  0.92755309  0.80863589  1
  H  H15  1  0.17567816  0.16989134  0.92721419  1
  H  H16  1  0.82432184  0.66989134  0.57278581  1
  H  H17  1  0.17567816  0.33010866  0.42721419  1
  H  H18  1  0.40109872  0.07244691  0.69136411  1
  H  H19  1  0.59890128  0.57244691  0.80863589  1
  C  C20  1  0.23574460  0.24427059  0.50755275  1
  C  C21  1  0.76425540  0.75572941  0.49244725  1
  C  C22  1  0.23574460  0.25572941  0.00755275  1
  C  C23  1  0.76425540  0.74427059  0.99244725  1
  C  C24  1  0.23574460  0.74427059  0.49244725  1
  C  C25  1  0.76425540  0.24427059  0.00755275  1
  C  C26  1  0.23574460  0.75572941  0.99244725  1
  C  C27  1  0.76425540  0.25572941  0.50755275  1
  O  O28  1  0.47726228  0.50000000  0.25000000  1
  O  O29  1  0.47726228  0.00000000  0.75000000  1
  O  O30  1  0.01119791  0.50000000  0.75000000  1
  O  O31  1  0.26774258  0.39514068  0.96259497  1
  O  O32  1  0.72540886  0.21388233  0.64559665  1
  O  O33  1  0.72540886  0.78611767  0.85440335  1
  O  O34  1  0.72540886  0.28611767  0.14559665  1
  O  O35  1  0.73225742  0.10485932  0.96259497  1
  O  O36  1  0.27459114  0.78611767  0.35440335  1
  O  O37  1  0.27459114  0.71388233  0.85440335  1
  O  O38  1  0.26774258  0.10485932  0.46259497  1
  O  O39  1  0.73225742  0.39514068  0.46259497  1
  O  O40  1  0.27459114  0.28611767  0.64559665  1
  O  O41  1  0.01119791  0.00000000  0.25000000  1
  O  O42  1  0.72540886  0.71388233  0.35440335  1
  O  O43  1  0.26774258  0.60485932  0.53740503  1
  O  O44  1  0.73225742  0.89514068  0.53740503  1
  O  O45  1  0.98880209  0.00000000  0.75000000  1
  O  O46  1  0.52273772  0.50000000  0.75000000  1
  O  O47  1  0.98880209  0.50000000  0.25000000  1
  O  O48  1  0.26774258  0.89514068  0.03740503  1
  O  O49  1  0.27459114  0.21388233  0.14559665  1
  O  O50  1  0.73225742  0.60485932  0.03740503  1
  O  O51  1  0.52273772  0.00000000  0.25000000  1
