# generated using pymatgen
data_MoW(SeS)2
_symmetry_space_group_name_H-M   'P 1'
_cell_length_a   3.25556115
_cell_length_b   3.25550581
_cell_length_c   36.89296859
_cell_angle_alpha   89.99999323
_cell_angle_beta   90.00000564
_cell_angle_gamma   120.00058077
_symmetry_Int_Tables_number   1
_chemical_formula_structural   MoW(SeS)2
_chemical_formula_sum   'Mo2 W2 Se4 S4'
_cell_volume   338.62266516
_cell_formula_units_Z   2
loop_
 _symmetry_equiv_pos_site_id
 _symmetry_equiv_pos_as_xyz
  1  'x, y, z'
loop_
 _atom_site_type_symbol
 _atom_site_label
 _atom_site_symmetry_multiplicity
 _atom_site_fract_x
 _atom_site_fract_y
 _atom_site_fract_z
 _atom_site_occupancy
  Mo  Mo0  1  0.33331305  0.66662497  0.09388544  1
  Mo  Mo1  1  0.33330567  0.66660994  0.46963442  1
  W  W2  1  0.66669383  0.33338872  0.28180086  1
  W  W3  1  0.66670133  0.33340373  0.65757115  1
  Se  Se4  1  0.33336214  0.66672461  0.70387041  1
  Se  Se5  1  0.66662921  0.33325802  0.04784193  1
  Se  Se6  1  0.66664897  0.33329771  0.13999048  1
  Se  Se7  1  0.33335486  0.66671001  0.61123971  1
  S  S8  1  0.33335320  0.66670678  0.32383968  1
  S  S9  1  0.66664738  0.33329425  0.42781821  1
  S  S10  1  0.66663699  0.33327457  0.51146707  1
  S  S11  1  0.33335337  0.66670667  0.23978865  1
