# generated using pymatgen
data_Te4Mo3WSe4
_symmetry_space_group_name_H-M   'P 1'
_cell_length_a   3.43860692
_cell_length_b   3.43860751
_cell_length_c   39.13641150
_cell_angle_alpha   89.99910180
_cell_angle_beta   89.99966479
_cell_angle_gamma   120.00000486
_symmetry_Int_Tables_number   1
_chemical_formula_structural   Te4Mo3WSe4
_chemical_formula_sum   'Te4 Mo3 W1 Se4'
_cell_volume   400.75297231
_cell_formula_units_Z   1
loop_
 _symmetry_equiv_pos_site_id
 _symmetry_equiv_pos_as_xyz
  1  'x, y, z'
loop_
 _atom_site_type_symbol
 _atom_site_label
 _atom_site_symmetry_multiplicity
 _atom_site_fract_x
 _atom_site_fract_y
 _atom_site_fract_z
 _atom_site_occupancy
  Te  Te0  1  0.33335047  0.66670094  0.32933680  1
  Te  Te1  1  0.66664649  0.33328493  0.04641037  1
  Te  Te2  1  0.66663389  0.33326721  0.14131776  1
  Te  Te3  1  0.33334515  0.66669215  0.23441952  1
  Mo  Mo4  1  0.33331380  0.66662335  0.09382061  1
  Mo  Mo5  1  0.33331942  0.66663806  0.46964863  1
  Mo  Mo6  1  0.66667220  0.33334874  0.28189378  1
  W  W7  1  0.66669048  0.33338552  0.65755619  1
  Se  Se8  1  0.33335831  0.66671642  0.69953870  1
  Se  Se9  1  0.66665160  0.33330442  0.42787773  1
  Se  Se10  1  0.66665370  0.33330701  0.51139161  1
  Se  Se11  1  0.33336450  0.66673125  0.61553631  1
