# generated using pymatgen
data_Te4Mo3WSe4
_symmetry_space_group_name_H-M   'P 1'
_cell_length_a   3.43637352
_cell_length_b   3.43637106
_cell_length_c   39.11837928
_cell_angle_alpha   89.99980512
_cell_angle_beta   90.00000000
_cell_angle_gamma   120.00002364
_symmetry_Int_Tables_number   1
_chemical_formula_structural   Te4Mo3WSe4
_chemical_formula_sum   'Te4 Mo3 W1 Se4'
_cell_volume   400.04771919
_cell_formula_units_Z   1
loop_
 _symmetry_equiv_pos_site_id
 _symmetry_equiv_pos_as_xyz
  1  'x, y, z'
loop_
 _atom_site_type_symbol
 _atom_site_label
 _atom_site_symmetry_multiplicity
 _atom_site_fract_x
 _atom_site_fract_y
 _atom_site_fract_z
 _atom_site_occupancy
  Te  Te0  1  0.33335193  0.66670485  0.32920180  1
  Te  Te1  1  0.66663671  0.33327242  0.42225910  1
  Te  Te2  1  0.66664205  0.33328311  0.51710730  1
  Te  Te3  1  0.33335469  0.66671039  0.23431899  1
  Mo  Mo4  1  0.33330910  0.66661819  0.09392096  1
  Mo  Mo5  1  0.33331011  0.66662023  0.46970935  1
  Mo  Mo6  1  0.66669098  0.33338195  0.28175985  1
  W  W7  1  0.66669317  0.33338635  0.65754677  1
  Se  Se8  1  0.33335869  0.66671838  0.69949467  1
  Se  Se9  1  0.66664672  0.33329244  0.05209733  1
  Se  Se10  1  0.66664698  0.33329296  0.13574988  1
  Se  Se11  1  0.33335886  0.66671873  0.61558201  1
