# generated using pymatgen
data_Te2MoWSe2
_symmetry_space_group_name_H-M   'P 1'
_cell_length_a   3.43615621
_cell_length_b   3.43612456
_cell_length_c   39.14672137
_cell_angle_alpha   89.99994804
_cell_angle_beta   90.00000000
_cell_angle_gamma   120.00030479
_symmetry_Int_Tables_number   1
_chemical_formula_structural   Te2MoWSe2
_chemical_formula_sum   'Te4 Mo2 W2 Se4'
_cell_volume   400.28239552
_cell_formula_units_Z   2
loop_
 _symmetry_equiv_pos_site_id
 _symmetry_equiv_pos_as_xyz
  1  'x, y, z'
loop_
 _atom_site_type_symbol
 _atom_site_label
 _atom_site_symmetry_multiplicity
 _atom_site_fract_x
 _atom_site_fract_y
 _atom_site_fract_z
 _atom_site_occupancy
  Te  Te0  1  0.33335310  0.66670719  0.32925461  1
  Te  Te1  1  0.66664532  0.33328963  0.04646573  1
  Te  Te2  1  0.66664781  0.33329462  0.14135912  1
  Te  Te3  1  0.33335788  0.66671677  0.23435613  1
  Mo  Mo4  1  0.33330884  0.66661767  0.09389529  1
  Mo  Mo5  1  0.66669356  0.33338711  0.28182127  1
  W  W6  1  0.33331161  0.66662322  0.46967623  1
  W  W7  1  0.66668645  0.33337290  0.65753465  1
  Se  Se8  1  0.33335267  0.66670635  0.69953751  1
  Se  Se9  1  0.66664335  0.33328571  0.42764649  1
  Se  Se10  1  0.66664399  0.33328699  0.51167374  1
  Se  Se11  1  0.33335542  0.66671184  0.61552722  1
