# generated using pymatgen
data_Fe(SbO2)2
_symmetry_space_group_name_H-M   'P 1'
_cell_length_a   5.87809206
_cell_length_b   8.80255375
_cell_length_c   8.76092155
_cell_angle_alpha   90.00000000
_cell_angle_beta   91.69304343
_cell_angle_gamma   90.00000000
_symmetry_Int_Tables_number   1
_chemical_formula_structural   Fe(SbO2)2
_chemical_formula_sum   'Fe4 Sb8 O16'
_cell_volume   453.11165165
_cell_formula_units_Z   4
loop_
 _symmetry_equiv_pos_site_id
 _symmetry_equiv_pos_as_xyz
  1  'x, y, z'
loop_
 _atom_site_type_symbol
 _atom_site_label
 _atom_site_symmetry_multiplicity
 _atom_site_fract_x
 _atom_site_fract_y
 _atom_site_fract_z
 _atom_site_occupancy
  Fe  Fe0  1  0.77296660  0.00051137  0.50262739  1
  Fe  Fe1  1  0.22703340  0.50051137  0.99737261  1
  Fe  Fe2  1  0.77296660  0.49948863  0.00262739  1
  Fe  Fe3  1  0.22703340  0.99948863  0.49737261  1
  Sb  Sb4  1  0.01729617  0.67211490  0.33455090  1
  Sb  Sb5  1  0.98270383  0.17211490  0.16544910  1
  Sb  Sb6  1  0.48795014  0.16841503  0.81929257  1
  Sb  Sb7  1  0.51204986  0.66841503  0.68070743  1
  Sb  Sb8  1  0.01729617  0.82788510  0.83455090  1
  Sb  Sb9  1  0.48795014  0.33158497  0.31929257  1
  Sb  Sb10  1  0.98270383  0.32788510  0.66544910  1
  Sb  Sb11  1  0.51204986  0.83158497  0.18070743  1
  O  O12  1  0.49691259  0.64011273  0.90251410  1
  O  O13  1  0.75563359  0.31585203  0.83316479  1
  O  O14  1  0.98734191  0.89521978  0.34801739  1
  O  O15  1  0.74598148  0.83904407  0.68877212  1
  O  O16  1  0.49691259  0.85988727  0.40251410  1
  O  O17  1  0.01265809  0.10478022  0.65198261  1
  O  O18  1  0.75563359  0.18414797  0.33316479  1
  O  O19  1  0.25401852  0.33904407  0.81122788  1
  O  O20  1  0.74598148  0.66095593  0.18877212  1
  O  O21  1  0.01265809  0.39521978  0.15198261  1
  O  O22  1  0.25401852  0.16095593  0.31122788  1
  O  O23  1  0.98734191  0.60478022  0.84801739  1
  O  O24  1  0.50308741  0.35988727  0.09748590  1
  O  O25  1  0.24436641  0.68414797  0.16683521  1
  O  O26  1  0.50308741  0.14011273  0.59748590  1
  O  O27  1  0.24436641  0.81585203  0.66683521  1
