# generated using pymatgen
data_Mg30VCuO32
_symmetry_space_group_name_H-M   'P 1'
_cell_length_a   8.53727014
_cell_length_b   8.53075082
_cell_length_c   8.53075082
_cell_angle_alpha   90.00000000
_cell_angle_beta   90.00000000
_cell_angle_gamma   90.00000000
_symmetry_Int_Tables_number   1
_chemical_formula_structural   Mg30VCuO32
_chemical_formula_sum   'Mg30 V1 Cu1 O32'
_cell_volume   621.28881754
_cell_formula_units_Z   1
loop_
 _symmetry_equiv_pos_site_id
 _symmetry_equiv_pos_as_xyz
  1  'x, y, z'
loop_
 _atom_site_type_symbol
 _atom_site_label
 _atom_site_symmetry_multiplicity
 _atom_site_fract_x
 _atom_site_fract_y
 _atom_site_fract_z
 _atom_site_occupancy
  Mg  Mg0  1  0.00000000  0.00000000  0.50000000  1
  Mg  Mg1  1  0.00000000  0.50000000  0.00000000  1
  Mg  Mg2  1  0.50000000  0.00000000  0.00000000  1
  Mg  Mg3  1  0.50000000  0.00000000  0.50000000  1
  Mg  Mg4  1  0.50000000  0.50000000  0.00000000  1
  Mg  Mg5  1  0.50000000  0.50000000  0.50000000  1
  Mg  Mg6  1  0.00000000  0.24476937  0.24476937  1
  Mg  Mg7  1  0.00000000  0.24476937  0.75523063  1
  Mg  Mg8  1  0.00000000  0.75523063  0.24476937  1
  Mg  Mg9  1  0.00000000  0.75523063  0.75523063  1
  Mg  Mg10  1  0.50000000  0.24893950  0.24893950  1
  Mg  Mg11  1  0.50000000  0.24893950  0.75106050  1
  Mg  Mg12  1  0.50000000  0.75106050  0.24893950  1
  Mg  Mg13  1  0.50000000  0.75106050  0.75106050  1
  Mg  Mg14  1  0.24823949  0.00000000  0.24756333  1
  Mg  Mg15  1  0.24823949  0.00000000  0.75243667  1
  Mg  Mg16  1  0.25174834  0.50000000  0.24821035  1
  Mg  Mg17  1  0.25174834  0.50000000  0.75178965  1
  Mg  Mg18  1  0.75176051  0.00000000  0.24756333  1
  Mg  Mg19  1  0.75176051  0.00000000  0.75243667  1
  Mg  Mg20  1  0.74825166  0.50000000  0.24821035  1
  Mg  Mg21  1  0.74825166  0.50000000  0.75178965  1
  Mg  Mg22  1  0.24823949  0.24756333  0.00000000  1
  Mg  Mg23  1  0.25174834  0.24821035  0.50000000  1
  Mg  Mg24  1  0.24823949  0.75243667  0.00000000  1
  Mg  Mg25  1  0.25174834  0.75178965  0.50000000  1
  Mg  Mg26  1  0.75176051  0.24756333  0.00000000  1
  Mg  Mg27  1  0.74825166  0.24821035  0.50000000  1
  Mg  Mg28  1  0.75176051  0.75243667  0.00000000  1
  Mg  Mg29  1  0.74825166  0.75178965  0.50000000  1
  V  V30  1  0.00000000  0.50000000  0.50000000  1
  Cu  Cu31  1  0.00000000  0.00000000  0.00000000  1
  O  O32  1  0.26019669  0.00000000  0.00000000  1
  O  O33  1  0.25040991  0.00000000  0.50000000  1
  O  O34  1  0.25040991  0.50000000  0.00000000  1
  O  O35  1  0.24967046  0.50000000  0.50000000  1
  O  O36  1  0.73980331  0.00000000  0.00000000  1
  O  O37  1  0.74959009  0.00000000  0.50000000  1
  O  O38  1  0.74959009  0.50000000  0.00000000  1
  O  O39  1  0.75032954  0.50000000  0.50000000  1
  O  O40  1  0.24905950  0.25054525  0.25054525  1
  O  O41  1  0.24905950  0.25054525  0.74945475  1
  O  O42  1  0.24905950  0.74945475  0.25054525  1
  O  O43  1  0.24905950  0.74945475  0.74945475  1
  O  O44  1  0.75094050  0.25054525  0.25054525  1
  O  O45  1  0.75094050  0.25054525  0.74945475  1
  O  O46  1  0.75094050  0.74945475  0.25054525  1
  O  O47  1  0.75094050  0.74945475  0.74945475  1
  O  O48  1  0.00000000  0.00000000  0.26425157  1
  O  O49  1  0.00000000  0.00000000  0.73574843  1
  O  O50  1  0.00000000  0.50000000  0.25807289  1
  O  O51  1  0.00000000  0.50000000  0.74192711  1
  O  O52  1  0.50000000  0.00000000  0.25185953  1
  O  O53  1  0.50000000  0.00000000  0.74814047  1
  O  O54  1  0.50000000  0.50000000  0.25124133  1
  O  O55  1  0.50000000  0.50000000  0.74875867  1
  O  O56  1  0.00000000  0.26425157  0.00000000  1
  O  O57  1  0.00000000  0.25807289  0.50000000  1
  O  O58  1  0.00000000  0.73574843  0.00000000  1
  O  O59  1  0.00000000  0.74192711  0.50000000  1
  O  O60  1  0.50000000  0.25185953  0.00000000  1
  O  O61  1  0.50000000  0.25124133  0.50000000  1
  O  O62  1  0.50000000  0.74814047  0.00000000  1
  O  O63  1  0.50000000  0.74875867  0.50000000  1
