# generated using pymatgen
data_CaMg30FeO32
_symmetry_space_group_name_H-M   'P 1'
_cell_length_a   8.57435253
_cell_length_b   8.56097248
_cell_length_c   8.56097248
_cell_angle_alpha   90.00000000
_cell_angle_beta   90.00000000
_cell_angle_gamma   90.00000000
_symmetry_Int_Tables_number   1
_chemical_formula_structural   CaMg30FeO32
_chemical_formula_sum   'Ca1 Mg30 Fe1 O32'
_cell_volume   628.41643883
_cell_formula_units_Z   1
loop_
 _symmetry_equiv_pos_site_id
 _symmetry_equiv_pos_as_xyz
  1  'x, y, z'
loop_
 _atom_site_type_symbol
 _atom_site_label
 _atom_site_symmetry_multiplicity
 _atom_site_fract_x
 _atom_site_fract_y
 _atom_site_fract_z
 _atom_site_occupancy
  Ca  Ca0  1  0.00000000  0.00000000  0.00000000  1
  Mg  Mg1  1  0.00000000  0.00000000  0.50000000  1
  Mg  Mg2  1  0.00000000  0.50000000  0.00000000  1
  Mg  Mg3  1  0.50000000  0.00000000  0.00000000  1
  Mg  Mg4  1  0.50000000  0.00000000  0.50000000  1
  Mg  Mg5  1  0.50000000  0.50000000  0.00000000  1
  Mg  Mg6  1  0.50000000  0.50000000  0.50000000  1
  Mg  Mg7  1  0.00000000  0.25242256  0.25242256  1
  Mg  Mg8  1  0.00000000  0.25242256  0.74757744  1
  Mg  Mg9  1  0.00000000  0.74757744  0.25242256  1
  Mg  Mg10  1  0.00000000  0.74757744  0.74757744  1
  Mg  Mg11  1  0.50000000  0.25022744  0.25022744  1
  Mg  Mg12  1  0.50000000  0.25022744  0.74977256  1
  Mg  Mg13  1  0.50000000  0.74977256  0.25022744  1
  Mg  Mg14  1  0.50000000  0.74977256  0.74977256  1
  Mg  Mg15  1  0.25285696  0.00000000  0.25293986  1
  Mg  Mg16  1  0.25285696  0.00000000  0.74706014  1
  Mg  Mg17  1  0.25024658  0.50000000  0.25057677  1
  Mg  Mg18  1  0.25024658  0.50000000  0.74942323  1
  Mg  Mg19  1  0.74714304  0.00000000  0.25293986  1
  Mg  Mg20  1  0.74714304  0.00000000  0.74706014  1
  Mg  Mg21  1  0.74975342  0.50000000  0.25057677  1
  Mg  Mg22  1  0.74975342  0.50000000  0.74942323  1
  Mg  Mg23  1  0.25285696  0.25293986  0.00000000  1
  Mg  Mg24  1  0.25024658  0.25057677  0.50000000  1
  Mg  Mg25  1  0.25285696  0.74706014  0.00000000  1
  Mg  Mg26  1  0.25024658  0.74942323  0.50000000  1
  Mg  Mg27  1  0.74714304  0.25293986  0.00000000  1
  Mg  Mg28  1  0.74975342  0.25057677  0.50000000  1
  Mg  Mg29  1  0.74714304  0.74706014  0.00000000  1
  Mg  Mg30  1  0.74975342  0.74942323  0.50000000  1
  Fe  Fe31  1  0.00000000  0.50000000  0.50000000  1
  O  O32  1  0.26211724  0.00000000  0.00000000  1
  O  O33  1  0.25191484  0.00000000  0.50000000  1
  O  O34  1  0.25191484  0.50000000  0.00000000  1
  O  O35  1  0.25633437  0.50000000  0.50000000  1
  O  O36  1  0.73788276  0.00000000  0.00000000  1
  O  O37  1  0.74808516  0.00000000  0.50000000  1
  O  O38  1  0.74808516  0.50000000  0.00000000  1
  O  O39  1  0.74366563  0.50000000  0.50000000  1
  O  O40  1  0.24935107  0.24993651  0.24993651  1
  O  O41  1  0.24935107  0.24993651  0.75006349  1
  O  O42  1  0.24935107  0.75006349  0.24993651  1
  O  O43  1  0.24935107  0.75006349  0.75006349  1
  O  O44  1  0.75064893  0.24993651  0.24993651  1
  O  O45  1  0.75064893  0.24993651  0.75006349  1
  O  O46  1  0.75064893  0.75006349  0.24993651  1
  O  O47  1  0.75064893  0.75006349  0.75006349  1
  O  O48  1  0.00000000  0.00000000  0.26207138  1
  O  O49  1  0.00000000  0.00000000  0.73792862  1
  O  O50  1  0.00000000  0.50000000  0.24888388  1
  O  O51  1  0.00000000  0.50000000  0.75111612  1
  O  O52  1  0.50000000  0.00000000  0.25177691  1
  O  O53  1  0.50000000  0.00000000  0.74822309  1
  O  O54  1  0.50000000  0.50000000  0.24967962  1
  O  O55  1  0.50000000  0.50000000  0.75032038  1
  O  O56  1  0.00000000  0.26207138  0.00000000  1
  O  O57  1  0.00000000  0.24888388  0.50000000  1
  O  O58  1  0.00000000  0.73792862  0.00000000  1
  O  O59  1  0.00000000  0.75111612  0.50000000  1
  O  O60  1  0.50000000  0.25177691  0.00000000  1
  O  O61  1  0.50000000  0.24967962  0.50000000  1
  O  O62  1  0.50000000  0.74822309  0.00000000  1
  O  O63  1  0.50000000  0.75032038  0.50000000  1
