# generated using pymatgen
data_CaLaFeCoO6
_symmetry_space_group_name_H-M   'P 1'
_cell_length_a   5.45917967
_cell_length_b   5.47893292
_cell_length_c   7.78523426
_cell_angle_alpha   90.19508699
_cell_angle_beta   90.00000000
_cell_angle_gamma   90.00000000
_symmetry_Int_Tables_number   1
_chemical_formula_structural   CaLaFeCoO6
_chemical_formula_sum   'Ca2 La2 Fe2 Co2 O12'
_cell_volume   232.85873769
_cell_formula_units_Z   2
loop_
 _symmetry_equiv_pos_site_id
 _symmetry_equiv_pos_as_xyz
  1  'x, y, z'
loop_
 _atom_site_type_symbol
 _atom_site_label
 _atom_site_symmetry_multiplicity
 _atom_site_fract_x
 _atom_site_fract_y
 _atom_site_fract_z
 _atom_site_occupancy
  Ca  Ca0  1  0.53616452  0.50895944  0.25030350  1
  Ca  Ca1  1  0.96383548  0.00895944  0.75030350  1
  La  La2  1  0.02623736  0.99496898  0.24929771  1
  La  La3  1  0.47376264  0.49496898  0.74929771  1
  Fe  Fe4  1  0.50004845  0.00027361  0.00033399  1
  Fe  Fe5  1  -0.00004845  0.50027361  0.50033399  1
  Co  Co6  1  0.49925622  -0.00013102  0.49972898  1
  Co  Co7  1  0.00074378  0.49986898  0.99972898  1
  O  O8  1  0.01103577  0.57751450  0.74855021  1
  O  O9  1  0.22071473  0.21520780  0.95802950  1
  O  O10  1  0.22595743  0.20776496  0.54035297  1
  O  O11  1  0.27404257  0.70776496  0.04035297  1
  O  O12  1  0.27928527  0.71520780  0.45802950  1
  O  O13  1  0.48896423  0.07751450  0.24854921  1
  O  O14  1  0.51487442  0.93102709  0.75185675  1
  O  O15  1  0.72424966  0.27854395  0.53843788  1
  O  O16  1  0.73085999  0.28586969  0.96310951  1
  O  O17  1  0.76914001  0.78586969  0.46310951  1
  O  O18  1  0.77575034  0.77854395  0.03843788  1
  O  O19  1  0.98512558  0.43102709  0.25185675  1
