# generated using pymatgen
data_CaCo(Si2O5)2
_symmetry_space_group_name_H-M   'P 1'
_cell_length_a   7.45079252
_cell_length_b   7.45079252
_cell_length_c   15.48648145
_cell_angle_alpha   90.00000000
_cell_angle_beta   90.00000000
_cell_angle_gamma   90.00000000
_symmetry_Int_Tables_number   1
_chemical_formula_structural   CaCo(Si2O5)2
_chemical_formula_sum   'Ca4 Co4 Si16 O40'
_cell_volume   859.72131927
_cell_formula_units_Z   4
loop_
 _symmetry_equiv_pos_site_id
 _symmetry_equiv_pos_as_xyz
  1  'x, y, z'
loop_
 _atom_site_type_symbol
 _atom_site_label
 _atom_site_symmetry_multiplicity
 _atom_site_fract_x
 _atom_site_fract_y
 _atom_site_fract_z
 _atom_site_occupancy
  Ca  Ca0  1  0.25000000  0.75000000  0.50000000  1
  Ca  Ca1  1  0.75000000  0.25000000  0.50000000  1
  Ca  Ca2  1  0.75000000  0.25000000  0.00000000  1
  Ca  Ca3  1  0.25000000  0.75000000  0.00000000  1
  Co  Co4  1  0.25000000  0.25000000  0.58373365  1
  Co  Co5  1  0.75000000  0.75000000  0.91626635  1
  Co  Co6  1  0.75000000  0.75000000  0.41626635  1
  Co  Co7  1  0.25000000  0.25000000  0.08373365  1
  Si  Si8  1  0.92250920  0.50290365  0.64882610  1
  Si  Si9  1  0.57749080  0.99709635  0.64882610  1
  Si  Si10  1  0.00290365  0.42250920  0.85117390  1
  Si  Si11  1  0.50290365  0.57749080  0.64882610  1
  Si  Si12  1  0.99709635  0.92250920  0.64882610  1
  Si  Si13  1  0.07749080  0.00290365  0.85117390  1
  Si  Si14  1  0.42250920  0.49709635  0.85117390  1
  Si  Si15  1  0.49709635  0.07749080  0.85117390  1
  Si  Si16  1  0.07749080  0.49709635  0.35117390  1
  Si  Si17  1  0.42250920  0.00290365  0.35117390  1
  Si  Si18  1  0.99709635  0.57749080  0.14882610  1
  Si  Si19  1  0.49709635  0.42250920  0.35117390  1
  Si  Si20  1  0.00290365  0.07749080  0.35117390  1
  Si  Si21  1  0.92250920  0.99709635  0.14882610  1
  Si  Si22  1  0.57749080  0.50290365  0.14882610  1
  Si  Si23  1  0.50290365  0.92250920  0.14882610  1
  O  O24  1  0.00141374  0.35573560  0.58355488  1
  O  O25  1  0.49858726  0.14426440  0.58355488  1
  O  O26  1  0.85573560  0.50141274  0.91644512  1
  O  O27  1  0.35573560  0.49858726  0.58355488  1
  O  O28  1  0.14426440  0.00141374  0.58355488  1
  O  O29  1  0.99858726  0.85573560  0.91644512  1
  O  O30  1  0.50141274  0.64426440  0.91644512  1
  O  O31  1  0.64426440  0.99858726  0.91644512  1
  O  O32  1  0.99858726  0.64426440  0.41644512  1
  O  O33  1  0.50141274  0.85573560  0.41644512  1
  O  O34  1  0.14426440  0.49858726  0.08355488  1
  O  O35  1  0.64426440  0.50141274  0.41644512  1
  O  O36  1  0.85573560  0.99858726  0.41644512  1
  O  O37  1  0.00141374  0.14426440  0.08355488  1
  O  O38  1  0.49858726  0.35573560  0.08355488  1
  O  O39  1  0.00127644  0.29464139  0.37138292  1
  O  O40  1  0.35573560  0.00141374  0.08355488  1
  O  O41  1  0.50127644  0.79464139  0.62861708  1
  O  O42  1  0.20535861  0.49872356  0.87138292  1
  O  O43  1  0.70535861  0.50127644  0.62861708  1
  O  O44  1  0.79464139  0.99872356  0.62861708  1
  O  O45  1  0.00127644  0.20535861  0.87138292  1
  O  O46  1  0.49872356  0.29464139  0.87138292  1
  O  O47  1  0.29464139  0.00127644  0.87138292  1
  O  O48  1  0.45962486  0.95962486  0.25000000  1
  O  O49  1  0.54037514  0.45962486  0.25000000  1
  O  O50  1  0.95962486  0.04037614  0.25000000  1
  O  O51  1  0.04037614  0.54037514  0.25000000  1
  O  O52  1  0.54037514  0.04037614  0.75000000  1
  O  O53  1  0.45962486  0.54037514  0.75000000  1
  O  O54  1  0.04037614  0.95962486  0.75000000  1
  O  O55  1  0.95962486  0.45962486  0.75000000  1
  O  O56  1  0.70535861  0.99872356  0.12861708  1
  O  O57  1  0.50127644  0.70535861  0.12861708  1
  O  O58  1  0.99872356  0.79464139  0.12861708  1
  O  O59  1  0.20535861  0.00127644  0.37138292  1
  O  O60  1  0.29464139  0.49872356  0.37138292  1
  O  O61  1  0.79464139  0.50127644  0.12861708  1
  O  O62  1  0.49872356  0.20535861  0.37138292  1
  O  O63  1  0.99872356  0.70535861  0.62861708  1
