# generated using pymatgen
data_MgVP2O7
_symmetry_space_group_name_H-M   'P 1'
_cell_length_a   5.58414457
_cell_length_b   6.55727353
_cell_length_c   7.40691722
_cell_angle_alpha   81.63588236
_cell_angle_beta   86.03363988
_cell_angle_gamma   71.60021156
_symmetry_Int_Tables_number   1
_chemical_formula_structural   MgVP2O7
_chemical_formula_sum   'Mg2 V2 P4 O14'
_cell_volume   254.53651127
_cell_formula_units_Z   2
loop_
 _symmetry_equiv_pos_site_id
 _symmetry_equiv_pos_as_xyz
  1  'x, y, z'
loop_
 _atom_site_type_symbol
 _atom_site_label
 _atom_site_symmetry_multiplicity
 _atom_site_fract_x
 _atom_site_fract_y
 _atom_site_fract_z
 _atom_site_occupancy
  Mg  Mg0  1  0.33377776  0.65558893  0.65106813  1
  Mg  Mg1  1  0.66622785  0.34440723  0.34893605  1
  V  V2  1  0.26178673  0.15888873  0.19871525  1
  V  V3  1  0.73822265  0.84112054  0.80127360  1
  P  P4  1  0.19106082  0.68180489  0.09296649  1
  P  P5  1  0.80893739  0.31819787  0.90703396  1
  P  P6  1  0.22602982  0.20062691  0.61482783  1
  P  P7  1  0.77396878  0.79937036  0.38517192  1
  O  O8  1  0.11205082  0.68406978  0.89713015  1
  O  O9  1  0.88794789  0.31592738  0.10287066  1
  O  O10  1  0.29816620  0.86144255  0.11264415  1
  O  O11  1  0.70183043  0.13856035  0.88735777  1
  O  O12  1  0.35542737  0.45597464  0.17521975  1
  O  O13  1  0.64457190  0.54402913  0.82478191  1
  O  O14  1  0.60798073  0.65001939  0.42983819  1
  O  O15  1  0.39202000  0.34997623  0.57016409  1
  O  O16  1  0.04485335  0.22406094  0.45977063  1
  O  O17  1  0.95514667  0.77593560  0.54022856  1
  O  O18  1  0.07451997  0.28142378  0.79512678  1
  O  O19  1  0.62371221  0.03818065  0.32763369  1
  O  O20  1  0.37628632  0.96181732  0.67236839  1
  O  O21  1  0.92547636  0.71857477  0.20487307  1
