# generated using pymatgen
data_VSe
_symmetry_space_group_name_H-M   'P 1'
_cell_length_a   3.62903330
_cell_length_b   3.62902689
_cell_length_c   6.57222191
_cell_angle_alpha   89.99992752
_cell_angle_beta   89.99963383
_cell_angle_gamma   90.00003758
_symmetry_Int_Tables_number   1
_chemical_formula_structural   VSe
_chemical_formula_sum   'V2 Se2'
_cell_volume   86.55523870
_cell_formula_units_Z   2
loop_
 _symmetry_equiv_pos_site_id
 _symmetry_equiv_pos_as_xyz
  1  'x, y, z'
loop_
 _atom_site_type_symbol
 _atom_site_label
 _atom_site_symmetry_multiplicity
 _atom_site_fract_x
 _atom_site_fract_y
 _atom_site_fract_z
 _atom_site_occupancy
  V  V0  1  -0.00000097  0.99999917  -0.00000063  1
  V  V1  1  0.50000080  0.50000040  0.00000035  1
  Se  Se2  1  0.50000052  0.00000045  0.73762846  1
  Se  Se3  1  -0.00000035  0.49999998  0.26237182  1
