# generated using pymatgen
data_MgSn2O5
_symmetry_space_group_name_H-M   'P 1'
_cell_length_a   3.99653000
_cell_length_b   5.60673109
_cell_length_c   10.35372412
_cell_angle_alpha   90.00000000
_cell_angle_beta   90.00000000
_cell_angle_gamma   110.87955236
_symmetry_Int_Tables_number   1
_chemical_formula_structural   MgSn2O5
_chemical_formula_sum   'Mg2 Sn4 O10'
_cell_volume   216.76566346
_cell_formula_units_Z   2
loop_
 _symmetry_equiv_pos_site_id
 _symmetry_equiv_pos_as_xyz
  1  'x, y, z'
loop_
 _atom_site_type_symbol
 _atom_site_label
 _atom_site_symmetry_multiplicity
 _atom_site_fract_x
 _atom_site_fract_y
 _atom_site_fract_z
 _atom_site_occupancy
  Mg  Mg0  1  0.81557751  0.63115403  0.75000000  1
  Mg  Mg1  1  0.18442349  0.36884697  0.25000000  1
  Sn  Sn2  1  0.13605282  0.27210464  0.56674583  1
  Sn  Sn3  1  0.86394818  0.72789636  0.43325317  1
  Sn  Sn4  1  0.86394818  0.72789636  0.06674683  1
  Sn  Sn5  1  0.13605282  0.27210464  0.93325417  1
  O  O6  1  0.77215352  0.54430804  0.25000000  1
  O  O7  1  0.22784748  0.45569296  0.75000000  1
  O  O8  1  0.30297142  0.60594084  0.06622097  1
  O  O9  1  0.69703058  0.39406016  0.93377903  1
  O  O10  1  0.69703058  0.39406016  0.56622097  1
  O  O11  1  0.30297142  0.60594084  0.43377803  1
  O  O12  1  -0.05065956  -0.10131911  0.61446237  1
  O  O13  1  0.05065956  0.10131811  0.38553763  1
  O  O14  1  -0.05065956  -0.10131911  0.88553763  1
  O  O15  1  0.05065956  0.10131811  0.11446337  1
