# generated using pymatgen
data_Mg30AlCuO32
_symmetry_space_group_name_H-M   'P 1'
_cell_length_a   8.50471479
_cell_length_b   8.51137234
_cell_length_c   8.51137234
_cell_angle_alpha   90.00000000
_cell_angle_beta   90.00000000
_cell_angle_gamma   90.00000000
_symmetry_Int_Tables_number   1
_chemical_formula_structural   Mg30AlCuO32
_chemical_formula_sum   'Mg30 Al1 Cu1 O32'
_cell_volume   616.11095813
_cell_formula_units_Z   1
loop_
 _symmetry_equiv_pos_site_id
 _symmetry_equiv_pos_as_xyz
  1  'x, y, z'
loop_
 _atom_site_type_symbol
 _atom_site_label
 _atom_site_symmetry_multiplicity
 _atom_site_fract_x
 _atom_site_fract_y
 _atom_site_fract_z
 _atom_site_occupancy
  Mg  Mg0  1  -0.00000000  -0.00000000  0.50000000  1
  Mg  Mg1  1  -0.00000000  0.50000000  0.00000000  1
  Mg  Mg2  1  0.50000000  -0.00000000  -0.00000000  1
  Mg  Mg3  1  0.50000000  -0.00000000  0.50000000  1
  Mg  Mg4  1  0.50000000  0.50000000  0.00000000  1
  Mg  Mg5  1  0.50000000  0.50000000  0.50000000  1
  Mg  Mg6  1  -0.00000000  0.25373624  0.25373624  1
  Mg  Mg7  1  -0.00000000  0.25373624  0.74626376  1
  Mg  Mg8  1  -0.00000000  0.74626376  0.25373624  1
  Mg  Mg9  1  -0.00000000  0.74626376  0.74626376  1
  Mg  Mg10  1  0.50000000  0.25144722  0.25144722  1
  Mg  Mg11  1  0.50000000  0.25144722  0.74855278  1
  Mg  Mg12  1  0.50000000  0.74855278  0.25144722  1
  Mg  Mg13  1  0.50000000  0.74855278  0.74855278  1
  Mg  Mg14  1  0.25020413  -0.00000000  0.25164077  1
  Mg  Mg15  1  0.25020413  -0.00000000  0.74835923  1
  Mg  Mg16  1  0.24795009  0.50000000  0.25313263  1
  Mg  Mg17  1  0.24795009  0.50000000  0.74686737  1
  Mg  Mg18  1  0.74979587  -0.00000000  0.25164077  1
  Mg  Mg19  1  0.74979587  -0.00000000  0.74835923  1
  Mg  Mg20  1  0.75204991  0.50000000  0.25313263  1
  Mg  Mg21  1  0.75204991  0.50000000  0.74686737  1
  Mg  Mg22  1  0.25020413  0.25164077  -0.00000000  1
  Mg  Mg23  1  0.24795009  0.25313263  0.50000000  1
  Mg  Mg24  1  0.25020413  0.74835923  -0.00000000  1
  Mg  Mg25  1  0.24795009  0.74686737  0.50000000  1
  Mg  Mg26  1  0.74979587  0.25164077  0.00000000  1
  Mg  Mg27  1  0.75204991  0.25313263  0.50000000  1
  Mg  Mg28  1  0.74979587  0.74835923  0.00000000  1
  Mg  Mg29  1  0.75204991  0.74686737  0.50000000  1
  Al  Al30  1  -0.00000000  -0.00000000  0.00000000  1
  Cu  Cu31  1  -0.00000000  0.50000000  0.50000000  1
  O  O32  1  0.23602464  -0.00000000  0.00000000  1
  O  O33  1  0.24994782  -0.00000000  0.50000000  1
  O  O34  1  0.24994782  0.50000000  -0.00000000  1
  O  O35  1  0.26212127  0.50000000  0.50000000  1
  O  O36  1  0.76397536  -0.00000000  0.00000000  1
  O  O37  1  0.75005218  -0.00000000  0.50000000  1
  O  O38  1  0.75005218  0.50000000  0.00000000  1
  O  O39  1  0.73787873  0.50000000  0.50000000  1
  O  O40  1  0.24955585  0.24960284  0.24960284  1
  O  O41  1  0.24955585  0.24960284  0.75039716  1
  O  O42  1  0.24955585  0.75039716  0.24960284  1
  O  O43  1  0.24955585  0.75039716  0.75039716  1
  O  O44  1  0.75044415  0.24960284  0.24960284  1
  O  O45  1  0.75044415  0.24960284  0.75039716  1
  O  O46  1  0.75044415  0.75039716  0.24960284  1
  O  O47  1  0.75044415  0.75039716  0.75039716  1
  O  O48  1  -0.00000000  -0.00000000  0.23256801  1
  O  O49  1  -0.00000000  -0.00000000  0.76743199  1
  O  O50  1  -0.00000000  0.50000000  0.23413838  1
  O  O51  1  -0.00000000  0.50000000  0.76586162  1
  O  O52  1  0.50000000  -0.00000000  0.24700741  1
  O  O53  1  0.50000000  -0.00000000  0.75299259  1
  O  O54  1  0.50000000  0.50000000  0.24750300  1
  O  O55  1  0.50000000  0.50000000  0.75249700  1
  O  O56  1  -0.00000000  0.23256801  -0.00000000  1
  O  O57  1  -0.00000000  0.23413838  0.50000000  1
  O  O58  1  -0.00000000  0.76743199  0.00000000  1
  O  O59  1  -0.00000000  0.76586162  0.50000000  1
  O  O60  1  0.50000000  0.24700741  0.00000000  1
  O  O61  1  0.50000000  0.24750300  0.50000000  1
  O  O62  1  0.50000000  0.75299259  -0.00000000  1
  O  O63  1  0.50000000  0.75249700  0.50000000  1
