# generated using pymatgen
data_Cr3(FeO6)2
_symmetry_space_group_name_H-M   'P 1'
_cell_length_a   6.69826934
_cell_length_b   8.49094914
_cell_length_c   9.92509227
_cell_angle_alpha   107.57466312
_cell_angle_beta   104.57947802
_cell_angle_gamma   103.09675903
_symmetry_Int_Tables_number   1
_chemical_formula_structural   Cr3(FeO6)2
_chemical_formula_sum   'Cr6 Fe4 O24'
_cell_volume   492.00124491
_cell_formula_units_Z   2
loop_
 _symmetry_equiv_pos_site_id
 _symmetry_equiv_pos_as_xyz
  1  'x, y, z'
loop_
 _atom_site_type_symbol
 _atom_site_label
 _atom_site_symmetry_multiplicity
 _atom_site_fract_x
 _atom_site_fract_y
 _atom_site_fract_z
 _atom_site_occupancy
  Cr  Cr0  1  0.88365753  0.89457069  0.66171930  1
  Cr  Cr1  1  0.11634247  0.10542931  0.33828070  1
  Cr  Cr2  1  0.21769534  0.66551841  0.26054301  1
  Cr  Cr3  1  0.78230466  0.33448159  0.73945699  1
  Cr  Cr4  1  0.59718086  0.25695879  0.13453140  1
  Cr  Cr5  1  0.40281914  0.74304121  0.86546860  1
  Fe  Fe6  1  0.37645132  0.95827899  0.60694180  1
  Fe  Fe7  1  0.62354868  0.04172101  0.39305820  1
  Fe  Fe8  1  0.05016895  0.21259183  0.01828305  1
  Fe  Fe9  1  0.94983105  0.78740817  0.98171695  1
  O  O10  1  0.07442434  0.05384561  0.14899808  1
  O  O11  1  0.92557566  0.94615439  0.85100192  1
  O  O12  1  0.57054964  0.13498653  0.24064492  1
  O  O13  1  0.42945036  0.86501347  0.75935508  1
  O  O14  1  0.17995304  0.45285488  0.18214587  1
  O  O15  1  0.82004696  0.54714512  0.81785413  1
  O  O16  1  0.97922548  0.28215471  0.84098170  1
  O  O17  1  0.02077452  0.71784529  0.15901830  1
  O  O18  1  0.23916789  0.79972249  0.96296156  1
  O  O19  1  0.76083211  0.20027751  0.03703844  1
  O  O20  1  0.89239836  0.00265295  0.36118442  1
  O  O21  1  0.10760164  0.99734705  0.63881558  1
  O  O22  1  0.54354970  0.21774699  0.73590941  1
  O  O23  1  0.45645030  0.78225301  0.26409059  1
  O  O24  1  0.34465823  0.22018047  0.01730726  1
  O  O25  1  0.65534177  0.77981953  0.98269274  1
  O  O26  1  0.33308137  0.05005051  0.42927552  1
  O  O27  1  0.66691863  0.94994949  0.57072448  1
  O  O28  1  0.22245380  0.71961481  0.43826939  1
  O  O29  1  0.77754620  0.28038519  0.56173061  1
  O  O30  1  0.70332854  0.45859256  0.24338538  1
  O  O31  1  0.29667146  0.54140744  0.75661462  1
  O  O32  1  0.16586953  0.31005756  0.41303452  1
  O  O33  1  0.83413047  0.68994244  0.58696548  1
