# generated using pymatgen
data_CaMn(Si2O5)2
_symmetry_space_group_name_H-M   'P 1'
_cell_length_a   7.54859816
_cell_length_b   7.54859816
_cell_length_c   15.36538644
_cell_angle_alpha   90.00000000
_cell_angle_beta   90.00000000
_cell_angle_gamma   90.00000000
_symmetry_Int_Tables_number   1
_chemical_formula_structural   CaMn(Si2O5)2
_chemical_formula_sum   'Ca4 Mn4 Si16 O40'
_cell_volume   875.54021956
_cell_formula_units_Z   4
loop_
 _symmetry_equiv_pos_site_id
 _symmetry_equiv_pos_as_xyz
  1  'x, y, z'
loop_
 _atom_site_type_symbol
 _atom_site_label
 _atom_site_symmetry_multiplicity
 _atom_site_fract_x
 _atom_site_fract_y
 _atom_site_fract_z
 _atom_site_occupancy
  Ca  Ca0  1  0.25000000  0.75000000  0.50000000  1
  Ca  Ca1  1  0.75000000  0.25000000  0.50000000  1
  Ca  Ca2  1  0.75000000  0.25000000  0.00000000  1
  Ca  Ca3  1  0.25000000  0.75000000  0.00000000  1
  Mn  Mn4  1  0.25000000  0.25000000  0.57872755  1
  Mn  Mn5  1  0.75000000  0.75000000  0.92127245  1
  Mn  Mn6  1  0.75000000  0.75000000  0.42127245  1
  Mn  Mn7  1  0.25000000  0.25000000  0.07872755  1
  Si  Si8  1  0.91861416  0.50312495  0.64811863  1
  Si  Si9  1  0.58138584  0.99687505  0.64811863  1
  Si  Si10  1  0.00312495  0.41861416  0.85188137  1
  Si  Si11  1  0.50312495  0.58138584  0.64811863  1
  Si  Si12  1  0.99687505  0.91861416  0.64811863  1
  Si  Si13  1  0.08138584  0.00312495  0.85188137  1
  Si  Si14  1  0.41861416  0.49687505  0.85188137  1
  Si  Si15  1  0.49687505  0.08138584  0.85188137  1
  Si  Si16  1  0.08138584  0.49687505  0.35188137  1
  Si  Si17  1  0.41861416  0.00312495  0.35188137  1
  Si  Si18  1  0.99687505  0.58138584  0.14811863  1
  Si  Si19  1  0.49687505  0.41861416  0.35188137  1
  Si  Si20  1  0.00312495  0.08138584  0.35188137  1
  Si  Si21  1  0.91861416  0.99687505  0.14811863  1
  Si  Si22  1  0.58138584  0.50312495  0.14811863  1
  Si  Si23  1  0.50312495  0.91861416  0.14811863  1
  O  O24  1  0.99423535  0.35706029  0.58228743  1
  O  O25  1  0.50576465  0.14293971  0.58228743  1
  O  O26  1  0.85706029  0.49423535  0.91771257  1
  O  O27  1  0.35706029  0.50576465  0.58228743  1
  O  O28  1  0.14293971  0.99423535  0.58228743  1
  O  O29  1  0.00576465  0.85706029  0.91771257  1
  O  O30  1  0.49423535  0.64293971  0.91771257  1
  O  O31  1  0.64293971  0.00576465  0.91771257  1
  O  O32  1  0.00576465  0.64293971  0.41771257  1
  O  O33  1  0.49423535  0.85706029  0.41771257  1
  O  O34  1  0.14293971  0.50576465  0.08228743  1
  O  O35  1  0.64293971  0.49423535  0.41771257  1
  O  O36  1  0.85706029  0.00576465  0.41771257  1
  O  O37  1  0.99423535  0.14293971  0.08228743  1
  O  O38  1  0.50576465  0.35706029  0.08228743  1
  O  O39  1  0.00432140  0.29657573  0.37090777  1
  O  O40  1  0.35706029  0.99423535  0.08228743  1
  O  O41  1  0.50432140  0.79657573  0.62909123  1
  O  O42  1  0.20342427  0.49567860  0.87090877  1
  O  O43  1  0.70342427  0.50432140  0.62909123  1
  O  O44  1  0.79657573  0.99567860  0.62909123  1
  O  O45  1  0.00432140  0.20342427  0.87090877  1
  O  O46  1  0.49567860  0.29657573  0.87090877  1
  O  O47  1  0.29657573  0.00432140  0.87090877  1
  O  O48  1  0.45771419  0.95771419  0.25000000  1
  O  O49  1  0.54228581  0.45771419  0.25000000  1
  O  O50  1  0.95771419  0.04228681  0.25000000  1
  O  O51  1  0.04228681  0.54228581  0.25000000  1
  O  O52  1  0.54228581  0.04228681  0.75000000  1
  O  O53  1  0.45771419  0.54228581  0.75000000  1
  O  O54  1  0.04228681  0.95771419  0.75000000  1
  O  O55  1  0.95771419  0.45771419  0.75000000  1
  O  O56  1  0.70342427  0.99567860  0.12909123  1
  O  O57  1  0.50432140  0.70342427  0.12909123  1
  O  O58  1  0.99567860  0.79657573  0.12909123  1
  O  O59  1  0.20342427  0.00432140  0.37090777  1
  O  O60  1  0.29657573  0.49567860  0.37090777  1
  O  O61  1  0.79657573  0.50432140  0.12909123  1
  O  O62  1  0.49567860  0.20342427  0.37090777  1
  O  O63  1  0.99567860  0.70342427  0.62909123  1
