# generated using pymatgen
data_ZnCoAs2O7
_symmetry_space_group_name_H-M   'P 1'
_cell_length_a   7.35130394
_cell_length_b   8.75716937
_cell_length_c   9.66434716
_cell_angle_alpha   90.00000000
_cell_angle_beta   114.09075981
_cell_angle_gamma   90.00000000
_symmetry_Int_Tables_number   1
_chemical_formula_structural   ZnCoAs2O7
_chemical_formula_sum   'Zn4 Co4 As8 O28'
_cell_volume   567.96799730
_cell_formula_units_Z   4
loop_
 _symmetry_equiv_pos_site_id
 _symmetry_equiv_pos_as_xyz
  1  'x, y, z'
loop_
 _atom_site_type_symbol
 _atom_site_label
 _atom_site_symmetry_multiplicity
 _atom_site_fract_x
 _atom_site_fract_y
 _atom_site_fract_z
 _atom_site_occupancy
  Zn  Zn0  1  0.28088485  0.91971842  0.88914870  1
  Zn  Zn1  1  0.71911515  0.41971842  0.61085130  1
  Zn  Zn2  1  0.71911515  0.08028158  0.11085130  1
  Zn  Zn3  1  0.28088485  0.58028158  0.38914870  1
  Co  Co4  1  0.81675964  0.05954842  0.68839242  1
  Co  Co5  1  0.18324036  0.55954842  0.81160758  1
  Co  Co6  1  0.18324036  0.94045158  0.31160758  1
  Co  Co7  1  0.81675964  0.44045158  0.18839242  1
  As  As8  1  0.43107985  0.23131565  0.75564714  1
  As  As9  1  0.56892015  0.73131565  0.74435286  1
  As  As10  1  0.56892015  0.76868435  0.24435286  1
  As  As11  1  0.43107985  0.26868435  0.25564614  1
  As  As12  1  0.01067705  0.27923466  0.95803020  1
  As  As13  1  0.98932295  0.77923466  0.54196980  1
  As  As14  1  0.98932295  0.72076534  0.04196980  1
  As  As15  1  0.01067705  0.22076534  0.45803020  1
  O  O16  1  0.85588991  0.27354565  0.05262926  1
  O  O17  1  0.14411009  0.77354565  0.44737074  1
  O  O18  1  0.14411009  0.72645435  0.94737074  1
  O  O19  1  0.85588991  0.22645435  0.55262926  1
  O  O20  1  0.36455397  0.40646720  0.78881628  1
  O  O21  1  0.63544603  0.90646720  0.71118372  1
  O  O22  1  0.63544603  0.59353280  0.21118372  1
  O  O23  1  0.36455397  0.09353280  0.28881628  1
  O  O24  1  0.46343121  0.09876946  0.89508138  1
  O  O25  1  0.53656879  0.59876946  0.60491862  1
  O  O26  1  0.53656879  0.90123054  0.10491862  1
  O  O27  1  0.46343121  0.40123054  0.39508138  1
  O  O28  1  0.24895568  0.15224762  0.58420434  1
  O  O29  1  0.75104432  0.65224762  0.91579566  1
  O  O30  1  0.75104432  0.84775238  0.41579566  1
  O  O31  1  0.24895568  0.34775238  0.08420434  1
  O  O32  1  0.96085394  0.07779696  0.32690566  1
  O  O33  1  0.03914606  0.57779696  0.17309434  1
  O  O34  1  0.03914606  0.92220304  0.67309434  1
  O  O35  1  0.96085394  0.42220304  0.82690566  1
  O  O36  1  0.63562623  0.26274992  0.21309970  1
  O  O37  1  0.36437377  0.76274992  0.28690030  1
  O  O38  1  0.36437377  0.73725008  0.78690030  1
  O  O39  1  0.63562623  0.23725008  0.71309970  1
  O  O40  1  0.04015601  0.39623140  0.39116277  1
  O  O41  1  0.95984399  0.89623140  0.10883723  1
  O  O42  1  0.95984399  0.60376860  0.60883723  1
  O  O43  1  0.04015601  0.10376860  0.89116277  1
