# generated using pymatgen
data_BaZnBiF7
_symmetry_space_group_name_H-M   'P 1'
_cell_length_a   5.74330449
_cell_length_b   9.90184245
_cell_length_c   10.82982033
_cell_angle_alpha   90.00000000
_cell_angle_beta   90.00000000
_cell_angle_gamma   91.70015068
_symmetry_Int_Tables_number   1
_chemical_formula_structural   BaZnBiF7
_chemical_formula_sum   'Ba4 Zn4 Bi4 F28'
_cell_volume   615.61313672
_cell_formula_units_Z   4
loop_
 _symmetry_equiv_pos_site_id
 _symmetry_equiv_pos_as_xyz
  1  'x, y, z'
loop_
 _atom_site_type_symbol
 _atom_site_label
 _atom_site_symmetry_multiplicity
 _atom_site_fract_x
 _atom_site_fract_y
 _atom_site_fract_z
 _atom_site_occupancy
  Ba  Ba0  1  0.25052062  0.49108060  0.33083090  1
  Ba  Ba1  1  0.74947938  0.00891940  0.83083090  1
  Ba  Ba2  1  0.74947938  0.50891940  0.66916910  1
  Ba  Ba3  1  0.25052062  0.99108060  0.16916910  1
  Zn  Zn4  1  0.69943825  0.79970560  0.37451403  1
  Zn  Zn5  1  0.30056175  0.70029440  0.87451403  1
  Zn  Zn6  1  0.69943825  0.29970560  0.12548597  1
  Zn  Zn7  1  0.30056175  0.20029440  0.62548597  1
  Bi  Bi8  1  0.22692024  0.83249526  0.58311090  1
  Bi  Bi9  1  0.77307976  0.16750474  0.41688910  1
  Bi  Bi10  1  0.22692024  0.33249526  0.91688910  1
  Bi  Bi11  1  0.77307976  0.66750474  0.08311090  1
  F  F12  1  0.13912244  0.12101592  0.47292277  1
  F  F13  1  0.39683228  0.41077297  0.10201784  1
  F  F14  1  0.50625689  0.77335398  0.72548346  1
  F  F15  1  0.49374311  0.22664602  0.27451654  1
  F  F16  1  0.92394684  0.36937021  0.46891485  1
  F  F17  1  0.19740261  0.51978362  0.78705803  1
  F  F18  1  0.03188250  0.77188461  0.76804814  1
  F  F19  1  0.07605316  0.13062979  0.96891485  1
  F  F20  1  0.39683228  0.91077297  0.39798216  1
  F  F21  1  0.49374311  0.72664602  0.22548346  1
  F  F22  1  0.13912244  0.62101592  0.02707723  1
  F  F23  1  0.86087756  0.87898408  0.52707723  1
  F  F24  1  0.96811750  0.72811539  0.26804814  1
  F  F25  1  0.45615491  0.84583327  0.97787010  1
  F  F26  1  0.07605316  0.63062979  0.53108515  1
  F  F27  1  0.92394684  0.86937021  0.03108515  1
  F  F28  1  0.96811750  0.22811539  0.23195186  1
  F  F29  1  0.86087756  0.37898408  0.97292277  1
  F  F30  1  0.54384509  0.65416673  0.47787010  1
  F  F31  1  0.60316772  0.58922703  0.89798216  1
  F  F32  1  0.54384509  0.15416673  0.02212990  1
  F  F33  1  0.03188250  0.27188461  0.73195186  1
  F  F34  1  0.45615491  0.34583327  0.52212990  1
  F  F35  1  0.80259739  0.98021638  0.28705803  1
  F  F36  1  0.80259739  0.48021638  0.21294197  1
  F  F37  1  0.19740261  0.01978362  0.71294197  1
  F  F38  1  0.60316772  0.08922703  0.60201784  1
  F  F39  1  0.50625689  0.27335398  0.77451654  1
