# generated using pymatgen
data_ZnBiSbO5
_symmetry_space_group_name_H-M   'P 1'
_cell_length_a   5.43404821
_cell_length_b   8.04703253
_cell_length_c   12.16763671
_cell_angle_alpha   90.00000000
_cell_angle_beta   90.00000000
_cell_angle_gamma   106.88091611
_symmetry_Int_Tables_number   1
_chemical_formula_structural   ZnBiSbO5
_chemical_formula_sum   'Zn4 Bi4 Sb4 O20'
_cell_volume   509.13943160
_cell_formula_units_Z   4
loop_
 _symmetry_equiv_pos_site_id
 _symmetry_equiv_pos_as_xyz
  1  'x, y, z'
loop_
 _atom_site_type_symbol
 _atom_site_label
 _atom_site_symmetry_multiplicity
 _atom_site_fract_x
 _atom_site_fract_y
 _atom_site_fract_z
 _atom_site_occupancy
  Zn  Zn0  1  0.61663425  0.17013457  0.91937894  1
  Zn  Zn1  1  0.38336575  0.82986543  0.08062106  1
  Zn  Zn2  1  0.88336575  0.32986543  0.41937894  1
  Zn  Zn3  1  0.11663425  0.67013457  0.58062106  1
  Bi  Bi4  1  0.10845451  0.16553333  0.09696603  1
  Bi  Bi5  1  0.89154549  0.83446667  0.90303397  1
  Bi  Bi6  1  0.60845451  0.66553333  0.40303397  1
  Bi  Bi7  1  0.39154549  0.33446667  0.59696603  1
  Sb  Sb8  1  0.78847364  0.96533323  0.64371691  1
  Sb  Sb9  1  0.21152636  0.03466677  0.35628309  1
  Sb  Sb10  1  0.71152636  0.53466677  0.14371691  1
  Sb  Sb11  1  0.28847364  0.46533323  0.85628309  1
  O  O12  1  0.55148667  0.32278234  0.06755276  1
  O  O13  1  0.01570679  0.31874082  0.94135081  1
  O  O14  1  0.46816303  0.65484135  0.18246988  1
  O  O15  1  0.75758277  0.51445781  0.52179425  1
  O  O16  1  0.79586680  0.48759986  0.29245904  1
  O  O17  1  0.29586680  0.98759986  0.20754096  1
  O  O18  1  0.51570679  0.81874082  0.55864919  1
  O  O19  1  0.48429321  0.18125918  0.44135081  1
  O  O20  1  0.24241723  0.48554219  0.47820575  1
  O  O21  1  0.94851333  0.17721766  0.56755276  1
  O  O22  1  0.20413320  0.51240014  0.70754096  1
  O  O23  1  0.44851333  0.67721766  0.93244724  1
  O  O24  1  0.05148667  0.82278234  0.43244724  1
  O  O25  1  0.70413320  0.01240014  0.79245904  1
  O  O26  1  0.74241723  0.98554219  0.02179425  1
  O  O27  1  0.25758277  0.01445781  0.97820575  1
  O  O28  1  0.53183697  0.34515865  0.81753012  1
  O  O29  1  0.98429321  0.68125918  0.05864919  1
  O  O30  1  0.03183697  0.84515865  0.68246988  1
  O  O31  1  0.96816303  0.15484135  0.31753012  1
