# generated using pymatgen
data_Ca(CoO2)2
_symmetry_space_group_name_H-M   'P 1'
_cell_length_a   6.34708886
_cell_length_b   5.77344603
_cell_length_c   5.78287498
_cell_angle_alpha   89.84089477
_cell_angle_beta   117.57706894
_cell_angle_gamma   117.53580910
_symmetry_Int_Tables_number   1
_chemical_formula_structural   Ca(CoO2)2
_chemical_formula_sum   'Ca2 Co4 O8'
_cell_volume   160.42967964
_cell_formula_units_Z   2
loop_
 _symmetry_equiv_pos_site_id
 _symmetry_equiv_pos_as_xyz
  1  'x, y, z'
loop_
 _atom_site_type_symbol
 _atom_site_label
 _atom_site_symmetry_multiplicity
 _atom_site_fract_x
 _atom_site_fract_y
 _atom_site_fract_z
 _atom_site_occupancy
  Ca  Ca0  1  0.24966012  0.12392426  0.87348417  1
  Ca  Ca1  1  0.75034562  0.87607486  0.12649727  1
  Co  Co2  1  0.50000327  0.00000286  0.50006920  1
  Co  Co3  1  0.49999783  0.49996147  0.49991634  1
  Co  Co4  1  0.00001298  0.49994876  0.00002180  1
  Co  Co5  1  0.00000467  0.50007134  0.50001460  1
  O  O6  1  0.14551160  0.84650490  0.18357383  1
  O  O7  1  0.35591025  0.81744136  0.69948483  1
  O  O8  1  0.35389404  0.54044110  0.15449623  1
  O  O9  1  0.85546272  0.70028111  0.53665845  1
  O  O10  1  0.64609993  0.45945898  0.84535537  1
  O  O11  1  0.64407986  0.18264884  0.30065898  1
  O  O12  1  0.14452712  0.29986233  0.46325763  1
  O  O13  1  0.85448999  0.15337784  0.81651029  1
