# generated using pymatgen
data_Ba2MgCr2CuF14
_symmetry_space_group_name_H-M   'P 1'
_cell_length_a   5.24402889
_cell_length_b   7.45361064
_cell_length_c   14.60776755
_cell_angle_alpha   91.72845075
_cell_angle_beta   89.98393624
_cell_angle_gamma   110.57256807
_symmetry_Int_Tables_number   1
_chemical_formula_structural   Ba2MgCr2CuF14
_chemical_formula_sum   'Ba4 Mg2 Cr4 Cu2 F28'
_cell_volume   534.28520598
_cell_formula_units_Z   2
loop_
 _symmetry_equiv_pos_site_id
 _symmetry_equiv_pos_as_xyz
  1  'x, y, z'
loop_
 _atom_site_type_symbol
 _atom_site_label
 _atom_site_symmetry_multiplicity
 _atom_site_fract_x
 _atom_site_fract_y
 _atom_site_fract_z
 _atom_site_occupancy
  Ba  Ba0  1  0.11213455  0.37373742  0.62330686  1
  Ba  Ba1  1  0.26284640  0.37261561  0.12366001  1
  Ba  Ba2  1  0.89141301  0.62711589  0.37678099  1
  Ba  Ba3  1  0.73780668  0.62766824  0.87654408  1
  Mg  Mg4  1  0.43308299  0.00259516  0.74987266  1
  Mg  Mg5  1  0.56916207  0.99991330  0.25027299  1
  Cr  Cr6  1  0.09910184  0.23844498  0.87309735  1
  Cr  Cr7  1  0.90195694  0.76200136  0.12697834  1
  Cr  Cr8  1  0.13993974  0.23763391  0.37329857  1
  Cr  Cr9  1  0.86153429  0.76230354  0.62657725  1
  Cu  Cu10  1  0.50011639  0.00002733  0.99978190  1
  Cu  Cu11  1  0.50127565  0.00081584  0.50024818  1
  F  F12  1  0.89173745  0.98441146  0.33923405  1
  F  F13  1  0.86957899  0.27743086  0.45497827  1
  F  F14  1  0.13397825  0.72374511  0.54525774  1
  F  F15  1  0.65057250  0.49901212  0.59654965  1
  F  F16  1  0.60941336  0.09742079  0.62305599  1
  F  F17  1  0.51082705  0.90468201  0.87670312  1
  F  F18  1  0.40916293  0.27740490  0.95474617  1
  F  F19  1  0.90738641  0.01487161  0.16205830  1
  F  F20  1  0.36247110  0.32281705  0.77510315  1
  F  F21  1  0.35155014  0.50166490  0.40155044  1
  F  F22  1  0.80146263  0.22251316  0.78875740  1
  F  F23  1  0.15342600  0.50281352  0.90148904  1
  F  F24  1  0.41978840  0.22023275  0.28832211  1
  F  F25  1  0.20030301  0.77791935  0.21129181  1
  F  F26  1  0.48952967  0.09541530  0.12280671  1
  F  F27  1  0.63955997  0.67520213  0.22489195  1
  F  F28  1  0.12201491  0.83526259  0.01623048  1
  F  F29  1  0.11031429  0.01489601  0.66148765  1
  F  F30  1  0.87762273  0.16639054  0.98351645  1
  F  F31  1  0.71507371  0.83653414  0.51618654  1
  F  F32  1  0.59128799  0.72385699  0.04560673  1
  F  F33  1  0.57939369  0.77912872  0.71080122  1
  F  F34  1  0.96124274  0.32282193  0.27554685  1
  F  F35  1  0.28964443  0.16642996  0.48389076  1
  F  F36  1  0.39332523  0.90478095  0.37730880  1
  F  F37  1  0.09248644  0.98506231  0.83860823  1
  F  F38  1  0.03558194  0.67410315  0.72440283  1
  F  F39  1  0.84862648  0.49818910  0.09756640  1
