# generated using pymatgen
data_Ca3(TiS2)8
_symmetry_space_group_name_H-M   'P 1'
_cell_length_a   6.90069771
_cell_length_b   6.98305343
_cell_length_c   13.59703325
_cell_angle_alpha   90.00000048
_cell_angle_beta   89.43279103
_cell_angle_gamma   120.39558185
_symmetry_Int_Tables_number   1
_chemical_formula_structural   Ca3(TiS2)8
_chemical_formula_sum   'Ca3 Ti8 S16'
_cell_volume   565.11854050
_cell_formula_units_Z   1
loop_
 _symmetry_equiv_pos_site_id
 _symmetry_equiv_pos_as_xyz
  1  'x, y, z'
loop_
 _atom_site_type_symbol
 _atom_site_label
 _atom_site_symmetry_multiplicity
 _atom_site_fract_x
 _atom_site_fract_y
 _atom_site_fract_z
 _atom_site_occupancy
  Ca  Ca0  1  -0.00000000  0.50000000  0.75000000  1
  Ca  Ca1  1  0.50000000  -0.00000000  0.25000000  1
  Ca  Ca2  1  0.50000000  0.50000000  0.25000000  1
  Ti  Ti3  1  0.01076404  0.00538202  0.99798527  1
  Ti  Ti4  1  0.98923596  0.99461798  0.50201473  1
  Ti  Ti5  1  0.00665264  0.50332582  0.00238165  1
  Ti  Ti6  1  0.99334736  0.49667418  0.49761835  1
  Ti  Ti7  1  0.49086760  0.00043444  0.99551018  1
  Ti  Ti8  1  0.50913240  0.99956556  0.50448982  1
  Ti  Ti9  1  0.49086760  0.49043316  0.99551018  1
  Ti  Ti10  1  0.50913240  0.50956684  0.50448982  1
  S  S11  1  0.33781775  0.16890987  0.39565519  1
  S  S12  1  0.33574728  0.16787414  0.89092974  1
  S  S13  1  0.33706830  0.66853465  0.39308481  1
  S  S14  1  0.33814423  0.66907311  0.89210928  1
  S  S15  1  0.83801790  0.16772209  0.39295984  1
  S  S16  1  0.83626007  0.16751958  0.89565970  1
  S  S17  1  0.83801790  0.67029681  0.39295984  1
  S  S18  1  0.83626007  0.66874149  0.89565970  1
  S  S19  1  0.16198210  0.32970319  0.10704016  1
  S  S20  1  0.16373993  0.33125851  0.60434030  1
  S  S21  1  0.16198210  0.83227791  0.10704016  1
  S  S22  1  0.16373993  0.83248042  0.60434030  1
  S  S23  1  0.66293170  0.33146535  0.10691519  1
  S  S24  1  0.66185577  0.33092689  0.60789072  1
  S  S25  1  0.66218225  0.83109013  0.10434481  1
  S  S26  1  0.66425272  0.83212586  0.60907026  1
