# generated using pymatgen
data_Mg2Ta2CrO8
_symmetry_space_group_name_H-M   'P 1'
_cell_length_a   5.22839195
_cell_length_b   6.05711825
_cell_length_c   10.14367957
_cell_angle_alpha   107.03539553
_cell_angle_beta   91.58847838
_cell_angle_gamma   90.16435615
_symmetry_Int_Tables_number   1
_chemical_formula_structural   Mg2Ta2CrO8
_chemical_formula_sum   'Mg4 Ta4 Cr2 O16'
_cell_volume   307.00699629
_cell_formula_units_Z   2
loop_
 _symmetry_equiv_pos_site_id
 _symmetry_equiv_pos_as_xyz
  1  'x, y, z'
loop_
 _atom_site_type_symbol
 _atom_site_label
 _atom_site_symmetry_multiplicity
 _atom_site_fract_x
 _atom_site_fract_y
 _atom_site_fract_z
 _atom_site_occupancy
  Mg  Mg0  1  0.75619977  0.41867123  0.54646547  1
  Mg  Mg1  1  0.74383045  0.87075462  0.45198902  1
  Mg  Mg2  1  0.24422697  0.58242332  0.45147101  1
  Mg  Mg3  1  0.25650149  0.13045379  0.54566363  1
  Ta  Ta4  1  0.73584214  0.27976275  0.23644034  1
  Ta  Ta5  1  0.76537115  0.04219302  0.76187639  1
  Ta  Ta6  1  0.26468075  0.72031139  0.76187847  1
  Ta  Ta7  1  0.23526389  0.96003378  0.23625370  1
  Cr  Cr8  1  0.74740791  0.65361368  0.99945262  1
  Cr  Cr9  1  0.24743092  0.34795233  0.99973414  1
  O  O10  1  0.06555947  0.18874975  0.14781037  1
  O  O11  1  0.43706975  0.03195759  0.84895578  1
  O  O12  1  0.93600440  0.81485777  0.84934264  1
  O  O13  1  0.56467426  0.96535209  0.14842255  1
  O  O14  1  0.57829418  0.42277292  0.11809155  1
  O  O15  1  0.91755001  0.30517541  0.88054203  1
  O  O16  1  0.41542983  0.57399208  0.88135286  1
  O  O17  1  0.07597058  0.70117421  0.11873843  1
  O  O18  1  0.44850933  0.29099780  0.37304506  1
  O  O19  1  0.05127485  0.91753989  0.62490902  1
  O  O20  1  0.37296088  0.84008616  0.38388946  1
  O  O21  1  0.12668076  0.45447377  0.61385873  1
  O  O22  1  0.62673346  0.16084377  0.61376241  1
  O  O23  1  0.87311819  0.54655784  0.38384425  1
  O  O24  1  0.94855400  0.08471316  0.37270928  1
  O  O25  1  0.55107658  0.70867287  0.62454678  1
