# generated using pymatgen
data_CaCr2(PO5)2
_symmetry_space_group_name_H-M   'P 1'
_cell_length_a   6.86859727
_cell_length_b   6.86859684
_cell_length_c   8.76764956
_cell_angle_alpha   102.61607057
_cell_angle_beta   102.61606856
_cell_angle_gamma   116.25640403
_symmetry_Int_Tables_number   1
_chemical_formula_structural   CaCr2(PO5)2
_chemical_formula_sum   'Ca2 Cr4 P4 O20'
_cell_volume   337.73418418
_cell_formula_units_Z   2
loop_
 _symmetry_equiv_pos_site_id
 _symmetry_equiv_pos_as_xyz
  1  'x, y, z'
loop_
 _atom_site_type_symbol
 _atom_site_label
 _atom_site_symmetry_multiplicity
 _atom_site_fract_x
 _atom_site_fract_y
 _atom_site_fract_z
 _atom_site_occupancy
  Ca  Ca0  1  0.49625372  0.99625372  0.50000000  1
  Ca  Ca1  1  0.24625372  0.24625372  1.00000000  1
  Cr  Cr2  1  0.87169525  0.61928485  0.25090842  1
  Cr  Cr3  1  0.36837643  0.62078583  0.74909158  1
  Cr  Cr4  1  0.87078583  0.11837643  0.24909158  1
  Cr  Cr5  1  0.86928485  0.62169525  0.75090842  1
  P  P6  1  0.03717844  0.03697239  0.58404547  1
  P  P7  1  0.70313297  0.20292691  0.91595453  1
  P  P8  1  0.45292691  0.45313297  0.41595453  1
  P  P9  1  0.28697239  0.78717844  0.08404547  1
  O  O10  1  0.57584872  0.55322689  0.30039394  1
  O  O11  1  0.65739513  0.66023423  0.82785284  1
  O  O12  1  0.32076975  0.60645451  0.96919563  1
  O  O13  1  0.80322689  0.32584872  0.80039394  1
  O  O14  1  0.21591048  0.23590340  0.29902028  1
  O  O15  1  0.41575550  0.63298058  0.52864926  1
  O  O16  1  0.07954229  0.58238138  0.67214716  1
  O  O17  1  0.83238138  0.82954229  0.17214716  1
  O  O18  1  0.91023423  0.40739513  0.32785284  1
  O  O19  1  0.16689020  0.68688313  0.20097972  1
  O  O20  1  0.25283295  0.27545578  0.69960606  1
  O  O21  1  0.48590340  0.96591048  0.79902028  1
  O  O22  1  0.93688313  0.91689020  0.70097972  1
  O  O23  1  0.13710724  0.85433232  0.97135074  1
  O  O24  1  0.10433232  0.88710724  0.47135074  1
  O  O25  1  0.88298058  0.16575550  0.02864926  1
  O  O26  1  0.85645451  0.07076975  0.46919563  1
  O  O27  1  0.63725989  0.35157412  0.03080437  1
  O  O28  1  0.52545578  0.00283295  0.19960606  1
  O  O29  1  0.60157412  0.38725989  0.53080437  1
