# generated using pymatgen
data_Ba2MgMn2CuF14
_symmetry_space_group_name_H-M   'P 1'
_cell_length_a   5.33150906
_cell_length_b   7.47547499
_cell_length_c   14.83557641
_cell_angle_alpha   93.59853005
_cell_angle_beta   89.92608677
_cell_angle_gamma   110.86271575
_symmetry_Int_Tables_number   1
_chemical_formula_structural   Ba2MgMn2CuF14
_chemical_formula_sum   'Ba4 Mg2 Mn4 Cu2 F28'
_cell_volume   551.28377358
_cell_formula_units_Z   2
loop_
 _symmetry_equiv_pos_site_id
 _symmetry_equiv_pos_as_xyz
  1  'x, y, z'
loop_
 _atom_site_type_symbol
 _atom_site_label
 _atom_site_symmetry_multiplicity
 _atom_site_fract_x
 _atom_site_fract_y
 _atom_site_fract_z
 _atom_site_occupancy
  Ba  Ba0  1  0.11084490  0.37025671  0.62677637  1
  Ba  Ba1  1  0.26031424  0.36884141  0.12661719  1
  Ba  Ba2  1  0.89118512  0.63178317  0.37355653  1
  Ba  Ba3  1  0.74141268  0.63180606  0.87317057  1
  Mg  Mg4  1  0.43639695  0.00491629  0.74982652  1
  Mg  Mg5  1  0.56561659  0.00052546  0.24993410  1
  Mn  Mn6  1  0.09916564  0.23825236  0.87364028  1
  Mn  Mn7  1  0.90302912  0.76161590  0.12649451  1
  Mn  Mn8  1  0.14178022  0.23947973  0.37350901  1
  Mn  Mn9  1  0.85992481  0.76280894  0.62648715  1
  Cu  Cu10  1  0.50070272  -0.00001604  0.99991104  1
  Cu  Cu11  1  0.50142135  0.00152701  0.49975573  1
  F  F12  1  0.90065730  0.99418489  0.33800174  1
  F  F13  1  0.88016188  0.28452516  0.45413029  1
  F  F14  1  0.12123714  0.71836697  0.54584529  1
  F  F15  1  0.64829256  0.50721824  0.59727028  1
  F  F16  1  0.60364004  0.09659522  0.62464944  1
  F  F17  1  0.51065202  0.90786936  0.87450179  1
  F  F18  1  0.40351882  0.28361915  0.95407832  1
  F  F19  1  0.90540445  0.00670882  0.16261210  1
  F  F20  1  0.38367743  0.32101940  0.77066379  1
  F  F21  1  0.35231045  0.49524814  0.40243335  1
  F  F22  1  0.81354287  0.21794647  0.78893974  1
  F  F23  1  0.14500497  0.49490279  0.90071950  1
  F  F24  1  0.41115804  0.21889339  0.28984300  1
  F  F25  1  0.19135424  0.78252740  0.21050907  1
  F  F26  1  0.49094269  0.09332173  0.12518067  1
  F  F27  1  0.62098213  0.67420923  0.22921412  1
  F  F28  1  0.12901385  0.83922436  0.01020011  1
  F  F29  1  0.10208079  0.00800769  0.66216027  1
  F  F30  1  0.87229606  0.16063936  0.98994930  1
  F  F31  1  0.71316700  0.84261862  0.51066923  1
  F  F32  1  0.59782283  0.71656523  0.04608213  1
  F  F33  1  0.59136442  0.78427066  0.70994005  1
  F  F34  1  0.94833051  0.32613232  0.27124509  1
  F  F35  1  0.28890120  0.16056449  0.48881564  1
  F  F36  1  0.39889492  0.90652272  0.37450603  1
  F  F37  1  0.09454114  0.99227269  0.83809157  1
  F  F38  1  0.05243207  0.67412569  0.72854140  1
  F  F39  1  0.85825784  0.50563778  0.09818371  1
