# generated using pymatgen
data_Ta2VZn2O8
_symmetry_space_group_name_H-M   'P 1'
_cell_length_a   5.33963593
_cell_length_b   5.95757766
_cell_length_c   10.21644638
_cell_angle_alpha   106.92391582
_cell_angle_beta   90.04143937
_cell_angle_gamma   90.00163155
_symmetry_Int_Tables_number   1
_chemical_formula_structural   Ta2VZn2O8
_chemical_formula_sum   'Ta4 V2 Zn4 O16'
_cell_volume   310.92332681
_cell_formula_units_Z   2
loop_
 _symmetry_equiv_pos_site_id
 _symmetry_equiv_pos_as_xyz
  1  'x, y, z'
loop_
 _atom_site_type_symbol
 _atom_site_label
 _atom_site_symmetry_multiplicity
 _atom_site_fract_x
 _atom_site_fract_y
 _atom_site_fract_z
 _atom_site_occupancy
  Ta  Ta0  1  0.73092612  0.26912992  0.23096238  1
  Ta  Ta1  1  0.76713753  0.03821536  0.76781164  1
  Ta  Ta2  1  0.26712516  0.72736276  0.76757953  1
  Ta  Ta3  1  0.23090584  0.95895762  0.23098495  1
  V  V4  1  0.74951008  0.64482696  0.99929002  1
  V  V5  1  0.24958165  0.35242918  0.99925802  1
  Zn  Zn6  1  0.77066361  0.43439972  0.56443944  1
  Zn  Zn7  1  0.72643813  0.86905997  0.43474456  1
  Zn  Zn8  1  0.22631778  0.56197770  0.43428631  1
  Zn  Zn9  1  0.27076398  0.12718004  0.56410585  1
  O  O10  1  0.06556277  0.18368827  0.14123660  1
  O  O11  1  0.43270436  0.04167399  0.85752870  1
  O  O12  1  0.93293563  0.81422225  0.85777799  1
  O  O13  1  0.56533166  0.95540586  0.14090762  1
  O  O14  1  0.59631315  0.43138022  0.11783214  1
  O  O15  1  0.90299107  0.31311916  0.88054745  1
  O  O16  1  0.40305827  0.56572616  0.88063478  1
  O  O17  1  0.09629632  0.68414042  0.11756988  1
  O  O18  1  0.42836191  0.28007184  0.35317227  1
  O  O19  1  0.06894427  0.92634685  0.64530615  1
  O  O20  1  0.35601784  0.84235832  0.38784481  1
  O  O21  1  0.14138152  0.45416200  0.61092973  1
  O  O22  1  0.64127445  0.15404854  0.61075434  1
  O  O23  1  0.85583836  0.54207760  0.38812791  1
  O  O24  1  0.92821868  0.06928702  0.35287224  1
  O  O25  1  0.56925689  0.71671926  0.64547367  1
