# generated using pymatgen
data_Ba2YTi3O8
_symmetry_space_group_name_H-M   'P 1'
_cell_length_a   3.99251381
_cell_length_b   3.99250263
_cell_length_c   11.58482379
_cell_angle_alpha   89.99998729
_cell_angle_beta   89.99996064
_cell_angle_gamma   90.00726180
_symmetry_Int_Tables_number   1
_chemical_formula_structural   Ba2YTi3O8
_chemical_formula_sum   'Ba2 Y1 Ti3 O8'
_cell_volume   184.66350158
_cell_formula_units_Z   1
loop_
 _symmetry_equiv_pos_site_id
 _symmetry_equiv_pos_as_xyz
  1  'x, y, z'
loop_
 _atom_site_type_symbol
 _atom_site_label
 _atom_site_symmetry_multiplicity
 _atom_site_fract_x
 _atom_site_fract_y
 _atom_site_fract_z
 _atom_site_occupancy
  Ba  Ba0  1  0.50000156  0.49999947  0.16993963  1
  Ba  Ba1  1  0.50000240  0.49999701  0.83007562  1
  Y  Y2  1  0.49999961  0.50000241  0.49998285  1
  Ti  Ti3  1  0.99999864  0.00000198  0.35217915  1
  Ti  Ti4  1  0.00000092  0.99999964  0.00001701  1
  Ti  Ti5  1  0.99999919  0.99999956  0.64783063  1
  O  O6  1  0.00000280  0.50000005  0.37216650  1
  O  O7  1  0.50000019  0.00000154  0.37216728  1
  O  O8  1  0.50000099  0.99999961  0.99999856  1
  O  O9  1  0.99999937  0.99999938  0.18354590  1
  O  O10  1  0.99999949  0.49999979  0.62782562  1
  O  O11  1  0.49999661  0.00000146  0.62782579  1
  O  O12  1  0.99999594  0.99999969  0.81644893  1
  O  O13  1  0.00000229  0.49999941  0.99999853  1
