# generated using pymatgen
data_Sb(PO3)4
_symmetry_space_group_name_H-M   'P 1'
_cell_length_a   7.43561404
_cell_length_b   7.93687558
_cell_length_c   10.03217450
_cell_angle_alpha   84.82248622
_cell_angle_beta   70.92762248
_cell_angle_gamma   113.02695797
_symmetry_Int_Tables_number   1
_chemical_formula_structural   Sb(PO3)4
_chemical_formula_sum   'Sb2 P8 O24'
_cell_volume   498.52387444
_cell_formula_units_Z   2
loop_
 _symmetry_equiv_pos_site_id
 _symmetry_equiv_pos_as_xyz
  1  'x, y, z'
loop_
 _atom_site_type_symbol
 _atom_site_label
 _atom_site_symmetry_multiplicity
 _atom_site_fract_x
 _atom_site_fract_y
 _atom_site_fract_z
 _atom_site_occupancy
  Sb  Sb0  1  0.99999869  0.00000084  0.49999800  1
  Sb  Sb1  1  0.00000315  0.50000059  0.99999979  1
  P  P2  1  0.27872588  0.26767810  0.96635092  1
  P  P3  1  0.73134416  0.26925737  0.52276646  1
  P  P4  1  0.99048697  0.64910700  0.31543403  1
  P  P5  1  0.26865090  0.73074312  0.47723467  1
  P  P6  1  0.72128127  0.73232239  0.03364639  1
  P  P7  1  0.48753417  0.31981860  0.18188931  1
  P  P8  1  0.51247257  0.68018126  0.81810779  1
  P  P9  1  0.00950617  0.35089030  0.68456818  1
  O  O10  1  0.47179756  0.46567401  0.85054441  1
  O  O11  1  0.95581262  0.36971569  0.84400783  1
  O  O12  1  0.04418547  0.63027929  0.15599489  1
  O  O13  1  0.11363357  0.33107165  0.06238898  1
  O  O14  1  0.10650049  0.79033103  0.56896510  1
  O  O15  1  0.17816444  0.64237174  0.35354840  1
  O  O16  1  0.03286132  0.17340219  0.66913016  1
  O  O17  1  0.22154893  0.53082532  0.58024890  1
  O  O18  1  0.38921061  0.22867481  0.07179977  1
  O  O19  1  0.49720431  0.85122453  0.40604555  1
  O  O20  1  0.52821087  0.53432517  0.14945056  1
  O  O21  1  0.34045270  0.21904767  0.33501576  1
  O  O22  1  0.29485841  0.68643992  0.86200761  1
  O  O23  1  0.78212493  0.88540559  0.10350037  1
  O  O24  1  0.21787302  0.11459396  0.89650119  1
  O  O25  1  0.89349220  0.20967098  0.43103589  1
  O  O26  1  0.65954992  0.78095531  0.66498058  1
  O  O27  1  0.88637992  0.66893455  0.93760907  1
  O  O28  1  0.50278614  0.14877331  0.59395618  1
  O  O29  1  0.61080230  0.77132624  0.92819380  1
  O  O30  1  0.77844168  0.46917539  0.41975634  1
  O  O31  1  0.96713479  0.82659720  0.33086765  1
  O  O32  1  0.82182617  0.35762513  0.64645543  1
  O  O33  1  0.70514675  0.31355774  0.13799402  1
