# generated using pymatgen
data_Mg2VWO6
_symmetry_space_group_name_H-M   'P 1'
_cell_length_a   5.17568927
_cell_length_b   5.56519678
_cell_length_c   7.64465279
_cell_angle_alpha   95.24818676
_cell_angle_beta   132.95371612
_cell_angle_gamma   117.85242281
_symmetry_Int_Tables_number   1
_chemical_formula_structural   Mg2VWO6
_chemical_formula_sum   'Mg2 V1 W1 O6'
_cell_volume   110.27463390
_cell_formula_units_Z   1
loop_
 _symmetry_equiv_pos_site_id
 _symmetry_equiv_pos_as_xyz
  1  'x, y, z'
loop_
 _atom_site_type_symbol
 _atom_site_label
 _atom_site_symmetry_multiplicity
 _atom_site_fract_x
 _atom_site_fract_y
 _atom_site_fract_z
 _atom_site_occupancy
  Mg  Mg0  1  0.00453844  0.56688345  0.20904076  1
  Mg  Mg1  1  0.98907299  0.55797402  0.69812750  1
  V  V2  1  0.00570592  0.98280331  0.50096693  1
  W  W3  1  0.00291061  0.97720580  0.00106766  1
  O  O4  1  0.72680572  0.80818003  0.10445259  1
  O  O5  1  0.26781327  0.08295846  0.89565913  1
  O  O6  1  0.39448834  0.47326467  0.28183798  1
  O  O7  1  0.33230367  0.80832504  0.61434720  1
  O  O8  1  0.60547723  0.08010787  0.38807559  1
  O  O9  1  0.66581780  0.47151635  0.78023765  1
