# generated using pymatgen
data_Sr7CaTi3Mn5O24
_symmetry_space_group_name_H-M   'P 1'
_cell_length_a   7.80978417
_cell_length_b   7.80978417
_cell_length_c   7.77178553
_cell_angle_alpha   89.99403346
_cell_angle_beta   90.00596654
_cell_angle_gamma   90.00914088
_symmetry_Int_Tables_number   1
_chemical_formula_structural   Sr7CaTi3Mn5O24
_chemical_formula_sum   'Sr7 Ca1 Ti3 Mn5 O24'
_cell_volume   474.02239532
_cell_formula_units_Z   1
loop_
 _symmetry_equiv_pos_site_id
 _symmetry_equiv_pos_as_xyz
  1  'x, y, z'
loop_
 _atom_site_type_symbol
 _atom_site_label
 _atom_site_symmetry_multiplicity
 _atom_site_fract_x
 _atom_site_fract_y
 _atom_site_fract_z
 _atom_site_occupancy
  Sr  Sr0  1  0.24879249  0.24871099  0.24645943  1
  Sr  Sr1  1  0.24881185  0.24880947  0.75349931  1
  Sr  Sr2  1  0.24883315  0.75116685  0.75377421  1
  Sr  Sr3  1  0.75115737  0.24884263  0.24646407  1
  Sr  Sr4  1  0.75115977  0.24884023  0.75345195  1
  Sr  Sr5  1  0.75128901  0.75120751  0.24645943  1
  Sr  Sr6  1  0.75119053  0.75118815  0.75349931  1
  Ca  Ca7  1  0.24856954  0.75143046  0.24571359  1
  Ti  Ti8  1  0.00058784  0.50078985  0.49926226  1
  Ti  Ti9  1  0.49921015  0.99941216  0.49926226  1
  Ti  Ti10  1  0.49943779  0.50056221  0.49920023  1
  Mn  Mn11  1  0.00026587  0.99973413  0.00035348  1
  Mn  Mn12  1  0.00033322  0.99966678  0.49947845  1
  Mn  Mn13  1  0.00050203  0.50055770  0.00032311  1
  Mn  Mn14  1  0.49944230  0.99949797  0.00032311  1
  Mn  Mn15  1  0.49960410  0.50039590  0.00030019  1
  O  O16  1  0.25015221  0.99785251  0.00218726  1
  O  O17  1  0.24725738  0.99836593  0.49840359  1
  O  O18  1  0.24991388  0.50212268  0.00220053  1
  O  O19  1  0.24971338  0.50136323  0.49865486  1
  O  O20  1  0.74984555  0.99977254  0.00016604  1
  O  O21  1  0.75269945  0.99970042  0.49971035  1
  O  O22  1  0.75010422  0.50020405  0.00015590  1
  O  O23  1  0.75033938  0.50033621  0.49965845  1
  O  O24  1  0.00022746  0.25015445  0.00016604  1
  O  O25  1  0.00029958  0.24730055  0.49971035  1
  O  O26  1  0.00214749  0.74984779  0.00218726  1
  O  O27  1  0.00163407  0.75274262  0.49840359  1
  O  O28  1  0.49979595  0.24989578  0.00015590  1
  O  O29  1  0.49966379  0.24966062  0.49965845  1
  O  O30  1  0.49787732  0.75008612  0.00220053  1
  O  O31  1  0.49863677  0.75028662  0.49865486  1
  O  O32  1  0.00229621  0.99770379  0.25074965  1
  O  O33  1  0.00003413  0.99996587  0.74928634  1
  O  O34  1  0.00162495  0.50159433  0.24731356  1
  O  O35  1  0.00030098  0.50028860  0.75265231  1
  O  O36  1  0.49840567  0.99837505  0.24731356  1
  O  O37  1  0.49971140  0.99969902  0.75265231  1
  O  O38  1  0.49840947  0.50159053  0.24718442  1
  O  O39  1  0.49972228  0.50027772  0.75274948  1
