# generated using pymatgen
data_Sr5Ca3Fe7CoO24
_symmetry_space_group_name_H-M   'P 1'
_cell_length_a   7.75407024
_cell_length_b   7.75979404
_cell_length_c   7.75407024
_cell_angle_alpha   90.02932355
_cell_angle_beta   90.05545678
_cell_angle_gamma   90.02932355
_symmetry_Int_Tables_number   1
_chemical_formula_structural   Sr5Ca3Fe7CoO24
_chemical_formula_sum   'Sr5 Ca3 Fe7 Co1 O24'
_cell_volume   466.56197285
_cell_formula_units_Z   1
loop_
 _symmetry_equiv_pos_site_id
 _symmetry_equiv_pos_as_xyz
  1  'x, y, z'
loop_
 _atom_site_type_symbol
 _atom_site_label
 _atom_site_symmetry_multiplicity
 _atom_site_fract_x
 _atom_site_fract_y
 _atom_site_fract_z
 _atom_site_occupancy
  Sr  Sr0  1  0.24908074  0.25061400  0.25105388  1
  Sr  Sr1  1  0.24893078  0.25048848  0.74893078  1
  Sr  Sr2  1  0.75106623  0.25056524  0.25106623  1
  Sr  Sr3  1  0.75105388  0.25061400  0.74908074  1
  Sr  Sr4  1  0.75111479  0.74958074  0.25111479  1
  Ca  Ca5  1  0.24901287  0.74958201  0.25075747  1
  Ca  Ca6  1  0.24897553  0.74968639  0.74897553  1
  Ca  Ca7  1  0.75075747  0.74958201  0.74901287  1
  Fe  Fe8  1  0.00066444  0.99792032  0.99928953  1
  Fe  Fe9  1  0.00064123  0.99728271  0.50064123  1
  Fe  Fe10  1  0.00059315  0.50192131  0.99906424  1
  Fe  Fe11  1  0.49934953  0.99796958  0.99934953  1
  Fe  Fe12  1  0.49928953  0.99792032  0.50066444  1
  Fe  Fe13  1  0.49932593  0.50208437  0.99932593  1
  Fe  Fe14  1  0.49906424  0.50192131  0.50059315  1
  Co  Co15  1  0.00060300  0.50211997  0.50060300  1
  O  O16  1  0.25069351  0.99363600  0.99935824  1
  O  O17  1  0.24951185  0.99355499  0.50037788  1
  O  O18  1  0.24892260  0.50607857  0.99923879  1
  O  O19  1  0.24191221  0.50598900  0.50020089  1
  O  O20  1  0.74929987  0.99597674  0.99709584  1
  O  O21  1  0.75047689  0.99597461  0.50309341  1
  O  O22  1  0.75105801  0.50421691  0.99715850  1
  O  O23  1  0.75804170  0.50470856  0.50378827  1
  O  O24  1  0.00069372  0.25081536  0.99957107  1
  O  O25  1  0.00094247  0.25562399  0.50094247  1
  O  O26  1  0.00258163  0.74916647  0.99700505  1
  O  O27  1  0.00280921  0.74425748  0.50280921  1
  O  O28  1  0.49952553  0.24948288  0.99952553  1
  O  O29  1  0.49957107  0.25081536  0.50069372  1
  O  O30  1  0.49711952  0.75054847  0.99711952  1
  O  O31  1  0.49700505  0.74916647  0.50258163  1
  O  O32  1  0.00309341  0.99597461  0.25047689  1
  O  O33  1  0.00037788  0.99355499  0.74951185  1
  O  O34  1  0.00378827  0.50470856  0.25804170  1
  O  O35  1  0.00020089  0.50598900  0.74191221  1
  O  O36  1  0.49709584  0.99597674  0.24929987  1
  O  O37  1  0.49935824  0.99363600  0.75069351  1
  O  O38  1  0.49715850  0.50421691  0.25105801  1
  O  O39  1  0.49923879  0.50607857  0.74892260  1
