# generated using pymatgen
data_Pr3Al
_symmetry_space_group_name_H-M   'P 1'
_cell_length_a   5.47255243
_cell_length_b   7.16011356
_cell_length_c   7.16011356
_cell_angle_alpha   120.00627075
_cell_angle_beta   90.00000000
_cell_angle_gamma   90.00000000
_symmetry_Int_Tables_number   1
_chemical_formula_structural   Pr3Al
_chemical_formula_sum   'Pr6 Al2'
_cell_volume   242.95897009
_cell_formula_units_Z   2
loop_
 _symmetry_equiv_pos_site_id
 _symmetry_equiv_pos_as_xyz
  1  'x, y, z'
loop_
 _atom_site_type_symbol
 _atom_site_label
 _atom_site_symmetry_multiplicity
 _atom_site_fract_x
 _atom_site_fract_y
 _atom_site_fract_z
 _atom_site_occupancy
  Pr  Pr0  1  0.75000000  0.17830591  0.35662540  1
  Pr  Pr1  1  0.75000000  0.17832710  0.82167290  1
  Pr  Pr2  1  0.75000000  0.64337460  0.82169409  1
  Pr  Pr3  1  0.25000000  0.82169409  0.64337460  1
  Pr  Pr4  1  0.25000000  0.82167290  0.17832710  1
  Pr  Pr5  1  0.25000000  0.35662540  0.17830591  1
  Al  Al6  1  0.75000000  0.66668128  0.33331872  1
  Al  Al7  1  0.25000000  0.33331872  0.66668128  1
