# generated using pymatgen
data_PrGaCo
_symmetry_space_group_name_H-M   'P 1'
_cell_length_a   4.19954626
_cell_length_b   8.21395538
_cell_length_c   7.79588164
_cell_angle_alpha   90.02044360
_cell_angle_beta   90.00016622
_cell_angle_gamma   89.99940426
_symmetry_Int_Tables_number   1
_chemical_formula_structural   PrGaCo
_chemical_formula_sum   'Pr4 Ga4 Co4'
_cell_volume   268.91802815
_cell_formula_units_Z   4
loop_
 _symmetry_equiv_pos_site_id
 _symmetry_equiv_pos_as_xyz
  1  'x, y, z'
loop_
 _atom_site_type_symbol
 _atom_site_label
 _atom_site_symmetry_multiplicity
 _atom_site_fract_x
 _atom_site_fract_y
 _atom_site_fract_z
 _atom_site_occupancy
  Pr  Pr0  1  0.25000198  0.71538333  0.42498107  1
  Pr  Pr1  1  0.25006027  0.21559695  0.07496396  1
  Pr  Pr2  1  0.74999069  0.78430906  0.92500278  1
  Pr  Pr3  1  0.75002674  0.28467056  0.57495574  1
  Ga  Ga4  1  0.75000047  0.00103800  0.27285366  1
  Ga  Ga5  1  0.24997267  0.99897241  0.72717184  1
  Ga  Ga6  1  0.74998621  0.50096066  0.22727448  1
  Ga  Ga7  1  0.25000943  0.49902394  0.77272414  1
  Co  Co8  1  0.74994803  0.45578234  0.92377743  1
  Co  Co9  1  0.24993589  0.04417270  0.42367457  1
  Co  Co10  1  0.25004038  0.54418264  0.07628315  1
  Co  Co11  1  0.75002823  0.95590643  0.57633816  1
