# generated using pymatgen
data_Mn2B4W
_symmetry_space_group_name_H-M   'P 1'
_cell_length_a   3.02242277
_cell_length_b   3.09520628
_cell_length_c   6.79107179
_cell_angle_alpha   103.17275586
_cell_angle_beta   102.85762525
_cell_angle_gamma   90.00000000
_symmetry_Int_Tables_number   1
_chemical_formula_structural   Mn2B4W
_chemical_formula_sum   'Mn2 B4 W1'
_cell_volume   60.22180166
_cell_formula_units_Z   1
loop_
 _symmetry_equiv_pos_site_id
 _symmetry_equiv_pos_as_xyz
  1  'x, y, z'
loop_
 _atom_site_type_symbol
 _atom_site_label
 _atom_site_symmetry_multiplicity
 _atom_site_fract_x
 _atom_site_fract_y
 _atom_site_fract_z
 _atom_site_occupancy
  Mn  Mn0  1  0.18636813  0.18636813  0.37273625  1
  Mn  Mn1  1  0.81363187  0.81363187  0.62726375  1
  B  B2  1  0.35198885  0.35198885  0.70397770  1
  B  B3  1  0.64801115  0.64801115  0.29602230  1
  B  B4  1  0.92756082  0.42756082  0.85512165  1
  B  B5  1  0.07243918  0.57243918  0.14487835  1
  W  W6  1  0.50000000  0.00000000  -0.00000000  1
