# generated using pymatgen
data_Mo3W(SeS)4
_symmetry_space_group_name_H-M   'P 1'
_cell_length_a   3.25814141
_cell_length_b   3.25815300
_cell_length_c   36.46915215
_cell_angle_alpha   89.99984930
_cell_angle_beta   90.00000556
_cell_angle_gamma   119.99987866
_symmetry_Int_Tables_number   1
_chemical_formula_structural   Mo3W(SeS)4
_chemical_formula_sum   'Mo3 W1 Se4 S4'
_cell_volume   335.27273255
_cell_formula_units_Z   1
loop_
 _symmetry_equiv_pos_site_id
 _symmetry_equiv_pos_as_xyz
  1  'x, y, z'
loop_
 _atom_site_type_symbol
 _atom_site_label
 _atom_site_symmetry_multiplicity
 _atom_site_fract_x
 _atom_site_fract_y
 _atom_site_fract_z
 _atom_site_occupancy
  Mo  Mo0  1  0.33330787  0.66661525  0.09391784  1
  Mo  Mo1  1  0.66669024  0.33338074  0.28179029  1
  Mo  Mo2  1  0.66669114  0.33338254  0.65757069  1
  W  W3  1  0.33331055  0.66662071  0.46963190  1
  Se  Se4  1  0.33335562  0.66671205  0.70408583  1
  Se  Se5  1  0.66664968  0.33329872  0.42283839  1
  Se  Se6  1  0.66664036  0.33327993  0.51643948  1
  Se  Se7  1  0.33335962  0.66672006  0.61106347  1
  S  S8  1  0.33335281  0.66670652  0.32410983  1
  S  S9  1  0.66664335  0.33328600  0.05158147  1
  S  S10  1  0.66664276  0.33328470  0.13625206  1
  S  S11  1  0.33335601  0.66671278  0.23946675  1
