# generated using pymatgen
data_Sr2Mg
_symmetry_space_group_name_H-M   'P 1'
_cell_length_a   13.80078979
_cell_length_b   6.10037556
_cell_length_c   6.09681887
_cell_angle_alpha   90.00000000
_cell_angle_beta   90.00000000
_cell_angle_gamma   90.00000000
_symmetry_Int_Tables_number   1
_chemical_formula_structural   Sr2Mg
_chemical_formula_sum   'Sr8 Mg4'
_cell_volume   513.29118520
_cell_formula_units_Z   4
loop_
 _symmetry_equiv_pos_site_id
 _symmetry_equiv_pos_as_xyz
  1  'x, y, z'
loop_
 _atom_site_type_symbol
 _atom_site_label
 _atom_site_symmetry_multiplicity
 _atom_site_fract_x
 _atom_site_fract_y
 _atom_site_fract_z
 _atom_site_occupancy
  Sr  Sr0  1  0.14303399  0.24673640  0.75000000  1
  Sr  Sr1  1  0.35696601  0.74673640  0.75000000  1
  Sr  Sr2  1  0.14303399  0.75326360  0.25000000  1
  Sr  Sr3  1  0.35696601  0.25326360  0.25000000  1
  Sr  Sr4  1  0.64303399  0.74673640  0.75000000  1
  Sr  Sr5  1  0.85696601  0.24673640  0.75000000  1
  Sr  Sr6  1  0.64303399  0.25326360  0.25000000  1
  Sr  Sr7  1  0.85696601  0.75326360  0.25000000  1
  Mg  Mg8  1  0.00000000  0.73480904  0.75000000  1
  Mg  Mg9  1  0.00000000  0.26519096  0.25000000  1
  Mg  Mg10  1  0.50000000  0.23480904  0.75000000  1
  Mg  Mg11  1  0.50000000  0.76519096  0.25000000  1
