# generated using pymatgen
data_Te4Mo3WSe4
_symmetry_space_group_name_H-M   'P 1'
_cell_length_a   3.43722894
_cell_length_b   3.43719236
_cell_length_c   39.10391559
_cell_angle_alpha   90.00053102
_cell_angle_beta   90.00000000
_cell_angle_gamma   120.00035206
_symmetry_Int_Tables_number   1
_chemical_formula_structural   Te4Mo3WSe4
_chemical_formula_sum   'Te4 Mo3 W1 Se4'
_cell_volume   400.09362828
_cell_formula_units_Z   1
loop_
 _symmetry_equiv_pos_site_id
 _symmetry_equiv_pos_as_xyz
  1  'x, y, z'
loop_
 _atom_site_type_symbol
 _atom_site_label
 _atom_site_symmetry_multiplicity
 _atom_site_fract_x
 _atom_site_fract_y
 _atom_site_fract_z
 _atom_site_occupancy
  Te  Te0  1  0.33335521  0.66671141  0.70503375  1
  Te  Te1  1  0.66664669  0.33329239  0.42214809  1
  Te  Te2  1  0.66664506  0.33328913  0.51708988  1
  Te  Te3  1  0.33334926  0.66669952  0.61007657  1
  Mo  Mo4  1  0.33331044  0.66662089  0.09392898  1
  Mo  Mo5  1  0.33330950  0.66661901  0.46964598  1
  Mo  Mo6  1  0.66668846  0.33337691  0.65758042  1
  W  W7  1  0.66668683  0.33337366  0.28181251  1
  Se  Se8  1  0.33336886  0.66673873  0.32376402  1
  Se  Se9  1  0.66664641  0.33329183  0.05204218  1
  Se  Se10  1  0.66664602  0.33329103  0.13580442  1
  Se  Se11  1  0.33334725  0.66669550  0.23982120  1
