# generated using pymatgen
data_U(HO2)2
_symmetry_space_group_name_H-M   'P 1'
_cell_length_a   5.49119146
_cell_length_b   5.31809228
_cell_length_c   6.10781207
_cell_angle_alpha   90.00000000
_cell_angle_beta   109.18797074
_cell_angle_gamma   90.00000000
_symmetry_Int_Tables_number   1
_chemical_formula_structural   U(HO2)2
_chemical_formula_sum   'U2 H4 O8'
_cell_volume   168.45541459
_cell_formula_units_Z   2
loop_
 _symmetry_equiv_pos_site_id
 _symmetry_equiv_pos_as_xyz
  1  'x, y, z'
loop_
 _atom_site_type_symbol
 _atom_site_label
 _atom_site_symmetry_multiplicity
 _atom_site_fract_x
 _atom_site_fract_y
 _atom_site_fract_z
 _atom_site_occupancy
  U  U0  1  0.00000000  0.50000000  0.50000000  1
  U  U1  1  0.00000000  0.00000000  0.00000000  1
  H  H2  1  0.52811427  0.30716537  0.64081020  1
  H  H3  1  0.47188573  0.80716537  0.85918980  1
  H  H4  1  0.47188573  0.69283463  0.35918980  1
  H  H5  1  0.52811427  0.19283463  0.14081020  1
  O  O6  1  0.34114641  0.31687026  0.62692051  1
  O  O7  1  0.65885359  0.81687026  0.87307949  1
  O  O8  1  0.65885359  0.68312974  0.37307949  1
  O  O9  1  0.34114641  0.18312974  0.12692051  1
  O  O10  1  0.14467301  0.78268347  0.80523434  1
  O  O11  1  0.85532699  0.28268347  0.69476566  1
  O  O12  1  0.85532699  0.21731653  0.19476566  1
  O  O13  1  0.14467301  0.71731653  0.30523434  1
