# generated using pymatgen
data_CeCuSi2
_symmetry_space_group_name_H-M   'P 1'
_cell_length_a   4.20499558
_cell_length_b   4.11519675
_cell_length_c   8.47677126
_cell_angle_alpha   90.00000000
_cell_angle_beta   104.36099422
_cell_angle_gamma   90.00000000
_symmetry_Int_Tables_number   1
_chemical_formula_structural   CeCuSi2
_chemical_formula_sum   'Ce2 Cu2 Si4'
_cell_volume   142.10171884
_cell_formula_units_Z   2
loop_
 _symmetry_equiv_pos_site_id
 _symmetry_equiv_pos_as_xyz
  1  'x, y, z'
loop_
 _atom_site_type_symbol
 _atom_site_label
 _atom_site_symmetry_multiplicity
 _atom_site_fract_x
 _atom_site_fract_y
 _atom_site_fract_z
 _atom_site_occupancy
  Ce  Ce0  1  0.89569815  0.75000000  0.79139629  1
  Ce  Ce1  1  0.10430185  0.25000000  0.20860371  1
  Cu  Cu2  1  0.67861426  0.75000000  0.35722851  1
  Cu  Cu3  1  0.32138574  0.25000000  0.64277149  1
  Si  Si4  1  0.53642495  0.75000000  0.07284989  1
  Si  Si5  1  0.46357505  0.25000000  0.92715011  1
  Si  Si6  1  0.24883717  0.75000000  0.49767434  1
  Si  Si7  1  0.75116283  0.25000000  0.50232566  1
