# generated using pymatgen
data_BaSr7Fe6(CoO12)2
_symmetry_space_group_name_H-M   'P 1'
_cell_length_a   7.88309728
_cell_length_b   7.82150453
_cell_length_c   7.82150453
_cell_angle_alpha   90.19959558
_cell_angle_beta   90.00000000
_cell_angle_gamma   90.00000000
_symmetry_Int_Tables_number   1
_chemical_formula_structural   BaSr7Fe6(CoO12)2
_chemical_formula_sum   'Ba1 Sr7 Fe6 Co2 O24'
_cell_volume   482.25290631
_cell_formula_units_Z   1
loop_
 _symmetry_equiv_pos_site_id
 _symmetry_equiv_pos_as_xyz
  1  'x, y, z'
loop_
 _atom_site_type_symbol
 _atom_site_label
 _atom_site_symmetry_multiplicity
 _atom_site_fract_x
 _atom_site_fract_y
 _atom_site_fract_z
 _atom_site_occupancy
  Ba  Ba0  1  0.25000000  0.74799693  0.25200307  1
  Sr  Sr1  1  0.25000000  0.25170329  0.25193593  1
  Sr  Sr2  1  0.25000000  0.25175258  0.74824742  1
  Sr  Sr3  1  0.25000000  0.74806407  0.74829671  1
  Sr  Sr4  1  0.75000000  0.25193046  0.25201199  1
  Sr  Sr5  1  0.75000000  0.25205786  0.74794214  1
  Sr  Sr6  1  0.75000000  0.74807694  0.25192306  1
  Sr  Sr7  1  0.75000000  0.74798801  0.74806954  1
  Fe  Fe8  1  0.99897148  0.00095300  0.99904700  1
  Fe  Fe9  1  0.99902930  0.00144093  0.50100691  1
  Fe  Fe10  1  0.99902930  0.49899309  0.99855907  1
  Fe  Fe11  1  0.50102852  0.00095300  0.99904700  1
  Fe  Fe12  1  0.50097070  0.00144093  0.50100691  1
  Fe  Fe13  1  0.50097070  0.49899309  0.99855907  1
  Co  Co14  1  0.99847642  0.49890981  0.50109019  1
  Co  Co15  1  0.50152358  0.49890981  0.50109019  1
  O  O16  1  0.25000000  0.00397639  0.99602361  1
  O  O17  1  0.25000000  0.00440685  0.50418773  1
  O  O18  1  0.25000000  0.49581227  0.99559315  1
  O  O19  1  0.25000000  0.49599110  0.50400890  1
  O  O20  1  0.75000000  0.00079937  0.99920063  1
  O  O21  1  0.75000000  0.00067101  0.50090622  1
  O  O22  1  0.75000000  0.49909378  0.99932899  1
  O  O23  1  0.75000000  0.49921421  0.50078579  1
  O  O24  1  0.99919319  0.25108855  0.99926204  1
  O  O25  1  0.99933596  0.25894276  0.50167180  1
  O  O26  1  0.99590710  0.74888103  0.99575354  1
  O  O27  1  0.99575725  0.74083617  0.50312554  1
  O  O28  1  0.50080681  0.25108855  0.99926204  1
  O  O29  1  0.50066404  0.25894276  0.50167180  1
  O  O30  1  0.50409290  0.74888103  0.99575354  1
  O  O31  1  0.50424275  0.74083617  0.50312554  1
  O  O32  1  0.99590710  0.00424646  0.25111897  1
  O  O33  1  0.99919319  0.00073796  0.74891145  1
  O  O34  1  0.99575725  0.49687446  0.25916383  1
  O  O35  1  0.99933596  0.49832820  0.74105724  1
  O  O36  1  0.50409290  0.00424646  0.25111897  1
  O  O37  1  0.50080681  0.00073796  0.74891145  1
  O  O38  1  0.50424275  0.49687446  0.25916383  1
  O  O39  1  0.50066404  0.49832820  0.74105724  1
