# generated using pymatgen
data_Cs2KMn(CN)6
_symmetry_space_group_name_H-M   'P 1'
_cell_length_a   7.70834483
_cell_length_b   8.22354538
_cell_length_c   11.22367985
_cell_angle_alpha   90.00000000
_cell_angle_beta   90.26086326
_cell_angle_gamma   90.00000000
_symmetry_Int_Tables_number   1
_chemical_formula_structural   Cs2KMn(CN)6
_chemical_formula_sum   'Cs4 K2 Mn2 C12 N12'
_cell_volume   711.46083346
_cell_formula_units_Z   2
loop_
 _symmetry_equiv_pos_site_id
 _symmetry_equiv_pos_as_xyz
  1  'x, y, z'
loop_
 _atom_site_type_symbol
 _atom_site_label
 _atom_site_symmetry_multiplicity
 _atom_site_fract_x
 _atom_site_fract_y
 _atom_site_fract_z
 _atom_site_occupancy
  Cs  Cs0  1  0.52176267  0.93000114  0.24927992  1
  Cs  Cs1  1  0.97823733  0.43000114  0.25072008  1
  Cs  Cs2  1  0.02176267  0.56999886  0.74927992  1
  Cs  Cs3  1  0.47823733  0.06999886  0.75072008  1
  K  K4  1  0.50000000  0.50000000  0.00000000  1
  K  K5  1  0.00000000  0.00000000  0.50000000  1
  Mn  Mn6  1  0.50000000  0.50000000  0.50000000  1
  Mn  Mn7  1  0.00000000  0.00000000  0.00000000  1
  C  C8  1  0.37418168  0.70318546  0.54025254  1
  C  C9  1  0.28790165  0.37137647  0.53267116  1
  C  C10  1  0.12581832  0.20318546  0.95974746  1
  C  C11  1  0.87418168  0.79681454  0.04025254  1
  C  C12  1  0.78790165  0.12862353  0.03267116  1
  C  C13  1  0.92777314  0.97710673  0.83149601  1
  C  C14  1  0.42777314  0.52289327  0.33149601  1
  C  C15  1  0.07222686  0.02289327  0.16850399  1
  C  C16  1  0.62581832  0.29681454  0.45974746  1
  C  C17  1  0.21209835  0.87137647  0.96732884  1
  C  C18  1  0.71209835  0.62862353  0.46732884  1
  C  C19  1  0.57222686  0.47710673  0.66850399  1
  N  N20  1  0.88299186  0.95890535  0.73186972  1
  N  N21  1  0.70117445  0.17737610  0.43387925  1
  N  N22  1  0.79882555  0.67737610  0.06612075  1
  N  N23  1  0.61700814  0.45890535  0.76813028  1
  N  N24  1  0.33724047  0.79475514  0.94569625  1
  N  N25  1  0.20117445  0.32262390  0.93387925  1
  N  N26  1  0.83724047  0.70524486  0.44569625  1
  N  N27  1  0.16275953  0.29475514  0.55430375  1
  N  N28  1  0.38299186  0.54109465  0.23186972  1
  N  N29  1  0.66275953  0.20524486  0.05430375  1
  N  N30  1  0.11700814  0.04109465  0.26813028  1
  N  N31  1  0.29882555  0.82262390  0.56612075  1
