# generated using pymatgen
data_Mg2Cd
_symmetry_space_group_name_H-M   'P 1'
_cell_length_a   9.57079636
_cell_length_b   5.29874166
_cell_length_c   6.20251597
_cell_angle_alpha   90.00000000
_cell_angle_beta   122.90267093
_cell_angle_gamma   90.00000000
_symmetry_Int_Tables_number   1
_chemical_formula_structural   Mg2Cd
_chemical_formula_sum   'Mg8 Cd4'
_cell_volume   264.09386968
_cell_formula_units_Z   4
loop_
 _symmetry_equiv_pos_site_id
 _symmetry_equiv_pos_as_xyz
  1  'x, y, z'
loop_
 _atom_site_type_symbol
 _atom_site_label
 _atom_site_symmetry_multiplicity
 _atom_site_fract_x
 _atom_site_fract_y
 _atom_site_fract_z
 _atom_site_occupancy
  Mg  Mg0  1  0.66746439  0.08337998  0.75116704  1
  Mg  Mg1  1  0.33253561  0.08337998  0.74883296  1
  Mg  Mg2  1  0.66746439  0.91662002  0.25116704  1
  Mg  Mg3  1  0.83253561  0.41662002  0.24883296  1
  Mg  Mg4  1  0.16746439  0.58337998  0.75116704  1
  Mg  Mg5  1  0.83253561  0.58337998  0.74883296  1
  Mg  Mg6  1  0.16746439  0.41662002  0.25116704  1
  Mg  Mg7  1  0.33253561  0.91662002  0.24883296  1
  Cd  Cd8  1  0.00000000  0.91488912  0.25000000  1
  Cd  Cd9  1  0.00000000  0.08511088  0.75000000  1
  Cd  Cd10  1  0.50000000  0.41488912  0.25000000  1
  Cd  Cd11  1  0.50000000  0.58511088  0.75000000  1
