# generated using pymatgen
data_Li9Mn7O16
_symmetry_space_group_name_H-M   'P 1'
_cell_length_a   2.88135865
_cell_length_b   8.85699058
_cell_length_c   11.70990126
_cell_angle_alpha   90.86456832
_cell_angle_beta   90.00000000
_cell_angle_gamma   90.00000000
_symmetry_Int_Tables_number   1
_chemical_formula_structural   Li9Mn7O16
_chemical_formula_sum   'Li9 Mn7 O16'
_cell_volume   298.80460781
_cell_formula_units_Z   1
loop_
 _symmetry_equiv_pos_site_id
 _symmetry_equiv_pos_as_xyz
  1  'x, y, z'
loop_
 _atom_site_type_symbol
 _atom_site_label
 _atom_site_symmetry_multiplicity
 _atom_site_fract_x
 _atom_site_fract_y
 _atom_site_fract_z
 _atom_site_occupancy
  Li  Li0  1  0.50000000  0.24412824  0.11742858  1
  Li  Li1  1  0.50000000  0.75000000  0.37500000  1
  Li  Li2  1  0.50000000  0.25587176  0.63257142  1
  Li  Li3  1  0.00000000  0.48107241  0.99705676  1
  Li  Li4  1  0.00000000  0.00407652  0.25061129  1
  Li  Li5  1  0.00000000  0.49592348  0.49938871  1
  Li  Li6  1  0.50000000  0.75000000  0.87500000  1
  Li  Li7  1  0.00000000  0.01892759  0.75294324  1
  Li  Li8  1  0.50000000  0.25000000  0.87500000  1
  Mn  Mn9  1  0.00000000  0.01686206  0.99561943  1
  Mn  Mn10  1  0.00000000  0.48313794  0.75438057  1
  Mn  Mn11  1  -0.00000000  0.50013973  0.24608279  1
  Mn  Mn12  1  0.00000000  0.99986027  0.50391721  1
  Mn  Mn13  1  0.50000000  0.75894687  0.12189914  1
  Mn  Mn14  1  0.50000000  0.25000000  0.37500000  1
  Mn  Mn15  1  0.50000000  0.74105313  0.62810086  1
  O  O16  1  0.50000000  0.00660024  0.10981384  1
  O  O17  1  0.50000000  0.50862327  0.36078824  1
  O  O18  1  0.50000000  0.00309313  0.61927390  1
  O  O19  1  0.00000000  0.22298611  0.99906579  1
  O  O20  1  0.00000000  0.75829508  0.23584627  1
  O  O21  1  0.00000000  0.25596875  0.48852393  1
  O  O22  1  0.50000000  0.50192184  0.86561081  1
  O  O23  1  0.00000000  0.72742452  0.74262747  1
  O  O24  1  0.50000000  0.49690687  0.13072610  1
  O  O25  1  0.50000000  0.99137673  0.38921176  1
  O  O26  1  0.50000000  0.49339976  0.64018616  1
  O  O27  1  0.00000000  0.77257548  0.00737253  1
  O  O28  1  0.00000000  0.24403125  0.26147607  1
  O  O29  1  0.00000000  0.74170492  0.51415373  1
  O  O30  1  0.50000000  0.99807816  0.88438919  1
  O  O31  1  0.00000000  0.27701389  0.75093421  1
