# generated using pymatgen
data_Ta22W4O67
_symmetry_space_group_name_H-M   'P 1'
_cell_length_a   24.43251961
_cell_length_b   6.19633387
_cell_length_c   7.75348067
_cell_angle_alpha   90.00121057
_cell_angle_beta   90.00043664
_cell_angle_gamma   82.85759230
_symmetry_Int_Tables_number   1
_chemical_formula_structural   Ta22W4O67
_chemical_formula_sum   'Ta22 W4 O67'
_cell_volume   1164.70673034
_cell_formula_units_Z   1
loop_
 _symmetry_equiv_pos_site_id
 _symmetry_equiv_pos_as_xyz
  1  'x, y, z'
loop_
 _atom_site_type_symbol
 _atom_site_label
 _atom_site_symmetry_multiplicity
 _atom_site_fract_x
 _atom_site_fract_y
 _atom_site_fract_z
 _atom_site_occupancy
  Ta  Ta0  1  0.31060162  0.92520481  0.00001806  1
  Ta  Ta1  1  0.30801980  0.92366056  0.49997541  1
  Ta  Ta2  1  0.15885265  0.93780145  0.49998457  1
  Ta  Ta3  1  0.15740151  0.94150552  0.99998261  1
  Ta  Ta4  1  0.45590535  0.76001481  0.99859116  1
  Ta  Ta5  1  0.45717389  0.76148652  0.50082759  1
  Ta  Ta6  1  0.61461505  0.66688794  0.01507235  1
  Ta  Ta7  1  0.61471055  0.66748925  0.48571341  1
  Ta  Ta8  1  0.77372580  0.58038812  0.50095092  1
  Ta  Ta9  1  0.77351610  0.58053758  0.99902340  1
  Ta  Ta10  1  0.92515797  0.48912459  0.49995328  1
  Ta  Ta11  1  0.92482744  0.49107558  0.00000812  1
  Ta  Ta12  1  0.07425561  0.51220832  0.49997591  1
  Ta  Ta13  1  0.07376853  0.51431905  0.99997082  1
  Ta  Ta14  1  0.22634645  0.41983846  0.49998755  1
  Ta  Ta15  1  0.38747276  0.33583517  0.00013215  1
  Ta  Ta16  1  0.54305270  0.24353290  0.50259401  1
  Ta  Ta17  1  0.54241095  0.24257340  0.99773818  1
  Ta  Ta18  1  0.84058634  0.06269129  0.49978069  1
  Ta  Ta19  1  0.84003703  0.06404974  0.00015337  1
  Ta  Ta20  1  0.69228666  0.07785416  0.50231745  1
  Ta  Ta21  1  0.69199070  0.07748404  0.99758378  1
  W  W22  1  0.22866379  0.41844123  0.99998823  1
  W  W23  1  0.38557171  0.33450006  0.49973324  1
  W  W24  1  0.99958192  0.00216491  0.00002081  1
  W  W25  1  0.00006116  0.00058261  0.50003176  1
  O  O26  1  0.77102290  0.91556648  0.49750926  1
  O  O27  1  0.77099255  0.91564939  0.00251422  1
  O  O28  1  0.60599133  0.98514739  0.52351416  1
  O  O29  1  0.60605876  0.98488434  0.97699096  1
  O  O30  1  0.87807307  0.76940205  0.00005773  1
  O  O31  1  0.87815029  0.76872134  0.49989337  1
  O  O32  1  0.98769035  0.69656788  0.49999591  1
  O  O33  1  0.98784685  0.69655571  0.99996917  1
  O  O34  1  0.30971605  0.92568284  0.74999229  1
  O  O35  1  0.30966314  0.92573754  0.25003249  1
  O  O36  1  0.69105396  0.72331684  0.51946087  1
  O  O37  1  0.69117449  0.72419390  0.98034938  1
  O  O38  1  0.77571427  0.60338375  0.24997420  1
  O  O39  1  0.77969018  0.60146652  0.74998065  1
  O  O40  1  0.61057272  0.68426609  0.25048197  1
  O  O41  1  0.16448591  0.90698634  0.75047632  1
  O  O42  1  0.16448475  0.90699786  0.24949707  1
  O  O43  1  0.45060314  0.74171054  0.74941419  1
  O  O44  1  0.45488616  0.73640802  0.25049967  1
  O  O45  1  0.93156877  0.46775781  0.24983340  1
  O  O46  1  0.93150030  0.46769544  0.75012780  1
  O  O47  1  0.07626808  0.86392821  0.99997866  1
  O  O48  1  0.07619491  0.86814459  0.49997592  1
  O  O49  1  0.54021546  0.60782710  0.97208791  1
  O  O50  1  0.53989667  0.60240487  0.52593418  1
  O  O51  1  0.36706470  0.64655071  0.00042432  1
  O  O52  1  0.36590397  0.64044141  0.49959237  1
  O  O53  1  0.84693466  0.39702031  0.00098582  1
  O  O54  1  0.84696551  0.39694901  0.49895711  1
  O  O55  1  0.25652436  0.68841110  0.49999749  1
  O  O56  1  0.25810988  0.68049438  0.99998322  1
  O  O57  1  0.74370262  0.30656910  0.00145725  1
  O  O58  1  0.74339540  0.30740318  0.49846291  1
  O  O59  1  0.15377717  0.59858132  0.49999178  1
  O  O60  1  0.15517325  0.59299088  0.99999695  1
  O  O61  1  0.63292354  0.35737254  0.51485723  1
  O  O62  1  0.63337654  0.35753582  0.98545226  1
  O  O63  1  0.46175909  0.40516302  0.49774995  1
  O  O64  1  0.46303424  0.41213359  0.00311642  1
  O  O65  1  0.92411939  0.12611133  0.99994084  1
  O  O66  1  0.92425678  0.12715581  0.50002461  1
  O  O67  1  0.06968467  0.53034342  0.74986058  1
  O  O68  1  0.06968308  0.53033969  0.25010664  1
  O  O69  1  0.54607901  0.26216057  0.75020700  1
  O  O70  1  0.55111131  0.26784452  0.25015049  1
  O  O71  1  0.83590190  0.08897306  0.74990552  1
  O  O72  1  0.83627202  0.08911968  0.25005732  1
  O  O73  1  0.38774527  0.32010545  0.25480421  1
  O  O74  1  0.38833771  0.32001890  0.74516557  1
  O  O75  1  0.22326354  0.39853192  0.24464892  1
  O  O76  1  0.22326159  0.39853980  0.75534897  1
  O  O77  1  0.30838358  0.27410095  0.50018847  1
  O  O78  1  0.30733322  0.27297131  0.99996674  1
  O  O79  1  0.68995258  0.07248711  0.74989666  1
  O  O80  1  0.68386910  0.06667330  0.25010396  1
  O  O81  1  0.01327843  0.30290444  0.99997511  1
  O  O82  1  0.01318414  0.30250512  0.49998608  1
  O  O83  1  0.12041303  0.22853217  0.99998316  1
  O  O84  1  0.12170921  0.22930070  0.49998446  1
  O  O85  1  0.49949995  0.00345263  0.49726004  1
  O  O86  1  0.49831775  0.00716090  0.00283831  1
  O  O87  1  0.39126660  0.00713604  0.00068440  1
  O  O88  1  0.39182265  0.00714257  0.49928704  1
  O  O89  1  0.22790461  0.08633773  0.99998424  1
  O  O90  1  0.22840649  0.08638609  0.49999672  1
  O  O91  1  0.00060655  0.00030530  0.75029291  1
  O  O92  1  0.00060382  0.00029918  0.24967842  1
