# generated using pymatgen
data_NaLi2FePCO7
_symmetry_space_group_name_H-M   'P 1'
_cell_length_a   8.63324384
_cell_length_b   6.58144638
_cell_length_c   10.16071251
_cell_angle_alpha   89.72776270
_cell_angle_beta   87.42090393
_cell_angle_gamma   90.63672583
_symmetry_Int_Tables_number   1
_chemical_formula_structural   NaLi2FePCO7
_chemical_formula_sum   'Na4 Li8 Fe4 P4 C4 O28'
_cell_volume   576.69549517
_cell_formula_units_Z   4
loop_
 _symmetry_equiv_pos_site_id
 _symmetry_equiv_pos_as_xyz
  1  'x, y, z'
loop_
 _atom_site_type_symbol
 _atom_site_label
 _atom_site_symmetry_multiplicity
 _atom_site_fract_x
 _atom_site_fract_y
 _atom_site_fract_z
 _atom_site_occupancy
  Na  Na0  1  0.08438313  0.26169080  0.87862655  1
  Na  Na1  1  0.25727792  0.99894844  0.62426466  1
  Na  Na2  1  0.25586152  0.99980642  0.12822592  1
  Na  Na3  1  0.74350414  0.50161422  0.37451934  1
  Li  Li4  1  0.08132071  0.25373119  0.37556866  1
  Li  Li5  1  0.27701334  0.47771211  0.61574258  1
  Li  Li6  1  0.27390162  0.48305315  0.12385765  1
  Li  Li7  1  0.72854229  0.51904188  0.87857929  1
  Li  Li8  1  0.72671812  0.97815885  0.88022295  1
  Li  Li9  1  0.73096930  0.98688961  0.37829526  1
  Li  Li10  1  0.91282692  0.74319726  0.62643491  1
  Li  Li11  1  0.90978022  0.74808885  0.12383606  1
  Fe  Fe12  1  0.34648288  0.74649037  0.89213360  1
  Fe  Fe13  1  0.34579261  0.74477415  0.39192490  1
  Fe  Fe14  1  0.65739073  0.24541814  0.60816878  1
  Fe  Fe15  1  0.65379379  0.24989273  0.10690290  1
  P  P16  1  0.41895955  0.25512996  0.85217495  1
  P  P17  1  0.40772297  0.24817830  0.35327431  1
  P  P18  1  0.59357381  0.74422188  0.64723481  1
  P  P19  1  0.58993440  0.75062202  0.14561042  1
  C  C20  1  0.03821631  0.74797072  0.86206717  1
  C  C21  1  0.04280400  0.75567145  0.35907657  1
  C  C22  1  0.95849836  0.25841985  0.63454900  1
  C  C23  1  0.95098639  0.25621553  0.14600935  1
  O  O24  1  0.10486862  0.27873666  0.65158154  1
  O  O25  1  0.09850071  0.27643767  0.16193984  1
  O  O26  1  0.08408343  0.75452079  0.98237435  1
  O  O27  1  0.08345105  0.75286269  0.48069974  1
  O  O28  1  0.14109158  0.74103033  0.76450969  1
  O  O29  1  0.14795487  0.73157406  0.26414672  1
  O  O30  1  0.32392918  0.05995072  0.89216089  1
  O  O31  1  0.32147718  0.43431085  0.91023625  1
  O  O32  1  0.30203771  0.05898283  0.38571165  1
  O  O33  1  0.31338904  0.43050131  0.41092258  1
  O  O34  1  0.43188941  0.27239202  0.69893364  1
  O  O35  1  0.43031690  0.73091086  0.59013641  1
  O  O36  1  0.42932850  0.27311836  0.20036515  1
  O  O37  1  0.42704950  0.73086541  0.08949216  1
  O  O38  1  0.58503228  0.25465224  0.90499791  1
  O  O39  1  0.57524548  0.75365658  0.80128261  1
  O  O40  1  0.56894239  0.22975829  0.41233403  1
  O  O41  1  0.57109148  0.77024186  0.29855131  1
  O  O42  1  0.69762507  0.56057542  0.60760671  1
  O  O43  1  0.68854870  0.93173875  0.59326805  1
  O  O44  1  0.69580430  0.56623566  0.10845607  1
  O  O45  1  0.68298128  0.93650581  0.08655340  1
  O  O46  1  0.86046563  0.24003892  0.73590748  1
  O  O47  1  0.85634750  0.23648764  0.24879117  1
  O  O48  1  0.90616343  0.25502597  0.51619563  1
  O  O49  1  0.89439539  0.25524025  0.02982993  1
  O  O50  1  0.89179617  0.74760153  0.83711236  1
  O  O51  1  0.89993717  0.78110864  0.32860114  1
