# generated using pymatgen
data_Ti(CrSe2)2
_symmetry_space_group_name_H-M   'P 1'
_cell_length_a   3.64480620
_cell_length_b   6.38977449
_cell_length_c   75.99915072
_cell_angle_alpha   115.99089451
_cell_angle_beta   105.44274501
_cell_angle_gamma   89.95598199
_symmetry_Int_Tables_number   1
_chemical_formula_structural   Ti(CrSe2)2
_chemical_formula_sum   'Ti11 Cr22 Se44'
_cell_volume   1519.74539566
_cell_formula_units_Z   11
loop_
 _symmetry_equiv_pos_site_id
 _symmetry_equiv_pos_as_xyz
  1  'x, y, z'
loop_
 _atom_site_type_symbol
 _atom_site_label
 _atom_site_symmetry_multiplicity
 _atom_site_fract_x
 _atom_site_fract_y
 _atom_site_fract_z
 _atom_site_occupancy
  Ti  Ti0  1  0.25757841  0.29266229  0.86470206  1
  Ti  Ti1  1  0.25682187  0.29076348  0.77369979  1
  Ti  Ti2  1  0.25699451  0.29088895  0.68277922  1
  Ti  Ti3  1  0.25664412  0.29095241  0.59187298  1
  Ti  Ti4  1  0.25698564  0.29077874  0.50094461  1
  Ti  Ti5  1  0.25690735  0.29137912  0.41007330  1
  Ti  Ti6  1  0.25687805  0.29103446  0.31913640  1
  Ti  Ti7  1  0.25839235  0.28993950  0.22823614  1
  Ti  Ti8  1  0.99910688  0.99527637  0.09055557  1
  Ti  Ti9  1  0.00258518  0.00401183  0.00015106  1
  Ti  Ti10  1  0.74086061  0.70495211  0.13563086  1
  Cr  Cr11  1  0.00066650  0.00653565  0.90950259  1
  Cr  Cr12  1  0.26579465  0.28234202  0.95666628  1
  Cr  Cr13  1  0.00468135  0.00404170  0.81906449  1
  Cr  Cr14  1  0.00445635  0.00315154  0.72808446  1
  Cr  Cr15  1  0.74018655  0.72337595  0.95300566  1
  Cr  Cr16  1  0.00464282  0.00338551  0.63718422  1
  Cr  Cr17  1  0.73958698  0.70910059  0.86209035  1
  Cr  Cr18  1  0.00459214  0.00287042  0.54627338  1
  Cr  Cr19  1  0.73913628  0.70992010  0.77112786  1
  Cr  Cr20  1  0.00397997  0.00284678  0.45534034  1
  Cr  Cr21  1  0.73911901  0.70977641  0.68019223  1
  Cr  Cr22  1  0.00424522  0.00277436  0.36444295  1
  Cr  Cr23  1  0.73944628  0.71021056  0.58929890  1
  Cr  Cr24  1  0.00486563  0.00299850  0.27353121  1
  Cr  Cr25  1  0.73954848  0.70997060  0.49840451  1
  Cr  Cr26  1  0.99534083  0.99129068  0.18142219  1
  Cr  Cr27  1  0.73878584  0.71000962  0.40745502  1
  Cr  Cr28  1  0.73949126  0.70892504  0.31652863  1
  Cr  Cr29  1  0.25358511  0.28919151  0.13730273  1
  Cr  Cr30  1  0.73924401  0.71081535  0.22562158  1
  Cr  Cr31  1  0.26259134  0.27361422  0.04670921  1
  Cr  Cr32  1  0.74010793  0.72480662  0.04388597  1
  Se  Se33  1  0.12003158  0.45491391  0.93132555  1
  Se  Se34  1  0.36601851  0.02762929  0.97554292  1
  Se  Se35  1  0.11073040  0.45358931  0.83882280  1
  Se  Se36  1  0.36284432  0.01894083  0.88449210  1
  Se  Se37  1  0.63523588  0.98091547  0.93362747  1
  Se  Se38  1  0.11093751  0.45243433  0.74794799  1
  Se  Se39  1  0.88478337  0.55100240  0.97810245  1
  Se  Se40  1  0.36567618  0.02025049  0.79388984  1
  Se  Se41  1  0.63520716  0.97174229  0.84267226  1
  Se  Se42  1  0.11094753  0.45229870  0.65705071  1
  Se  Se43  1  0.88977101  0.55409213  0.88854305  1
  Se  Se44  1  0.36541015  0.02061696  0.70290889  1
  Se  Se45  1  0.63512664  0.97068301  0.75172776  1
  Se  Se46  1  0.11081914  0.45224735  0.56610140  1
  Se  Se47  1  0.88765522  0.55317110  0.79734245  1
  Se  Se48  1  0.36529924  0.02011203  0.61198469  1
  Se  Se49  1  0.63558988  0.97144584  0.66084531  1
  Se  Se50  1  0.11122310  0.45257679  0.47521401  1
  Se  Se51  1  0.88813922  0.55315426  0.70640816  1
  Se  Se52  1  0.36537729  0.01979809  0.52109510  1
  Se  Se53  1  0.63492937  0.97076761  0.56985924  1
  Se  Se54  1  0.11043634  0.45256423  0.38429059  1
  Se  Se55  1  0.88763162  0.55298724  0.61549253  1
  Se  Se56  1  0.36488174  0.02037289  0.43018219  1
  Se  Se57  1  0.63512820  0.97082634  0.47898131  1
  Se  Se58  1  0.11113392  0.45284644  0.29335991  1
  Se  Se59  1  0.88822949  0.55319809  0.52462373  1
  Se  Se60  1  0.36514733  0.02003663  0.33924529  1
  Se  Se61  1  0.63479175  0.97096445  0.38800379  1
  Se  Se62  1  0.11246724  0.45137833  0.20279410  1
  Se  Se63  1  0.88775209  0.55309884  0.43364735  1
  Se  Se64  1  0.36496965  0.02021292  0.24825910  1
  Se  Se65  1  0.63594474  0.97102305  0.29722992  1
  Se  Se66  1  0.10654153  0.44701236  0.11135154  1
  Se  Se67  1  0.88778383  0.55297752  0.34271942  1
  Se  Se68  1  0.36455535  0.03118194  0.15788721  1
  Se  Se69  1  0.63054448  0.96673176  0.20555863  1
  Se  Se70  1  0.11978659  0.45429274  0.02215758  1
  Se  Se71  1  0.88901107  0.55359527  0.25179890  1
  Se  Se72  1  0.36597860  0.02671818  0.06647525  1
  Se  Se73  1  0.63731661  0.97582209  0.11581281  1
  Se  Se74  1  0.88349261  0.53872156  0.16083952  1
  Se  Se75  1  0.63718981  0.97246515  0.02433219  1
  Se  Se76  1  0.88368322  0.54399679  0.06853623  1
