# generated using pymatgen
data_V3Cu2Sb(PO4)6
_symmetry_space_group_name_H-M   'P 1'
_cell_length_a   8.69027312
_cell_length_b   8.63216567
_cell_length_c   8.63216573
_cell_angle_alpha   59.99999565
_cell_angle_beta   60.22093955
_cell_angle_gamma   60.22093634
_symmetry_Int_Tables_number   1
_chemical_formula_structural   V3Cu2Sb(PO4)6
_chemical_formula_sum   'V3 Cu2 Sb1 P6 O24'
_cell_volume   459.40976572
_cell_formula_units_Z   1
loop_
 _symmetry_equiv_pos_site_id
 _symmetry_equiv_pos_as_xyz
  1  'x, y, z'
loop_
 _atom_site_type_symbol
 _atom_site_label
 _atom_site_symmetry_multiplicity
 _atom_site_fract_x
 _atom_site_fract_y
 _atom_site_fract_z
 _atom_site_occupancy
  V  V0  1  0.07289909  0.64236697  0.64236697  1
  V  V1  1  0.42736820  0.85754360  0.85754360  1
  V  V2  1  0.92449249  0.35850217  0.35850217  1
  Cu  Cu3  1  0.01216506  0.99594498  0.99594498  1
  Cu  Cu4  1  0.49901122  0.50032926  0.50032926  1
  Sb  Sb5  1  0.57158047  0.14280684  0.14280684  1
  P  P6  1  0.24484076  0.25212855  0.54426958  1
  P  P7  1  0.24484076  0.95876111  0.25212855  1
  P  P8  1  0.24484076  0.54426958  0.95876111  1
  P  P9  1  0.74935385  0.46372413  0.04009572  1
  P  P10  1  0.74935385  0.04009572  0.74682630  1
  P  P11  1  0.74935385  0.74682630  0.46372413  1
  O  O12  1  0.07172431  0.12295227  0.30153377  1
  O  O13  1  0.07172431  0.50378964  0.12295227  1
  O  O14  1  0.07172431  0.30153377  0.50378964  1
  O  O15  1  0.24403965  0.08251658  0.73155624  1
  O  O16  1  0.43222303  0.19971675  0.38046330  1
  O  O17  1  0.25601984  0.41771810  0.55807818  1
  O  O18  1  0.24403965  0.94188753  0.08251658  1
  O  O19  1  0.25601984  0.76818488  0.41771810  1
  O  O20  1  0.56900417  0.62018907  0.00684877  1
  O  O21  1  0.25601984  0.55807818  0.76818488  1
  O  O22  1  0.75828866  0.26623974  0.05726240  1
  O  O23  1  0.56900417  0.00684877  0.80395699  1
  O  O24  1  0.43222303  0.98759792  0.19971675  1
  O  O25  1  0.24403965  0.73155624  0.94188753  1
  O  O26  1  0.74303750  0.43941308  0.23327132  1
  O  O27  1  0.43222303  0.38046330  0.98759792  1
  O  O28  1  0.74303750  0.23327132  0.58427810  1
  O  O29  1  0.75828866  0.05726240  0.91820920  1
  O  O30  1  0.74303750  0.58427810  0.43941308  1
  O  O31  1  0.56900417  0.80395699  0.62018907  1
  O  O32  1  0.75828866  0.91820920  0.26623974  1
  O  O33  1  0.92896205  0.69973850  0.49217857  1
  O  O34  1  0.92896205  0.49217857  0.87911988  1
  O  O35  1  0.92896205  0.87911988  0.69973850  1
