# generated using pymatgen
data_Ta3AgO8
_symmetry_space_group_name_H-M   'P 1'
_cell_length_a   7.02180413
_cell_length_b   7.35218995
_cell_length_c   7.35218995
_cell_angle_alpha   119.91592776
_cell_angle_beta   118.52430694
_cell_angle_gamma   61.47569306
_symmetry_Int_Tables_number   1
_chemical_formula_structural   Ta3AgO8
_chemical_formula_sum   'Ta6 Ag2 O16'
_cell_volume   274.40314185
_cell_formula_units_Z   2
loop_
 _symmetry_equiv_pos_site_id
 _symmetry_equiv_pos_as_xyz
  1  'x, y, z'
loop_
 _atom_site_type_symbol
 _atom_site_label
 _atom_site_symmetry_multiplicity
 _atom_site_fract_x
 _atom_site_fract_y
 _atom_site_fract_z
 _atom_site_occupancy
  Ta  Ta0  1  0.76658197  0.49398653  0.02715147  1
  Ta  Ta1  1  0.73341803  0.02715147  0.49398653  1
  Ta  Ta2  1  0.75000000  0.50000000  0.50000000  1
  Ta  Ta3  1  0.25000000  0.50000000  0.50000000  1
  Ta  Ta4  1  0.26658197  0.97284853  0.50601347  1
  Ta  Ta5  1  0.23341803  0.50601347  0.97284853  1
  Ag  Ag6  1  0.25000000  -0.00000000  -0.00000000  1
  Ag  Ag7  1  0.75000000  -0.00000000  -0.00000000  1
  O  O8  1  0.55927463  0.45551193  0.16478383  1
  O  O9  1  0.94072537  0.16478383  0.45551193  1
  O  O10  1  0.14999627  0.45551193  0.16478383  1
  O  O11  1  0.35000373  0.16478383  0.45551193  1
  O  O12  1  0.93354161  0.44782902  0.31491224  1
  O  O13  1  0.56645839  0.31491224  0.44782902  1
  O  O14  1  0.17684484  0.81546029  0.16914996  1
  O  O15  1  0.32315516  0.16914996  0.81546029  1
  O  O16  1  0.67684484  0.83085004  0.18453971  1
  O  O17  1  0.82315516  0.18453971  0.83085004  1
  O  O18  1  0.43354161  0.68508776  0.55217098  1
  O  O19  1  0.06645839  0.55217098  0.68508776  1
  O  O20  1  0.05927463  0.83521617  0.54448807  1
  O  O21  1  0.64999627  0.83521617  0.54448807  1
  O  O22  1  0.85000373  0.54448807  0.83521617  1
  O  O23  1  0.44072537  0.54448807  0.83521617  1
