# generated using pymatgen
data_Li9Mn7O16
_symmetry_space_group_name_H-M   'P 1'
_cell_length_a   2.87971598
_cell_length_b   9.78860779
_cell_length_c   11.32866867
_cell_angle_alpha   71.48931964
_cell_angle_beta   82.69804890
_cell_angle_gamma   90.00000282
_symmetry_Int_Tables_number   1
_chemical_formula_structural   Li9Mn7O16
_chemical_formula_sum   'Li9 Mn7 O16'
_cell_volume   300.08375471
_cell_formula_units_Z   1
loop_
 _symmetry_equiv_pos_site_id
 _symmetry_equiv_pos_as_xyz
  1  'x, y, z'
loop_
 _atom_site_type_symbol
 _atom_site_label
 _atom_site_symmetry_multiplicity
 _atom_site_fract_x
 _atom_site_fract_y
 _atom_site_fract_z
 _atom_site_occupancy
  Li  Li0  1  0.43699921  0.17848572  0.12600159  1
  Li  Li1  1  0.31300079  0.57151428  0.37399841  1
  Li  Li2  1  0.19272248  0.93605599  0.61455504  1
  Li  Li3  1  0.81617196  0.05839996  0.36765608  1
  Li  Li4  1  0.68883641  0.43608152  0.62232718  1
  Li  Li5  1  0.55727752  0.81394401  0.88544496  1
  Li  Li6  1  0.06116359  0.31391848  0.87767282  1
  Li  Li7  1  0.93382804  0.69160004  0.13234392  1
  Li  Li8  1  0.37500000  0.87500000  0.25000000  1
  Mn  Mn9  1  0.99229910  0.99876419  0.01540179  1
  Mn  Mn10  1  0.75770090  0.75123581  0.48459821  1
  Mn  Mn11  1  0.87500000  0.37500000  0.25000000  1
  Mn  Mn12  1  0.62111282  0.12260884  0.75777436  1
  Mn  Mn13  1  0.50112314  0.50472654  0.99775371  1
  Mn  Mn14  1  0.24887686  0.24527346  0.50224629  1
  Mn  Mn15  1  0.12888718  0.62739116  0.74222564  1
  O  O16  1  0.52529566  0.13911747  0.94940868  1
  O  O17  1  0.40071458  0.51984878  0.19857083  1
  O  O18  1  0.27854668  0.89196436  0.44290665  1
  O  O19  1  0.91640931  0.02836002  0.16718138  1
  O  O20  1  0.77488933  0.38722295  0.45022134  1
  O  O21  1  0.66162768  0.76968465  0.67674464  1
  O  O22  1  0.14953351  0.26509492  0.70093299  1
  O  O23  1  0.02911935  0.64877234  0.94176130  1
  O  O24  1  0.34928542  0.23015122  0.30142917  1
  O  O25  1  0.22470434  0.61088253  0.55059132  1
  O  O26  1  0.08837232  0.98031535  0.82325536  1
  O  O27  1  0.72088065  0.10122766  0.55823870  1
  O  O28  1  0.60046649  0.48490508  0.79906701  1
  O  O29  1  0.47145332  0.85803564  0.05709335  1
  O  O30  1  0.97511067  0.36277705  0.04977866  1
  O  O31  1  0.83359069  0.72163998  0.33281862  1
