# generated using pymatgen
data_YMg3
_symmetry_space_group_name_H-M   'P 1'
_cell_length_a   6.40481719
_cell_length_b   3.96821681
_cell_length_c   5.08768549
_cell_angle_alpha   90.00000000
_cell_angle_beta   90.00000000
_cell_angle_gamma   128.28455914
_symmetry_Int_Tables_number   1
_chemical_formula_structural   YMg3
_chemical_formula_sum   'Y1 Mg3'
_cell_volume   101.49875429
_cell_formula_units_Z   1
loop_
 _symmetry_equiv_pos_site_id
 _symmetry_equiv_pos_as_xyz
  1  'x, y, z'
loop_
 _atom_site_type_symbol
 _atom_site_label
 _atom_site_symmetry_multiplicity
 _atom_site_fract_x
 _atom_site_fract_y
 _atom_site_fract_z
 _atom_site_occupancy
  Y  Y0  1  0.24679699  0.74679699  0.25000000  1
  Mg  Mg1  1  0.74510243  0.74510243  0.25000000  1
  Mg  Mg2  1  0.25386092  0.25386093  0.75000000  1
  Mg  Mg3  1  0.75423965  0.25423965  0.75000000  1
