# generated using pymatgen
data_Li9Mn7O16
_symmetry_space_group_name_H-M   'P 1'
_cell_length_a   2.87818550
_cell_length_b   13.56370371
_cell_length_c   7.80884177
_cell_angle_alpha   84.90210697
_cell_angle_beta   79.38026338
_cell_angle_gamma   89.99999896
_symmetry_Int_Tables_number   1
_chemical_formula_structural   Li9Mn7O16
_chemical_formula_sum   'Li9 Mn7 O16'
_cell_volume   298.39980250
_cell_formula_units_Z   1
loop_
 _symmetry_equiv_pos_site_id
 _symmetry_equiv_pos_as_xyz
  1  'x, y, z'
loop_
 _atom_site_type_symbol
 _atom_site_label
 _atom_site_symmetry_multiplicity
 _atom_site_fract_x
 _atom_site_fract_y
 _atom_site_fract_z
 _atom_site_occupancy
  Li  Li0  1  0.56324476  0.18154934  0.87351047  1
  Li  Li1  1  0.68675524  0.56845066  0.62648953  1
  Li  Li2  1  0.80697798  0.93032969  0.38604405  1
  Li  Li3  1  0.93703174  0.31407508  0.12593651  1
  Li  Li4  1  0.06378206  0.69553946  0.87243587  1
  Li  Li5  1  0.18621794  0.05446054  0.62756413  1
  Li  Li6  1  0.31296826  0.43592492  0.37406349  1
  Li  Li7  1  0.44302202  0.81967031  0.11395595  1
  Li  Li8  1  0.62500000  0.87500000  0.75000000  1
  Mn  Mn9  1  0.00533007  0.98978017  0.98933987  1
  Mn  Mn10  1  0.24466993  0.76021983  0.51066013  1
  Mn  Mn11  1  0.12500000  0.37500000  0.75000000  1
  Mn  Mn12  1  0.37683829  0.11645267  0.24632341  1
  Mn  Mn13  1  0.49880079  0.50290304  0.00239843  1
  Mn  Mn14  1  0.75119921  0.24709696  0.49760157  1
  Mn  Mn15  1  0.87316171  0.63354733  0.25367659  1
  O  O16  1  0.58615539  0.02875237  0.82768922  1
  O  O17  1  0.70982673  0.40869247  0.58034654  1
  O  O18  1  0.83056533  0.78114446  0.33886933  1
  O  O19  1  0.96414516  0.14131741  0.07170967  1
  O  O20  1  0.08332452  0.53310077  0.83335096  1
  O  O21  1  0.22232665  0.88918311  0.55534670  1
  O  O22  1  0.33637646  0.27981139  0.32724708  1
  O  O23  1  0.45871578  0.66059530  0.08256843  1
  O  O24  1  0.54017327  0.34130753  0.91965346  1
  O  O25  1  0.66384461  0.72124763  0.67231078  1
  O  O26  1  0.79128422  0.08940470  0.41743157  1
  O  O27  1  0.91362354  0.47018861  0.17275292  1
  O  O28  1  0.02767335  0.86081689  0.94465330  1
  O  O29  1  0.16667548  0.21689923  0.66664904  1
  O  O30  1  0.28585484  0.60868259  0.42829033  1
  O  O31  1  0.41943467  0.96885554  0.16113067  1
