# generated using pymatgen
data_LiV4P7O24
_symmetry_space_group_name_H-M   'P 1'
_cell_length_a   10.28947193
_cell_length_b   10.37099998
_cell_length_c   11.03581013
_cell_angle_alpha   113.19387752
_cell_angle_beta   108.90003234
_cell_angle_gamma   104.95357090
_symmetry_Int_Tables_number   1
_chemical_formula_structural   LiV4P7O24
_chemical_formula_sum   'Li2 V8 P14 O48'
_cell_volume   917.92468650
_cell_formula_units_Z   2
loop_
 _symmetry_equiv_pos_site_id
 _symmetry_equiv_pos_as_xyz
  1  'x, y, z'
loop_
 _atom_site_type_symbol
 _atom_site_label
 _atom_site_symmetry_multiplicity
 _atom_site_fract_x
 _atom_site_fract_y
 _atom_site_fract_z
 _atom_site_occupancy
  Li  Li0  1  0.02400787  0.42133669  0.57377788  1
  Li  Li1  1  0.97599313  0.57866331  0.42622212  1
  V  V2  1  0.24669877  0.84534799  0.74707486  1
  V  V3  1  0.07411172  0.68969991  0.07615269  1
  V  V4  1  0.37639349  0.22665067  0.88767902  1
  V  V5  1  0.43017319  0.58600839  0.41273670  1
  V  V6  1  0.56982681  0.41399161  0.58726330  1
  V  V7  1  0.62360651  0.77334933  0.11232098  1
  V  V8  1  0.92588828  0.31030009  0.92384731  1
  V  V9  1  0.75330123  0.15465201  0.25292514  1
  P  P10  1  0.00321507  0.98967909  0.76776057  1
  P  P11  1  0.23658253  0.80501166  0.43224748  1
  P  P12  1  0.06731686  0.32836490  0.26602567  1
  P  P13  1  0.49350522  0.71945970  0.75647126  1
  P  P14  1  0.26665488  0.13035429  0.52346229  1
  P  P15  1  0.38585281  0.94079979  0.11862225  1
  P  P16  1  0.30025497  0.51067910  0.05309180  1
  P  P17  1  0.69974503  0.48932090  0.94690820  1
  P  P18  1  0.61414719  0.05920021  0.88137775  1
  P  P19  1  0.73334512  0.86964571  0.47653771  1
  P  P20  1  0.50649478  0.28054030  0.24352874  1
  P  P21  1  0.93268314  0.67163510  0.73397533  1
  P  P22  1  0.76341747  0.19498834  0.56775252  1
  P  P23  1  0.99678493  0.01032091  0.23223943  1
  O  O24  1  0.00148706  0.66962953  0.87546706  1
  O  O25  1  0.02964394  0.65155829  0.64999279  1
  O  O26  1  0.31117476  0.89240848  0.95436553  1
  O  O27  1  0.01683416  0.87827146  0.13553514  1
  O  O28  1  0.15958818  0.79268247  0.53052950  1
  O  O29  1  0.10784456  0.70461022  0.26966986  1
  O  O30  1  0.26543200  0.35215003  0.92511830  1
  O  O31  1  0.16759582  0.01680647  0.79643725  1
  O  O32  1  0.30373458  0.98453418  0.47046255  1
  O  O33  1  0.32415009  0.68951063  0.70080329  1
  O  O34  1  0.08813926  0.06677861  0.40654786  1
  O  O35  1  0.06351171  0.15546732  0.21620452  1
  O  O36  1  0.23134913  0.44502247  0.37614644  1
  O  O37  1  0.27515361  0.18169124  0.67359079  1
  O  O38  1  0.13813651  0.51296471  0.01416044  1
  O  O39  1  0.37244919  0.77011405  0.46476110  1
  O  O40  1  0.29124150  0.84508761  0.15927986  1
  O  O41  1  0.56134409  0.72609415  0.90196324  1
  O  O42  1  0.59173802  0.88484203  0.78143462  1
  O  O43  1  0.35764143  0.25203753  0.50374736  1
  O  O44  1  0.50703005  0.60261753  0.62658184  1
  O  O45  1  0.44609102  0.04271282  0.82543906  1
  O  O46  1  0.58770109  0.35882915  0.94664760  1
  O  O47  1  0.36464220  0.52649438  0.20697688  1
  O  O48  1  0.63535780  0.47350562  0.79302312  1
  O  O49  1  0.41229891  0.64117085  0.05335240  1
  O  O50  1  0.55390898  0.95728718  0.17456094  1
  O  O51  1  0.49296995  0.39738247  0.37341816  1
  O  O52  1  0.64235857  0.74796247  0.49625264  1
  O  O53  1  0.40826198  0.11515797  0.21856538  1
  O  O54  1  0.43865591  0.27390585  0.09803676  1
  O  O55  1  0.70875850  0.15491239  0.84072014  1
  O  O56  1  0.62755081  0.22988595  0.53523890  1
  O  O57  1  0.86186349  0.48703529  0.98583956  1
  O  O58  1  0.72484639  0.81830876  0.32640921  1
  O  O59  1  0.76865087  0.55497753  0.62385356  1
  O  O60  1  0.93648829  0.84453268  0.78379548  1
  O  O61  1  0.91186074  0.93322139  0.59345214  1
  O  O62  1  0.67584991  0.31048937  0.29919671  1
  O  O63  1  0.69626542  0.01546582  0.52953745  1
  O  O64  1  0.83240418  0.98319353  0.20356275  1
  O  O65  1  0.73456800  0.64784997  0.07488170  1
  O  O66  1  0.89215544  0.29538978  0.73033014  1
  O  O67  1  0.84041182  0.20731753  0.46947050  1
  O  O68  1  0.98316584  0.12172854  0.86446486  1
  O  O69  1  0.68882524  0.10759152  0.04563447  1
  O  O70  1  0.97035606  0.34844171  0.35000721  1
  O  O71  1  0.99851294  0.33037047  0.12453294  1
