# generated using pymatgen
data_K3TiCl6
_symmetry_space_group_name_H-M   'P 1'
_cell_length_a   7.26755566
_cell_length_b   15.74941300
_cell_length_c   13.18304568
_cell_angle_alpha   108.29617667
_cell_angle_beta   90.00000000
_cell_angle_gamma   90.00000000
_symmetry_Int_Tables_number   1
_chemical_formula_structural   K3TiCl6
_chemical_formula_sum   'K12 Ti4 Cl24'
_cell_volume   1432.64622662
_cell_formula_units_Z   4
loop_
 _symmetry_equiv_pos_site_id
 _symmetry_equiv_pos_as_xyz
  1  'x, y, z'
loop_
 _atom_site_type_symbol
 _atom_site_label
 _atom_site_symmetry_multiplicity
 _atom_site_fract_x
 _atom_site_fract_y
 _atom_site_fract_z
 _atom_site_occupancy
  K  K0  1  0.00198705  0.10264301  0.17240279  1
  K  K1  1  0.48479515  0.84152738  0.54429917  1
  K  K2  1  0.10969933  0.80105654  0.14546626  1
  K  K3  1  0.98479515  0.65847262  0.45570083  1
  K  K4  1  0.50198705  0.39735699  0.82759721  1
  K  K5  1  0.60969933  0.69894346  0.85453374  1
  K  K6  1  0.39030067  0.30105654  0.14546626  1
  K  K7  1  0.99801295  0.89735699  0.82759721  1
  K  K8  1  0.89030067  0.19894346  0.85453374  1
  K  K9  1  0.51520485  0.15847262  0.45570083  1
  K  K10  1  0.49801295  0.60264301  0.17240279  1
  K  K11  1  0.01520485  0.34152738  0.54429917  1
  Ti  Ti12  1  0.00000000  0.50000000  0.00000000  1
  Ti  Ti13  1  0.50000000  0.00000000  0.00000000  1
  Ti  Ti14  1  0.50000000  0.50000000  0.50000000  1
  Ti  Ti15  1  0.00000000  0.00000000  0.50000000  1
  Cl  Cl16  1  0.43426792  0.03544535  0.18029706  1
  Cl  Cl17  1  0.27978843  0.57919594  0.96944227  1
  Cl  Cl18  1  0.59888537  0.57777548  0.38477828  1
  Cl  Cl19  1  0.25715430  0.74859768  0.33550224  1
  Cl  Cl20  1  0.09888537  0.92222452  0.61522172  1
  Cl  Cl21  1  0.24284570  0.24859768  0.33550224  1
  Cl  Cl22  1  0.28885760  0.98665823  0.42517128  1
  Cl  Cl23  1  0.06573208  0.53544535  0.18029706  1
  Cl  Cl24  1  0.82676750  0.64360913  0.03452014  1
  Cl  Cl25  1  0.56573208  0.96455465  0.81970294  1
  Cl  Cl26  1  0.75715430  0.75140232  0.66449776  1
  Cl  Cl27  1  0.40111463  0.42222452  0.61522172  1
  Cl  Cl28  1  0.71114240  0.01334177  0.57482872  1
  Cl  Cl29  1  0.78885760  0.51334177  0.57482872  1
  Cl  Cl30  1  0.67323250  0.14360913  0.03452014  1
  Cl  Cl31  1  0.90111463  0.07777548  0.38477828  1
  Cl  Cl32  1  0.93426792  0.46455465  0.81970294  1
  Cl  Cl33  1  0.17323250  0.35639087  0.96547986  1
  Cl  Cl34  1  0.22021157  0.07919594  0.96944227  1
  Cl  Cl35  1  0.77978843  0.92080406  0.03055773  1
  Cl  Cl36  1  0.74284570  0.25140232  0.66449776  1
  Cl  Cl37  1  0.21114240  0.48665823  0.42517128  1
  Cl  Cl38  1  0.72021157  0.42080406  0.03055773  1
  Cl  Cl39  1  0.32676750  0.85639087  0.96547986  1
