# generated using pymatgen
data_Dy(Fe2Si)2
_symmetry_space_group_name_H-M   'P 1'
_cell_length_a   3.74345081
_cell_length_b   7.09549255
_cell_length_c   7.09549255
_cell_angle_alpha   90.00000000
_cell_angle_beta   90.00000000
_cell_angle_gamma   90.00000000
_symmetry_Int_Tables_number   1
_chemical_formula_structural   Dy(Fe2Si)2
_chemical_formula_sum   'Dy2 Fe8 Si4'
_cell_volume   188.46782886
_cell_formula_units_Z   2
loop_
 _symmetry_equiv_pos_site_id
 _symmetry_equiv_pos_as_xyz
  1  'x, y, z'
loop_
 _atom_site_type_symbol
 _atom_site_label
 _atom_site_symmetry_multiplicity
 _atom_site_fract_x
 _atom_site_fract_y
 _atom_site_fract_z
 _atom_site_occupancy
  Dy  Dy0  1  0.50000000  0.50000000  0.50000000  1
  Dy  Dy1  1  -0.00000000  0.00000000  -0.00000000  1
  Fe  Fe2  1  0.50000000  0.91488088  0.64673607  1
  Fe  Fe3  1  0.50000000  0.08511912  0.35326393  1
  Fe  Fe4  1  -0.00000000  0.58511912  0.14673607  1
  Fe  Fe5  1  0.00000000  0.41488088  0.85326393  1
  Fe  Fe6  1  0.50000000  0.64673607  0.91488088  1
  Fe  Fe7  1  0.50000000  0.35326393  0.08511912  1
  Fe  Fe8  1  -0.00000000  0.14673607  0.58511912  1
  Fe  Fe9  1  -0.00000000  0.85326393  0.41488088  1
  Si  Si10  1  0.50000000  0.21920334  0.78079666  1
  Si  Si11  1  0.50000000  0.78079666  0.21920334  1
  Si  Si12  1  -0.00000000  0.28079666  0.28079666  1
  Si  Si13  1  -0.00000000  0.71920334  0.71920334  1
