# generated using pymatgen
data_Li3Mn(PO4)2
_symmetry_space_group_name_H-M   'P 1'
_cell_length_a   8.47442113
_cell_length_b   10.49217539
_cell_length_c   8.01466681
_cell_angle_alpha   90.00000000
_cell_angle_beta   107.68038011
_cell_angle_gamma   90.00000000
_symmetry_Int_Tables_number   1
_chemical_formula_structural   Li3Mn(PO4)2
_chemical_formula_sum   'Li12 Mn4 P8 O32'
_cell_volume   678.96454366
_cell_formula_units_Z   4
loop_
 _symmetry_equiv_pos_site_id
 _symmetry_equiv_pos_as_xyz
  1  'x, y, z'
loop_
 _atom_site_type_symbol
 _atom_site_label
 _atom_site_symmetry_multiplicity
 _atom_site_fract_x
 _atom_site_fract_y
 _atom_site_fract_z
 _atom_site_occupancy
  Li  Li0  1  0.88988140  0.33146461  0.37697184  1
  Li  Li1  1  0.33047624  0.64409371  0.35136300  1
  Li  Li2  1  0.84423219  0.85009645  0.34959505  1
  Li  Li3  1  0.61011860  0.83146461  0.62302816  1
  Li  Li4  1  0.65576781  0.35009645  0.65040495  1
  Li  Li5  1  0.10309371  0.66391550  0.61474903  1
  Li  Li6  1  0.34384653  0.84667255  0.80970857  1
  Li  Li7  1  0.15615347  0.34667255  0.19029143  1
  Li  Li8  1  0.39690629  0.16391550  0.38525097  1
  Li  Li9  1  0.73405185  0.07378062  0.46703734  1
  Li  Li10  1  0.76594815  0.57378062  0.53296266  1
  Li  Li11  1  0.16952376  0.14409371  0.64863700  1
  Mn  Mn12  1  0.36780697  0.34776182  0.88043493  1
  Mn  Mn13  1  0.13219303  0.84776182  0.11956507  1
  Mn  Mn14  1  0.63168465  0.65441466  0.11298111  1
  Mn  Mn15  1  0.86831535  0.15441466  0.88701889  1
  P  P16  1  0.52482776  0.41184595  0.27446791  1
  P  P17  1  0.47454502  0.59295815  0.71003929  1
  P  P18  1  0.97517224  0.91184595  0.72553209  1
  P  P19  1  0.45213086  0.91080848  0.21420193  1
  P  P20  1  0.55421367  0.08364533  0.79452420  1
  P  P21  1  0.04786914  0.41080848  0.78579807  1
  P  P22  1  0.94578633  0.58364533  0.20547580  1
  P  P23  1  0.02545498  0.09295815  0.28996071  1
  O  O24  1  0.51376084  0.03761519  0.29948302  1
  O  O25  1  0.09193380  0.66904813  0.19931868  1
  O  O26  1  0.00505875  0.45145476  0.27232003  1
  O  O27  1  0.34679851  0.83488649  0.31473369  1
  O  O28  1  0.69286470  0.39610772  0.42178888  1
  O  O29  1  0.60033750  0.83015516  0.20062068  1
  O  O30  1  0.89966250  0.33015516  0.79937932  1
  O  O31  1  0.47120808  0.66649339  0.88484735  1
  O  O32  1  0.40806620  0.16904813  0.80068132  1
  O  O33  1  0.31294461  0.91967843  0.03099408  1
  O  O34  1  0.30282394  0.61769216  0.58084991  1
  O  O35  1  0.60901334  0.64773172  0.63889878  1
  O  O36  1  0.38848224  0.34154105  0.32605146  1
  O  O37  1  0.19717606  0.11769116  0.41915009  1
  O  O38  1  0.54361645  0.35782736  0.09772933  1
  O  O39  1  0.69698049  0.08298282  0.97274820  1
  O  O40  1  0.02879192  0.16649339  0.11515265  1
  O  O41  1  0.80713530  0.89610872  0.57821112  1
  O  O42  1  0.95638355  0.85782736  0.90227067  1
  O  O43  1  0.01044745  0.05843106  0.75237819  1
  O  O44  1  0.65363180  0.15174637  0.67640779  1
  O  O45  1  0.98623916  0.53761519  0.70051698  1
  O  O46  1  0.50507056  0.44795835  0.75154233  1
  O  O47  1  0.11151776  0.84154205  0.67394854  1
  O  O48  1  0.80301951  0.58298282  0.02725180  1
  O  O49  1  0.48955255  0.55843106  0.24762181  1
  O  O50  1  0.15320149  0.33488649  0.68526631  1
  O  O51  1  0.99492944  0.94795835  0.24845767  1
  O  O52  1  0.89098666  0.14773172  0.36110122  1
  O  O53  1  0.84636820  0.65174637  0.32359221  1
  O  O54  1  0.49494125  0.95145476  0.72767997  1
  O  O55  1  0.18705539  0.41967843  0.96900592  1
