# generated using pymatgen
data_Al2Si2H4O9
_symmetry_space_group_name_H-M   'P 1'
_cell_length_a   5.27162304
_cell_length_b   5.23861810
_cell_length_c   7.29663069
_cell_angle_alpha   90.39509585
_cell_angle_beta   89.21473722
_cell_angle_gamma   120.20862896
_symmetry_Int_Tables_number   1
_chemical_formula_structural   Al2Si2H4O9
_chemical_formula_sum   'Al2 Si2 H4 O9'
_cell_volume   174.12311986
_cell_formula_units_Z   1
loop_
 _symmetry_equiv_pos_site_id
 _symmetry_equiv_pos_as_xyz
  1  'x, y, z'
loop_
 _atom_site_type_symbol
 _atom_site_label
 _atom_site_symmetry_multiplicity
 _atom_site_fract_x
 _atom_site_fract_y
 _atom_site_fract_z
 _atom_site_occupancy
  Al  Al0  1  0.66746333  0.66744689  0.48158766  1
  Al  Al1  1  0.00001644  0.33255311  0.48158766  1
  Si  Si2  1  0.67797908  0.34226672  0.85591638  1
  Si  Si3  1  0.33571237  0.65773328  0.85591638  1
  H  H4  1  0.34128901  0.34123815  0.22699451  1
  H  H5  1  0.00005086  0.65876185  0.22699451  1
  H  H6  1  0.65875838  1.00000000  0.22846387  1
  H  H7  1  0.99628446  0.00000000  0.75235475  1
  O  O8  1  0.71265217  0.38657226  0.63680701  1
  O  O9  1  0.32607990  0.61342774  0.63680701  1
  O  O10  1  0.50008589  0.49461136  0.94947087  1
  O  O11  1  0.00547453  0.50538864  0.94947087  1
  O  O12  1  0.50473417  1.00000000  0.92923799  1
  O  O13  1  0.33551849  0.39355723  0.35359107  1
  O  O14  1  0.94196126  0.60644277  0.35359107  1
  O  O15  1  0.72865619  1.00000000  0.34995486  1
  O  O16  1  0.93398346  0.00000000  0.62885356  1
