# generated using pymatgen
data_Ce5Sn3
_symmetry_space_group_name_H-M   'P 1'
_cell_length_a   8.33943535
_cell_length_b   8.33943535
_cell_length_c   9.00843169
_cell_angle_alpha   117.57235066
_cell_angle_beta   117.57235066
_cell_angle_gamma   90.00000000
_symmetry_Int_Tables_number   1
_chemical_formula_structural   Ce5Sn3
_chemical_formula_sum   'Ce10 Sn6'
_cell_volume   473.62303281
_cell_formula_units_Z   2
loop_
 _symmetry_equiv_pos_site_id
 _symmetry_equiv_pos_as_xyz
  1  'x, y, z'
loop_
 _atom_site_type_symbol
 _atom_site_label
 _atom_site_symmetry_multiplicity
 _atom_site_fract_x
 _atom_site_fract_y
 _atom_site_fract_z
 _atom_site_occupancy
  Ce  Ce0  1  0.50000000  0.50000000  0.00000000  1
  Ce  Ce1  1  0.00000000  0.00000000  0.00000000  1
  Ce  Ce2  1  0.98248398  0.82916069  0.31164467  1
  Ce  Ce3  1  0.32916069  0.48248398  0.31164467  1
  Ce  Ce4  1  0.82916069  0.32916069  0.31164467  1
  Ce  Ce5  1  0.48248398  0.98248398  0.31164467  1
  Ce  Ce6  1  0.01751602  0.17083931  0.68835533  1
  Ce  Ce7  1  0.67083931  0.51751602  0.68835533  1
  Ce  Ce8  1  0.17083931  0.67083931  0.68835533  1
  Ce  Ce9  1  0.51751602  0.01751602  0.68835533  1
  Sn  Sn10  1  0.75000000  0.75000000  0.50000000  1
  Sn  Sn11  1  0.25000000  0.25000000  0.50000000  1
  Sn  Sn12  1  0.62776286  0.87223714  0.00000000  1
  Sn  Sn13  1  0.37223714  0.12776286  0.00000000  1
  Sn  Sn14  1  0.87223714  0.37223714  0.00000000  1
  Sn  Sn15  1  0.12776286  0.62776286  0.00000000  1
