# generated using pymatgen
data_Ce3Ga2
_symmetry_space_group_name_H-M   'P 1'
_cell_length_a   7.19072367
_cell_length_b   8.39397295
_cell_length_c   8.39397295
_cell_angle_alpha   90.00000000
_cell_angle_beta   90.00000000
_cell_angle_gamma   90.00000000
_symmetry_Int_Tables_number   1
_chemical_formula_structural   Ce3Ga2
_chemical_formula_sum   'Ce12 Ga8'
_cell_volume   506.64963066
_cell_formula_units_Z   4
loop_
 _symmetry_equiv_pos_site_id
 _symmetry_equiv_pos_as_xyz
  1  'x, y, z'
loop_
 _atom_site_type_symbol
 _atom_site_label
 _atom_site_symmetry_multiplicity
 _atom_site_fract_x
 _atom_site_fract_y
 _atom_site_fract_z
 _atom_site_occupancy
  Ce  Ce0  1  0.25000000  -0.00000000  0.50000000  1
  Ce  Ce1  1  0.75000000  0.50000000  -0.00000000  1
  Ce  Ce2  1  0.75000000  -0.00000000  0.50000000  1
  Ce  Ce3  1  0.25000000  0.50000000  -0.00000000  1
  Ce  Ce4  1  0.50000000  0.15702259  0.84297741  1
  Ce  Ce5  1  0.50000000  0.84297741  0.15702259  1
  Ce  Ce6  1  -0.00000000  0.34297741  0.34297741  1
  Ce  Ce7  1  0.00000000  0.65702259  0.65702259  1
  Ce  Ce8  1  0.50000000  0.69586747  0.69586747  1
  Ce  Ce9  1  0.50000000  0.30413253  0.30413253  1
  Ce  Ce10  1  0.00000000  0.80413253  0.19586747  1
  Ce  Ce11  1  0.00000000  0.19586747  0.80413253  1
  Ga  Ga12  1  0.29798201  0.37997240  0.62002760  1
  Ga  Ga13  1  0.29798201  0.62002760  0.37997240  1
  Ga  Ga14  1  0.79798201  0.12002760  0.12002760  1
  Ga  Ga15  1  0.79798201  0.87997240  0.87997240  1
  Ga  Ga16  1  0.70201799  0.62002760  0.37997240  1
  Ga  Ga17  1  0.70201799  0.37997240  0.62002760  1
  Ga  Ga18  1  0.20201799  0.87997240  0.87997240  1
  Ga  Ga19  1  0.20201799  0.12002760  0.12002760  1
