# generated using pymatgen
data_KC2N3
_symmetry_space_group_name_H-M   'P 1'
_cell_length_a   3.90294156
_cell_length_b   6.91343744
_cell_length_c   16.27757142
_cell_angle_alpha   90.00000000
_cell_angle_beta   90.00000000
_cell_angle_gamma   99.43486976
_symmetry_Int_Tables_number   1
_chemical_formula_structural   KC2N3
_chemical_formula_sum   'K4 C8 N12'
_cell_volume   433.27208958
_cell_formula_units_Z   4
loop_
 _symmetry_equiv_pos_site_id
 _symmetry_equiv_pos_as_xyz
  1  'x, y, z'
loop_
 _atom_site_type_symbol
 _atom_site_label
 _atom_site_symmetry_multiplicity
 _atom_site_fract_x
 _atom_site_fract_y
 _atom_site_fract_z
 _atom_site_occupancy
  K  K0  1  0.65701482  0.32511633  0.90398377  1
  K  K1  1  0.65701482  0.82511633  0.59601623  1
  K  K2  1  0.34298518  0.17488367  0.40398377  1
  K  K3  1  0.34298518  0.67488367  0.09601623  1
  C  C4  1  0.12907449  0.95824857  0.78489160  1
  C  C5  1  0.87092551  0.04175143  0.21510840  1
  C  C6  1  0.04864786  0.65563251  0.41301174  1
  C  C7  1  0.95135214  0.84436749  0.91301174  1
  C  C8  1  0.87092551  0.54175143  0.28489160  1
  C  C9  1  0.04864786  0.15563251  0.08698826  1
  C  C10  1  0.95135214  0.34436749  0.58698826  1
  C  C11  1  0.12907449  0.45824857  0.71510840  1
  N  N12  1  0.15230193  0.77407362  0.46341688  1
  N  N13  1  0.80454305  0.05464929  0.28531172  1
  N  N14  1  0.93607272  0.01325952  0.13761742  1
  N  N15  1  0.84769807  0.72592638  0.96341688  1
  N  N16  1  0.19545695  0.94535071  0.71468828  1
  N  N17  1  0.80454305  0.55464929  0.21468828  1
  N  N18  1  0.19545695  0.44535071  0.78531172  1
  N  N19  1  0.15230193  0.27407362  0.03658312  1
  N  N20  1  0.06392728  0.98674048  0.86238258  1
  N  N21  1  0.06392728  0.48674048  0.63761742  1
  N  N22  1  0.93607272  0.51325952  0.36238258  1
  N  N23  1  0.84769807  0.22592638  0.53658312  1
