# generated using pymatgen
data_Ce3Sn6Ru
_symmetry_space_group_name_H-M   'P 1'
_cell_length_a   4.75665341
_cell_length_b   8.60933586
_cell_length_c   13.31656274
_cell_angle_alpha   90.00000000
_cell_angle_beta   90.00000000
_cell_angle_gamma   106.03650033
_symmetry_Int_Tables_number   1
_chemical_formula_structural   Ce3Sn6Ru
_chemical_formula_sum   'Ce6 Sn12 Ru2'
_cell_volume   524.11369311
_cell_formula_units_Z   2
loop_
 _symmetry_equiv_pos_site_id
 _symmetry_equiv_pos_as_xyz
  1  'x, y, z'
loop_
 _atom_site_type_symbol
 _atom_site_label
 _atom_site_symmetry_multiplicity
 _atom_site_fract_x
 _atom_site_fract_y
 _atom_site_fract_z
 _atom_site_occupancy
  Ce  Ce0  1  0.39771228  0.79542457  0.25000000  1
  Ce  Ce1  1  0.60228772  0.20457543  0.75000000  1
  Ce  Ce2  1  0.60100567  0.20201135  0.40558429  1
  Ce  Ce3  1  0.39899433  0.79798865  0.59441571  1
  Ce  Ce4  1  0.60100567  0.20201135  0.09441571  1
  Ce  Ce5  1  0.39899433  0.79798865  0.90558429  1
  Sn  Sn6  1  0.07388231  0.14776462  0.92425457  1
  Sn  Sn7  1  0.92611769  0.85223538  0.07574543  1
  Sn  Sn8  1  0.07388231  0.14776462  0.57574543  1
  Sn  Sn9  1  0.92611769  0.85223538  0.42425457  1
  Sn  Sn10  1  0.03992238  0.07984475  0.25000000  1
  Sn  Sn11  1  0.96007762  0.92015525  0.75000000  1
  Sn  Sn12  1  0.25589350  0.51178700  0.43397441  1
  Sn  Sn13  1  0.74410650  0.48821300  0.56602559  1
  Sn  Sn14  1  0.25589350  0.51178700  0.06602559  1
  Sn  Sn15  1  0.74410650  0.48821300  0.93397441  1
  Sn  Sn16  1  0.76764140  0.53528279  0.25000000  1
  Sn  Sn17  1  0.23235860  0.46471721  0.75000000  1
  Ru  Ru18  1  0.19846149  0.39692298  0.25000000  1
  Ru  Ru19  1  0.80153851  0.60307702  0.75000000  1
