# generated using pymatgen
data_Li2CrP2O7
_symmetry_space_group_name_H-M   'P 1'
_cell_length_a   7.55107244
_cell_length_b   7.55107253
_cell_length_c   11.23201008
_cell_angle_alpha   89.57150493
_cell_angle_beta   90.42849510
_cell_angle_gamma   63.23722413
_symmetry_Int_Tables_number   1
_chemical_formula_structural   Li2CrP2O7
_chemical_formula_sum   'Li8 Cr4 P8 O28'
_cell_volume   571.77210663
_cell_formula_units_Z   4
loop_
 _symmetry_equiv_pos_site_id
 _symmetry_equiv_pos_as_xyz
  1  'x, y, z'
loop_
 _atom_site_type_symbol
 _atom_site_label
 _atom_site_symmetry_multiplicity
 _atom_site_fract_x
 _atom_site_fract_y
 _atom_site_fract_z
 _atom_site_occupancy
  Li  Li0  1  0.28444406  0.28444406  0.75000000  1
  Li  Li1  1  0.29320563  0.28004906  0.50083620  1
  Li  Li2  1  0.70679437  0.71995094  0.49916380  1
  Li  Li3  1  0.70955794  0.70955794  0.75000000  1
  Li  Li4  1  0.71555594  0.71555594  0.25000000  1
  Li  Li5  1  0.29044206  0.29044206  0.25000000  1
  Li  Li6  1  0.28004906  0.29320563  0.99916380  1
  Li  Li7  1  0.71995094  0.70679437  0.00083620  1
  Cr  Cr8  1  0.70162500  0.29632678  0.12007900  1
  Cr  Cr9  1  0.70367322  0.29837500  0.62007900  1
  Cr  Cr10  1  0.29632678  0.70162500  0.37992100  1
  Cr  Cr11  1  0.29837500  0.70367322  0.87992100  1
  P  P12  1  0.08385741  0.69973152  0.12703481  1
  P  P13  1  0.08839868  0.68351278  0.62954171  1
  P  P14  1  0.69973152  0.08385741  0.37296519  1
  P  P15  1  0.31648722  0.91160132  0.12954171  1
  P  P16  1  0.30026848  0.91614259  0.62703481  1
  P  P17  1  0.68351278  0.08839868  0.87045829  1
  P  P18  1  0.91160132  0.31648722  0.37045829  1
  P  P19  1  0.91614259  0.30026848  0.87296519  1
  O  O20  1  0.58681911  0.19204560  0.48562470  1
  O  O21  1  0.09040397  0.90038431  0.62611257  1
  O  O22  1  0.58619481  0.19623192  0.25938830  1
  O  O23  1  0.72672570  0.87375013  0.87426486  1
  O  O24  1  0.42844568  0.79049611  0.01994986  1
  O  O25  1  0.09961569  0.90959603  0.12611257  1
  O  O26  1  0.19623192  0.58619481  0.24061170  1
  O  O27  1  0.41318089  0.80795440  0.51437530  1
  O  O28  1  0.57155432  0.20950389  0.98005014  1
  O  O29  1  0.90959603  0.09961569  0.37388743  1
  O  O30  1  0.86556688  0.75661953  0.12542851  1
  O  O31  1  0.24338047  0.13443312  0.62542851  1
  O  O32  1  0.19658067  0.57982852  0.74639290  1
  O  O33  1  0.75661953  0.86556688  0.37457149  1
  O  O34  1  0.19204560  0.58681911  0.01437530  1
  O  O35  1  0.79049611  0.42844568  0.48005014  1
  O  O36  1  0.20950389  0.57155432  0.51994986  1
  O  O37  1  0.27327430  0.12624987  0.12573514  1
  O  O38  1  0.41380519  0.80376808  0.74061170  1
  O  O39  1  0.80341933  0.42017148  0.25360710  1
  O  O40  1  0.57982852  0.19658067  0.75360710  1
  O  O41  1  0.12624987  0.27327430  0.37426486  1
  O  O42  1  0.80795440  0.41318089  0.98562470  1
  O  O43  1  0.42017148  0.80341933  0.24639290  1
  O  O44  1  0.80376808  0.41380519  0.75938830  1
  O  O45  1  0.87375013  0.72672570  0.62573514  1
  O  O46  1  0.13443312  0.24338047  0.87457149  1
  O  O47  1  0.90038431  0.09040397  0.87388743  1
