# generated using pymatgen
data_RbC2N3
_symmetry_space_group_name_H-M   'P 1'
_cell_length_a   6.67474515
_cell_length_b   7.70894487
_cell_length_c   8.71726251
_cell_angle_alpha   90.00001241
_cell_angle_beta   90.00000720
_cell_angle_gamma   90.00001027
_symmetry_Int_Tables_number   1
_chemical_formula_structural   RbC2N3
_chemical_formula_sum   'Rb4 C8 N12'
_cell_volume   448.54885537
_cell_formula_units_Z   4
loop_
 _symmetry_equiv_pos_site_id
 _symmetry_equiv_pos_as_xyz
  1  'x, y, z'
loop_
 _atom_site_type_symbol
 _atom_site_label
 _atom_site_symmetry_multiplicity
 _atom_site_fract_x
 _atom_site_fract_y
 _atom_site_fract_z
 _atom_site_occupancy
  Rb  Rb0  1  0.25000010  0.49999987  0.68650290  1
  Rb  Rb1  1  0.75000022  0.50000004  0.31349722  1
  Rb  Rb2  1  0.74999981  -0.00000007  0.31349708  1
  Rb  Rb3  1  0.24999997  0.00000009  0.68650295  1
  C  C4  1  0.35322026  0.75000002  0.07217861  1
  C  C5  1  0.76594464  0.24999995  0.67947605  1
  C  C6  1  0.23405524  0.74999994  0.32052400  1
  C  C7  1  0.73405520  0.75000005  0.67947591  1
  C  C8  1  0.85322026  0.74999999  0.92782155  1
  C  C9  1  0.26594465  0.25000000  0.32052395  1
  C  C10  1  0.64677970  0.25000006  0.92782107  1
  C  C11  1  0.14677974  0.24999998  0.07217885  1
  N  N12  1  0.35103613  0.75000008  0.93699616  1
  N  N13  1  0.37855502  0.75000008  0.22102882  1
  N  N14  1  0.62144491  0.24999998  0.77897115  1
  N  N15  1  0.64896380  0.25000020  0.06300383  1
  N  N16  1  0.87855494  0.75000007  0.77897120  1
  N  N17  1  0.11369322  0.74999980  0.42094545  1
  N  N18  1  0.14896382  0.25000004  0.93699603  1
  N  N19  1  0.38630695  0.24999996  0.42094554  1
  N  N20  1  0.12144500  0.24999990  0.22102888  1
  N  N21  1  0.85103621  0.74999991  0.06300376  1
  N  N22  1  0.88630689  0.24999992  0.57905453  1
  N  N23  1  0.61369332  0.75000014  0.57905452  1
