# generated using pymatgen
data_Eu5As4
_symmetry_space_group_name_H-M   'P 1'
_cell_length_a   8.01455662
_cell_length_b   8.05322364
_cell_length_c   8.67334256
_cell_angle_alpha   90.00000000
_cell_angle_beta   117.51768107
_cell_angle_gamma   90.00000000
_symmetry_Int_Tables_number   1
_chemical_formula_structural   Eu5As4
_chemical_formula_sum   'Eu10 As8'
_cell_volume   496.47215014
_cell_formula_units_Z   2
loop_
 _symmetry_equiv_pos_site_id
 _symmetry_equiv_pos_as_xyz
  1  'x, y, z'
loop_
 _atom_site_type_symbol
 _atom_site_label
 _atom_site_symmetry_multiplicity
 _atom_site_fract_x
 _atom_site_fract_y
 _atom_site_fract_z
 _atom_site_occupancy
  Eu  Eu0  1  0.18850416  0.16509960  0.71725206  1
  Eu  Eu1  1  0.52874790  0.83490040  0.71725206  1
  Eu  Eu2  1  0.02874790  0.66509960  0.71725206  1
  Eu  Eu3  1  0.68850416  0.33490040  0.71725206  1
  Eu  Eu4  1  0.81149584  0.83490040  0.28274794  1
  Eu  Eu5  1  0.47125210  0.16509960  0.28274794  1
  Eu  Eu6  1  0.97125210  0.33490040  0.28274794  1
  Eu  Eu7  1  0.31149584  0.66509960  0.28274794  1
  Eu  Eu8  1  0.50000000  0.50000000  -0.00000000  1
  Eu  Eu9  1  -0.00000000  -0.00000000  -0.00000000  1
  As  As10  1  0.29989730  0.50000000  0.59979460  1
  As  As11  1  0.79989730  -0.00000000  0.59979460  1
  As  As12  1  0.70010270  0.50000000  0.40020540  1
  As  As13  1  0.20010270  -0.00000000  0.40020540  1
  As  As14  1  0.62444741  0.12452073  0.00000000  1
  As  As15  1  0.37555259  0.87547927  1.00000000  1
  As  As16  1  0.87555259  0.62452073  1.00000000  1
  As  As17  1  0.12444741  0.37547927  0.00000000  1
