# generated using pymatgen
data_KC2N3
_symmetry_space_group_name_H-M   'P 1'
_cell_length_a   4.03438773
_cell_length_b   8.55393897
_cell_length_c   12.73678219
_cell_angle_alpha   89.99876649
_cell_angle_beta   89.99972652
_cell_angle_gamma   89.99982956
_symmetry_Int_Tables_number   1
_chemical_formula_structural   KC2N3
_chemical_formula_sum   'K4 C8 N12'
_cell_volume   439.54516146
_cell_formula_units_Z   4
loop_
 _symmetry_equiv_pos_site_id
 _symmetry_equiv_pos_as_xyz
  1  'x, y, z'
loop_
 _atom_site_type_symbol
 _atom_site_label
 _atom_site_symmetry_multiplicity
 _atom_site_fract_x
 _atom_site_fract_y
 _atom_site_fract_z
 _atom_site_occupancy
  K  K0  1  0.25000108  0.62446221  0.86947093  1
  K  K1  1  0.74999816  0.37553956  0.13052728  1
  K  K2  1  0.75000377  0.87553683  0.36947398  1
  K  K3  1  0.24999787  0.12446208  0.63052761  1
  C  C4  1  0.75000071  0.26134484  0.87361029  1
  C  C5  1  0.25000194  0.01146101  0.12784829  1
  C  C6  1  0.24999754  0.73864320  0.12638675  1
  C  C7  1  0.74999983  0.76134273  0.62639077  1
  C  C8  1  0.25000043  0.51146039  0.37215190  1
  C  C9  1  0.25000052  0.23865765  0.37361014  1
  C  C10  1  0.75000118  0.48853824  0.62784975  1
  C  C11  1  0.74999942  0.98853935  0.87215260  1
  N  N12  1  0.75000274  0.39244182  0.90401924  1
  N  N13  1  0.25000228  0.64496489  0.39639618  1
  N  N14  1  0.25000207  0.10755167  0.40402141  1
  N  N15  1  0.74999786  0.89244569  0.59597901  1
  N  N16  1  0.74999913  0.12576087  0.82821629  1
  N  N17  1  0.75000224  0.62574794  0.67178694  1
  N  N18  1  0.25000015  0.14497559  0.10360802  1
  N  N19  1  0.25000568  0.87423719  0.17178527  1
  N  N20  1  0.24999893  0.37425107  0.32821362  1
  N  N21  1  0.74999953  0.85502724  0.89639459  1
  N  N22  1  0.74999953  0.35503296  0.60360503  1
  N  N23  1  0.24998743  0.60757497  0.09597409  1
