# generated using pymatgen
data_Na3CoO3
_symmetry_space_group_name_H-M   'P 1'
_cell_length_a   8.30632348
_cell_length_b   8.30632348
_cell_length_c   8.30632348
_cell_angle_alpha   109.47122063
_cell_angle_beta   109.47122063
_cell_angle_gamma   109.47122063
_symmetry_Int_Tables_number   1
_chemical_formula_structural   Na3CoO3
_chemical_formula_sum   'Na12 Co4 O12'
_cell_volume   441.16863704
_cell_formula_units_Z   4
loop_
 _symmetry_equiv_pos_site_id
 _symmetry_equiv_pos_as_xyz
  1  'x, y, z'
loop_
 _atom_site_type_symbol
 _atom_site_label
 _atom_site_symmetry_multiplicity
 _atom_site_fract_x
 _atom_site_fract_y
 _atom_site_fract_z
 _atom_site_occupancy
  Na  Na0  1  0.51220613  0.00000000  0.27546267  1
  Na  Na1  1  0.51220613  0.27546267  0.00000000  1
  Na  Na2  1  0.76325654  0.48779387  0.48779387  1
  Na  Na3  1  0.72453733  0.23674346  0.72453733  1
  Na  Na4  1  0.27546267  0.51220613  -0.00000000  1
  Na  Na5  1  0.72453733  0.72453733  0.23674346  1
  Na  Na6  1  0.27546267  0.00000000  0.51220613  1
  Na  Na7  1  0.48779387  0.48779387  0.76325654  1
  Na  Na8  1  0.48779387  0.76325654  0.48779387  1
  Na  Na9  1  -0.00000000  0.27546267  0.51220613  1
  Na  Na10  1  -0.00000000  0.51220613  0.27546267  1
  Na  Na11  1  0.23674346  0.72453733  0.72453733  1
  Co  Co12  1  0.63703566  0.00000000  0.00000000  1
  Co  Co13  1  0.36296434  0.36296434  0.36296434  1
  Co  Co14  1  -0.00000000  0.63703566  0.00000000  1
  Co  Co15  1  -0.00000000  -0.00000000  0.63703566  1
  O  O16  1  0.75169586  0.22490236  0.22490236  1
  O  O17  1  0.77509764  -0.00000000  0.52679450  1
  O  O18  1  0.77509764  0.52679450  0.00000000  1
  O  O19  1  0.47320550  0.24830414  0.47320550  1
  O  O20  1  0.47320550  0.47320550  0.24830414  1
  O  O21  1  0.52679450  0.77509764  0.00000000  1
  O  O22  1  0.52679450  0.00000000  0.77509764  1
  O  O23  1  0.24830414  0.47320550  0.47320550  1
  O  O24  1  0.22490236  0.75169586  0.22490236  1
  O  O25  1  0.22490236  0.22490236  0.75169586  1
  O  O26  1  0.00000000  0.77509764  0.52679450  1
  O  O27  1  -0.00000000  0.52679450  0.77509764  1
