# generated using pymatgen
data_LiVP2HO8
_symmetry_space_group_name_H-M   'P 1'
_cell_length_a   4.87826001
_cell_length_b   8.00615894
_cell_length_c   7.46356692
_cell_angle_alpha   90.00000000
_cell_angle_beta   105.28065174
_cell_angle_gamma   90.00000000
_symmetry_Int_Tables_number   1
_chemical_formula_structural   LiVP2HO8
_chemical_formula_sum   'Li2 V2 P4 H2 O16'
_cell_volume   281.19251900
_cell_formula_units_Z   2
loop_
 _symmetry_equiv_pos_site_id
 _symmetry_equiv_pos_as_xyz
  1  'x, y, z'
loop_
 _atom_site_type_symbol
 _atom_site_label
 _atom_site_symmetry_multiplicity
 _atom_site_fract_x
 _atom_site_fract_y
 _atom_site_fract_z
 _atom_site_occupancy
  Li  Li0  1  0.10547497  0.37127400  0.65027179  1
  Li  Li1  1  0.39452503  0.87127400  0.84972821  1
  V  V2  1  0.50949213  0.49901627  0.01413179  1
  V  V3  1  0.99050787  0.99901627  0.48586821  1
  P  P4  1  0.13462664  0.34826355  0.26915470  1
  P  P5  1  0.36537336  0.84826355  0.23084530  1
  P  P6  1  0.62722886  0.15573046  0.76263537  1
  P  P7  1  0.87277114  0.65573046  0.73736463  1
  H  H8  1  0.53532564  0.51097051  0.51019857  1
  H  H9  1  0.96467436  0.01097051  0.98980143  1
  O  O10  1  0.13438877  0.55143605  0.84705625  1
  O  O11  1  0.03776489  0.17390688  0.31428586  1
  O  O12  1  0.16629209  0.83396621  0.36030883  1
  O  O13  1  0.26142861  0.44274201  0.44857226  1
  O  O14  1  0.36561123  0.05143605  0.65294375  1
  O  O15  1  0.51960906  0.32544652  0.81271485  1
  O  O16  1  0.23857139  0.94274201  0.05142774  1
  O  O17  1  0.33370791  0.33396621  0.13969117  1
  O  O18  1  0.65716954  0.67631741  0.85534225  1
  O  O19  1  0.74971884  0.05088381  0.94106667  1
  O  O20  1  0.46223511  0.67390688  0.18571414  1
  O  O21  1  0.63659389  0.94483031  0.34987066  1
  O  O22  1  0.75028116  0.55088381  0.55893333  1
  O  O23  1  0.84283046  0.17631741  0.64465775  1
  O  O24  1  0.98039094  0.82544652  0.68728515  1
  O  O25  1  0.86340611  0.44483031  0.15012934  1
