# generated using pymatgen
data_Na14Fe2O9
_symmetry_space_group_name_H-M   'P 1'
_cell_length_a   6.67441391
_cell_length_b   6.72639879
_cell_length_c   9.43307325
_cell_angle_alpha   90.23023842
_cell_angle_beta   89.33321074
_cell_angle_gamma   119.85615369
_symmetry_Int_Tables_number   1
_chemical_formula_structural   Na14Fe2O9
_chemical_formula_sum   'Na14 Fe2 O9'
_cell_volume   367.26280669
_cell_formula_units_Z   1
loop_
 _symmetry_equiv_pos_site_id
 _symmetry_equiv_pos_as_xyz
  1  'x, y, z'
loop_
 _atom_site_type_symbol
 _atom_site_label
 _atom_site_symmetry_multiplicity
 _atom_site_fract_x
 _atom_site_fract_y
 _atom_site_fract_z
 _atom_site_occupancy
  Na  Na0  1  0.04013364  0.68016610  0.90831692  1
  Na  Na1  1  0.30926517  0.93207195  0.59052286  1
  Na  Na2  1  0.06152914  0.37482503  0.59265028  1
  Na  Na3  1  0.99978316  0.99948706  0.25194840  1
  Na  Na4  1  0.99970238  0.00002935  0.74811896  1
  Na  Na5  1  0.32266279  0.36074248  0.90759539  1
  Na  Na6  1  0.63975460  0.96278395  0.90776582  1
  Na  Na7  1  0.37585299  0.30873824  0.40853027  1
  Na  Na8  1  0.62420025  0.68840326  0.59251796  1
  Na  Na9  1  0.36125107  0.04106227  0.09131258  1
  Na  Na10  1  0.67767916  0.64077448  0.09223381  1
  Na  Na11  1  0.93838901  0.62433659  0.40735759  1
  Na  Na12  1  0.68846924  0.06477858  0.40841067  1
  Na  Na13  1  0.96173911  0.32226365  0.09255178  1
  Fe  Fe14  1  0.33631213  0.66597385  0.25936125  1
  Fe  Fe15  1  0.66312818  0.33259846  0.74033192  1
  O  O16  1  0.30621504  0.94729123  0.33455386  1
  O  O17  1  0.05624638  0.35730392  0.33698106  1
  O  O18  1  0.33059040  0.66839714  0.04098456  1
  O  O19  1  0.00020463  0.00135470  0.00005161  1
  O  O20  1  0.36013677  0.30194081  0.66090345  1
  O  O21  1  0.63821611  0.69376099  0.33948437  1
  O  O22  1  0.67143607  0.33679470  0.95911352  1
  O  O23  1  0.94559674  0.64220804  0.66496200  1
  O  O24  1  0.69130484  0.05191418  0.66344009  1
