# generated using pymatgen
data_Li7Mn4CoO12
_symmetry_space_group_name_H-M   'P 1'
_cell_length_a   5.96109604
_cell_length_b   6.54038386
_cell_length_c   6.56647673
_cell_angle_alpha   108.40139342
_cell_angle_beta   115.83319958
_cell_angle_gamma   76.74185851
_symmetry_Int_Tables_number   1
_chemical_formula_structural   Li7Mn4CoO12
_chemical_formula_sum   'Li7 Mn4 Co1 O12'
_cell_volume   217.38006046
_cell_formula_units_Z   1
loop_
 _symmetry_equiv_pos_site_id
 _symmetry_equiv_pos_as_xyz
  1  'x, y, z'
loop_
 _atom_site_type_symbol
 _atom_site_label
 _atom_site_symmetry_multiplicity
 _atom_site_fract_x
 _atom_site_fract_y
 _atom_site_fract_z
 _atom_site_occupancy
  Li  Li0  1  0.42807006  0.65829992  0.16984972  1
  Li  Li1  1  0.08067743  0.33914397  0.83454567  1
  Li  Li2  1  0.75139668  0.00730370  0.49405773  1
  Li  Li3  1  0.91168842  0.65526228  0.16861700  1
  Li  Li4  1  0.57929299  0.33360052  0.82838155  1
  Li  Li5  1  0.25048273  0.00639504  0.50540660  1
  Li  Li6  1  0.83359147  0.33578276  0.33624516  1
  Mn  Mn7  1  0.99574878  0.00046532  0.99937723  1
  Mn  Mn8  1  0.34052922  0.33218814  0.33820804  1
  Mn  Mn9  1  0.50606743  0.00206737  0.00365127  1
  Mn  Mn10  1  0.15949670  0.66392917  0.65992595  1
  Co  Co11  1  0.66692066  0.66264867  0.65760894  1
  O  O12  1  0.05319708  0.67883721  0.90461372  1
  O  O13  1  0.67922917  0.33771727  0.57002832  1
  O  O14  1  0.39066413  0.01568562  0.25065029  1
  O  O15  1  0.51545605  0.68537810  0.90491795  1
  O  O16  1  0.21259228  0.35330905  0.57585861  1
  O  O17  1  0.85216221  0.99157270  0.21426571  1
  O  O18  1  0.82104650  0.67557732  0.44193243  1
  O  O19  1  0.45462442  0.31649927  0.09624699  1
  O  O20  1  0.14485548  0.98573093  0.76827335  1
  O  O21  1  0.27840975  0.64819473  0.41819887  1
  O  O22  1  0.99144704  0.31243872  0.09539441  1
  O  O23  1  0.60235331  0.00197226  0.76374450  1
