# generated using pymatgen
data_Li4Mn3CoO8
_symmetry_space_group_name_H-M   'P 1'
_cell_length_a   3.09302664
_cell_length_b   7.90264838
_cell_length_c   6.48706800
_cell_angle_alpha   89.29250779
_cell_angle_beta   76.80023422
_cell_angle_gamma   84.48365744
_symmetry_Int_Tables_number   1
_chemical_formula_structural   Li4Mn3CoO8
_chemical_formula_sum   'Li4 Mn3 Co1 O8'
_cell_volume   153.65229368
_cell_formula_units_Z   1
loop_
 _symmetry_equiv_pos_site_id
 _symmetry_equiv_pos_as_xyz
  1  'x, y, z'
loop_
 _atom_site_type_symbol
 _atom_site_label
 _atom_site_symmetry_multiplicity
 _atom_site_fract_x
 _atom_site_fract_y
 _atom_site_fract_z
 _atom_site_occupancy
  Li  Li0  1  0.73811139  0.37878770  0.12633690  1
  Li  Li1  1  0.74051362  0.87654509  0.62966511  1
  Li  Li2  1  0.26188861  0.62121230  0.87366310  1
  Li  Li3  1  0.25948638  0.12345491  0.37033489  1
  Mn  Mn4  1  0.00000000  0.50000000  0.50000000  1
  Mn  Mn5  1  0.51811478  0.24697043  0.75046279  1
  Mn  Mn6  1  0.48188522  0.75302957  0.24953721  1
  Co  Co7  1  0.00000000  0.00000000  0.00000000  1
  O  O8  1  0.42025906  0.17745213  0.04528835  1
  O  O9  1  0.34839162  0.68500749  0.54722319  1
  O  O10  1  0.86000631  0.43399478  0.79836622  1
  O  O11  1  0.84343968  0.93670127  0.29618914  1
  O  O12  1  0.13999369  0.56600522  0.20163378  1
  O  O13  1  0.15656032  0.06329873  0.70381086  1
  O  O14  1  0.57974094  0.82254787  0.95471165  1
  O  O15  1  0.65160838  0.31499251  0.45277681  1
