# generated using pymatgen
data_Li7Mn4CoO12
_symmetry_space_group_name_H-M   'P 1'
_cell_length_a   5.16003599
_cell_length_b   7.69300565
_cell_length_c   5.80610862
_cell_angle_alpha   99.92084817
_cell_angle_beta   90.27888067
_cell_angle_gamma   108.12652640
_symmetry_Int_Tables_number   1
_chemical_formula_structural   Li7Mn4CoO12
_chemical_formula_sum   'Li7 Mn4 Co1 O12'
_cell_volume   215.34540260
_cell_formula_units_Z   1
loop_
 _symmetry_equiv_pos_site_id
 _symmetry_equiv_pos_as_xyz
  1  'x, y, z'
loop_
 _atom_site_type_symbol
 _atom_site_label
 _atom_site_symmetry_multiplicity
 _atom_site_fract_x
 _atom_site_fract_y
 _atom_site_fract_z
 _atom_site_occupancy
  Li  Li0  1  0.49007188  0.00271246  0.74602742  1
  Li  Li1  1  0.84543997  0.31769430  0.58084284  1
  Li  Li2  1  0.15716037  0.67905585  0.42389030  1
  Li  Li3  1  0.50980292  0.00257144  0.25940367  1
  Li  Li4  1  0.83919728  0.32926130  0.07775614  1
  Li  Li5  1  0.16103384  0.67080943  0.91977376  1
  Li  Li6  1  0.00712406  0.00335006  0.50424237  1
  Mn  Mn7  1  0.00114310  0.00143125  0.99782462  1
  Mn  Mn8  1  0.66302250  0.67110887  0.66742754  1
  Mn  Mn9  1  0.33994331  0.32771653  0.33083555  1
  Mn  Mn10  1  0.65688576  0.66921798  0.16794925  1
  Co  Co11  1  0.34008614  0.33216341  0.83101225  1
  O  O12  1  0.05085146  0.82992158  0.71988079  1
  O  O13  1  0.42742551  0.18709860  0.54413583  1
  O  O14  1  0.72380067  0.49667586  0.35364381  1
  O  O15  1  0.02944213  0.81924381  0.19651003  1
  O  O16  1  0.42620360  0.18537632  0.04815171  1
  O  O17  1  0.71700897  0.50973810  0.87874380  1
  O  O18  1  0.96313165  0.17618541  0.80359405  1
  O  O19  1  0.26927218  0.48465841  0.61422693  1
  O  O20  1  0.57343861  0.81233188  0.45073668  1
  O  O21  1  0.96599927  0.17518991  0.28350578  1
  O  O22  1  0.27775036  0.49037428  0.11969525  1
  O  O23  1  0.56476445  0.82611297  0.98018961  1
