# generated using pymatgen
data_MnSbSe2Br
_symmetry_space_group_name_H-M   'P 1'
_cell_length_a   3.92547442
_cell_length_b   10.90010076
_cell_length_c   27.60690300
_cell_angle_alpha   90.16888397
_cell_angle_beta   90.11186490
_cell_angle_gamma   89.99659293
_symmetry_Int_Tables_number   1
_chemical_formula_structural   MnSbSe2Br
_chemical_formula_sum   'Mn8 Sb8 Se16 Br8'
_cell_volume   1181.23862309
_cell_formula_units_Z   8
loop_
 _symmetry_equiv_pos_site_id
 _symmetry_equiv_pos_as_xyz
  1  'x, y, z'
loop_
 _atom_site_type_symbol
 _atom_site_label
 _atom_site_symmetry_multiplicity
 _atom_site_fract_x
 _atom_site_fract_y
 _atom_site_fract_z
 _atom_site_occupancy
  Mn  Mn0  1  0.00016132  0.99947032  0.49916241  1
  Mn  Mn1  1  0.00125809  0.06969835  0.24442309  1
  Mn  Mn2  1  0.99859974  0.57510535  0.25583477  1
  Mn  Mn3  1  0.00124506  0.42424233  0.74411882  1
  Mn  Mn4  1  0.99997142  0.00093902  0.00036321  1
  Mn  Mn5  1  0.99917851  0.93105217  0.75558579  1
  Mn  Mn6  1  0.99986553  0.48571523  0.50253965  1
  Mn  Mn7  1  0.00006243  0.50016983  0.99977729  1
  Sb  Sb8  1  0.00076276  0.64770968  0.14408431  1
  Sb  Sb9  1  0.49919100  0.82692535  0.39773903  1
  Sb  Sb10  1  0.00047071  0.85473083  0.64364320  1
  Sb  Sb11  1  0.50061104  0.17471504  0.60299073  1
  Sb  Sb12  1  0.49944102  0.67187037  0.89667262  1
  Sb  Sb13  1  0.99947505  0.14606977  0.35589766  1
  Sb  Sb14  1  0.50056036  0.32819268  0.10297157  1
  Sb  Sb15  1  0.99931015  0.35209032  0.85583067  1
  Se  Se16  1  0.99954561  0.26942439  0.03565197  1
  Se  Se17  1  0.49776503  0.27759305  0.79075810  1
  Se  Se18  1  0.50225476  0.78236345  0.70863160  1
  Se  Se19  1  0.00025240  0.77045991  0.46454798  1
  Se  Se20  1  0.99951112  0.23363475  0.53535307  1
  Se  Se21  1  0.99891096  0.57334164  0.81874501  1
  Se  Se22  1  0.49962172  0.05166284  0.43406074  1
  Se  Se23  1  0.50053557  0.95124916  0.56570227  1
  Se  Se24  1  0.00090660  0.42639728  0.18092275  1
  Se  Se25  1  0.49960472  0.44856372  0.93352070  1
  Se  Se26  1  0.00054466  0.73040256  0.96392787  1
  Se  Se27  1  0.49732689  0.21903639  0.29103898  1
  Se  Se28  1  0.00085838  0.07746629  0.68039914  1
  Se  Se29  1  0.99898468  0.92369997  0.31923828  1
  Se  Se30  1  0.50228743  0.72211264  0.20904879  1
  Se  Se31  1  0.50044219  0.55121794  0.06583868  1
  Br  Br32  1  0.99943768  0.58354712  0.57872160  1
  Br  Br33  1  0.50101437  0.05457973  0.18292260  1
  Br  Br34  1  0.49970185  0.94544098  0.81698131  1
  Br  Br35  1  0.00043059  0.41981007  0.42189633  1
  Br  Br36  1  0.50087581  0.44449469  0.68298829  1
  Br  Br37  1  0.99954166  0.91706377  0.07851162  1
  Br  Br38  1  0.00049754  0.08178448  0.92199189  1
  Br  Br39  1  0.49898159  0.55595555  0.31696261  1
