# generated using pymatgen
data_Li7Mn4CoO12
_symmetry_space_group_name_H-M   'P 1'
_cell_length_a   5.19525923
_cell_length_b   5.95832347
_cell_length_c   7.59244953
_cell_angle_alpha   80.63590964
_cell_angle_beta   82.90574411
_cell_angle_gamma   109.21800261
_symmetry_Int_Tables_number   1
_chemical_formula_structural   Li7Mn4CoO12
_chemical_formula_sum   'Li7 Mn4 Co1 O12'
_cell_volume   214.97951678
_cell_formula_units_Z   1
loop_
 _symmetry_equiv_pos_site_id
 _symmetry_equiv_pos_as_xyz
  1  'x, y, z'
loop_
 _atom_site_type_symbol
 _atom_site_label
 _atom_site_symmetry_multiplicity
 _atom_site_fract_x
 _atom_site_fract_y
 _atom_site_fract_z
 _atom_site_occupancy
  Li  Li0  1  0.51321518  0.06955456  0.18165221  1
  Li  Li1  1  0.51311349  0.75794568  0.48751406  1
  Li  Li2  1  0.50359858  0.41443797  0.83471174  1
  Li  Li3  1  0.48688651  0.57538732  0.17915294  1
  Li  Li4  1  0.48678482  0.26377844  0.48501479  1
  Li  Li5  1  0.49640142  0.91889603  0.83195426  1
  Li  Li6  1  -0.00000000  0.16666700  0.33333300  1
  Mn  Mn7  1  0.00540713  -0.00084223  0.00687990  1
  Mn  Mn8  1  0.99459287  0.33417523  0.65978710  1
  Mn  Mn9  1  0.99511635  0.49553862  0.00631632  1
  Mn  Mn10  1  0.00488365  0.83779438  0.66035068  1
  Co  Co11  1  -0.00000000  0.66666700  0.33333300  1
  O  O12  1  0.21640268  0.30482938  0.06638989  1
  O  O13  1  0.23363214  0.93808442  0.42584734  1
  O  O14  1  0.21176732  0.62326010  0.75411156  1
  O  O15  1  0.23343079  0.76466288  0.09252675  1
  O  O16  1  0.21440126  0.46717466  0.42383547  1
  O  O17  1  0.23677066  0.10105525  0.75418120  1
  O  O18  1  0.78559874  0.86615834  0.24283153  1
  O  O19  1  0.76656921  0.56867012  0.57414025  1
  O  O20  1  0.76322934  0.23227875  0.91248480  1
  O  O21  1  0.76636786  0.39524858  0.24081966  1
  O  O22  1  0.78359732  0.02850362  0.60027711  1
  O  O23  1  0.78823268  0.71007390  0.91255444  1
