# generated using pymatgen
data_Li7Mn4CoO12
_symmetry_space_group_name_H-M   'P 1'
_cell_length_a   5.02637705
_cell_length_b   5.02637623
_cell_length_c   9.78713444
_cell_angle_alpha   93.83882998
_cell_angle_beta   93.83883023
_cell_angle_gamma   117.54897380
_symmetry_Int_Tables_number   1
_chemical_formula_structural   Li7Mn4CoO12
_chemical_formula_sum   'Li7 Mn4 Co1 O12'
_cell_volume   217.39464272
_cell_formula_units_Z   1
loop_
 _symmetry_equiv_pos_site_id
 _symmetry_equiv_pos_as_xyz
  1  'x, y, z'
loop_
 _atom_site_type_symbol
 _atom_site_label
 _atom_site_symmetry_multiplicity
 _atom_site_fract_x
 _atom_site_fract_y
 _atom_site_fract_z
 _atom_site_occupancy
  Li  Li0  1  0.41540902  0.08207502  0.24493734  1
  Li  Li1  1  0.91792498  0.58459098  0.75506266  1
  Li  Li2  1  0.07831022  0.42218012  0.24796873  1
  Li  Li3  1  0.57781988  0.92168978  0.75203127  1
  Li  Li4  1  0.75551312  0.74497722  0.24796873  1
  Li  Li5  1  0.25502278  0.24448688  0.75203127  1
  Li  Li6  1  0.66666700  0.33333300  0.00000000  1
  Mn  Mn7  1  0.99859232  0.00140768  0.00000000  1
  Mn  Mn8  1  0.33474068  0.66525932  1.00000000  1
  Mn  Mn9  1  0.50047817  0.49952183  0.50000000  1
  Mn  Mn10  1  0.83285483  0.16714517  0.50000000  1
  Co  Co11  1  0.16666700  0.83333300  0.50000000  1
  O  O12  1  0.05860200  0.72526800  0.11246068  1
  O  O13  1  0.56153857  0.22820457  0.61859319  1
  O  O14  1  0.69001578  0.00045383  0.10999747  1
  O  O15  1  0.22926736  0.56863513  0.61591879  1
  O  O16  1  0.33378683  0.35668278  0.10999747  1
  O  O17  1  0.90196813  0.89593436  0.61591879  1
  O  O18  1  0.77179543  0.43846143  0.38140681  1
  O  O19  1  0.27473200  0.94139800  0.88753932  1
  O  O20  1  0.43136487  0.77073264  0.38408121  1
  O  O21  1  0.99954617  0.30998422  0.89000253  1
  O  O22  1  0.10406564  0.09803187  0.38408121  1
  O  O23  1  0.64331722  0.66621317  0.89000253  1
