# generated using pymatgen
data_Na(FeO2)2
_symmetry_space_group_name_H-M   'P 1'
_cell_length_a   5.14689212
_cell_length_b   5.97645281
_cell_length_c   11.57381682
_cell_angle_alpha   90.12282544
_cell_angle_beta   90.12108811
_cell_angle_gamma   90.02872950
_symmetry_Int_Tables_number   1
_chemical_formula_structural   Na(FeO2)2
_chemical_formula_sum   'Na4 Fe8 O16'
_cell_volume   356.01077387
_cell_formula_units_Z   4
loop_
 _symmetry_equiv_pos_site_id
 _symmetry_equiv_pos_as_xyz
  1  'x, y, z'
loop_
 _atom_site_type_symbol
 _atom_site_label
 _atom_site_symmetry_multiplicity
 _atom_site_fract_x
 _atom_site_fract_y
 _atom_site_fract_z
 _atom_site_occupancy
  Na  Na0  1  0.03000139  0.75020603  0.25000716  1
  Na  Na1  1  0.35495270  0.75067040  0.74992533  1
  Na  Na2  1  0.64595337  0.24834938  0.25007693  1
  Na  Na3  1  0.97579007  0.25164281  0.74994202  1
  Fe  Fe4  1  0.00093483  0.24846000  0.00833843  1
  Fe  Fe5  1  0.99791351  0.75036580  0.99191992  1
  Fe  Fe6  1  0.00326184  0.25098163  0.49068200  1
  Fe  Fe7  1  0.99659958  0.74910285  0.50900874  1
  Fe  Fe8  1  0.49887145  0.50023772  0.99958585  1
  Fe  Fe9  1  0.49974521  0.99955161  0.00098256  1
  Fe  Fe10  1  0.49984498  0.99978076  0.49960205  1
  Fe  Fe11  1  0.49998167  0.50006202  0.49992310  1
  O  O12  1  0.17398588  0.00557517  0.59207468  1
  O  O13  1  0.16481522  0.00511632  0.90746444  1
  O  O14  1  0.16557846  0.49763209  0.59357905  1
  O  O15  1  0.17320169  0.49818060  0.90639458  1
  O  O16  1  0.34198282  0.25977216  0.09034918  1
  O  O17  1  0.34195949  0.24407921  0.40756638  1
  O  O18  1  0.32401299  0.74717541  0.08757304  1
  O  O19  1  0.32670825  0.75673620  0.41379382  1
  O  O20  1  0.67178919  0.24301368  0.58574382  1
  O  O21  1  0.67498377  0.25139013  0.91326306  1
  O  O22  1  0.65880895  0.75596120  0.59205152  1
  O  O23  1  0.65599654  0.74167484  0.90964761  1
  O  O24  1  0.82618148  0.99456338  0.40727776  1
  O  O25  1  0.83514219  0.50317088  0.40653103  1
  O  O26  1  0.83367891  0.99521449  0.09422352  1
  O  O27  1  0.82732257  0.50133223  0.09247140  1
