# generated using pymatgen
data_Li8Mn7Cu(PO4)12
_symmetry_space_group_name_H-M   'P 1'
_cell_length_a   8.53744635
_cell_length_b   8.81307548
_cell_length_c   11.96111105
_cell_angle_alpha   89.75807294
_cell_angle_beta   89.92414387
_cell_angle_gamma   88.75917658
_symmetry_Int_Tables_number   1
_chemical_formula_structural   Li8Mn7Cu(PO4)12
_chemical_formula_sum   'Li8 Mn7 Cu1 P12 O48'
_cell_volume   899.74812028
_cell_formula_units_Z   1
loop_
 _symmetry_equiv_pos_site_id
 _symmetry_equiv_pos_as_xyz
  1  'x, y, z'
loop_
 _atom_site_type_symbol
 _atom_site_label
 _atom_site_symmetry_multiplicity
 _atom_site_fract_x
 _atom_site_fract_y
 _atom_site_fract_z
 _atom_site_occupancy
  Li  Li0  1  0.21714580  0.72057007  0.18165122  1
  Li  Li1  1  0.21510518  0.77563190  0.81858669  1
  Li  Li2  1  0.28579778  0.22405219  0.31739011  1
  Li  Li3  1  0.28210202  0.28042749  0.68093729  1
  Li  Li4  1  0.71631566  0.71896153  0.31969074  1
  Li  Li5  1  0.71378428  0.77373236  0.68353291  1
  Li  Li6  1  0.78522965  0.22460632  0.18153440  1
  Li  Li7  1  0.78414738  0.27997046  0.81564231  1
  Mn  Mn8  1  0.24786502  0.96204440  0.61231201  1
  Mn  Mn9  1  0.24994733  0.53344147  0.38535292  1
  Mn  Mn10  1  0.25227840  0.03718564  0.11203762  1
  Mn  Mn11  1  0.25052174  0.46568607  0.88499593  1
  Mn  Mn12  1  0.74912872  0.53461015  0.11532009  1
  Mn  Mn13  1  0.74831260  0.96352549  0.88777858  1
  Mn  Mn14  1  0.75216973  0.03728945  0.38704554  1
  Cu  Cu15  1  0.75369256  0.46560557  0.61321017  1
  P  P16  1  0.10595515  0.39353852  0.14505150  1
  P  P17  1  0.10493954  0.10304611  0.85068350  1
  P  P18  1  0.39463664  0.60613495  0.64481144  1
  P  P19  1  0.39511640  0.89642056  0.35095559  1
  P  P20  1  0.60531660  0.10543295  0.64716864  1
  P  P21  1  0.60619224  0.39355877  0.35561537  1
  P  P22  1  0.89431585  0.60752347  0.85572124  1
  P  P23  1  0.89518365  0.89663462  0.14921500  1
  P  P24  1  0.03396691  0.24474899  0.49996592  1
  P  P25  1  0.46598574  0.75535462  0.99980316  1
  P  P26  1  0.53437568  0.24505336  0.99949034  1
  P  P27  1  0.96566775  0.75145254  0.50024666  1
  O  O28  1  0.05948479  0.64366573  0.42531700  1
  O  O29  1  0.05950915  0.86037472  0.57422711  1
  O  O30  1  0.07750252  0.89999096  0.15784347  1
  O  O31  1  0.07559638  0.60703553  0.84291529  1
  O  O32  1  0.14193389  0.15347150  0.58505446  1
  O  O33  1  0.14282773  0.32554356  0.41860186  1
  O  O34  1  0.15433016  0.43771570  0.02725028  1
  O  O35  1  0.15377934  0.05738365  0.97054602  1
  O  O36  1  0.16222632  0.22942002  0.17675161  1
  O  O37  1  0.15532614  0.26102396  0.81665574  1
  O  O38  1  0.17684456  0.51137182  0.22600252  1
  O  O39  1  0.17885149  0.97892045  0.77232167  1
  O  O40  1  0.32129268  0.02060212  0.27247632  1
  O  O41  1  0.32150553  0.48826981  0.72583617  1
  O  O42  1  0.33602908  0.76994982  0.67651746  1
  O  O43  1  0.34430151  0.73857838  0.31737376  1
  O  O44  1  0.34513996  0.56218331  0.52732596  1
  O  O45  1  0.34603461  0.94147271  0.47097207  1
  O  O46  1  0.35870712  0.84493387  0.08552945  1
  O  O47  1  0.35795903  0.67393694  0.91924121  1
  O  O48  1  0.42252121  0.10091423  0.65634611  1
  O  O49  1  0.42477275  0.39387528  0.34110467  1
  O  O50  1  0.44037837  0.13758375  0.07532895  1
  O  O51  1  0.43929641  0.35345007  0.92483307  1
  O  O52  1  0.56008229  0.64628879  0.07465615  1
  O  O53  1  0.56066166  0.86320914  0.92455626  1
  O  O54  1  0.57405361  0.60973831  0.65829485  1
  O  O55  1  0.57745095  0.89965189  0.34236812  1
  O  O56  1  0.64302588  0.32671832  0.07980267  1
  O  O57  1  0.64190470  0.15579925  0.91372234  1
  O  O58  1  0.65420965  0.05989942  0.52793700  1
  O  O59  1  0.64808567  0.44026738  0.47291539  1
  O  O60  1  0.66220643  0.22940460  0.32300875  1
  O  O61  1  0.65499008  0.26531858  0.68080885  1
  O  O62  1  0.67745552  0.51080091  0.27300933  1
  O  O63  1  0.67934394  0.98217084  0.72662257  1
  O  O64  1  0.82142307  0.02077531  0.22742847  1
  O  O65  1  0.82000318  0.48905023  0.77819374  1
  O  O66  1  0.84438598  0.73885398  0.18390503  1
  O  O67  1  0.83892301  0.77216251  0.82338854  1
  O  O68  1  0.84830478  0.56658417  0.97482284  1
  O  O69  1  0.84631839  0.94208093  0.02918411  1
  O  O70  1  0.85846228  0.66800243  0.58360766  1
  O  O71  1  0.85621318  0.84253099  0.41693962  1
  O  O72  1  0.92257923  0.09963239  0.84191566  1
  O  O73  1  0.92486755  0.39382039  0.15765880  1
  O  O74  1  0.93926244  0.13866379  0.42400488  1
  O  O75  1  0.94444080  0.35066254  0.57913123  1
