# generated using pymatgen
data_Li8Mn3Cr(PO4)6
_symmetry_space_group_name_H-M   'P 1'
_cell_length_a   9.22579797
_cell_length_b   8.50691110
_cell_length_c   8.38362466
_cell_angle_alpha   60.85958150
_cell_angle_beta   63.69801188
_cell_angle_gamma   91.41887140
_symmetry_Int_Tables_number   1
_chemical_formula_structural   Li8Mn3Cr(PO4)6
_chemical_formula_sum   'Li8 Mn3 Cr1 P6 O24'
_cell_volume   490.28426152
_cell_formula_units_Z   1
loop_
 _symmetry_equiv_pos_site_id
 _symmetry_equiv_pos_as_xyz
  1  'x, y, z'
loop_
 _atom_site_type_symbol
 _atom_site_label
 _atom_site_symmetry_multiplicity
 _atom_site_fract_x
 _atom_site_fract_y
 _atom_site_fract_z
 _atom_site_occupancy
  Li  Li0  1  0.86136974  0.26389504  0.81352698  1
  Li  Li1  1  0.89889432  0.93596741  0.37062442  1
  Li  Li2  1  0.85297969  0.66731078  0.06667327  1
  Li  Li3  1  0.58965409  0.78255349  0.67151107  1
  Li  Li4  1  0.41386372  0.19858485  0.32029085  1
  Li  Li5  1  0.15558228  0.34578228  0.92787969  1
  Li  Li6  1  0.10024677  0.06192777  0.62497185  1
  Li  Li7  1  0.13569479  0.72786797  0.19755974  1
  Mn  Mn8  1  0.96442717  0.64794107  0.69042157  1
  Mn  Mn9  1  0.56124126  0.84839603  0.29009046  1
  Mn  Mn10  1  0.03209206  0.35098111  0.31224332  1
  Cr  Cr11  1  0.44078498  0.14871523  0.70634005  1
  P  P12  1  0.74816404  0.95953811  0.78221964  1
  P  P13  1  0.74733609  0.53797893  0.50821190  1
  P  P14  1  0.75778698  0.25242618  0.20737402  1
  P  P15  1  0.24070777  0.75524239  0.80577215  1
  P  P16  1  0.24724392  0.44472787  0.50044220  1
  P  P17  1  0.25597097  0.05316941  0.19961881  1
  O  O18  1  0.89821057  0.15197133  0.63816256  1
  O  O19  1  0.80105407  0.48351973  0.67379265  1
  O  O20  1  0.79632969  0.84382513  0.67907417  1
  O  O21  1  0.89812784  0.56059750  0.30240814  1
  O  O22  1  0.90503973  0.21281184  0.25924548  1
  O  O23  1  0.72026318  0.73645771  0.43771581  1
  O  O24  1  0.58104458  0.99437615  0.79951377  1
  O  O25  1  0.58483814  0.39332567  0.59723454  1
  O  O26  1  0.80641430  0.46365464  0.03927707  1
  O  O27  1  0.74952453  0.12930972  0.12298633  1
  O  O28  1  0.58412955  0.18588462  0.41164078  1
  O  O29  1  0.73737967  0.85671055  0.99893689  1
  O  O30  1  0.28276987  0.15911516  0.97002108  1
  O  O31  1  0.40862107  0.79598987  0.61387876  1
  O  O32  1  0.26696011  0.88077118  0.88424036  1
  O  O33  1  0.18057001  0.54107518  0.98600908  1
  O  O34  1  0.40481403  0.60601282  0.37919368  1
  O  O35  1  0.41942018  0.03129750  0.19964496  1
  O  O36  1  0.28399081  0.24809561  0.57223965  1
  O  O37  1  0.09803777  0.80137697  0.75390402  1
  O  O38  1  0.10104036  0.42464390  0.70468905  1
  O  O39  1  0.19461142  0.17077622  0.30033393  1
  O  O40  1  0.18199907  0.48317340  0.34368302  1
  O  O41  1  0.11076877  0.86222172  0.33640321  1
