# generated using pymatgen
data_Li4V2(PO4)3
_symmetry_space_group_name_H-M   'P 1'
_cell_length_a   8.80587924
_cell_length_b   9.02245700
_cell_length_c   12.30537595
_cell_angle_alpha   90.07369534
_cell_angle_beta   90.00000000
_cell_angle_gamma   90.00000000
_symmetry_Int_Tables_number   1
_chemical_formula_structural   Li4V2(PO4)3
_chemical_formula_sum   'Li16 V8 P12 O48'
_cell_volume   977.66951582
_cell_formula_units_Z   4
loop_
 _symmetry_equiv_pos_site_id
 _symmetry_equiv_pos_as_xyz
  1  'x, y, z'
loop_
 _atom_site_type_symbol
 _atom_site_label
 _atom_site_symmetry_multiplicity
 _atom_site_fract_x
 _atom_site_fract_y
 _atom_site_fract_z
 _atom_site_occupancy
  Li  Li0  1  0.26131731  0.70633661  0.17997016  1
  Li  Li1  1  0.76155142  0.29377591  0.17999064  1
  Li  Li2  1  0.92639390  0.04308317  0.21237614  1
  Li  Li3  1  0.42631647  0.95658156  0.21254153  1
  Li  Li4  1  0.92625409  0.54397370  0.28724801  1
  Li  Li5  1  0.42630881  0.45635845  0.28744144  1
  Li  Li6  1  0.26193033  0.20610275  0.31984049  1
  Li  Li7  1  0.76175673  0.79379314  0.31983746  1
  Li  Li8  1  0.23868269  0.20633661  0.67997016  1
  Li  Li9  1  0.73844858  0.79377591  0.67999064  1
  Li  Li10  1  0.57360610  0.54308317  0.71237614  1
  Li  Li11  1  0.07368353  0.45658156  0.71254153  1
  Li  Li12  1  0.57374591  0.04397370  0.78724801  1
  Li  Li13  1  0.07369119  0.95635845  0.78744144  1
  Li  Li14  1  0.23806967  0.70610275  0.81984049  1
  Li  Li15  1  0.73824327  0.29379314  0.81983746  1
  V  V16  1  0.45606549  0.25036853  0.10823941  1
  V  V17  1  0.95596893  0.74965445  0.10848108  1
  V  V18  1  0.45619317  0.75035765  0.39176164  1
  V  V19  1  0.95628222  0.24964330  0.39203784  1
  V  V20  1  0.54403107  0.24965445  0.60848108  1
  V  V21  1  0.04393451  0.75036853  0.60823941  1
  V  V22  1  0.04380683  0.25035765  0.89176164  1
  V  V23  1  0.54371778  0.74964330  0.89203784  1
  P  P24  1  0.75004670  0.05068715  0.00000966  1
  P  P25  1  0.25008531  0.94934245  0.00003315  1
  P  P26  1  0.60566979  0.60328697  0.15157459  1
  P  P27  1  0.10569457  0.39659148  0.15160005  1
  P  P28  1  0.10577934  0.89666735  0.34845842  1
  P  P29  1  0.60578810  0.10342514  0.34842012  1
  P  P30  1  0.24991469  0.44934245  0.50003315  1
  P  P31  1  0.74995330  0.55068715  0.50000966  1
  P  P32  1  0.89433021  0.10328697  0.65157459  1
  P  P33  1  0.39430543  0.89659148  0.65160005  1
  P  P34  1  0.39422066  0.39666735  0.84845842  1
  P  P35  1  0.89421190  0.60342514  0.84842012  1
  O  O36  1  0.57946275  0.64832719  0.03509324  1
  O  O37  1  0.07953264  0.35161085  0.03514895  1
  O  O38  1  0.16037537  0.84431823  0.07703917  1
  O  O39  1  0.66010234  0.15582726  0.07714150  1
  O  O40  1  0.35424504  0.04295771  0.07402740  1
  O  O41  1  0.85409266  0.95721525  0.07403038  1
  O  O42  1  0.59382715  0.43250312  0.17152536  1
  O  O43  1  0.09387768  0.56746622  0.17170757  1
  O  O44  1  0.26558444  0.34571017  0.19266006  1
  O  O45  1  0.76545761  0.65416343  0.19268863  1
  O  O46  1  0.97667469  0.32934668  0.22550622  1
  O  O47  1  0.47655864  0.67061484  0.22539403  1
  O  O48  1  0.97666194  0.82935724  0.27464548  1
  O  O49  1  0.47675822  0.17065469  0.27453119  1
  O  O50  1  0.26563115  0.84577821  0.30737593  1
  O  O51  1  0.76574538  0.15433734  0.30741610  1
  O  O52  1  0.59394985  0.93250148  0.32827105  1
  O  O53  1  0.09390434  0.06750393  0.32846680  1
  O  O54  1  0.35405079  0.54277605  0.42592364  1
  O  O55  1  0.85417914  0.45709094  0.42591511  1
  O  O56  1  0.15993645  0.34414563  0.42284066  1
  O  O57  1  0.66020622  0.65574357  0.42294099  1
  O  O58  1  0.07955270  0.85168418  0.46495893  1
  O  O59  1  0.57959094  0.14832705  0.46489778  1
  O  O60  1  0.92053725  0.14832719  0.53509324  1
  O  O61  1  0.42046736  0.85161085  0.53514895  1
  O  O62  1  0.33962463  0.34431823  0.57703917  1
  O  O63  1  0.83989766  0.65582726  0.57714150  1
  O  O64  1  0.64590734  0.45721525  0.57403038  1
  O  O65  1  0.14575496  0.54295771  0.57402740  1
  O  O66  1  0.40612232  0.06746622  0.67170757  1
  O  O67  1  0.90617285  0.93250312  0.67152536  1
  O  O68  1  0.73454239  0.15416343  0.69268863  1
  O  O69  1  0.23441556  0.84571017  0.69266006  1
  O  O70  1  0.02344136  0.17061484  0.72539403  1
  O  O71  1  0.52332531  0.82934668  0.72550622  1
  O  O72  1  0.52333806  0.32935724  0.77464548  1
  O  O73  1  0.02324178  0.67065469  0.77453119  1
  O  O74  1  0.23436885  0.34577821  0.80737593  1
  O  O75  1  0.73425462  0.65433734  0.80741610  1
  O  O76  1  0.90605015  0.43250148  0.82827105  1
  O  O77  1  0.40609566  0.56750393  0.82846680  1
  O  O78  1  0.14594921  0.04277605  0.92592364  1
  O  O79  1  0.64582086  0.95709094  0.92591511  1
  O  O80  1  0.83979378  0.15574357  0.92294099  1
  O  O81  1  0.34006355  0.84414563  0.92284066  1
  O  O82  1  0.42044730  0.35168418  0.96495893  1
  O  O83  1  0.92040906  0.64832705  0.96489778  1
