# generated using pymatgen
data_Li5Mn3(BO3)4
_symmetry_space_group_name_H-M   'P 1'
_cell_length_a   5.30893325
_cell_length_b   9.17518196
_cell_length_c   9.79084741
_cell_angle_alpha   90.00000000
_cell_angle_beta   91.57349968
_cell_angle_gamma   90.00000000
_symmetry_Int_Tables_number   1
_chemical_formula_structural   Li5Mn3(BO3)4
_chemical_formula_sum   'Li10 Mn6 B8 O24'
_cell_volume   476.73653964
_cell_formula_units_Z   2
loop_
 _symmetry_equiv_pos_site_id
 _symmetry_equiv_pos_as_xyz
  1  'x, y, z'
loop_
 _atom_site_type_symbol
 _atom_site_label
 _atom_site_symmetry_multiplicity
 _atom_site_fract_x
 _atom_site_fract_y
 _atom_site_fract_z
 _atom_site_occupancy
  Li  Li0  1  0.15813649  0.98125404  0.66095667  1
  Li  Li1  1  0.17270661  0.66860539  0.62651963  1
  Li  Li2  1  0.32911768  0.16726894  0.87075577  1
  Li  Li3  1  0.33864053  0.48377949  0.85004924  1
  Li  Li4  1  0.31216415  0.49452689  0.37780751  1
  Li  Li5  1  0.65813649  0.51874596  0.16095667  1
  Li  Li6  1  0.67270661  0.83139461  0.12651963  1
  Li  Li7  1  0.81216415  0.00547311  0.87780751  1
  Li  Li8  1  0.82911768  0.33273106  0.37075577  1
  Li  Li9  1  0.83864053  0.01622051  0.35004924  1
  Mn  Mn10  1  0.14525855  0.32928088  0.12345377  1
  Mn  Mn11  1  0.17582196  0.99082705  0.11034526  1
  Mn  Mn12  1  0.35652362  0.81946782  0.38172307  1
  Mn  Mn13  1  0.64525855  0.17071912  0.62345377  1
  Mn  Mn14  1  0.67582196  0.50917295  0.61034526  1
  Mn  Mn15  1  0.85652362  0.68053218  0.88172307  1
  B  B16  1  0.16516739  0.32104116  0.62113641  1
  B  B17  1  0.16868708  0.66023237  0.13243786  1
  B  B18  1  0.33643949  0.82328571  0.88048013  1
  B  B19  1  0.33408731  0.16541590  0.36513327  1
  B  B20  1  0.66868708  0.83976763  0.63243786  1
  B  B21  1  0.66516739  0.17895884  0.12113641  1
  B  B22  1  0.83408731  0.33458410  0.86513327  1
  B  B23  1  0.83643949  0.67671429  0.38048013  1
  O  O24  1  0.08302444  0.33118420  0.91575388  1
  O  O25  1  0.09065813  0.66017189  0.41148447  1
  O  O26  1  0.17837387  0.94597291  0.88788851  1
  O  O27  1  0.23866486  0.68753510  0.84582209  1
  O  O28  1  0.20841934  0.29521121  0.33080307  1
  O  O29  1  0.21168826  0.03343369  0.34277573  1
  O  O30  1  0.26903683  0.18663114  0.65468982  1
  O  O31  1  0.30084371  0.44996386  0.62371171  1
  O  O32  1  0.29881407  0.53086238  0.14201573  1
  O  O33  1  0.30291443  0.78800433  0.16651753  1
  O  O34  1  0.41520660  0.83264010  0.59276891  1
  O  O35  1  0.40960561  0.17222985  0.08496999  1
  O  O36  1  0.59065813  0.83982811  0.91148447  1
  O  O37  1  0.58302444  0.16881580  0.41575388  1
  O  O38  1  0.70841934  0.20478879  0.83080307  1
  O  O39  1  0.71168826  0.46656631  0.84277573  1
  O  O40  1  0.67837387  0.55402709  0.38788851  1
  O  O41  1  0.73866486  0.81246490  0.34582209  1
  O  O42  1  0.79881407  0.96913762  0.64201573  1
  O  O43  1  0.80291443  0.71199567  0.66651753  1
  O  O44  1  0.76903683  0.31336886  0.15468982  1
  O  O45  1  0.80084371  0.05003614  0.12371171  1
  O  O46  1  0.90960561  0.32777015  0.58496999  1
  O  O47  1  0.91520660  0.66735990  0.09276891  1
