# generated using pymatgen
data_MgSiO3
_symmetry_space_group_name_H-M   'P 1'
_cell_length_a   4.89849359
_cell_length_b   8.48274227
_cell_length_c   9.47621993
_cell_angle_alpha   90.00000000
_cell_angle_beta   98.32933146
_cell_angle_gamma   90.00000000
_symmetry_Int_Tables_number   1
_chemical_formula_structural   MgSiO3
_chemical_formula_sum   'Mg8 Si8 O24'
_cell_volume   389.60863407
_cell_formula_units_Z   8
loop_
 _symmetry_equiv_pos_site_id
 _symmetry_equiv_pos_as_xyz
  1  'x, y, z'
loop_
 _atom_site_type_symbol
 _atom_site_label
 _atom_site_symmetry_multiplicity
 _atom_site_fract_x
 _atom_site_fract_y
 _atom_site_fract_z
 _atom_site_occupancy
  Mg  Mg0  1  0.92208965  0.96827479  0.77520066  1
  Mg  Mg1  1  0.59216046  0.84101752  0.26971461  1
  Mg  Mg2  1  0.57791035  0.46827479  0.22479934  1
  Mg  Mg3  1  0.07791035  0.03172521  0.22479934  1
  Mg  Mg4  1  0.40783954  0.15898248  0.73028539  1
  Mg  Mg5  1  0.09216046  0.65898248  0.26971461  1
  Mg  Mg6  1  0.90783954  0.34101752  0.73028539  1
  Mg  Mg7  1  0.42208965  0.53172521  0.77520066  1
  Si  Si8  1  0.18882253  0.34311182  0.44948639  1
  Si  Si9  1  0.49090553  0.83408254  0.98986710  1
  Si  Si10  1  0.50909447  0.16591746  0.01013290  1
  Si  Si11  1  0.31117747  0.84311182  0.55051361  1
  Si  Si12  1  0.81117747  0.65688818  0.55051361  1
  Si  Si13  1  0.68882253  0.15688818  0.44948639  1
  Si  Si14  1  0.99090553  0.66591746  0.98986710  1
  Si  Si15  1  0.00909447  0.33408254  0.01013290  1
  O  O16  1  0.29823138  0.48549776  0.36421566  1
  O  O17  1  0.64919574  0.81619744  0.60311075  1
  O  O18  1  0.73033523  0.15178872  0.62381386  1
  O  O19  1  0.35080426  0.18380256  0.39688925  1
  O  O20  1  0.14919574  0.68380256  0.60311075  1
  O  O21  1  0.34361137  0.30591633  0.10421557  1
  O  O22  1  0.40518398  0.99595715  0.10623302  1
  O  O23  1  0.85080426  0.31619744  0.39688925  1
  O  O24  1  0.65638863  0.69408367  0.89578443  1
  O  O25  1  0.35030212  0.68634707  0.11427884  1
  O  O26  1  0.79823138  0.01450224  0.36421566  1
  O  O27  1  0.15638863  0.80591633  0.89578443  1
  O  O28  1  0.70176862  0.51450224  0.63578434  1
  O  O29  1  0.90518398  0.50404285  0.10623302  1
  O  O30  1  0.76966477  0.65178872  0.37618614  1
  O  O31  1  0.84361137  0.19408367  0.10421557  1
  O  O32  1  0.23033523  0.34821128  0.62381386  1
  O  O33  1  0.14969788  0.18634707  0.88572116  1
  O  O34  1  0.59481602  0.00404285  0.89376698  1
  O  O35  1  0.20176862  0.98549776  0.63578434  1
  O  O36  1  0.64969788  0.31365293  0.88572116  1
  O  O37  1  0.26966477  0.84821128  0.37618614  1
  O  O38  1  0.09481602  0.49595715  0.89376698  1
  O  O39  1  0.85030212  0.81365293  0.11427884  1
