# generated using pymatgen
data_Li3Nb(FeO2)4
_symmetry_space_group_name_H-M   'P 1'
_cell_length_a   10.69772633
_cell_length_b   10.69772609
_cell_length_c   15.00405469
_cell_angle_alpha   19.55158878
_cell_angle_beta   19.55158690
_cell_angle_gamma   33.90756545
_symmetry_Int_Tables_number   1
_chemical_formula_structural   Li3Nb(FeO2)4
_chemical_formula_sum   'Li3 Nb1 Fe4 O8'
_cell_volume   164.43652628
_cell_formula_units_Z   1
loop_
 _symmetry_equiv_pos_site_id
 _symmetry_equiv_pos_as_xyz
  1  'x, y, z'
loop_
 _atom_site_type_symbol
 _atom_site_label
 _atom_site_symmetry_multiplicity
 _atom_site_fract_x
 _atom_site_fract_y
 _atom_site_fract_z
 _atom_site_occupancy
  Li  Li0  1  -0.00000000  0.50000000  0.50000000  1
  Li  Li1  1  0.50000000  -0.00000000  0.50000000  1
  Li  Li2  1  0.50000000  0.50000000  0.50000000  1
  Nb  Nb3  1  0.50000000  0.50000000  -0.00000000  1
  Fe  Fe4  1  -0.00000000  -0.00000000  -0.00000000  1
  Fe  Fe5  1  -0.00000000  0.50000000  -0.00000000  1
  Fe  Fe6  1  0.50000000  -0.00000000  -0.00000000  1
  Fe  Fe7  1  -0.00000000  -0.00000000  0.50000000  1
  O  O8  1  0.97549981  0.97549981  0.28537592  1
  O  O9  1  0.04715878  0.51419724  0.21214203  1
  O  O10  1  0.51419724  0.04715877  0.21214203  1
  O  O11  1  0.02450019  0.02450019  0.71462408  1
  O  O12  1  0.52334610  0.52334610  0.22677222  1
  O  O13  1  0.95284122  0.48580276  0.78785797  1
  O  O14  1  0.48580276  0.95284123  0.78785797  1
  O  O15  1  0.47665390  0.47665390  0.77322778  1
