# generated using pymatgen
data_LiMn7O14
_symmetry_space_group_name_H-M   'P 1'
_cell_length_a   13.11612493
_cell_length_b   8.31411551
_cell_length_c   10.24403613
_cell_angle_alpha   113.94143964
_cell_angle_beta   97.20310041
_cell_angle_gamma   90.00000000
_symmetry_Int_Tables_number   1
_chemical_formula_structural   LiMn7O14
_chemical_formula_sum   'Li4 Mn28 O56'
_cell_volume   1011.33322805
_cell_formula_units_Z   4
loop_
 _symmetry_equiv_pos_site_id
 _symmetry_equiv_pos_as_xyz
  1  'x, y, z'
loop_
 _atom_site_type_symbol
 _atom_site_label
 _atom_site_symmetry_multiplicity
 _atom_site_fract_x
 _atom_site_fract_y
 _atom_site_fract_z
 _atom_site_occupancy
  Li  Li0  1  0.03536331  0.05299027  0.85623050  1
  Li  Li1  1  0.39320869  0.08986673  0.42948450  1
  Li  Li2  1  0.53536331  0.80324023  0.85623050  1
  Li  Li3  1  0.89320869  0.33961777  0.42948450  1
  Mn  Mn4  1  0.14315364  0.71239627  0.92679040  1
  Mn  Mn5  1  0.07158319  0.35899144  0.71635574  1
  Mn  Mn6  1  0.99977613  0.99781782  0.49813209  1
  Mn  Mn7  1  0.07294535  0.35804343  0.21626231  1
  Mn  Mn8  1  0.28451163  0.92544467  0.85434869  1
  Mn  Mn9  1  0.00049174  0.50125174  0.00134249  1
  Mn  Mn10  1  0.14405937  0.21741233  0.43136531  1
  Mn  Mn11  1  0.21428600  0.07142900  0.64285700  1
  Mn  Mn12  1  0.28541836  0.43046073  0.35892460  1
  Mn  Mn13  1  0.42879587  0.14503918  0.78758191  1
  Mn  Mn14  1  0.21428600  0.07142900  0.14285700  1
  Mn  Mn15  1  0.35698881  0.78386556  0.56935826  1
  Mn  Mn16  1  0.64315364  0.21439414  0.92679040  1
  Mn  Mn17  1  0.42808026  0.64160526  0.28437151  1
  Mn  Mn18  1  0.49977613  0.50031427  0.49813209  1
  Mn  Mn19  1  0.35562665  0.78481457  0.06945269  1
  Mn  Mn20  1  0.57158319  0.35736529  0.71635574  1
  Mn  Mn21  1  0.50049174  0.50009075  0.00134249  1
  Mn  Mn22  1  0.71428600  0.57142900  0.64285700  1
  Mn  Mn23  1  0.64405937  0.21395398  0.43136531  1
  Mn  Mn24  1  0.57294535  0.85821888  0.21626231  1
  Mn  Mn25  1  0.78451163  0.92890402  0.85434869  1
  Mn  Mn26  1  0.92879587  0.64254273  0.78758191  1
  Mn  Mn27  1  0.85698881  0.78549271  0.56935826  1
  Mn  Mn28  1  0.78541836  0.92846286  0.35892460  1
  Mn  Mn29  1  0.71428600  0.07142900  0.14285700  1
  Mn  Mn30  1  0.92808026  0.64276625  0.28437151  1
  Mn  Mn31  1  0.85562665  0.28463812  0.06945269  1
  O  O32  1  0.00473593  0.72533327  0.98312184  1
  O  O33  1  0.12967552  0.47437879  0.91965790  1
  O  O34  1  0.06669075  0.59951012  0.73254760  1
  O  O35  1  0.07351755  0.11361754  0.69865978  1
  O  O36  1  0.01205122  0.24255885  0.50928284  1
  O  O37  1  0.15125279  0.94047609  0.91834185  1
  O  O38  1  0.13886209  0.99090798  0.44783637  1
  O  O39  1  0.20005308  0.30245567  0.63527871  1
  O  O40  1  0.28227814  0.70135353  0.87468063  1
  O  O41  1  0.05749926  0.58700449  0.20467478  1
  O  O42  1  0.22851892  0.84040133  0.65043629  1
  O  O43  1  0.28970891  0.15195002  0.83787763  1
  O  O44  1  0.08478867  0.13189973  0.22892399  1
  O  O45  1  0.14629286  0.44150447  0.41103337  1
  O  O46  1  0.27731921  0.20238091  0.36737215  1
  O  O47  1  0.21031679  0.32085304  0.16519457  1
  O  O48  1  0.41651978  0.90029815  0.77643216  1
  O  O49  1  0.35505345  0.02923946  0.58705422  1
  O  O50  1  0.29889648  0.66847821  0.36605610  1
  O  O51  1  0.44265733  0.38507621  0.79696100  1
  O  O52  1  0.36188025  0.54334688  0.55316740  1
  O  O53  1  0.50473593  0.25778857  0.98312184  1
  O  O54  1  0.21825421  0.82200396  0.12051943  1
  O  O55  1  0.42383507  0.41752373  0.30259216  1
  O  O56  1  0.56669075  0.13303748  0.73254760  1
  O  O57  1  0.48591467  0.73097321  0.48875400  1
  O  O58  1  0.62967552  0.44527911  0.91965790  1
  O  O59  1  0.34378333  0.01095727  0.05679001  1
  O  O60  1  0.51205122  0.26672398  0.50928284  1
  O  O61  1  0.65125279  0.97786575  0.91834185  1
  O  O62  1  0.37107174  0.55585251  0.08104022  1
  O  O63  1  0.57351755  0.58504224  0.69865978  1
  O  O64  1  0.43136826  0.87105001  0.26906968  1
  O  O65  1  0.55749926  0.61766929  0.20467478  1
  O  O66  1  0.70005308  0.33282204  0.63527871  1
  O  O67  1  0.49720374  0.74483733  0.01664432  1
  O  O68  1  0.78227814  0.17332810  0.87468063  1
  O  O69  1  0.63886209  0.45692839  0.44783637  1
  O  O70  1  0.72851892  0.81003496  0.65043629  1
  O  O71  1  0.78970891  0.68592861  0.83787763  1
  O  O72  1  0.64629286  0.96952890  0.41103337  1
  O  O73  1  0.58478867  0.09702426  0.22892399  1
  O  O74  1  0.85505345  0.55781476  0.58705422  1
  O  O75  1  0.71031679  0.84434153  0.16519457  1
  O  O76  1  0.91651978  0.87613302  0.77643216  1
  O  O77  1  0.77731921  0.16499125  0.36737215  1
  O  O78  1  0.94265733  0.41188379  0.79696100  1
  O  O79  1  0.79889648  0.69757789  0.36605610  1
  O  O80  1  0.86188025  0.00982052  0.55316740  1
  O  O81  1  0.71825421  0.29851547  0.12051943  1
  O  O82  1  0.98591467  0.75778079  0.48875400  1
  O  O83  1  0.84378333  0.04583274  0.05679001  1
  O  O84  1  0.92383507  0.88506943  0.30259216  1
  O  O85  1  0.87107174  0.52518771  0.08104022  1
  O  O86  1  0.93136826  0.39801967  0.26906968  1
  O  O87  1  0.99720374  0.27180699  0.01664432  1
