# generated using pymatgen
data_LiBi(BO3)2
_symmetry_space_group_name_H-M   'P 1'
_cell_length_a   4.87850105
_cell_length_b   5.93578546
_cell_length_c   4.87850150
_cell_angle_alpha   114.26388202
_cell_angle_beta   60.00000129
_cell_angle_gamma   114.26388254
_symmetry_Int_Tables_number   1
_chemical_formula_structural   LiBi(BO3)2
_chemical_formula_sum   'Li1 Bi1 B2 O6'
_cell_volume   107.69291727
_cell_formula_units_Z   1
loop_
 _symmetry_equiv_pos_site_id
 _symmetry_equiv_pos_as_xyz
  1  'x, y, z'
loop_
 _atom_site_type_symbol
 _atom_site_label
 _atom_site_symmetry_multiplicity
 _atom_site_fract_x
 _atom_site_fract_y
 _atom_site_fract_z
 _atom_site_occupancy
  Li  Li0  1  0.50000000  0.50000000  0.50000000  1
  Bi  Bi1  1  0.00000000  -0.00000000  -0.00000000  1
  B  B2  1  0.25453171  0.76359514  0.25453171  1
  B  B3  1  0.74546829  0.23640486  0.74546829  1
  O  O4  1  0.03129065  0.24122676  0.46387854  1
  O  O5  1  0.53612146  0.75877324  0.25394143  1
  O  O6  1  0.25394143  0.75877324  0.96870935  1
  O  O7  1  0.74605857  0.24122676  0.03129065  1
  O  O8  1  0.46387854  0.24122676  0.74605857  1
  O  O9  1  0.96870935  0.75877324  0.53612146  1
