# generated using pymatgen
data_Li4Ti3Mn3(SnO8)2
_symmetry_space_group_name_H-M   'P 1'
_cell_length_a   6.11804118
_cell_length_b   5.94810625
_cell_length_c   9.84774531
_cell_angle_alpha   90.01118676
_cell_angle_beta   92.14439445
_cell_angle_gamma   119.08310583
_symmetry_Int_Tables_number   1
_chemical_formula_structural   Li4Ti3Mn3(SnO8)2
_chemical_formula_sum   'Li4 Ti3 Mn3 Sn2 O16'
_cell_volume   312.89377356
_cell_formula_units_Z   1
loop_
 _symmetry_equiv_pos_site_id
 _symmetry_equiv_pos_as_xyz
  1  'x, y, z'
loop_
 _atom_site_type_symbol
 _atom_site_label
 _atom_site_symmetry_multiplicity
 _atom_site_fract_x
 _atom_site_fract_y
 _atom_site_fract_z
 _atom_site_occupancy
  Li  Li0  1  0.32026108  0.66014486  0.89503905  1
  Li  Li1  1  0.99603488  0.99802943  0.99120659  1
  Li  Li2  1  0.00958258  0.00480625  0.49249273  1
  Li  Li3  1  0.66446986  0.33223847  0.39544734  1
  Ti  Ti4  1  0.33646479  0.16827392  0.71807313  1
  Ti  Ti5  1  0.17403183  0.83378524  0.21447638  1
  Ti  Ti6  1  0.17409151  0.34042858  0.21441911  1
  Mn  Mn7  1  0.66175991  0.83091426  0.21379187  1
  Mn  Mn8  1  0.82796745  0.66009147  0.71217551  1
  Mn  Mn9  1  0.82797600  0.16788929  0.71219435  1
  Sn  Sn10  1  0.34120067  0.67060039  0.49118831  1
  Sn  Sn11  1  0.66922815  0.33461023  0.98957261  1
  O  O12  1  0.18884369  0.85359710  0.60027891  1
  O  O13  1  0.03705710  0.51863933  0.33421118  1
  O  O14  1  0.30005682  0.65002126  0.10577084  1
  O  O15  1  0.02394092  0.01187772  0.30721098  1
  O  O16  1  0.00067046  0.00037350  0.80365918  1
  O  O17  1  0.18883861  0.33525875  0.60026766  1
  O  O18  1  0.46168074  0.96242580  0.34349947  1
  O  O19  1  0.46157892  0.49918301  0.34348541  1
  O  O20  1  0.33045367  0.16515557  0.10553959  1
  O  O21  1  0.69270503  0.84637364  0.59465019  1
  O  O22  1  0.49413002  0.46585838  0.84411844  1
  O  O23  1  0.49416777  0.02826829  0.84415419  1
  O  O24  1  0.66179618  0.33092424  0.61232276  1
  O  O25  1  0.85389309  0.67789751  0.09654618  1
  O  O26  1  0.95311835  0.47659003  0.83547962  1
  O  O27  1  0.85399788  0.17604247  0.09656743  1
