# generated using pymatgen
data_Co(Si2O5)2
_symmetry_space_group_name_H-M   'P 1'
_cell_length_a   7.29289786
_cell_length_b   7.29289786
_cell_length_c   15.63271986
_cell_angle_alpha   90.00000000
_cell_angle_beta   90.00000000
_cell_angle_gamma   90.00000000
_symmetry_Int_Tables_number   1
_chemical_formula_structural   Co(Si2O5)2
_chemical_formula_sum   'Co4 Si16 O40'
_cell_volume   831.44745369
_cell_formula_units_Z   4
loop_
 _symmetry_equiv_pos_site_id
 _symmetry_equiv_pos_as_xyz
  1  'x, y, z'
loop_
 _atom_site_type_symbol
 _atom_site_label
 _atom_site_symmetry_multiplicity
 _atom_site_fract_x
 _atom_site_fract_y
 _atom_site_fract_z
 _atom_site_occupancy
  Co  Co0  1  0.25000000  0.25000000  0.58775370  1
  Co  Co1  1  0.75000000  0.75000000  0.91224630  1
  Co  Co2  1  0.75000000  0.75000000  0.41224630  1
  Co  Co3  1  0.25000000  0.25000000  0.08775370  1
  Si  Si4  1  0.92729349  0.50458997  0.64945306  1
  Si  Si5  1  0.57270651  0.99541003  0.64945306  1
  Si  Si6  1  0.00458997  0.42729349  0.85054694  1
  Si  Si7  1  0.50458997  0.57270651  0.64945306  1
  Si  Si8  1  0.99541003  0.92729349  0.64945306  1
  Si  Si9  1  0.07270651  0.00458997  0.85054694  1
  Si  Si10  1  0.42729349  0.49541003  0.85054694  1
  Si  Si11  1  0.49541003  0.07270651  0.85054694  1
  Si  Si12  1  0.07270651  0.49541003  0.35054694  1
  Si  Si13  1  0.42729349  0.00458997  0.35054694  1
  Si  Si14  1  0.99541003  0.57270651  0.14945306  1
  Si  Si15  1  0.49541003  0.42729349  0.35054694  1
  Si  Si16  1  0.00458997  0.07270651  0.35054694  1
  Si  Si17  1  0.92729349  0.99541003  0.14945306  1
  Si  Si18  1  0.57270651  0.50458997  0.14945306  1
  Si  Si19  1  0.50458997  0.92729349  0.14945306  1
  O  O20  1  0.02688512  0.34796854  0.59065519  1
  O  O21  1  0.47311488  0.15203146  0.59065519  1
  O  O22  1  0.84796854  0.52688512  0.90934481  1
  O  O23  1  0.34796854  0.47311488  0.59065519  1
  O  O24  1  0.15203146  0.02688512  0.59065519  1
  O  O25  1  0.97311488  0.84796854  0.90934481  1
  O  O26  1  0.52688512  0.65203146  0.90934481  1
  O  O27  1  0.65203146  0.97311488  0.90934481  1
  O  O28  1  0.97311488  0.65203146  0.40934481  1
  O  O29  1  0.52688512  0.84796854  0.40934481  1
  O  O30  1  0.15203146  0.47311488  0.09065519  1
  O  O31  1  0.65203146  0.52688512  0.40934481  1
  O  O32  1  0.84796854  0.97311488  0.40934481  1
  O  O33  1  0.02688512  0.15203146  0.09065519  1
  O  O34  1  0.47311488  0.34796854  0.09065519  1
  O  O35  1  0.99589248  0.29082028  0.37191063  1
  O  O36  1  0.34796854  0.02688512  0.09065519  1
  O  O37  1  0.49589248  0.79082028  0.62808937  1
  O  O38  1  0.20917972  0.50410752  0.87191063  1
  O  O39  1  0.70917972  0.49589248  0.62808937  1
  O  O40  1  0.79082028  0.00410752  0.62808937  1
  O  O41  1  0.99589248  0.20917972  0.87191063  1
  O  O42  1  0.50410752  0.29082028  0.87191063  1
  O  O43  1  0.29082028  0.99589248  0.87191063  1
  O  O44  1  0.45890469  0.95890369  0.25000000  1
  O  O45  1  0.54109531  0.45890469  0.25000000  1
  O  O46  1  0.95890369  0.04109531  0.25000000  1
  O  O47  1  0.04109531  0.54109531  0.25000000  1
  O  O48  1  0.54109531  0.04109531  0.75000000  1
  O  O49  1  0.45890469  0.54109531  0.75000000  1
  O  O50  1  0.04109531  0.95890369  0.75000000  1
  O  O51  1  0.95890369  0.45890469  0.75000000  1
  O  O52  1  0.70917972  0.00410752  0.12808937  1
  O  O53  1  0.49589248  0.70917972  0.12808937  1
  O  O54  1  0.00410752  0.79082028  0.12808937  1
  O  O55  1  0.20917972  0.99589248  0.37191063  1
  O  O56  1  0.29082028  0.50410752  0.37191063  1
  O  O57  1  0.79082028  0.49589248  0.12808937  1
  O  O58  1  0.50410752  0.20917972  0.37191063  1
  O  O59  1  0.00410752  0.70917972  0.62808937  1
