# generated using pymatgen
data_Li3MnV(PO4)3
_symmetry_space_group_name_H-M   'P 1'
_cell_length_a   8.69781762
_cell_length_b   8.76126739
_cell_length_c   12.29604734
_cell_angle_alpha   89.98816745
_cell_angle_beta   91.13752095
_cell_angle_gamma   90.29975986
_symmetry_Int_Tables_number   1
_chemical_formula_structural   Li3MnV(PO4)3
_chemical_formula_sum   'Li12 Mn4 V4 P12 O48'
_cell_volume   936.80934816
_cell_formula_units_Z   4
loop_
 _symmetry_equiv_pos_site_id
 _symmetry_equiv_pos_as_xyz
  1  'x, y, z'
loop_
 _atom_site_type_symbol
 _atom_site_label
 _atom_site_symmetry_multiplicity
 _atom_site_fract_x
 _atom_site_fract_y
 _atom_site_fract_z
 _atom_site_occupancy
  Li  Li0  1  0.07812014  0.09496214  0.69798754  1
  Li  Li1  1  0.08171005  0.70487593  0.75898386  1
  Li  Li2  1  0.20968848  0.77369103  0.17820627  1
  Li  Li3  1  0.28976880  0.27327542  0.32175188  1
  Li  Li4  1  0.41789857  0.20298395  0.74078590  1
  Li  Li5  1  0.42362223  0.59679033  0.80200239  1
  Li  Li6  1  0.57906949  0.40446031  0.19755521  1
  Li  Li7  1  0.58398123  0.79503464  0.25875340  1
  Li  Li8  1  0.71228629  0.72679269  0.67826161  1
  Li  Li9  1  0.78749356  0.22733044  0.82150029  1
  Li  Li10  1  0.91519267  0.29794869  0.24080689  1
  Li  Li11  1  0.92230296  0.90184077  0.30216334  1
  Mn  Mn12  1  0.25394276  0.03415988  0.89356998  1
  Mn  Mn13  1  0.74645126  0.04199140  0.61003758  1
  Mn  Mn14  1  0.75249396  0.54324817  0.88962569  1
  Mn  Mn15  1  0.75465166  0.46632962  0.39486580  1
  V  V16  1  0.24694190  0.53111178  0.61021797  1
  V  V17  1  0.24605327  0.45876751  0.11142981  1
  V  V18  1  0.25280721  0.95698617  0.38869618  1
  V  V19  1  0.74656817  0.96873793  0.10893495  1
  P  P20  1  0.03833052  0.24683325  0.49340151  1
  P  P21  1  0.10526579  0.38683801  0.85297315  1
  P  P22  1  0.10465727  0.09925556  0.15144472  1
  P  P23  1  0.39541556  0.88903371  0.64444956  1
  P  P24  1  0.39570337  0.59844590  0.35162948  1
  P  P25  1  0.45897576  0.74885191  0.00603702  1
  P  P26  1  0.53737222  0.24921413  0.99479128  1
  P  P27  1  0.60500331  0.40335240  0.65433947  1
  P  P28  1  0.60679187  0.11266582  0.35487543  1
  P  P29  1  0.89623997  0.90488088  0.84933437  1
  P  P30  1  0.89272378  0.61159216  0.14270170  1
  P  P31  1  0.96038692  0.74759826  0.50588265  1
  O  O32  1  0.04927019  0.86287123  0.43428085  1
  O  O33  1  0.06597370  0.67019698  0.59240601  1
  O  O34  1  0.06815121  0.59485653  0.16429266  1
  O  O35  1  0.07675667  0.89950767  0.84794761  1
  O  O36  1  0.11565055  0.35677703  0.57514493  1
  O  O37  1  0.14800156  0.41340620  0.97278871  1
  O  O38  1  0.15071662  0.22073194  0.81914224  1
  O  O39  1  0.14877593  0.97624339  0.23985777  1
  O  O40  1  0.15717595  0.26147558  0.18875091  1
  O  O41  1  0.16550043  0.16383138  0.43013826  1
  O  O42  1  0.17018687  0.05027429  0.04494578  1
  O  O43  1  0.19272610  0.50728811  0.78281031  1
  O  O44  1  0.30718276  0.00999896  0.71005880  1
  O  O45  1  0.32971873  0.55050865  0.45927799  1
  O  O46  1  0.33201810  0.66597187  0.07056069  1
  O  O47  1  0.34240338  0.75997467  0.31331813  1
  O  O48  1  0.35218012  0.72303902  0.68018310  1
  O  O49  1  0.34974512  0.47615455  0.26312977  1
  O  O50  1  0.35523860  0.91041957  0.52355236  1
  O  O51  1  0.38436526  0.85878871  0.92272966  1
  O  O52  1  0.42571487  0.39834562  0.65524239  1
  O  O53  1  0.43121641  0.09479496  0.33470659  1
  O  O54  1  0.43305216  0.16927975  0.90671039  1
  O  O55  1  0.44838067  0.36258321  0.06605996  1
  O  O56  1  0.54754510  0.63521095  0.93421493  1
  O  O57  1  0.56312570  0.82695281  0.09359467  1
  O  O58  1  0.57213089  0.90596503  0.66514493  1
  O  O59  1  0.57532732  0.60660441  0.34877603  1
  O  O60  1  0.61324856  0.13927596  0.07750020  1
  O  O61  1  0.64353209  0.08920103  0.47630755  1
  O  O62  1  0.65022247  0.52851171  0.74273279  1
  O  O63  1  0.65140678  0.27952456  0.32061353  1
  O  O64  1  0.65353137  0.24303892  0.69308545  1
  O  O65  1  0.66375692  0.32864219  0.92973742  1
  O  O66  1  0.67132805  0.45266180  0.54739061  1
  O  O67  1  0.69382809  0.99322876  0.28463853  1
  O  O68  1  0.80372992  0.49010107  0.20830266  1
  O  O69  1  0.82994296  0.95008008  0.95763435  1
  O  O70  1  0.83302328  0.82570371  0.56900146  1
  O  O71  1  0.84734225  0.74412045  0.80933041  1
  O  O72  1  0.85018333  0.02837611  0.76120627  1
  O  O73  1  0.84927228  0.77755126  0.17856529  1
  O  O74  1  0.85951655  0.59273854  0.01979116  1
  O  O75  1  0.89009081  0.63763671  0.41878843  1
  O  O76  1  0.92554265  0.10550457  0.15406120  1
  O  O77  1  0.92984142  0.40288000  0.83250468  1
  O  O78  1  0.93646687  0.32574087  0.40506772  1
  O  O79  1  0.94805040  0.13354786  0.56597699  1
