# generated using pymatgen
data_Li2V3FeO8
_symmetry_space_group_name_H-M   'P 1'
_cell_length_a   5.92953528
_cell_length_b   5.90392135
_cell_length_c   9.60379973
_cell_angle_alpha   88.91720017
_cell_angle_beta   90.53904032
_cell_angle_gamma   119.85721221
_symmetry_Int_Tables_number   1
_chemical_formula_structural   Li2V3FeO8
_chemical_formula_sum   'Li4 V6 Fe2 O16'
_cell_volume   291.52812913
_cell_formula_units_Z   2
loop_
 _symmetry_equiv_pos_site_id
 _symmetry_equiv_pos_as_xyz
  1  'x, y, z'
loop_
 _atom_site_type_symbol
 _atom_site_label
 _atom_site_symmetry_multiplicity
 _atom_site_fract_x
 _atom_site_fract_y
 _atom_site_fract_z
 _atom_site_occupancy
  Li  Li0  1  0.33563457  0.66594442  0.89350726  1
  Li  Li1  1  0.99630543  0.99651188  0.99514864  1
  Li  Li2  1  0.00369457  0.00020645  0.49514864  1
  Li  Li3  1  0.66436543  0.33030985  0.39350726  1
  V  V4  1  0.16454361  0.82265320  0.21661876  1
  V  V5  1  0.16992859  0.34235596  0.20971435  1
  V  V6  1  0.65718075  0.82414426  0.21627676  1
  V  V7  1  0.34281925  0.16696352  0.71627676  1
  V  V8  1  0.83545639  0.65810959  0.71661876  1
  V  V9  1  0.83007141  0.17242637  0.70971435  1
  Fe  Fe10  1  0.33985647  0.67163733  0.49342275  1
  Fe  Fe11  1  0.66014353  0.33177986  0.99342275  1
  O  O12  1  0.16737892  0.83643846  0.60311551  1
  O  O13  1  0.03880494  0.52820718  0.33669694  1
  O  O14  1  0.34240110  0.68868375  0.10011619  1
  O  O15  1  0.99467542  0.99011999  0.30994667  1
  O  O16  1  0.00532458  0.99544356  0.80994667  1
  O  O17  1  0.17012032  0.32544790  0.60171578  1
  O  O18  1  0.48096347  0.95963069  0.33772077  1
  O  O19  1  0.49023892  0.52883367  0.33590674  1
  O  O20  1  0.32269287  0.15490599  0.10401388  1
  O  O21  1  0.67730713  0.83221312  0.60401388  1
  O  O22  1  0.51903653  0.47866622  0.83772077  1
  O  O23  1  0.50976108  0.03859575  0.83590674  1
  O  O24  1  0.65759890  0.34628265  0.60011619  1
  O  O25  1  0.83262108  0.66905855  0.10311551  1
  O  O26  1  0.96119506  0.48940224  0.83669694  1
  O  O27  1  0.82987968  0.15532758  0.10171578  1
