# generated using pymatgen
data_Li2Cr2O7
_symmetry_space_group_name_H-M   'P 1'
_cell_length_a   7.61201181
_cell_length_b   8.00642435
_cell_length_c   5.93055719
_cell_angle_alpha   79.21927100
_cell_angle_beta   90.00000000
_cell_angle_gamma   61.61662192
_symmetry_Int_Tables_number   1
_chemical_formula_structural   Li2Cr2O7
_chemical_formula_sum   'Li4 Cr4 O14'
_cell_volume   310.71801416
_cell_formula_units_Z   2
loop_
 _symmetry_equiv_pos_site_id
 _symmetry_equiv_pos_as_xyz
  1  'x, y, z'
loop_
 _atom_site_type_symbol
 _atom_site_label
 _atom_site_symmetry_multiplicity
 _atom_site_fract_x
 _atom_site_fract_y
 _atom_site_fract_z
 _atom_site_occupancy
  Li  Li0  1  0.24296252  0.65296882  0.89292730  1
  Li  Li1  1  0.10406965  0.65296882  0.39292730  1
  Li  Li2  1  0.89593035  0.34703118  0.60707270  1
  Li  Li3  1  0.75703748  0.34703118  0.10707270  1
  Cr  Cr4  1  0.80404127  0.77138857  0.87768797  1
  Cr  Cr5  1  0.42457015  0.77138857  0.37768797  1
  Cr  Cr6  1  0.57542985  0.22861143  0.62231203  1
  Cr  Cr7  1  0.19595873  0.22861143  0.12231203  1
  O  O8  1  0.30137425  0.78905478  0.60590755  1
  O  O9  1  0.90957198  0.78905478  0.10590755  1
  O  O10  1  0.97417931  0.70241744  0.69296634  1
  O  O11  1  0.32340325  0.70241744  0.19296634  1
  O  O12  1  0.72291994  0.61563329  0.94798944  1
  O  O13  1  0.66144677  0.61563329  0.44798944  1
  O  O14  1  0.33855323  0.38436671  0.55201056  1
  O  O15  1  0.27708006  0.38436671  0.05201056  1
  O  O16  1  0.67659675  0.29758256  0.80703366  1
  O  O17  1  0.02582069  0.29758256  0.30703366  1
  O  O18  1  0.09042802  0.21094522  0.89409245  1
  O  O19  1  0.69862575  0.21094522  0.39409245  1
  O  O20  1  0.59588742  0.00000000  0.75000000  1
  O  O21  1  0.40411258  0.00000000  0.25000000  1
