# generated using pymatgen
data_Li2TiFe3O8
_symmetry_space_group_name_H-M   'P 1'
_cell_length_a   8.40734428
_cell_length_b   8.61237987
_cell_length_c   8.39792546
_cell_angle_alpha   89.98774067
_cell_angle_beta   90.14909721
_cell_angle_gamma   89.93751338
_symmetry_Int_Tables_number   1
_chemical_formula_structural   Li2TiFe3O8
_chemical_formula_sum   'Li8 Ti4 Fe12 O32'
_cell_volume   608.06819168
_cell_formula_units_Z   4
loop_
 _symmetry_equiv_pos_site_id
 _symmetry_equiv_pos_as_xyz
  1  'x, y, z'
loop_
 _atom_site_type_symbol
 _atom_site_label
 _atom_site_symmetry_multiplicity
 _atom_site_fract_x
 _atom_site_fract_y
 _atom_site_fract_z
 _atom_site_occupancy
  Li  Li0  1  0.99784613  0.99940738  0.00065080  1
  Li  Li1  1  0.25273519  0.25114685  0.25214236  1
  Li  Li2  1  0.24960392  0.75059152  0.74985461  1
  Li  Li3  1  0.49899281  0.99924105  0.49811309  1
  Li  Li4  1  0.49880033  0.50002901  0.00381165  1
  Li  Li5  1  0.75292788  0.24974315  0.74864135  1
  Li  Li6  1  0.75077241  0.75048701  0.24749050  1
  Li  Li7  1  0.00059440  0.49831192  0.50235280  1
  Ti  Ti8  1  0.12406483  0.87341596  0.37543318  1
  Ti  Ti9  1  0.37226941  0.13318776  0.87243217  1
  Ti  Ti10  1  0.61888533  0.61864824  0.62585706  1
  Ti  Ti11  1  0.87894347  0.37065494  0.12249692  1
  Fe  Fe12  1  0.12526021  0.12340648  0.62330542  1
  Fe  Fe13  1  0.12317278  0.37649852  0.87206617  1
  Fe  Fe14  1  0.12585380  0.62644515  0.12575296  1
  Fe  Fe15  1  0.37387197  0.37352020  0.62172678  1
  Fe  Fe16  1  0.37474538  0.62600997  0.37369376  1
  Fe  Fe17  1  0.37430040  0.87333956  0.12533345  1
  Fe  Fe18  1  0.62690969  0.37760619  0.37143294  1
  Fe  Fe19  1  0.62384599  0.12818338  0.12256279  1
  Fe  Fe20  1  0.62455458  0.87606240  0.87660156  1
  Fe  Fe21  1  0.87666706  0.12289812  0.37607088  1
  Fe  Fe22  1  0.87407442  0.87780545  0.62686776  1
  Fe  Fe23  1  0.87126079  0.62267305  0.87557554  1
  O  O24  1  0.11619064  0.10641053  0.38198492  1
  O  O25  1  0.11501390  0.88516160  0.61121545  1
  O  O26  1  0.10362373  0.61520099  0.88481955  1
  O  O27  1  0.14397572  0.13139372  0.86810812  1
  O  O28  1  0.10924991  0.38455102  0.11506528  1
  O  O29  1  0.13795339  0.36036488  0.63500827  1
  O  O30  1  0.13266870  0.64147044  0.36565779  1
  O  O31  1  0.13284775  0.86496648  0.13915316  1
  O  O32  1  0.37081726  0.13510655  0.64194520  1
  O  O33  1  0.36557444  0.35870454  0.86656209  1
  O  O34  1  0.36289353  0.63836834  0.13388345  1
  O  O35  1  0.39100098  0.61420155  0.61961450  1
  O  O36  1  0.35969529  0.86416172  0.36651378  1
  O  O37  1  0.39073868  0.38876601  0.38516652  1
  O  O38  1  0.39123531  0.11424054  0.11206366  1
  O  O39  1  0.39675136  0.89076139  0.88227841  1
  O  O40  1  0.61754119  0.39206086  0.61415981  1
  O  O41  1  0.61859059  0.62016746  0.39443109  1
  O  O42  1  0.61630426  0.88573073  0.10269747  1
  O  O43  1  0.64089416  0.36815918  0.13481363  1
  O  O44  1  0.61234701  0.12057297  0.89326439  1
  O  O45  1  0.63562197  0.13446653  0.35257053  1
  O  O46  1  0.63152152  0.86104721  0.64818777  1
  O  O47  1  0.63987638  0.63074144  0.86292103  1
  O  O48  1  0.86473892  0.36431018  0.35912330  1
  O  O49  1  0.86017916  0.14133027  0.13067900  1
  O  O50  1  0.85040376  0.86523012  0.86896874  1
  O  O51  1  0.88842808  0.88462604  0.38429206  1
  O  O52  1  0.86119910  0.63674921  0.64431939  1
  O  O53  1  0.88486788  0.11237463  0.61340212  1
  O  O54  1  0.88456311  0.38179876  0.88912017  1
  O  O55  1  0.88174412  0.60762787  0.10788584  1
