# generated using pymatgen
data_KLiSnO2
_symmetry_space_group_name_H-M   'P 1'
_cell_length_a   8.22248187
_cell_length_b   8.22248259
_cell_length_c   11.17577731
_cell_angle_alpha   39.45723307
_cell_angle_beta   140.54276668
_cell_angle_gamma   156.21742244
_symmetry_Int_Tables_number   1
_chemical_formula_structural   KLiSnO2
_chemical_formula_sum   'K2 Li2 Sn2 O4'
_cell_volume   187.19496564
_cell_formula_units_Z   2
loop_
 _symmetry_equiv_pos_site_id
 _symmetry_equiv_pos_as_xyz
  1  'x, y, z'
loop_
 _atom_site_type_symbol
 _atom_site_label
 _atom_site_symmetry_multiplicity
 _atom_site_fract_x
 _atom_site_fract_y
 _atom_site_fract_z
 _atom_site_occupancy
  K  K0  1  0.19192009  0.80807991  0.68742061  1
  K  K1  1  0.80807991  0.19192009  0.31257939  1
  Li  Li2  1  0.66711344  0.33288656  0.91041868  1
  Li  Li3  1  0.33288656  0.66711344  0.08958132  1
  Sn  Sn4  1  0.03625521  0.96374479  0.23432184  1
  Sn  Sn5  1  0.96374479  0.03625521  0.76567816  1
  O  O6  1  0.17266122  0.82733878  0.00594519  1
  O  O7  1  0.47111773  0.52888227  0.64909319  1
  O  O8  1  0.52888227  0.47111773  0.35090681  1
  O  O9  1  0.82733878  0.17266122  0.99405481  1
