# generated using pymatgen
data_Li2Fe3F8
_symmetry_space_group_name_H-M   'P 1'
_cell_length_a   6.36834944
_cell_length_b   6.78801486
_cell_length_c   8.63357601
_cell_angle_alpha   90.00000000
_cell_angle_beta   90.00000000
_cell_angle_gamma   117.97509766
_symmetry_Int_Tables_number   1
_chemical_formula_structural   Li2Fe3F8
_chemical_formula_sum   'Li4 Fe6 F16'
_cell_volume   329.60639178
_cell_formula_units_Z   2
loop_
 _symmetry_equiv_pos_site_id
 _symmetry_equiv_pos_as_xyz
  1  'x, y, z'
loop_
 _atom_site_type_symbol
 _atom_site_label
 _atom_site_symmetry_multiplicity
 _atom_site_fract_x
 _atom_site_fract_y
 _atom_site_fract_z
 _atom_site_occupancy
  Li  Li0  1  0.12109142  0.24218284  0.61337349  1
  Li  Li1  1  0.37890858  0.75781716  0.11337349  1
  Li  Li2  1  0.62109142  0.24218284  0.88662651  1
  Li  Li3  1  0.87890858  0.75781716  0.38662651  1
  Fe  Fe4  1  0.10938766  0.71877432  0.75000000  1
  Fe  Fe5  1  -0.00000000  -0.00000000  -0.00000000  1
  Fe  Fe6  1  0.39061234  0.28122568  0.25000000  1
  Fe  Fe7  1  0.60938766  0.71877432  0.75000000  1
  Fe  Fe8  1  0.50000000  -0.00000000  0.50000000  1
  Fe  Fe9  1  0.89061234  0.28122568  0.25000000  1
  F  F10  1  0.13618218  0.77107464  0.51615915  1
  F  F11  1  0.13489246  0.77107464  0.98384085  1
  F  F12  1  0.50988977  0.01977954  0.25450890  1
  F  F13  1  0.25087766  0.50175531  0.24019436  1
  F  F14  1  0.99011023  0.98022046  0.75450890  1
  F  F15  1  0.24912234  0.49824469  0.74019436  1
  F  F16  1  0.63618218  0.77107464  0.98384085  1
  F  F17  1  0.36510754  0.22892536  0.48384085  1
  F  F18  1  0.63489246  0.77107464  0.51615915  1
  F  F19  1  0.36381782  0.22892536  0.01615915  1
  F  F20  1  0.49011023  0.98022046  0.74549110  1
  F  F21  1  0.00988977  0.01977954  0.24549110  1
  F  F22  1  0.74912234  0.49824469  0.75980564  1
  F  F23  1  0.75087766  0.50175531  0.25980564  1
  F  F24  1  0.86510754  0.22892536  0.01615915  1
  F  F25  1  0.86381782  0.22892536  0.48384085  1
