# generated using pymatgen
data_U2InNi2
_symmetry_space_group_name_H-M   'P 1'
_cell_length_a   3.72916939
_cell_length_b   7.19730202
_cell_length_c   7.17882016
_cell_angle_alpha   89.81005434
_cell_angle_beta   89.47806877
_cell_angle_gamma   90.03605152
_symmetry_Int_Tables_number   1
_chemical_formula_structural   U2InNi2
_chemical_formula_sum   'U4 In2 Ni4'
_cell_volume   192.67013948
_cell_formula_units_Z   2
loop_
 _symmetry_equiv_pos_site_id
 _symmetry_equiv_pos_as_xyz
  1  'x, y, z'
loop_
 _atom_site_type_symbol
 _atom_site_label
 _atom_site_symmetry_multiplicity
 _atom_site_fract_x
 _atom_site_fract_y
 _atom_site_fract_z
 _atom_site_occupancy
  U  U0  1  0.50017974  0.16367374  0.66312509  1
  U  U1  1  0.49887765  0.83689698  0.33784060  1
  U  U2  1  0.49949343  0.66349461  0.83727072  1
  U  U3  1  0.50042575  0.33539997  0.16251272  1
  In  In4  1  0.00050574  0.00023715  0.99992151  1
  In  In5  1  0.99934125  0.49953211  0.49952306  1
  Ni  Ni6  1  0.00003823  0.36818747  0.86847143  1
  Ni  Ni7  1  0.99859186  0.63184807  0.13202842  1
  Ni  Ni8  1  0.00209359  0.13205897  0.36764934  1
  Ni  Ni9  1  0.00045277  0.86867093  0.63165711  1
