# generated using pymatgen
data_Li2MnV(PO4)3
_symmetry_space_group_name_H-M   'P 1'
_cell_length_a   9.15593901
_cell_length_b   8.33060840
_cell_length_c   8.36564231
_cell_angle_alpha   60.62668278
_cell_angle_beta   62.15164624
_cell_angle_gamma   91.60351519
_symmetry_Int_Tables_number   1
_chemical_formula_structural   Li2MnV(PO4)3
_chemical_formula_sum   'Li4 Mn2 V2 P6 O24'
_cell_volume   463.47684732
_cell_formula_units_Z   2
loop_
 _symmetry_equiv_pos_site_id
 _symmetry_equiv_pos_as_xyz
  1  'x, y, z'
loop_
 _atom_site_type_symbol
 _atom_site_label
 _atom_site_symmetry_multiplicity
 _atom_site_fract_x
 _atom_site_fract_y
 _atom_site_fract_z
 _atom_site_occupancy
  Li  Li0  1  0.12727700  0.07247110  0.61095992  1
  Li  Li1  1  0.14744583  0.33629384  0.92844045  1
  Li  Li2  1  0.87267715  0.92339769  0.39218562  1
  Li  Li3  1  0.85631808  0.25895745  0.81769012  1
  Mn  Mn4  1  0.56366610  0.85294446  0.28512667  1
  Mn  Mn5  1  0.43574210  0.14121554  0.71687391  1
  V  V6  1  0.04457345  0.36242302  0.30153667  1
  V  V7  1  0.95652984  0.65369564  0.70047103  1
  P  P8  1  0.24650727  0.04912458  0.21348879  1
  P  P9  1  0.24850749  0.46142457  0.49576380  1
  P  P10  1  0.25775398  0.75924965  0.77651222  1
  P  P11  1  0.75205662  0.24792568  0.21018640  1
  P  P12  1  0.75063579  0.53078740  0.50777194  1
  P  P13  1  0.74558884  0.95521850  0.79312970  1
  O  O14  1  0.09472927  0.84034312  0.39033853  1
  O  O15  1  0.24984261  0.13316943  0.00164906  1
  O  O16  1  0.17545165  0.17715945  0.30392047  1
  O  O17  1  0.19387333  0.48770048  0.33637535  1
  O  O18  1  0.09768959  0.46841050  0.68792679  1
  O  O19  1  0.11355857  0.79794405  0.72123041  1
  O  O20  1  0.41585588  0.03206370  0.19394934  1
  O  O21  1  0.25941832  0.25585173  0.61240110  1
  O  O22  1  0.42052794  0.61875686  0.37066563  1
  O  O23  1  0.18679342  0.54142308  0.97452539  1
  O  O24  1  0.27390161  0.89587593  0.84522623  1
  O  O25  1  0.42936024  0.79433579  0.58171688  1
  O  O26  1  0.58465226  0.21566878  0.40105678  1
  O  O27  1  0.73650498  0.11249462  0.13726086  1
  O  O28  1  0.82206750  0.46255563  0.00158401  1
  O  O29  1  0.57134411  0.37784182  0.63916641  1
  O  O30  1  0.74983706  0.73801022  0.38807720  1
  O  O31  1  0.58234148  0.98172546  0.79679693  1
  O  O32  1  0.90456543  0.21407731  0.24962098  1
  O  O33  1  0.88960919  0.49693330  0.33177101  1
  O  O34  1  0.81419506  0.50001717  0.66150208  1
  O  O35  1  0.81149034  0.82572233  0.70652214  1
  O  O36  1  0.72700159  0.87377720  0.01364962  1
  O  O37  1  0.90158003  0.15940995  0.63163256  1
