# generated using pymatgen
data_Li2PtO2
_symmetry_space_group_name_H-M   'P 1'
_cell_length_a   3.11845091
_cell_length_b   5.16249721
_cell_length_c   3.87599137
_cell_angle_alpha   67.95103169
_cell_angle_beta   90.00000000
_cell_angle_gamma   107.57952880
_symmetry_Int_Tables_number   1
_chemical_formula_structural   Li2PtO2
_chemical_formula_sum   'Li2 Pt1 O2'
_cell_volume   54.67903765
_cell_formula_units_Z   1
loop_
 _symmetry_equiv_pos_site_id
 _symmetry_equiv_pos_as_xyz
  1  'x, y, z'
loop_
 _atom_site_type_symbol
 _atom_site_label
 _atom_site_symmetry_multiplicity
 _atom_site_fract_x
 _atom_site_fract_y
 _atom_site_fract_z
 _atom_site_occupancy
  Li  Li0  1  0.68927994  0.37856088  0.31072006  1
  Li  Li1  1  0.31072006  0.62143912  0.68927994  1
  Pt  Pt2  1  0.00000000  0.00000000  -0.00000000  1
  O  O3  1  0.34979280  0.69958661  0.15020720  1
  O  O4  1  0.65020720  0.30041339  0.84979280  1
