# generated using pymatgen
data_Li2SbPCO7
_symmetry_space_group_name_H-M   'P 1'
_cell_length_a   9.31218105
_cell_length_b   6.69142841
_cell_length_c   5.08469537
_cell_angle_alpha   90.00000000
_cell_angle_beta   92.90697105
_cell_angle_gamma   90.00000000
_symmetry_Int_Tables_number   1
_chemical_formula_structural   Li2SbPCO7
_chemical_formula_sum   'Li4 Sb2 P2 C2 O14'
_cell_volume   316.42877743
_cell_formula_units_Z   2
loop_
 _symmetry_equiv_pos_site_id
 _symmetry_equiv_pos_as_xyz
  1  'x, y, z'
loop_
 _atom_site_type_symbol
 _atom_site_label
 _atom_site_symmetry_multiplicity
 _atom_site_fract_x
 _atom_site_fract_y
 _atom_site_fract_z
 _atom_site_occupancy
  Li  Li0  1  0.20521315  0.04425048  0.23440108  1
  Li  Li1  1  0.20521315  0.45574952  0.23440108  1
  Li  Li2  1  0.79478685  0.54425048  0.76559892  1
  Li  Li3  1  0.79478685  0.95574952  0.76559892  1
  Sb  Sb4  1  0.37176283  0.75000000  0.81989329  1
  Sb  Sb5  1  0.62823717  0.25000000  0.18010671  1
  P  P6  1  0.37542784  0.25000000  0.74476230  1
  P  P7  1  0.62457216  0.75000000  0.25523770  1
  C  C8  1  0.08681700  0.75000000  0.78512147  1
  C  C9  1  0.91318300  0.25000000  0.21487853  1
  O  O10  1  0.04784823  0.25000000  0.20518405  1
  O  O11  1  0.17187484  0.75000000  0.00823246  1
  O  O12  1  0.15741176  0.75000000  0.57039433  1
  O  O13  1  0.31980627  0.06569271  0.89904534  1
  O  O14  1  0.31980627  0.43430729  0.89904534  1
  O  O15  1  0.45449278  0.75000000  0.22753129  1
  O  O16  1  0.32450939  0.25000000  0.45609368  1
  O  O17  1  0.67549061  0.75000000  0.54390632  1
  O  O18  1  0.54550722  0.25000000  0.77246871  1
  O  O19  1  0.68019373  0.56569271  0.10095466  1
  O  O20  1  0.68019373  0.93430729  0.10095466  1
  O  O21  1  0.84258824  0.25000000  0.42960567  1
  O  O22  1  0.82812516  0.25000000  0.99176754  1
  O  O23  1  0.95215177  0.75000000  0.79481595  1
