# generated using pymatgen
data_LiH2BrO5
_symmetry_space_group_name_H-M   'P 1'
_cell_length_a   9.25826545
_cell_length_b   9.25826545
_cell_length_c   11.16783322
_cell_angle_alpha   87.54075136
_cell_angle_beta   92.45924864
_cell_angle_gamma   149.08678195
_symmetry_Int_Tables_number   1
_chemical_formula_structural   LiH2BrO5
_chemical_formula_sum   'Li4 H8 Br4 O20'
_cell_volume   491.29243451
_cell_formula_units_Z   4
loop_
 _symmetry_equiv_pos_site_id
 _symmetry_equiv_pos_as_xyz
  1  'x, y, z'
loop_
 _atom_site_type_symbol
 _atom_site_label
 _atom_site_symmetry_multiplicity
 _atom_site_fract_x
 _atom_site_fract_y
 _atom_site_fract_z
 _atom_site_occupancy
  Li  Li0  1  0.00000000  0.50000000  0.00000000  1
  Li  Li1  1  0.50000000  -0.00000000  0.50000000  1
  Li  Li2  1  0.53663726  0.53663726  0.75000000  1
  Li  Li3  1  0.46336274  0.46336274  0.25000000  1
  H  H4  1  0.39365427  0.62833708  0.36868092  1
  H  H5  1  0.62833708  0.39365427  0.13131908  1
  H  H6  1  0.60634573  0.37166292  0.63131908  1
  H  H7  1  0.37166292  0.60634573  0.86868092  1
  H  H8  1  0.00119490  0.36352963  0.53451632  1
  H  H9  1  0.36352963  0.00119490  0.96548368  1
  H  H10  1  0.99880510  0.63647037  0.46548368  1
  H  H11  1  0.63647037  0.99880510  0.03451632  1
  Br  Br12  1  0.15755798  0.87652199  0.76020033  1
  Br  Br13  1  0.87652199  0.15755798  0.73979967  1
  Br  Br14  1  0.84244202  0.12347801  0.23980067  1
  Br  Br15  1  0.12347801  0.84244202  0.26019933  1
  O  O16  1  0.27892731  0.85927038  0.91127038  1
  O  O17  1  0.85927038  0.27892731  0.58872962  1
  O  O18  1  0.72107269  0.14072962  0.08872962  1
  O  O19  1  0.14072962  0.72107269  0.41127038  1
  O  O20  1  0.32288464  0.93187750  0.65493322  1
  O  O21  1  0.93187750  0.32288464  0.84506678  1
  O  O22  1  0.67711536  0.06812250  0.34506678  1
  O  O23  1  0.06812250  0.67711536  0.15493322  1
  O  O24  1  0.86244706  0.75055653  0.64682350  1
  O  O25  1  0.75055653  0.86244706  0.85317650  1
  O  O26  1  0.13755294  0.24944347  0.35317650  1
  O  O27  1  0.24944347  0.13755294  0.14682350  1
  O  O28  1  0.36390697  0.19296208  0.78888135  1
  O  O29  1  0.19296208  0.36390697  0.71111865  1
  O  O30  1  0.63609303  0.80703792  0.21111865  1
  O  O31  1  0.80703792  0.63609303  0.28888135  1
  O  O32  1  0.53275704  0.73687836  0.92486500  1
  O  O33  1  0.73687836  0.53275704  0.57513500  1
  O  O34  1  0.46724296  0.26312164  0.07513500  1
  O  O35  1  0.26312164  0.46724296  0.42486500  1
