# generated using pymatgen
data_YCu(WO4)2
_symmetry_space_group_name_H-M   'P 1'
_cell_length_a   5.14303706
_cell_length_b   6.11849400
_cell_length_c   6.08013024
_cell_angle_alpha   108.91252150
_cell_angle_beta   113.74447318
_cell_angle_gamma   91.74627679
_symmetry_Int_Tables_number   1
_chemical_formula_structural   YCu(WO4)2
_chemical_formula_sum   'Y1 Cu1 W2 O8'
_cell_volume   162.78875655
_cell_formula_units_Z   1
loop_
 _symmetry_equiv_pos_site_id
 _symmetry_equiv_pos_as_xyz
  1  'x, y, z'
loop_
 _atom_site_type_symbol
 _atom_site_label
 _atom_site_symmetry_multiplicity
 _atom_site_fract_x
 _atom_site_fract_y
 _atom_site_fract_z
 _atom_site_occupancy
  Y  Y0  1  0.62213748  0.72152567  0.09856041  1
  Cu  Cu1  1  0.13574431  0.22985784  0.10567928  1
  W  W2  1  0.87500473  0.38997122  0.58778488  1
  W  W3  1  0.37416647  0.05497181  0.61068453  1
  O  O4  1  0.09151813  0.24874752  0.39846329  1
  O  O5  1  0.59850096  0.05018986  0.40894448  1
  O  O6  1  0.64386942  0.50305276  0.34929296  1
  O  O7  1  0.10974900  0.79602413  0.36180024  1
  O  O8  1  0.15993321  0.19992498  0.80191873  1
  O  O9  1  0.60194504  0.93816528  0.84641736  1
  O  O10  1  0.64920714  0.39425850  0.78851033  1
  O  O11  1  0.13422410  0.65181043  0.83804351  1
