# generated using pymatgen
data_BaGd2CuO5
_symmetry_space_group_name_H-M   'P 1'
_cell_length_a   5.76715754
_cell_length_b   7.33729407
_cell_length_c   12.37670642
_cell_angle_alpha   90.00000000
_cell_angle_beta   90.00000000
_cell_angle_gamma   90.00000000
_symmetry_Int_Tables_number   1
_chemical_formula_structural   BaGd2CuO5
_chemical_formula_sum   'Ba4 Gd8 Cu4 O20'
_cell_volume   523.72442661
_cell_formula_units_Z   4
loop_
 _symmetry_equiv_pos_site_id
 _symmetry_equiv_pos_as_xyz
  1  'x, y, z'
loop_
 _atom_site_type_symbol
 _atom_site_label
 _atom_site_symmetry_multiplicity
 _atom_site_fract_x
 _atom_site_fract_y
 _atom_site_fract_z
 _atom_site_occupancy
  Ba  Ba0  1  0.25000000  0.57217110  0.40617146  1
  Ba  Ba1  1  0.25000000  0.92782890  0.90617146  1
  Ba  Ba2  1  0.75000000  0.42782890  0.59382854  1
  Ba  Ba3  1  0.75000000  0.07217110  0.09382854  1
  Gd  Gd4  1  0.25000000  0.38513022  0.78764337  1
  Gd  Gd5  1  0.25000000  0.11486978  0.28764337  1
  Gd  Gd6  1  0.75000000  0.61486978  0.21235663  1
  Gd  Gd7  1  0.75000000  0.88513022  0.71235663  1
  Gd  Gd8  1  0.25000000  0.10380644  0.57411350  1
  Gd  Gd9  1  0.25000000  0.39619356  0.07411350  1
  Gd  Gd10  1  0.75000000  0.89619356  0.42588650  1
  Gd  Gd11  1  0.75000000  0.60380644  0.92588650  1
  Cu  Cu12  1  0.25000000  0.78349460  0.16095735  1
  Cu  Cu13  1  0.25000000  0.71650540  0.66095735  1
  Cu  Cu14  1  0.75000000  0.21650540  0.83904265  1
  Cu  Cu15  1  0.75000000  0.28349460  0.33904265  1
  O  O16  1  0.99209466  0.33384178  0.93267861  1
  O  O17  1  0.50790534  0.16615822  0.43267861  1
  O  O18  1  0.49209466  0.66615822  0.06732139  1
  O  O19  1  0.00790534  0.83384178  0.56732139  1
  O  O20  1  0.00790534  0.66615822  0.06732139  1
  O  O21  1  0.49209466  0.83384178  0.56732139  1
  O  O22  1  0.50790534  0.33384178  0.93267861  1
  O  O23  1  0.99209466  0.16615822  0.43267861  1
  O  O24  1  0.50594109  0.14545524  0.72756345  1
  O  O25  1  0.99405891  0.35454476  0.22756345  1
  O  O26  1  0.00594109  0.85454476  0.27243655  1
  O  O27  1  0.49405891  0.64545524  0.77243655  1
  O  O28  1  0.49405891  0.85454476  0.27243655  1
  O  O29  1  0.00594109  0.64545524  0.77243655  1
  O  O30  1  0.99405891  0.14545524  0.72756345  1
  O  O31  1  0.50594109  0.35454476  0.22756345  1
  O  O32  1  0.25000000  0.41750762  0.59989528  1
  O  O33  1  0.25000000  0.08249238  0.09989528  1
  O  O34  1  0.75000000  0.58249238  0.40010472  1
  O  O35  1  0.75000000  0.91750762  0.90010472  1
