# generated using pymatgen
data_Cu3OF5
_symmetry_space_group_name_H-M   'P 1'
_cell_length_a   7.23326759
_cell_length_b   5.74088481
_cell_length_c   5.38525464
_cell_angle_alpha   74.85618603
_cell_angle_beta   105.09112047
_cell_angle_gamma   101.38712099
_symmetry_Int_Tables_number   1
_chemical_formula_structural   Cu3OF5
_chemical_formula_sum   'Cu6 O2 F10'
_cell_volume   206.39520996
_cell_formula_units_Z   2
loop_
 _symmetry_equiv_pos_site_id
 _symmetry_equiv_pos_as_xyz
  1  'x, y, z'
loop_
 _atom_site_type_symbol
 _atom_site_label
 _atom_site_symmetry_multiplicity
 _atom_site_fract_x
 _atom_site_fract_y
 _atom_site_fract_z
 _atom_site_occupancy
  Cu  Cu0  1  0.67224335  0.64214421  0.64512990  1
  Cu  Cu1  1  0.83333300  0.33333300  0.33333300  1
  Cu  Cu2  1  0.16356866  0.67676781  0.67367864  1
  Cu  Cu3  1  0.33333300  0.33333300  0.33333300  1
  Cu  Cu4  1  0.50309834  0.98989919  0.99298836  1
  Cu  Cu5  1  0.99442365  0.02452279  0.02153710  1
  O  O6  1  0.62851332  0.42520257  0.42534746  1
  O  O7  1  0.03815368  0.24146443  0.24131954  1
  F  F8  1  0.98407057  0.79778500  0.79340361  1
  F  F9  1  0.68259543  0.86888200  0.87326339  1
  F  F10  1  0.65749263  0.93092603  0.34809468  1
  F  F11  1  0.97636848  0.29027864  0.69960706  1
  F  F12  1  0.69029752  0.37638836  0.96705994  1
  F  F13  1  0.34531022  0.55723274  0.56118899  1
  F  F14  1  0.31751210  0.61464131  0.02325124  1
  F  F15  1  0.00917337  0.73574097  0.31857232  1
  F  F16  1  0.34915390  0.05202569  0.64341476  1
  F  F17  1  0.32135578  0.10943426  0.10547801  1
