# generated using pymatgen
data_Fe3B
_symmetry_space_group_name_H-M   'P 1'
_cell_length_a   6.42865408
_cell_length_b   6.42865408
_cell_length_c   6.42865408
_cell_angle_alpha   96.25966958
_cell_angle_beta   96.25966958
_cell_angle_gamma   141.43769251
_symmetry_Int_Tables_number   1
_chemical_formula_structural   Fe3B
_chemical_formula_sum   'Fe12 B4'
_cell_volume   156.32672471
_cell_formula_units_Z   4
loop_
 _symmetry_equiv_pos_site_id
 _symmetry_equiv_pos_as_xyz
  1  'x, y, z'
loop_
 _atom_site_type_symbol
 _atom_site_label
 _atom_site_symmetry_multiplicity
 _atom_site_fract_x
 _atom_site_fract_y
 _atom_site_fract_z
 _atom_site_occupancy
  Fe  Fe0  1  0.83203728  0.64094784  0.97586781  1
  Fe  Fe1  1  0.66508003  0.85616947  0.02413219  1
  Fe  Fe2  1  0.14383053  0.16796272  0.80891056  1
  Fe  Fe3  1  0.35905216  0.33491997  0.19108944  1
  Fe  Fe4  1  0.37745730  0.98681008  0.33321603  1
  Fe  Fe5  1  0.65359406  0.04424127  0.66678397  1
  Fe  Fe6  1  0.95575873  0.62254270  0.60935278  1
  Fe  Fe7  1  0.01318992  0.34640594  0.39064722  1
  Fe  Fe8  1  0.43089601  0.03833911  0.95668856  1
  Fe  Fe9  1  0.08165055  0.47420745  0.04331144  1
  Fe  Fe10  1  0.52579255  0.56910399  0.60744311  1
  Fe  Fe11  1  0.96166089  0.91834945  0.39255689  1
  B  B12  1  0.80776936  0.47039574  0.25038099  1
  B  B13  1  0.22001475  0.55738837  0.74961901  1
  B  B14  1  0.44261163  0.19223064  0.66262639  1
  B  B15  1  0.52960426  0.77998525  0.33737361  1
