# generated using pymatgen
data_CaV2P2(H4O7)2
_symmetry_space_group_name_H-M   'P 1'
_cell_length_a   6.45653853
_cell_length_b   6.42300569
_cell_length_c   6.75100629
_cell_angle_alpha   109.06323492
_cell_angle_beta   92.97746432
_cell_angle_gamma   90.11593589
_symmetry_Int_Tables_number   1
_chemical_formula_structural   CaV2P2(H4O7)2
_chemical_formula_sum   'Ca1 V2 P2 H8 O14'
_cell_volume   264.20237598
_cell_formula_units_Z   1
loop_
 _symmetry_equiv_pos_site_id
 _symmetry_equiv_pos_as_xyz
  1  'x, y, z'
loop_
 _atom_site_type_symbol
 _atom_site_label
 _atom_site_symmetry_multiplicity
 _atom_site_fract_x
 _atom_site_fract_y
 _atom_site_fract_z
 _atom_site_occupancy
  Ca  Ca0  1  0.64474744  0.91610667  0.50593977  1
  V  V1  1  0.34821784  0.85355583  0.94273349  1
  V  V2  1  0.85344065  0.42309116  0.11580878  1
  P  P3  1  0.34826946  0.39214868  0.03622407  1
  P  P4  1  0.84668861  0.89313763  0.01567330  1
  H  H5  1  0.21527134  0.89253443  0.57002802  1
  H  H6  1  0.27154757  0.64824768  0.44534438  1
  H  H7  1  0.75186865  0.46399872  0.53417772  1
  H  H8  1  0.94387836  0.62782015  0.62380485  1
  H  H9  1  0.47110435  0.37762726  0.65791380  1
  H  H10  1  0.49012529  0.30797394  0.40462315  1
  H  H11  1  0.03922973  0.16905556  0.51126295  1
  H  H12  1  0.00224159  0.92807386  0.36089192  1
  O  O13  1  0.39103159  0.92096366  0.19943532  1
  O  O14  1  0.35766747  0.52100740  0.87632370  1
  O  O15  1  0.03661143  0.81541016  0.88190252  1
  O  O16  1  0.32904227  0.14704436  0.90166056  1
  O  O17  1  0.65258480  0.85598770  0.86088246  1
  O  O18  1  0.32032172  0.77543917  0.56975490  1
  O  O19  1  0.83785049  0.33709571  0.85971763  1
  O  O20  1  0.82848924  0.75753718  0.17012321  1
  O  O21  1  0.16601576  0.46861399  0.18423890  1
  O  O22  1  0.54664063  0.43905631  0.18731067  1
  O  O23  1  0.86923453  0.13286328  0.16375830  1
  O  O24  1  0.84892098  0.56589263  0.49712179  1
  O  O25  1  0.54906458  0.28735132  0.53425960  1
  O  O26  1  0.01809463  0.01916555  0.51198223  1
