# generated using pymatgen
data_PrGa2Co3
_symmetry_space_group_name_H-M   'P 1'
_cell_length_a   9.17171887
_cell_length_b   9.17171880
_cell_length_c   3.82494442
_cell_angle_alpha   90.00000000
_cell_angle_beta   90.00000000
_cell_angle_gamma   120.01904699
_symmetry_Int_Tables_number   1
_chemical_formula_structural   PrGa2Co3
_chemical_formula_sum   'Pr3 Ga6 Co9'
_cell_volume   278.59533478
_cell_formula_units_Z   3
loop_
 _symmetry_equiv_pos_site_id
 _symmetry_equiv_pos_as_xyz
  1  'x, y, z'
loop_
 _atom_site_type_symbol
 _atom_site_label
 _atom_site_symmetry_multiplicity
 _atom_site_fract_x
 _atom_site_fract_y
 _atom_site_fract_z
 _atom_site_occupancy
  Pr  Pr0  1  0.00000324  0.00000324  -0.00000000  1
  Pr  Pr1  1  0.66664019  0.33338119  0.50000000  1
  Pr  Pr2  1  0.33338119  0.66664019  0.50000000  1
  Ga  Ga3  1  0.68293924  0.68293924  0.50000000  1
  Ga  Ga4  1  0.31704352  0.99999765  0.50000000  1
  Ga  Ga5  1  0.99999765  0.31704352  0.50000000  1
  Ga  Ga6  1  0.31706478  0.31706478  0.50000000  1
  Ga  Ga7  1  0.68296559  0.00000903  0.50000000  1
  Ga  Ga8  1  0.00000903  0.68296559  0.50000000  1
  Co  Co9  1  0.49998914  0.49998914  -0.00000000  1
  Co  Co10  1  0.50001291  0.00002272  -0.00000000  1
  Co  Co11  1  0.00002272  0.50001291  -0.00000000  1
  Co  Co12  1  0.81750539  0.18250026  -0.00000000  1
  Co  Co13  1  0.81742590  0.63493736  -0.00000000  1
  Co  Co14  1  0.36507690  0.18258499  -0.00000000  1
  Co  Co15  1  0.18250026  0.81750539  -0.00000000  1
  Co  Co16  1  0.63493736  0.81742590  -0.00000000  1
  Co  Co17  1  0.18258499  0.36507690  -0.00000000  1
