# generated using pymatgen
data_Ga4P4O17
_symmetry_space_group_name_H-M   'P 1'
_cell_length_a   17.28639937
_cell_length_b   17.28639944
_cell_length_c   17.28639892
_cell_angle_alpha   60.00000100
_cell_angle_beta   60.00000085
_cell_angle_gamma   60.00000070
_symmetry_Int_Tables_number   1
_chemical_formula_structural   Ga4P4O17
_chemical_formula_sum   'Ga24 P24 O102'
_cell_volume   3652.57067427
_cell_formula_units_Z   6
loop_
 _symmetry_equiv_pos_site_id
 _symmetry_equiv_pos_as_xyz
  1  'x, y, z'
loop_
 _atom_site_type_symbol
 _atom_site_label
 _atom_site_symmetry_multiplicity
 _atom_site_fract_x
 _atom_site_fract_y
 _atom_site_fract_z
 _atom_site_occupancy
  Ga  Ga0  1  0.10697217  0.27286531  0.72713469  1
  Ga  Ga1  1  0.60697217  0.77286531  0.39302783  1
  Ga  Ga2  1  0.72713469  0.89302783  0.10697217  1
  Ga  Ga3  1  0.60697217  0.39302783  0.22713469  1
  Ga  Ga4  1  0.89302783  0.27286531  0.10697217  1
  Ga  Ga5  1  0.72713469  0.10697217  0.27286531  1
  Ga  Ga6  1  0.27286531  0.10697217  0.89302783  1
  Ga  Ga7  1  0.27286531  0.89302783  0.72713469  1
  Ga  Ga8  1  0.77286531  0.60697217  0.22713469  1
  Ga  Ga9  1  0.39302783  0.22713469  0.60697217  1
  Ga  Ga10  1  0.39302783  0.60697217  0.77286531  1
  Ga  Ga11  1  0.22713469  0.77286531  0.60697217  1
  Ga  Ga12  1  0.27286531  0.72713469  0.10697217  1
  Ga  Ga13  1  0.10697217  0.72713469  0.89302783  1
  Ga  Ga14  1  0.22713469  0.60697217  0.39302783  1
  Ga  Ga15  1  0.77286531  0.22713469  0.39302783  1
  Ga  Ga16  1  0.22713469  0.39302783  0.77286531  1
  Ga  Ga17  1  0.60697217  0.22713469  0.77286531  1
  Ga  Ga18  1  0.77286531  0.39302783  0.60697217  1
  Ga  Ga19  1  0.39302783  0.77286531  0.22713469  1
  Ga  Ga20  1  0.10697217  0.89302783  0.27286531  1
  Ga  Ga21  1  0.89302783  0.10697217  0.72713469  1
  Ga  Ga22  1  0.89302783  0.72713469  0.27286531  1
  Ga  Ga23  1  0.72713469  0.27286531  0.89302783  1
  P  P24  1  0.58252934  0.22238815  0.41747066  1
  P  P25  1  0.08252934  0.91747066  0.72238815  1
  P  P26  1  0.08252934  0.27761185  0.91747066  1
  P  P27  1  0.72238815  0.27761185  0.08252934  1
  P  P28  1  0.27761185  0.08252934  0.72238815  1
  P  P29  1  0.77761185  0.22238815  0.58252934  1
  P  P30  1  0.27761185  0.91747066  0.08252934  1
  P  P31  1  0.91747066  0.27761185  0.72238815  1
  P  P32  1  0.41747066  0.58252934  0.22238815  1
  P  P33  1  0.91747066  0.08252934  0.27761185  1
  P  P34  1  0.08252934  0.72238815  0.27761185  1
  P  P35  1  0.77761185  0.58252934  0.41747066  1
  P  P36  1  0.22238815  0.41747066  0.58252934  1
  P  P37  1  0.72238815  0.91747066  0.27761185  1
  P  P38  1  0.22238815  0.77761185  0.41747066  1
  P  P39  1  0.27761185  0.72238815  0.91747066  1
  P  P40  1  0.77761185  0.41747066  0.22238815  1
  P  P41  1  0.91747066  0.72238815  0.08252934  1
  P  P42  1  0.41747066  0.77761185  0.58252934  1
  P  P43  1  0.58252934  0.77761185  0.22238815  1
  P  P44  1  0.22238815  0.58252934  0.77761185  1
  P  P45  1  0.72238815  0.08252934  0.91747066  1
  P  P46  1  0.58252934  0.41747066  0.77761185  1
  P  P47  1  0.41747066  0.22238815  0.77761185  1
  O  O48  1  0.15330664  0.95094923  0.71765404  1
  O  O49  1  0.45094923  0.65330664  0.21765404  1
  O  O50  1  0.62719751  0.14446118  0.37280249  1
  O  O51  1  0.70133071  0.99709536  0.00290464  1
  O  O52  1  0.12719751  0.35553882  0.87280249  1
  O  O53  1  0.21765404  0.45094923  0.65330664  1
  O  O54  1  0.54905077  0.34669336  0.78234596  1
  O  O55  1  0.49709536  0.20133071  0.50290464  1
  O  O56  1  0.67809010  0.45094923  0.21765404  1
  O  O57  1  0.70133071  0.00290464  0.29866929  1
  O  O58  1  0.50290464  0.79866929  0.49709536  1
  O  O59  1  0.00290464  0.99709536  0.29866929  1
  O  O60  1  0.87280249  0.12719751  0.35553882  1
  O  O61  1  0.34669336  0.32190990  0.78234596  1
  O  O62  1  0.82190990  0.84669336  0.28234596  1
  O  O63  1  0.99709536  0.70133071  0.29866929  1
  O  O64  1  0.95094923  0.71765404  0.15330664  1
  O  O65  1  0.20133071  0.79866929  0.50290464  1
  O  O66  1  0.95094923  0.15330664  0.17809010  1
  O  O67  1  0.34669336  0.78234596  0.54905077  1
  O  O68  1  0.64446118  0.35553882  0.12719751  1
  O  O69  1  0.17809010  0.15330664  0.71765404  1
  O  O70  1  0.67809010  0.65330664  0.45094923  1
  O  O71  1  0.82190990  0.04905077  0.84669336  1
  O  O72  1  0.04905077  0.82190990  0.28234596  1
  O  O73  1  0.62719751  0.37280249  0.85553882  1
  O  O74  1  0.70133071  0.29866929  0.99709536  1
  O  O75  1  0.28234596  0.82190990  0.84669336  1
  O  O76  1  0.45094923  0.67809010  0.65330664  1
  O  O77  1  0.04905077  0.84669336  0.82190990  1
  O  O78  1  0.50290464  0.49709536  0.20133071  1
  O  O79  1  0.87280249  0.35553882  0.64446118  1
  O  O80  1  0.17809010  0.71765404  0.95094923  1
  O  O81  1  0.00290464  0.70133071  0.99709536  1
  O  O82  1  0.37280249  0.85553882  0.62719751  1
  O  O83  1  0.84669336  0.28234596  0.82190990  1
  O  O84  1  0.49709536  0.79866929  0.20133071  1
  O  O85  1  0.54905077  0.32190990  0.34669336  1
  O  O86  1  0.29866929  0.99709536  0.70133071  1
  O  O87  1  0.04905077  0.28234596  0.84669336  1
  O  O88  1  0.84669336  0.82190990  0.04905077  1
  O  O89  1  0.14446118  0.85553882  0.37280249  1
  O  O90  1  0.67809010  0.21765404  0.65330664  1
  O  O91  1  0.84669336  0.04905077  0.28234596  1
  O  O92  1  0.25000000  0.75000000  0.75000000  1
  O  O93  1  0.85553882  0.62719751  0.37280249  1
  O  O94  1  0.20133071  0.50290464  0.49709536  1
  O  O95  1  0.82190990  0.28234596  0.04905077  1
  O  O96  1  0.64446118  0.87280249  0.35553882  1
  O  O97  1  0.50290464  0.20133071  0.79866929  1
  O  O98  1  0.79866929  0.49709536  0.50290464  1
  O  O99  1  0.75000000  0.25000000  0.25000000  1
  O  O100  1  0.99709536  0.00290464  0.70133071  1
  O  O101  1  0.37280249  0.14446118  0.85553882  1
  O  O102  1  0.45094923  0.21765404  0.67809010  1
  O  O103  1  0.71765404  0.17809010  0.15330664  1
  O  O104  1  0.75000000  0.75000000  0.25000000  1
  O  O105  1  0.29866929  0.70133071  0.00290464  1
  O  O106  1  0.21765404  0.65330664  0.67809010  1
  O  O107  1  0.17809010  0.95094923  0.15330664  1
  O  O108  1  0.78234596  0.34669336  0.32190990  1
  O  O109  1  0.32190990  0.54905077  0.78234596  1
  O  O110  1  0.35553882  0.64446118  0.87280249  1
  O  O111  1  0.71765404  0.15330664  0.95094923  1
  O  O112  1  0.71765404  0.95094923  0.17809010  1
  O  O113  1  0.85553882  0.14446118  0.62719751  1
  O  O114  1  0.34669336  0.54905077  0.32190990  1
  O  O115  1  0.35553882  0.87280249  0.12719751  1
  O  O116  1  0.65330664  0.45094923  0.67809010  1
  O  O117  1  0.85553882  0.37280249  0.14446118  1
  O  O118  1  0.64446118  0.12719751  0.87280249  1
  O  O119  1  0.35553882  0.12719751  0.64446118  1
  O  O120  1  0.79866929  0.50290464  0.20133071  1
  O  O121  1  0.75000000  0.25000000  0.75000000  1
  O  O122  1  0.37280249  0.62719751  0.14446118  1
  O  O123  1  0.62719751  0.85553882  0.14446118  1
  O  O124  1  0.25000000  0.25000000  0.75000000  1
  O  O125  1  0.65330664  0.21765404  0.45094923  1
  O  O126  1  0.49709536  0.50290464  0.79866929  1
  O  O127  1  0.20133071  0.49709536  0.79866929  1
  O  O128  1  0.28234596  0.84669336  0.04905077  1
  O  O129  1  0.32190990  0.78234596  0.34669336  1
  O  O130  1  0.78234596  0.32190990  0.54905077  1
  O  O131  1  0.12719751  0.87280249  0.64446118  1
  O  O132  1  0.32190990  0.34669336  0.54905077  1
  O  O133  1  0.15330664  0.71765404  0.17809010  1
  O  O134  1  0.65330664  0.67809010  0.21765404  1
  O  O135  1  0.79866929  0.20133071  0.49709536  1
  O  O136  1  0.99709536  0.29866929  0.00290464  1
  O  O137  1  0.14446118  0.37280249  0.62719751  1
  O  O138  1  0.21765404  0.67809010  0.45094923  1
  O  O139  1  0.25000000  0.75000000  0.25000000  1
  O  O140  1  0.87280249  0.64446118  0.12719751  1
  O  O141  1  0.00290464  0.29866929  0.70133071  1
  O  O142  1  0.54905077  0.78234596  0.32190990  1
  O  O143  1  0.95094923  0.17809010  0.71765404  1
  O  O144  1  0.29866929  0.00290464  0.99709536  1
  O  O145  1  0.12719751  0.64446118  0.35553882  1
  O  O146  1  0.28234596  0.04905077  0.82190990  1
  O  O147  1  0.78234596  0.54905077  0.34669336  1
  O  O148  1  0.15330664  0.17809010  0.95094923  1
  O  O149  1  0.14446118  0.62719751  0.85553882  1
