# generated using pymatgen
data_PrSe4O11
_symmetry_space_group_name_H-M   'P 1'
_cell_length_a   7.27183970
_cell_length_b   11.07740684
_cell_length_c   13.48440157
_cell_angle_alpha   90.60663617
_cell_angle_beta   90.00000000
_cell_angle_gamma   90.00000000
_symmetry_Int_Tables_number   1
_chemical_formula_structural   PrSe4O11
_chemical_formula_sum   'Pr4 Se16 O44'
_cell_volume   1086.14982723
_cell_formula_units_Z   4
loop_
 _symmetry_equiv_pos_site_id
 _symmetry_equiv_pos_as_xyz
  1  'x, y, z'
loop_
 _atom_site_type_symbol
 _atom_site_label
 _atom_site_symmetry_multiplicity
 _atom_site_fract_x
 _atom_site_fract_y
 _atom_site_fract_z
 _atom_site_occupancy
  Pr  Pr0  1  0.55040965  0.94964110  0.33997985  1
  Pr  Pr1  1  0.05040965  0.55035890  0.66002015  1
  Pr  Pr2  1  0.44959035  0.05035890  0.66002015  1
  Pr  Pr3  1  0.94959035  0.44964110  0.33997985  1
  Se  Se4  1  0.49055932  0.70996926  0.75353255  1
  Se  Se5  1  0.99055932  0.79003074  0.24646745  1
  Se  Se6  1  0.50944068  0.29003074  0.24646745  1
  Se  Se7  1  0.00944068  0.20996926  0.75353255  1
  Se  Se8  1  0.34085877  0.82670346  0.09235723  1
  Se  Se9  1  0.84085877  0.67329654  0.90764277  1
  Se  Se10  1  0.65914123  0.17329654  0.90764277  1
  Se  Se11  1  0.15914123  0.32670346  0.09235723  1
  Se  Se12  1  0.93759197  0.89562779  0.70419983  1
  Se  Se13  1  0.43759197  0.60437221  0.29580017  1
  Se  Se14  1  0.06240803  0.10437221  0.29580017  1
  Se  Se15  1  0.56240803  0.39562779  0.70419983  1
  Se  Se16  1  0.70564497  0.67609788  0.48660575  1
  Se  Se17  1  0.20564497  0.82390212  0.51339425  1
  Se  Se18  1  0.29435503  0.32390212  0.51339425  1
  Se  Se19  1  0.79435503  0.17609788  0.48660575  1
  O  O20  1  0.42862352  0.85493783  0.75189700  1
  O  O21  1  0.92862352  0.64506217  0.24810300  1
  O  O22  1  0.57137648  0.14506217  0.24810300  1
  O  O23  1  0.07137648  0.35493783  0.75189700  1
  O  O24  1  0.59502898  0.69242664  0.87765753  1
  O  O25  1  0.09502898  0.80757336  0.12234247  1
  O  O26  1  0.40497102  0.30757336  0.12234247  1
  O  O27  1  0.90497102  0.19242664  0.87765753  1
  O  O28  1  0.80519957  0.87753845  0.22675224  1
  O  O29  1  0.30519957  0.62246155  0.77324776  1
  O  O30  1  0.19480043  0.12246155  0.77324776  1
  O  O31  1  0.69480043  0.37753845  0.22675224  1
  O  O32  1  0.82067261  0.62130856  0.02062235  1
  O  O33  1  0.32067261  0.87869144  0.97937765  1
  O  O34  1  0.17932739  0.37869144  0.97937765  1
  O  O35  1  0.67932739  0.12130856  0.02062235  1
  O  O36  1  0.41438824  0.93048152  0.17286807  1
  O  O37  1  0.91438824  0.56951848  0.82713193  1
  O  O38  1  0.58561176  0.06951848  0.82713193  1
  O  O39  1  0.08561176  0.43048152  0.17286807  1
  O  O40  1  0.43761723  0.69402321  0.10508351  1
  O  O41  1  0.93761723  0.80597679  0.89491649  1
  O  O42  1  0.56238277  0.30597679  0.89491649  1
  O  O43  1  0.06238277  0.19402321  0.10508351  1
  O  O44  1  0.27387822  0.51700814  0.34754928  1
  O  O45  1  0.77387822  0.98299186  0.65245072  1
  O  O46  1  0.72612178  0.48299186  0.65245072  1
  O  O47  1  0.22612178  0.01700814  0.34754928  1
  O  O48  1  0.88087725  0.75294562  0.66683336  1
  O  O49  1  0.38087725  0.74705438  0.33316664  1
  O  O50  1  0.11912275  0.24705438  0.33316664  1
  O  O51  1  0.61912275  0.25294562  0.66683336  1
  O  O52  1  0.62859509  0.56979364  0.38461899  1
  O  O53  1  0.12859509  0.93020636  0.61538101  1
  O  O54  1  0.37140491  0.43020636  0.61538101  1
  O  O55  1  0.87140491  0.06979364  0.38461899  1
  O  O56  1  0.75594296  0.80273894  0.42433929  1
  O  O57  1  0.25594296  0.69726106  0.57566071  1
  O  O58  1  0.24405704  0.19726106  0.57566071  1
  O  O59  1  0.74405704  0.30273894  0.42433929  1
  O  O60  1  0.91254323  0.60247845  0.48940147  1
  O  O61  1  0.41254323  0.89752155  0.51059853  1
  O  O62  1  0.08745677  0.39752155  0.51059853  1
  O  O63  1  0.58745677  0.10247845  0.48940147  1
