# generated using pymatgen
data_As5Pb3S10
_symmetry_space_group_name_H-M   'P 1'
_cell_length_a   7.70532017
_cell_length_b   9.09606039
_cell_length_c   27.16584904
_cell_angle_alpha   87.50101121
_cell_angle_beta   90.00000000
_cell_angle_gamma   90.00000000
_symmetry_Int_Tables_number   1
_chemical_formula_structural   As5Pb3S10
_chemical_formula_sum   'As20 Pb12 S40'
_cell_volume   1902.19087031
_cell_formula_units_Z   4
loop_
 _symmetry_equiv_pos_site_id
 _symmetry_equiv_pos_as_xyz
  1  'x, y, z'
loop_
 _atom_site_type_symbol
 _atom_site_label
 _atom_site_symmetry_multiplicity
 _atom_site_fract_x
 _atom_site_fract_y
 _atom_site_fract_z
 _atom_site_occupancy
  As  As0  1  0.84925678  0.26472625  0.59221946  1
  As  As1  1  0.99967289  0.00659785  0.32072521  1
  As  As2  1  0.30910164  0.50008675  0.81182317  1
  As  As3  1  0.78677945  0.08211825  0.18318503  1
  As  As4  1  0.65737847  0.94703445  0.90575328  1
  As  As5  1  0.49449148  0.24154351  0.17727588  1
  As  As6  1  0.49967289  0.99340215  0.67927479  1
  As  As7  1  0.99449148  0.75845649  0.82272412  1
  As  As8  1  0.65703087  0.47586015  0.90505103  1
  As  As9  1  0.34925678  0.73527375  0.40778054  1
  As  As10  1  0.83793345  0.81505175  0.59805983  1
  As  As11  1  0.20086222  0.29719373  0.69042608  1
  As  As12  1  0.28677945  0.91788175  0.81681497  1
  As  As13  1  0.71767559  0.18274367  0.31764376  1
  As  As14  1  0.33793345  0.18494825  0.40194017  1
  As  As15  1  0.15737847  0.05296555  0.09424672  1
  As  As16  1  0.15703087  0.52413985  0.09494897  1
  As  As17  1  0.70086222  0.70280627  0.30957392  1
  As  As18  1  0.21767559  0.81725633  0.68235624  1
  As  As19  1  0.80910164  0.49991325  0.18817683  1
  Pb  Pb20  1  0.94843361  0.24732263  0.82664172  1
  Pb  Pb21  1  0.55784172  0.49469463  0.67059110  1
  Pb  Pb22  1  0.74699059  0.99531743  0.46267429  1
  Pb  Pb23  1  0.44843361  0.75267737  0.17335828  1
  Pb  Pb24  1  0.22036194  0.52582743  0.54003433  1
  Pb  Pb25  1  0.05784172  0.50530537  0.32940890  1
  Pb  Pb26  1  0.76229145  0.25662821  0.03778927  1
  Pb  Pb27  1  0.26910036  0.23355857  0.96239496  1
  Pb  Pb28  1  0.26229145  0.74337179  0.96221073  1
  Pb  Pb29  1  0.72036194  0.47417257  0.45996567  1
  Pb  Pb30  1  0.24699059  0.00468257  0.53732571  1
  Pb  Pb31  1  0.76910036  0.76644143  0.03760504  1
  S  S32  1  0.88210138  0.27528650  0.37843733  1
  S  S33  1  0.82759949  0.76441280  0.93756933  1
  S  S34  1  0.96587944  0.22370795  0.13255681  1
  S  S35  1  0.54167521  0.56457493  0.36143856  1
  S  S36  1  0.07847834  0.83998789  0.26151542  1
  S  S37  1  0.17838455  0.99493189  0.43517353  1
  S  S38  1  0.46580377  0.33528188  0.85520229  1
  S  S39  1  0.46587944  0.77629205  0.86744319  1
  S  S40  1  0.57847834  0.16001211  0.73848458  1
  S  S41  1  0.96580377  0.66471812  0.14479771  1
  S  S42  1  0.00631988  0.26176959  0.52135865  1
  S  S43  1  0.63186684  0.97514399  0.12392989  1
  S  S44  1  0.49332627  0.22976453  0.47292787  1
  S  S45  1  0.73417916  0.04012974  0.78711962  1
  S  S46  1  0.67838455  0.00506811  0.56482647  1
  S  S47  1  0.23417916  0.95987026  0.21288038  1
  S  S48  1  0.38001704  0.18586465  0.63443396  1
  S  S49  1  0.32107031  0.72586656  0.07487786  1
  S  S50  1  0.04167521  0.43542507  0.63856144  1
  S  S51  1  0.99834122  0.51496474  0.02401380  1
  S  S52  1  0.32759949  0.23558720  0.06243067  1
  S  S53  1  0.41124282  0.41243679  0.23504926  1
  S  S54  1  0.13186684  0.02485601  0.87607011  1
  S  S55  1  0.53647069  0.02999992  0.36301132  1
  S  S56  1  0.50278089  0.98550017  0.97699970  1
  S  S57  1  0.75096302  0.70556662  0.71763381  1
  S  S58  1  0.99332627  0.77023547  0.52707213  1
  S  S59  1  0.25096302  0.29443338  0.28236619  1
  S  S60  1  0.03647069  0.97000008  0.63698868  1
  S  S61  1  0.17042809  0.54546542  0.42991217  1
  S  S62  1  0.91124282  0.58756321  0.76495074  1
  S  S63  1  0.00278089  0.01449983  0.02300030  1
  S  S64  1  0.38210138  0.72471350  0.62156267  1
  S  S65  1  0.50631988  0.73823041  0.47864135  1
  S  S66  1  0.49834122  0.48503526  0.97598620  1
  S  S67  1  0.88001704  0.81413535  0.36556604  1
  S  S68  1  0.60787107  0.43326679  0.13023849  1
  S  S69  1  0.82107031  0.27413344  0.92512214  1
  S  S70  1  0.10787107  0.56673321  0.86976151  1
  S  S71  1  0.67042809  0.45453458  0.57008783  1
