# generated using pymatgen
data_Mg5In
_symmetry_space_group_name_H-M   'P 1'
_cell_length_a   3.21827683
_cell_length_b   8.49379897
_cell_length_c   5.17880976
_cell_angle_alpha   90.00000000
_cell_angle_beta   90.00000000
_cell_angle_gamma   79.07939253
_symmetry_Int_Tables_number   1
_chemical_formula_structural   Mg5In
_chemical_formula_sum   'Mg5 In1'
_cell_volume   139.00116927
_cell_formula_units_Z   1
loop_
 _symmetry_equiv_pos_site_id
 _symmetry_equiv_pos_as_xyz
  1  'x, y, z'
loop_
 _atom_site_type_symbol
 _atom_site_label
 _atom_site_symmetry_multiplicity
 _atom_site_fract_x
 _atom_site_fract_y
 _atom_site_fract_z
 _atom_site_occupancy
  Mg  Mg0  1  0.00060623  0.99878754  -0.00000000  1
  Mg  Mg1  1  0.33372901  0.33254198  -0.00000000  1
  Mg  Mg2  1  0.66540513  0.66918674  -0.00000000  1
  Mg  Mg3  1  0.44538649  0.10922703  0.50000000  1
  Mg  Mg4  1  0.11080646  0.77838508  0.50000000  1
  In  In5  1  0.77739568  0.44520664  0.50000000  1
