# generated using pymatgen
data_Mg5Ag
_symmetry_space_group_name_H-M   'P 1'
_cell_length_a   5.41339132
_cell_length_b   5.41339262
_cell_length_c   5.90238310
_cell_angle_alpha   117.29529479
_cell_angle_beta   62.70469452
_cell_angle_gamma   119.99998762
_symmetry_Int_Tables_number   1
_chemical_formula_structural   Mg5Ag
_chemical_formula_sum   'Mg5 Ag1'
_cell_volume   127.07074949
_cell_formula_units_Z   1
loop_
 _symmetry_equiv_pos_site_id
 _symmetry_equiv_pos_as_xyz
  1  'x, y, z'
loop_
 _atom_site_type_symbol
 _atom_site_label
 _atom_site_symmetry_multiplicity
 _atom_site_fract_x
 _atom_site_fract_y
 _atom_site_fract_z
 _atom_site_occupancy
  Mg  Mg0  1  0.99304070  0.00000000  0.00000000  1
  Mg  Mg1  1  0.67362630  0.34029230  1.00000000  1
  Mg  Mg2  1  0.33333400  0.65970770  0.00000000  1
  Mg  Mg3  1  0.16755386  0.16578114  0.49734241  1
  Mg  Mg4  1  0.49911414  0.83421986  0.50265759  1
  Ag  Ag5  1  0.83333400  0.50000100  0.50000000  1
