# generated using pymatgen
data_Na3Ag
_symmetry_space_group_name_H-M   'P 1'
_cell_length_a   6.86548063
_cell_length_b   6.86655761
_cell_length_c   5.46194124
_cell_angle_alpha   90.00000000
_cell_angle_beta   90.00000000
_cell_angle_gamma   119.94247194
_symmetry_Int_Tables_number   1
_chemical_formula_structural   Na3Ag
_chemical_formula_sum   'Na6 Ag2'
_cell_volume   223.12032507
_cell_formula_units_Z   2
loop_
 _symmetry_equiv_pos_site_id
 _symmetry_equiv_pos_as_xyz
  1  'x, y, z'
loop_
 _atom_site_type_symbol
 _atom_site_label
 _atom_site_symmetry_multiplicity
 _atom_site_fract_x
 _atom_site_fract_y
 _atom_site_fract_z
 _atom_site_occupancy
  Na  Na0  1  0.17415215  0.34842818  0.25000000  1
  Na  Na1  1  0.65157823  0.82581798  0.25000000  1
  Na  Na2  1  0.17418204  0.82582133  0.25000000  1
  Na  Na3  1  0.82584785  0.65156982  0.74999900  1
  Na  Na4  1  0.34842177  0.17418202  0.74999900  1
  Na  Na5  1  0.82581696  0.17417867  0.74999900  1
  Ag  Ag6  1  0.33322667  0.66667221  0.74999900  1
  Ag  Ag7  1  0.66677333  0.33332779  0.25000000  1
