# generated using pymatgen
data_MgIn2
_symmetry_space_group_name_H-M   'P 1'
_cell_length_a   3.32812919
_cell_length_b   3.32812634
_cell_length_c   16.00103435
_cell_angle_alpha   90.00000000
_cell_angle_beta   90.00000000
_cell_angle_gamma   120.00000567
_symmetry_Int_Tables_number   1
_chemical_formula_structural   MgIn2
_chemical_formula_sum   'Mg2 In4'
_cell_volume   153.48949078
_cell_formula_units_Z   2
loop_
 _symmetry_equiv_pos_site_id
 _symmetry_equiv_pos_as_xyz
  1  'x, y, z'
loop_
 _atom_site_type_symbol
 _atom_site_label
 _atom_site_symmetry_multiplicity
 _atom_site_fract_x
 _atom_site_fract_y
 _atom_site_fract_z
 _atom_site_occupancy
  Mg  Mg0  1  0.66666800  0.33333500  0.50636595  1
  Mg  Mg1  1  0.66666800  0.33333500  0.82696705  1
  In  In2  1  -0.00000000  -0.00000000  0.98567922  1
  In  In3  1  0.66666800  0.33333500  0.16666700  1
  In  In4  1  -0.00000000  -0.00000000  0.34765478  1
  In  In5  1  -0.00000000  -0.00000000  0.66666700  1
