# generated using pymatgen
data_InPb
_symmetry_space_group_name_H-M   'P 1'
_cell_length_a   3.43370843
_cell_length_b   3.43360965
_cell_length_c   5.95419566
_cell_angle_alpha   83.12702403
_cell_angle_beta   96.87302168
_cell_angle_gamma   120.16266604
_symmetry_Int_Tables_number   1
_chemical_formula_structural   InPb
_chemical_formula_sum   'In1 Pb1'
_cell_volume   60.11383375
_cell_formula_units_Z   1
loop_
 _symmetry_equiv_pos_site_id
 _symmetry_equiv_pos_as_xyz
  1  'x, y, z'
loop_
 _atom_site_type_symbol
 _atom_site_label
 _atom_site_symmetry_multiplicity
 _atom_site_fract_x
 _atom_site_fract_y
 _atom_site_fract_z
 _atom_site_occupancy
  In  In0  1  0.66798432  0.33202400  0.75158758  1
  Pb  Pb1  1  0.33201668  0.66797600  0.24841342  1
