# generated using pymatgen
data_Nd3Sm
_symmetry_space_group_name_H-M   'P 1'
_cell_length_a   7.35150435
_cell_length_b   7.35150387
_cell_length_c   6.05246952
_cell_angle_alpha   90.00000000
_cell_angle_beta   90.00000000
_cell_angle_gamma   119.99999678
_symmetry_Int_Tables_number   1
_chemical_formula_structural   Nd3Sm
_chemical_formula_sum   'Nd6 Sm2'
_cell_volume   283.27983793
_cell_formula_units_Z   2
loop_
 _symmetry_equiv_pos_site_id
 _symmetry_equiv_pos_as_xyz
  1  'x, y, z'
loop_
 _atom_site_type_symbol
 _atom_site_label
 _atom_site_symmetry_multiplicity
 _atom_site_fract_x
 _atom_site_fract_y
 _atom_site_fract_z
 _atom_site_occupancy
  Nd  Nd0  1  0.16678120  0.33356140  0.24999900  1
  Nd  Nd1  1  0.66643860  0.83321880  0.24999900  1
  Nd  Nd2  1  0.16678120  0.83321880  0.24999900  1
  Nd  Nd3  1  0.83321980  0.66643860  0.74999900  1
  Nd  Nd4  1  0.33356140  0.16678020  0.74999900  1
  Nd  Nd5  1  0.83321880  0.16678020  0.74999900  1
  Sm  Sm6  1  0.33333400  0.66666800  0.74999900  1
  Sm  Sm7  1  0.66666800  0.33333200  0.24999900  1
