# generated using pymatgen
data_PC2S2N3
_symmetry_space_group_name_H-M   'P 1'
_cell_length_a   8.14895676
_cell_length_b   8.21492152
_cell_length_c   10.05533496
_cell_angle_alpha   99.50779987
_cell_angle_beta   103.97658423
_cell_angle_gamma   95.26953103
_symmetry_Int_Tables_number   1
_chemical_formula_structural   PC2S2N3
_chemical_formula_sum   'P4 C8 S8 N12'
_cell_volume   638.10100331
_cell_formula_units_Z   4
loop_
 _symmetry_equiv_pos_site_id
 _symmetry_equiv_pos_as_xyz
  1  'x, y, z'
loop_
 _atom_site_type_symbol
 _atom_site_label
 _atom_site_symmetry_multiplicity
 _atom_site_fract_x
 _atom_site_fract_y
 _atom_site_fract_z
 _atom_site_occupancy
  P  P0  1  0.06218579  0.26100545  0.42827804  1
  P  P1  1  0.06495215  0.46377521  0.70254495  1
  P  P2  1  0.93504785  0.53622479  0.29745505  1
  P  P3  1  0.93781421  0.73899455  0.57172196  1
  C  C4  1  0.79663969  0.01783573  0.27529214  1
  C  C5  1  0.20336031  0.98216427  0.72470786  1
  C  C6  1  0.57837653  0.43825528  0.19157008  1
  C  C7  1  0.06193113  0.71726661  0.12842265  1
  C  C8  1  0.40196390  0.22268900  0.47181986  1
  C  C9  1  0.93806887  0.28273339  0.87157735  1
  C  C10  1  0.42162347  0.56174472  0.80842992  1
  C  C11  1  0.59803610  0.77731100  0.52818014  1
  S  S12  1  0.85140415  0.14402140  0.93068790  1
  S  S13  1  0.14859585  0.85597860  0.06931210  1
  S  S14  1  0.39919947  0.75041586  0.47660805  1
  S  S15  1  0.60080053  0.24958414  0.52339195  1
  S  S16  1  0.37233576  0.07917290  0.82762232  1
  S  S17  1  0.37929362  0.40257002  0.14731698  1
  S  S18  1  0.62766424  0.92082710  0.17237768  1
  S  S19  1  0.62070638  0.59742998  0.85268302  1
  N  N20  1  0.73240761  0.46073127  0.22459660  1
  N  N21  1  0.04080511  0.38894135  0.32668869  1
  N  N22  1  0.95517847  0.69205374  0.41764043  1
  N  N23  1  0.24787028  0.19271157  0.42854890  1
  N  N24  1  0.99074255  0.60342463  0.16592490  1
  N  N25  1  0.04482153  0.30794626  0.58235957  1
  N  N26  1  0.93003098  0.08559447  0.35625370  1
  N  N27  1  0.06996902  0.91440553  0.64374630  1
  N  N28  1  0.75212972  0.80728843  0.57145110  1
  N  N29  1  0.95919489  0.61105865  0.67331131  1
  N  N30  1  0.26759239  0.53926873  0.77540340  1
  N  N31  1  0.00925745  0.39657537  0.83407510  1
