# generated using pymatgen
data_Nd3Dy
_symmetry_space_group_name_H-M   'P 1'
_cell_length_a   7.33071863
_cell_length_b   7.33071873
_cell_length_c   5.98583147
_cell_angle_alpha   90.00000000
_cell_angle_beta   90.00000000
_cell_angle_gamma   120.00000478
_symmetry_Int_Tables_number   1
_chemical_formula_structural   Nd3Dy
_chemical_formula_sum   'Nd6 Dy2'
_cell_volume   278.57888978
_cell_formula_units_Z   2
loop_
 _symmetry_equiv_pos_site_id
 _symmetry_equiv_pos_as_xyz
  1  'x, y, z'
loop_
 _atom_site_type_symbol
 _atom_site_label
 _atom_site_symmetry_multiplicity
 _atom_site_fract_x
 _atom_site_fract_y
 _atom_site_fract_z
 _atom_site_occupancy
  Nd  Nd0  1  0.16735982  0.33472065  0.25000000  1
  Nd  Nd1  1  0.66528035  0.83264118  0.25000000  1
  Nd  Nd2  1  0.16736082  0.83264118  0.25000000  1
  Nd  Nd3  1  0.83263918  0.66527935  0.75000100  1
  Nd  Nd4  1  0.33471965  0.16735882  0.75000100  1
  Nd  Nd5  1  0.83263918  0.16735882  0.75000100  1
  Dy  Dy6  1  0.33333400  0.66666800  0.75000100  1
  Dy  Dy7  1  0.66666500  0.33333200  0.25000000  1
