# generated using pymatgen
data_Zr5In3Cu
_symmetry_space_group_name_H-M   'P 1'
_cell_length_a   5.97542199
_cell_length_b   8.84976689
_cell_length_c   8.83926140
_cell_angle_alpha   120.03932765
_cell_angle_beta   90.00000000
_cell_angle_gamma   90.00000000
_symmetry_Int_Tables_number   1
_chemical_formula_structural   Zr5In3Cu
_chemical_formula_sum   'Zr10 In6 Cu2'
_cell_volume   404.64555844
_cell_formula_units_Z   2
loop_
 _symmetry_equiv_pos_site_id
 _symmetry_equiv_pos_as_xyz
  1  'x, y, z'
loop_
 _atom_site_type_symbol
 _atom_site_label
 _atom_site_symmetry_multiplicity
 _atom_site_fract_x
 _atom_site_fract_y
 _atom_site_fract_z
 _atom_site_occupancy
  Zr  Zr0  1  0.75052399  0.26985500  1.00000000  1
  Zr  Zr1  1  0.75039817  0.72997327  0.73013720  1
  Zr  Zr2  1  0.75039817  0.99983607  0.26986280  1
  Zr  Zr3  1  0.25052399  0.73014500  0.00000000  1
  Zr  Zr4  1  0.25039817  0.27002673  0.26986280  1
  Zr  Zr5  1  0.25039817  0.00016393  0.73013720  1
  Zr  Zr6  1  0.49961745  0.33373703  0.66675181  1
  Zr  Zr7  1  0.49961745  0.66698522  0.33324819  1
  Zr  Zr8  1  0.99961745  0.66626297  0.33324819  1
  Zr  Zr9  1  0.99961745  0.33301478  0.66675181  1
  In  In10  1  0.75009567  0.62187175  0.00000000  1
  In  In11  1  0.74954588  0.37827446  0.37824712  1
  In  In12  1  0.74954588  0.00002734  0.62175288  1
  In  In13  1  0.25009567  0.37812825  1.00000000  1
  In  In14  1  0.24954588  0.62172554  0.62175288  1
  In  In15  1  0.24954588  -0.00002734  0.37824712  1
  Cu  Cu16  1  0.50025735  0.99991569  1.00000000  1
  Cu  Cu17  1  0.00025735  0.00008431  0.00000000  1
