# generated using pymatgen
data_RbP2(HO2)3
_symmetry_space_group_name_H-M   'P 1'
_cell_length_a   7.32486908
_cell_length_b   7.53861626
_cell_length_c   7.85475766
_cell_angle_alpha   88.13119324
_cell_angle_beta   63.65753065
_cell_angle_gamma   62.79877718
_symmetry_Int_Tables_number   1
_chemical_formula_structural   RbP2(HO2)3
_chemical_formula_sum   'Rb2 P4 H6 O12'
_cell_volume   337.73128660
_cell_formula_units_Z   2
loop_
 _symmetry_equiv_pos_site_id
 _symmetry_equiv_pos_as_xyz
  1  'x, y, z'
loop_
 _atom_site_type_symbol
 _atom_site_label
 _atom_site_symmetry_multiplicity
 _atom_site_fract_x
 _atom_site_fract_y
 _atom_site_fract_z
 _atom_site_occupancy
  Rb  Rb0  1  0.46891462  0.19321652  0.22725314  1
  Rb  Rb1  1  0.53108538  0.80678348  0.77274686  1
  P  P2  1  0.03490624  0.92726691  0.36148831  1
  P  P3  1  0.96509376  0.07273309  0.63851169  1
  P  P4  1  0.16122028  0.47813600  0.87210640  1
  P  P5  1  0.83877972  0.52186400  0.12789360  1
  H  H6  1  0.98640605  0.17528725  0.17840018  1
  H  H7  1  0.01359395  0.82471275  0.82159982  1
  H  H8  1  0.41366757  0.70212445  0.22638845  1
  H  H9  1  0.58633243  0.29787555  0.77361155  1
  H  H10  1  0.15021176  0.28448697  0.67306881  1
  H  H11  1  0.84978824  0.71551303  0.32693119  1
  O  O12  1  0.81756908  0.92367755  0.39021227  1
  O  O13  1  0.18243092  0.07632245  0.60978773  1
  O  O14  1  0.12024393  0.04683029  0.20765787  1
  O  O15  1  0.87975607  0.95316971  0.79234213  1
  O  O16  1  0.24897908  0.70660096  0.30377114  1
  O  O17  1  0.75102092  0.29339904  0.69622886  1
  O  O18  1  0.36801192  0.30399611  0.88496920  1
  O  O19  1  0.63198808  0.69600389  0.11503080  1
  O  O20  1  0.16178394  0.68098015  0.86538213  1
  O  O21  1  0.83821606  0.31901985  0.13461787  1
  O  O22  1  0.14119570  0.42368436  0.68974074  1
  O  O23  1  0.85880430  0.57631564  0.31025926  1
