# generated using pymatgen
data_Nd4FeS6O
_symmetry_space_group_name_H-M   'P 1'
_cell_length_a   6.74455015
_cell_length_b   9.37577713
_cell_length_c   9.37577713
_cell_angle_alpha   119.36359213
_cell_angle_beta   90.00000000
_cell_angle_gamma   90.00000000
_symmetry_Int_Tables_number   1
_chemical_formula_structural   Nd4FeS6O
_chemical_formula_sum   'Nd8 Fe2 S12 O2'
_cell_volume   516.71096051
_cell_formula_units_Z   2
loop_
 _symmetry_equiv_pos_site_id
 _symmetry_equiv_pos_as_xyz
  1  'x, y, z'
loop_
 _atom_site_type_symbol
 _atom_site_label
 _atom_site_symmetry_multiplicity
 _atom_site_fract_x
 _atom_site_fract_y
 _atom_site_fract_z
 _atom_site_occupancy
  Nd  Nd0  1  0.32812909  0.80283106  0.19716894  1
  Nd  Nd1  1  0.33019434  0.39770367  0.19976157  1
  Nd  Nd2  1  0.33019434  0.80023843  0.60229633  1
  Nd  Nd3  1  0.82812909  0.19716894  0.80283106  1
  Nd  Nd4  1  0.83019434  0.60229633  0.80023843  1
  Nd  Nd5  1  0.83019434  0.19976157  0.39770367  1
  Nd  Nd6  1  0.30374296  0.33363172  0.66636828  1
  Nd  Nd7  1  0.80374296  0.66636828  0.33363172  1
  Fe  Fe8  1  0.49777638  0.99863431  0.00136569  1
  Fe  Fe9  1  0.99777638  0.00136569  0.99863431  1
  S  S10  1  0.23094414  0.12289649  0.87710351  1
  S  S11  1  0.22945620  0.75104114  0.87529000  1
  S  S12  1  0.22945620  0.12471000  0.24895886  1
  S  S13  1  0.73094414  0.87710351  0.12289649  1
  S  S14  1  0.72945620  0.24895886  0.12471000  1
  S  S15  1  0.72945620  0.87529000  0.75104114  1
  S  S16  1  0.05290079  0.53135781  0.46864219  1
  S  S17  1  0.05280643  0.93665872  0.46815517  1
  S  S18  1  0.05280643  0.53184483  0.06334128  1
  S  S19  1  0.55290079  0.46864219  0.53135781  1
  S  S20  1  0.55280643  0.06334128  0.53184483  1
  S  S21  1  0.55280643  0.46815517  0.93665872  1
  O  O22  1  0.95483269  0.33317402  0.66682598  1
  O  O23  1  0.45483269  0.66682598  0.33317402  1
