# generated using pymatgen
data_Tl2Hg3Te4
_symmetry_space_group_name_H-M   'P 1'
_cell_length_a   7.60165418
_cell_length_b   7.60165418
_cell_length_c   13.35042755
_cell_angle_alpha   97.06729232
_cell_angle_beta   98.84898623
_cell_angle_gamma   120.91419768
_symmetry_Int_Tables_number   1
_chemical_formula_structural   Tl2Hg3Te4
_chemical_formula_sum   'Tl4 Hg6 Te8'
_cell_volume   635.13322648
_cell_formula_units_Z   2
loop_
 _symmetry_equiv_pos_site_id
 _symmetry_equiv_pos_as_xyz
  1  'x, y, z'
loop_
 _atom_site_type_symbol
 _atom_site_label
 _atom_site_symmetry_multiplicity
 _atom_site_fract_x
 _atom_site_fract_y
 _atom_site_fract_z
 _atom_site_occupancy
  Tl  Tl0  1  0.92692245  0.70012935  0.45346652  1
  Tl  Tl1  1  0.24666282  0.97345593  0.04653348  1
  Tl  Tl2  1  0.07307755  0.29987065  0.54653348  1
  Tl  Tl3  1  0.75333718  0.02654407  0.95346652  1
  Hg  Hg4  1  0.86184670  0.61184670  0.75000000  1
  Hg  Hg5  1  0.13815330  0.38815330  0.25000000  1
  Hg  Hg6  1  0.45118979  0.97065122  0.65160518  1
  Hg  Hg7  1  0.31904604  0.29958461  0.84839482  1
  Hg  Hg8  1  0.54881021  0.02934878  0.34839482  1
  Hg  Hg9  1  0.68095396  0.70041539  0.15160518  1
  Te  Te10  1  0.27963477  0.67755864  0.76641637  1
  Te  Te11  1  0.91114227  0.01321840  0.73358363  1
  Te  Te12  1  0.72036523  0.32244136  0.23358363  1
  Te  Te13  1  0.08885773  0.98678160  0.26641637  1
  Te  Te14  1  0.73906095  0.46609574  0.93452807  1
  Te  Te15  1  0.53156767  0.30453288  0.56547193  1
  Te  Te16  1  0.26093905  0.53390426  0.06547193  1
  Te  Te17  1  0.46843233  0.69546712  0.43452807  1
