# generated using pymatgen
data_UNiSe3
_symmetry_space_group_name_H-M   'P 1'
_cell_length_a   6.25507408
_cell_length_b   7.38731042
_cell_length_c   8.84020042
_cell_angle_alpha   90.00000000
_cell_angle_beta   90.00000000
_cell_angle_gamma   90.00000000
_symmetry_Int_Tables_number   1
_chemical_formula_structural   UNiSe3
_chemical_formula_sum   'U4 Ni4 Se12'
_cell_volume   408.48951858
_cell_formula_units_Z   4
loop_
 _symmetry_equiv_pos_site_id
 _symmetry_equiv_pos_as_xyz
  1  'x, y, z'
loop_
 _atom_site_type_symbol
 _atom_site_label
 _atom_site_symmetry_multiplicity
 _atom_site_fract_x
 _atom_site_fract_y
 _atom_site_fract_z
 _atom_site_occupancy
  U  U0  1  0.43350585  0.86911872  0.25000000  1
  U  U1  1  0.06649415  0.36911872  0.25000000  1
  U  U2  1  0.56649415  0.13088128  0.75000000  1
  U  U3  1  0.93350585  0.63088128  0.75000000  1
  Ni  Ni4  1  0.50000000  0.50000000  0.00000000  1
  Ni  Ni5  1  -0.00000000  -0.00000000  0.50000000  1
  Ni  Ni6  1  0.50000000  0.50000000  0.50000000  1
  Ni  Ni7  1  -0.00000000  0.00000000  0.00000000  1
  Se  Se8  1  0.64930127  0.53845157  0.25000000  1
  Se  Se9  1  0.85069873  0.03845157  0.25000000  1
  Se  Se10  1  0.35069873  0.46154843  0.75000000  1
  Se  Se11  1  0.14930127  0.96154843  0.75000000  1
  Se  Se12  1  0.66592566  0.82793656  0.55127168  1
  Se  Se13  1  0.83407434  0.32793656  0.94872832  1
  Se  Se14  1  0.33407434  0.17206344  0.05127168  1
  Se  Se15  1  0.16592566  0.67206344  0.44872832  1
  Se  Se16  1  0.33407434  0.17206344  0.44872832  1
  Se  Se17  1  0.16592566  0.67206344  0.05127168  1
  Se  Se18  1  0.66592566  0.82793656  0.94872832  1
  Se  Se19  1  0.83407434  0.32793656  0.55127168  1
