# generated using pymatgen
data_YbAg3
_symmetry_space_group_name_H-M   'P 1'
_cell_length_a   6.24129664
_cell_length_b   6.24129646
_cell_length_c   4.93193303
_cell_angle_alpha   90.00000000
_cell_angle_beta   90.00000000
_cell_angle_gamma   120.00000093
_symmetry_Int_Tables_number   1
_chemical_formula_structural   YbAg3
_chemical_formula_sum   'Yb2 Ag6'
_cell_volume   166.37858832
_cell_formula_units_Z   2
loop_
 _symmetry_equiv_pos_site_id
 _symmetry_equiv_pos_as_xyz
  1  'x, y, z'
loop_
 _atom_site_type_symbol
 _atom_site_label
 _atom_site_symmetry_multiplicity
 _atom_site_fract_x
 _atom_site_fract_y
 _atom_site_fract_z
 _atom_site_occupancy
  Yb  Yb0  1  0.33333400  0.66666800  0.75000100  1
  Yb  Yb1  1  0.66666600  0.33333200  0.24999900  1
  Ag  Ag2  1  0.15873077  0.31746255  0.24999900  1
  Ag  Ag3  1  0.68253745  0.84126823  0.24999900  1
  Ag  Ag4  1  0.15873077  0.84126823  0.24999900  1
  Ag  Ag5  1  0.84126923  0.68253945  0.75000100  1
  Ag  Ag6  1  0.31746155  0.15872877  0.75000100  1
  Ag  Ag7  1  0.84126823  0.15872877  0.75000100  1
