# generated using pymatgen
data_As5Pb3S10
_symmetry_space_group_name_H-M   'P 1'
_cell_length_a   8.38991764
_cell_length_b   8.36779443
_cell_length_c   27.36446470
_cell_angle_alpha   84.22782610
_cell_angle_beta   90.00000000
_cell_angle_gamma   90.00000000
_symmetry_Int_Tables_number   1
_chemical_formula_structural   As5Pb3S10
_chemical_formula_sum   'As20 Pb12 S40'
_cell_volume   1911.38440967
_cell_formula_units_Z   4
loop_
 _symmetry_equiv_pos_site_id
 _symmetry_equiv_pos_as_xyz
  1  'x, y, z'
loop_
 _atom_site_type_symbol
 _atom_site_label
 _atom_site_symmetry_multiplicity
 _atom_site_fract_x
 _atom_site_fract_y
 _atom_site_fract_z
 _atom_site_occupancy
  As  As0  1  0.84872654  0.17835129  0.59379450  1
  As  As1  1  0.02822560  0.01900959  0.31945653  1
  As  As2  1  0.34449207  0.56244604  0.81945848  1
  As  As3  1  0.81185415  0.86997166  0.17955224  1
  As  As4  1  0.65443779  0.03073850  0.91016167  1
  As  As5  1  0.46997097  0.23947812  0.18928496  1
  As  As6  1  0.52822560  0.98099041  0.68054347  1
  As  As7  1  0.96997097  0.76052188  0.81071504  1
  As  As8  1  0.65058662  0.57599932  0.91104738  1
  As  As9  1  0.34872654  0.82164871  0.40620550  1
  As  As10  1  0.84101560  0.72753200  0.58438168  1
  As  As11  1  0.13787765  0.18478146  0.67980742  1
  As  As12  1  0.31185415  0.13002834  0.82044776  1
  As  As13  1  0.78078347  0.18434502  0.29886818  1
  As  As14  1  0.34101560  0.27246800  0.41561832  1
  As  As15  1  0.15443779  0.96926150  0.08983833  1
  As  As16  1  0.15058662  0.42400068  0.08895262  1
  As  As17  1  0.63787765  0.81521854  0.32019258  1
  As  As18  1  0.28078347  0.81565498  0.70113182  1
  As  As19  1  0.84449207  0.43755396  0.18054152  1
  Pb  Pb20  1  0.96708356  0.24954648  0.82762598  1
  Pb  Pb21  1  0.59642259  0.46902583  0.66434988  1
  Pb  Pb22  1  0.73693069  0.01789301  0.45546461  1
  Pb  Pb23  1  0.46708356  0.75045352  0.17237402  1
  Pb  Pb24  1  0.20364658  0.47274543  0.55035967  1
  Pb  Pb25  1  0.09642259  0.53097417  0.33565012  1
  Pb  Pb26  1  0.76136226  0.23938897  0.03872039  1
  Pb  Pb27  1  0.27409528  0.25627228  0.95673753  1
  Pb  Pb28  1  0.26136226  0.76061103  0.96127961  1
  Pb  Pb29  1  0.70364658  0.52725457  0.44964033  1
  Pb  Pb30  1  0.23693069  0.98210699  0.54453539  1
  Pb  Pb31  1  0.77409528  0.74372772  0.04326247  1
  S  S32  1  0.85730129  0.30456757  0.36405011  1
  S  S33  1  0.80536633  0.79008362  0.93372815  1
  S  S34  1  0.97578747  0.25592963  0.13610942  1
  S  S35  1  0.51556133  0.59981526  0.35836011  1
  S  S36  1  0.10737554  0.85585536  0.25943519  1
  S  S37  1  0.19784082  0.04080747  0.43889456  1
  S  S38  1  0.45565196  0.32588210  0.85608860  1
  S  S39  1  0.47578747  0.74407037  0.86389058  1
  S  S40  1  0.60737554  0.14414464  0.74056481  1
  S  S41  1  0.95565196  0.67411790  0.14391140  1
  S  S42  1  0.99427260  0.23017905  0.52398335  1
  S  S43  1  0.65200592  0.96701666  0.11592223  1
  S  S44  1  0.51684157  0.25708279  0.48032363  1
  S  S45  1  0.83469102  0.05970995  0.75489773  1
  S  S46  1  0.69784082  0.95919253  0.56110544  1
  S  S47  1  0.33469102  0.94029005  0.24510227  1
  S  S48  1  0.38318162  0.19765333  0.63590341  1
  S  S49  1  0.31016961  0.77695277  0.06653667  1
  S  S50  1  0.01556133  0.40018474  0.64163989  1
  S  S51  1  0.00589438  0.48634430  0.01887103  1
  S  S52  1  0.30536633  0.20991638  0.06627185  1
  S  S53  1  0.35344614  0.41080156  0.23718909  1
  S  S54  1  0.15200592  0.03298334  0.88407777  1
  S  S55  1  0.51891924  0.00817474  0.36282383  1
  S  S56  1  0.49393902  0.00221994  0.97805343  1
  S  S57  1  0.62768801  0.67291543  0.74351299  1
  S  S58  1  0.01684157  0.74291721  0.51967637  1
  S  S59  1  0.12768801  0.32708457  0.25648701  1
  S  S60  1  0.01891924  0.99182526  0.63717617  1
  S  S61  1  0.18331956  0.46624509  0.43949934  1
  S  S62  1  0.85344614  0.58919844  0.76281091  1
  S  S63  1  0.99393902  0.99778006  0.02194657  1
  S  S64  1  0.35730129  0.69543243  0.63594989  1
  S  S65  1  0.49427260  0.76982095  0.47601665  1
  S  S66  1  0.50589438  0.51365570  0.98112897  1
  S  S67  1  0.88318162  0.80234667  0.36409659  1
  S  S68  1  0.60323214  0.43631790  0.13771064  1
  S  S69  1  0.81016961  0.22304723  0.93346333  1
  S  S70  1  0.10323214  0.56368210  0.86228936  1
  S  S71  1  0.68331956  0.53375491  0.56050066  1
