# generated using pymatgen
data_Li2HN
_symmetry_space_group_name_H-M   'P 1'
_cell_length_a   4.90985645
_cell_length_b   4.90985645
_cell_length_c   5.35010482
_cell_angle_alpha   90.00000000
_cell_angle_beta   90.00000000
_cell_angle_gamma   90.00000000
_symmetry_Int_Tables_number   1
_chemical_formula_structural   Li2HN
_chemical_formula_sum   'Li8 H4 N4'
_cell_volume   128.97332029
_cell_formula_units_Z   4
loop_
 _symmetry_equiv_pos_site_id
 _symmetry_equiv_pos_as_xyz
  1  'x, y, z'
loop_
 _atom_site_type_symbol
 _atom_site_label
 _atom_site_symmetry_multiplicity
 _atom_site_fract_x
 _atom_site_fract_y
 _atom_site_fract_z
 _atom_site_occupancy
  Li  Li0  1  0.00000000  0.00000000  0.50192469  1
  Li  Li1  1  0.00000000  -0.00000000  0.00192469  1
  Li  Li2  1  0.50000000  0.50000000  0.50870055  1
  Li  Li3  1  0.50000000  0.50000000  0.00870055  1
  Li  Li4  1  0.50000000  0.00000000  0.47118135  1
  Li  Li5  1  -0.00000000  0.50000000  0.97118135  1
  Li  Li6  1  0.50000000  -0.00000000  0.04580327  1
  Li  Li7  1  -0.00000000  0.50000000  0.54580327  1
  H  H8  1  0.22800003  0.46064485  0.25666056  1
  H  H9  1  0.77199997  0.53935515  0.25666056  1
  H  H10  1  0.46064485  0.77199997  0.75666056  1
  H  H11  1  0.53935515  0.22800003  0.75666056  1
  N  N12  1  0.25018766  0.74457903  0.75763451  1
  N  N13  1  0.74981234  0.25542097  0.75763451  1
  N  N14  1  0.74457903  0.74981234  0.25763451  1
  N  N15  1  0.25542097  0.25018766  0.25763451  1
