# generated using pymatgen
data_Nd2Ir7
_symmetry_space_group_name_H-M   'P 1'
_cell_length_a   5.37619824
_cell_length_b   5.37619824
_cell_length_c   13.54660802
_cell_angle_alpha   78.55463658
_cell_angle_beta   78.55463658
_cell_angle_gamma   59.99999724
_symmetry_Int_Tables_number   1
_chemical_formula_structural   Nd2Ir7
_chemical_formula_sum   'Nd4 Ir14'
_cell_volume   330.06623125
_cell_formula_units_Z   2
loop_
 _symmetry_equiv_pos_site_id
 _symmetry_equiv_pos_as_xyz
  1  'x, y, z'
loop_
 _atom_site_type_symbol
 _atom_site_label
 _atom_site_symmetry_multiplicity
 _atom_site_fract_x
 _atom_site_fract_y
 _atom_site_fract_z
 _atom_site_occupancy
  Nd  Nd0  1  0.05056654  0.05056654  0.84830037  1
  Nd  Nd1  1  0.94943346  0.94943346  0.15169963  1
  Nd  Nd2  1  0.14799549  0.14799549  0.55601353  1
  Nd  Nd3  1  0.85200451  0.85200451  0.44398647  1
  Ir  Ir4  1  0.50000000  0.50000000  0.50000000  1
  Ir  Ir5  1  0.27760991  0.27760991  0.16717028  1
  Ir  Ir6  1  0.72239009  0.72239009  0.83282972  1
  Ir  Ir7  1  0.38850579  0.38850579  0.83448264  1
  Ir  Ir8  1  0.61149421  0.61149421  0.16551736  1
  Ir  Ir9  1  0.50000000  0.50000000  0.00000000  1
  Ir  Ir10  1  0.50000000  -0.00000000  0.00000000  1
  Ir  Ir11  1  -0.00000000  0.50000000  0.00000000  1
  Ir  Ir12  1  0.11100695  0.60867770  0.67163765  1
  Ir  Ir13  1  0.60867770  0.60867770  0.67163765  1
  Ir  Ir14  1  0.60867770  0.11100695  0.67163765  1
  Ir  Ir15  1  0.88899305  0.39132230  0.32836235  1
  Ir  Ir16  1  0.39132230  0.39132230  0.32836235  1
  Ir  Ir17  1  0.39132230  0.88899305  0.32836235  1
