# generated using pymatgen
data_Tm3AlNi8
_symmetry_space_group_name_H-M   'P 1'
_cell_length_a   5.02401993
_cell_length_b   5.02401993
_cell_length_c   15.91786080
_cell_angle_alpha   90.00000000
_cell_angle_beta   90.00000000
_cell_angle_gamma   119.98935196
_symmetry_Int_Tables_number   1
_chemical_formula_structural   Tm3AlNi8
_chemical_formula_sum   'Tm6 Al2 Ni16'
_cell_volume   347.98828987
_cell_formula_units_Z   2
loop_
 _symmetry_equiv_pos_site_id
 _symmetry_equiv_pos_as_xyz
  1  'x, y, z'
loop_
 _atom_site_type_symbol
 _atom_site_label
 _atom_site_symmetry_multiplicity
 _atom_site_fract_x
 _atom_site_fract_y
 _atom_site_fract_z
 _atom_site_occupancy
  Tm  Tm0  1  0.66666150  0.33333850  0.04443570  1
  Tm  Tm1  1  0.33333850  0.66666150  0.95556430  1
  Tm  Tm2  1  0.33333850  0.66666150  0.54443570  1
  Tm  Tm3  1  0.66666150  0.33333850  0.45556430  1
  Tm  Tm4  1  0.66663550  0.33336450  0.25000000  1
  Tm  Tm5  1  0.33336450  0.66663550  0.75000000  1
  Al  Al6  1  -0.00000000  -0.00000000  0.50000000  1
  Al  Al7  1  -0.00000000  -0.00000000  0.00000000  1
  Ni  Ni8  1  0.83081613  0.66162588  0.62490172  1
  Ni  Ni9  1  0.83082835  0.16917165  0.62490258  1
  Ni  Ni10  1  0.33837412  0.16918387  0.62490172  1
  Ni  Ni11  1  0.16918387  0.33837412  0.37509828  1
  Ni  Ni12  1  0.16917165  0.83082835  0.37509742  1
  Ni  Ni13  1  0.66162588  0.83081613  0.37509828  1
  Ni  Ni14  1  0.16918387  0.33837412  0.12490172  1
  Ni  Ni15  1  0.16917165  0.83082835  0.12490258  1
  Ni  Ni16  1  0.66162588  0.83081613  0.12490172  1
  Ni  Ni17  1  0.83081613  0.66162588  0.87509828  1
  Ni  Ni18  1  0.83082835  0.16917165  0.87509742  1
  Ni  Ni19  1  0.33837412  0.16918387  0.87509828  1
  Ni  Ni20  1  0.66665487  0.33334513  0.75000000  1
  Ni  Ni21  1  0.33334513  0.66665487  0.25000000  1
  Ni  Ni22  1  0.00003221  0.99996779  0.75000000  1
  Ni  Ni23  1  0.99996779  0.00003221  0.25000000  1
