# generated using pymatgen
data_Ag5TePO4
_symmetry_space_group_name_H-M   'P 1'
_cell_length_a   7.14488480
_cell_length_b   7.14488480
_cell_length_c   7.39966468
_cell_angle_alpha   90.00000000
_cell_angle_beta   90.00000000
_cell_angle_gamma   90.00000000
_symmetry_Int_Tables_number   1
_chemical_formula_structural   Ag5TePO4
_chemical_formula_sum   'Ag10 Te2 P2 O8'
_cell_volume   377.74828528
_cell_formula_units_Z   2
loop_
 _symmetry_equiv_pos_site_id
 _symmetry_equiv_pos_as_xyz
  1  'x, y, z'
loop_
 _atom_site_type_symbol
 _atom_site_label
 _atom_site_symmetry_multiplicity
 _atom_site_fract_x
 _atom_site_fract_y
 _atom_site_fract_z
 _atom_site_occupancy
  Ag  Ag0  1  0.52240904  0.97759096  0.20031977  1
  Ag  Ag1  1  0.97759096  0.97759096  0.20031977  1
  Ag  Ag2  1  0.52240904  0.52240904  0.20031977  1
  Ag  Ag3  1  0.97759096  0.52240904  0.20031977  1
  Ag  Ag4  1  0.47759096  0.02240904  0.79968023  1
  Ag  Ag5  1  0.02240904  0.02240904  0.79968023  1
  Ag  Ag6  1  0.47759096  0.47759096  0.79968023  1
  Ag  Ag7  1  0.02240904  0.47759096  0.79968023  1
  Ag  Ag8  1  0.75000000  0.75000000  0.46175999  1
  Ag  Ag9  1  0.25000000  0.25000000  0.53824001  1
  Te  Te10  1  0.75000000  0.75000000  0.00545080  1
  Te  Te11  1  0.25000000  0.25000000  0.99454920  1
  P  P12  1  0.25000000  0.75000000  0.50000000  1
  P  P13  1  0.75000000  0.25000000  0.50000000  1
  O  O14  1  0.25000000  0.56959275  0.38053531  1
  O  O15  1  0.25000000  0.93040725  0.38053531  1
  O  O16  1  0.56959275  0.25000000  0.38053531  1
  O  O17  1  0.93040725  0.25000000  0.38053531  1
  O  O18  1  0.75000000  0.43040725  0.61946469  1
  O  O19  1  0.75000000  0.06959275  0.61946469  1
  O  O20  1  0.43040725  0.75000000  0.61946469  1
  O  O21  1  0.06959275  0.75000000  0.61946469  1
