# generated using pymatgen
data_YCo9Si2
_symmetry_space_group_name_H-M   'P 1'
_cell_length_a   6.25536276
_cell_length_b   7.50606919
_cell_length_c   7.50606919
_cell_angle_alpha   80.00117115
_cell_angle_beta   65.37440070
_cell_angle_gamma   65.37440070
_symmetry_Int_Tables_number   1
_chemical_formula_structural   YCo9Si2
_chemical_formula_sum   'Y2 Co18 Si4'
_cell_volume   291.24145747
_cell_formula_units_Z   2
loop_
 _symmetry_equiv_pos_site_id
 _symmetry_equiv_pos_as_xyz
  1  'x, y, z'
loop_
 _atom_site_type_symbol
 _atom_site_label
 _atom_site_symmetry_multiplicity
 _atom_site_fract_x
 _atom_site_fract_y
 _atom_site_fract_z
 _atom_site_occupancy
  Y  Y0  1  0.37500000  0.25000000  0.75000000  1
  Y  Y1  1  0.62500000  0.75000000  0.25000000  1
  Co  Co2  1  0.12500000  0.75000000  0.25000000  1
  Co  Co3  1  0.87500000  0.25000000  0.75000000  1
  Co  Co4  1  0.55968939  0.57940326  0.66793992  1
  Co  Co5  1  0.55968939  0.16793992  0.07940326  1
  Co  Co6  1  0.13909265  0.42059674  0.16793992  1
  Co  Co7  1  0.13909265  0.66793992  0.92059674  1
  Co  Co8  1  0.80703256  0.33206008  0.42059674  1
  Co  Co9  1  0.80703256  0.92059674  0.83206008  1
  Co  Co10  1  0.72762930  0.83206008  0.57940326  1
  Co  Co11  1  0.72762930  0.07940326  0.33206008  1
  Co  Co12  1  0.44031061  0.42059674  0.33206008  1
  Co  Co13  1  0.44031061  0.83206008  0.92059674  1
  Co  Co14  1  0.86090735  0.57940326  0.83206008  1
  Co  Co15  1  0.86090735  0.33206008  0.07940326  1
  Co  Co16  1  0.19296744  0.66793992  0.57940326  1
  Co  Co17  1  0.19296744  0.07940326  0.16793992  1
  Co  Co18  1  0.27237070  0.16793992  0.42059674  1
  Co  Co19  1  0.27237070  0.92059674  0.66793992  1
  Si  Si20  1  0.50000000  0.50000000  0.00000000  1
  Si  Si21  1  0.00000000  0.50000000  0.50000000  1
  Si  Si22  1  -0.00000000  -0.00000000  0.00000000  1
  Si  Si23  1  0.00000000  -0.00000000  0.50000000  1
