# generated using pymatgen
data_Ti6H2O13
_symmetry_space_group_name_H-M   'P 1'
_cell_length_a   3.77037978
_cell_length_b   7.69184645
_cell_length_c   9.38482832
_cell_angle_alpha   97.38375751
_cell_angle_beta   90.00000000
_cell_angle_gamma   104.18711266
_symmetry_Int_Tables_number   1
_chemical_formula_structural   Ti6H2O13
_chemical_formula_sum   'Ti6 H2 O13'
_cell_volume   261.54146850
_cell_formula_units_Z   1
loop_
 _symmetry_equiv_pos_site_id
 _symmetry_equiv_pos_as_xyz
  1  'x, y, z'
loop_
 _atom_site_type_symbol
 _atom_site_label
 _atom_site_symmetry_multiplicity
 _atom_site_fract_x
 _atom_site_fract_y
 _atom_site_fract_z
 _atom_site_occupancy
  Ti  Ti0  1  0.11450674  0.22901348  0.09197963  1
  Ti  Ti1  1  0.88549326  0.77098652  0.90802037  1
  Ti  Ti2  1  0.16645348  0.33290696  0.44832170  1
  Ti  Ti3  1  0.83354652  0.66709304  0.55167830  1
  Ti  Ti4  1  0.22873506  0.45747013  0.77289160  1
  Ti  Ti5  1  0.77126494  0.54252987  0.22710840  1
  H  H6  1  -0.00017173  -0.00034347  0.31313698  1
  H  H7  1  0.00017173  0.00034347  0.68686302  1
  O  O8  1  -0.00000000  -0.00000000  0.00000000  1
  O  O9  1  0.23737488  0.47474976  0.24851091  1
  O  O10  1  0.76262512  0.52525024  0.75148909  1
  O  O11  1  0.06436888  0.12873776  0.30169344  1
  O  O12  1  0.93563112  0.87126224  0.69830656  1
  O  O13  1  0.29702645  0.59405290  0.56578823  1
  O  O14  1  0.70297355  0.40594710  0.43421177  1
  O  O15  1  0.12549601  0.25099202  0.61836010  1
  O  O16  1  0.87450399  0.74900798  0.38163990  1
  O  O17  1  0.35750100  0.71500199  0.87491603  1
  O  O18  1  0.64249900  0.28499801  0.12508397  1
  O  O19  1  0.16980639  0.33961278  0.92393449  1
  O  O20  1  0.83019361  0.66038722  0.07606551  1
