# generated using pymatgen
data_La3AlZnS7
_symmetry_space_group_name_H-M   'P 1'
_cell_length_a   5.98890035
_cell_length_b   10.28277523
_cell_length_c   10.28276951
_cell_angle_alpha   119.99957465
_cell_angle_beta   90.00000000
_cell_angle_gamma   90.00000000
_symmetry_Int_Tables_number   1
_chemical_formula_structural   La3AlZnS7
_chemical_formula_sum   'La6 Al2 Zn2 S14'
_cell_volume   548.40325504
_cell_formula_units_Z   2
loop_
 _symmetry_equiv_pos_site_id
 _symmetry_equiv_pos_as_xyz
  1  'x, y, z'
loop_
 _atom_site_type_symbol
 _atom_site_label
 _atom_site_symmetry_multiplicity
 _atom_site_fract_x
 _atom_site_fract_y
 _atom_site_fract_z
 _atom_site_occupancy
  La  La0  1  0.26047923  0.24236528  0.37188562  1
  La  La1  1  0.26046722  0.62814844  0.87050729  1
  La  La2  1  0.26048371  0.12954002  0.75762329  1
  La  La3  1  0.76047923  0.75763472  0.62811438  1
  La  La4  1  0.76046722  0.37185156  0.12949271  1
  La  La5  1  0.76048371  0.87045998  0.24237671  1
  Al  Al6  1  0.84192142  0.33334642  0.66667713  1
  Al  Al7  1  0.34192142  0.66665358  0.33332287  1
  Zn  Zn8  1  0.50144055  0.00000038  0.00000060  1
  Zn  Zn9  1  0.00144055  0.99999962  0.99999940  1
  S  S10  1  0.74909287  0.15256298  0.23301922  1
  S  S11  1  0.74908135  0.76697895  0.91954240  1
  S  S12  1  0.74909207  0.08046405  0.84743712  1
  S  S13  1  0.24909287  0.84743702  0.76698078  1
  S  S14  1  0.24908135  0.23302105  0.08045760  1
  S  S15  1  0.24909207  0.91953595  0.15256288  1
  S  S16  1  0.99143905  0.10440731  0.51544264  1
  S  S17  1  0.99145322  0.48455613  0.58896364  1
  S  S18  1  0.99144176  0.41104860  0.89560364  1
  S  S19  1  0.49143905  0.89559269  0.48455736  1
  S  S20  1  0.49145322  0.51544387  0.41103636  1
  S  S21  1  0.49144176  0.58895140  0.10439636  1
  S  S22  1  0.47160757  0.33334118  0.66666825  1
  S  S23  1  0.97160757  0.66665882  0.33333175  1
