# generated using pymatgen
data_Cs3Te22
_symmetry_space_group_name_H-M   'P 1'
_cell_length_a   9.68133909
_cell_length_b   9.68133909
_cell_length_c   12.42412607
_cell_angle_alpha   112.93076689
_cell_angle_beta   112.93076684
_cell_angle_gamma   90.00000000
_symmetry_Int_Tables_number   1
_chemical_formula_structural   Cs3Te22
_chemical_formula_sum   'Cs3 Te22'
_cell_volume   971.77217815
_cell_formula_units_Z   1
loop_
 _symmetry_equiv_pos_site_id
 _symmetry_equiv_pos_as_xyz
  1  'x, y, z'
loop_
 _atom_site_type_symbol
 _atom_site_label
 _atom_site_symmetry_multiplicity
 _atom_site_fract_x
 _atom_site_fract_y
 _atom_site_fract_z
 _atom_site_occupancy
  Cs  Cs0  1  0.50000000  0.50000000  0.00000000  1
  Cs  Cs1  1  0.82711220  0.82711220  0.65422440  1
  Cs  Cs2  1  0.17288780  0.17288780  0.34577560  1
  Te  Te3  1  0.59486815  0.39366068  0.38548220  1
  Te  Te4  1  0.79061405  0.99182152  0.38548220  1
  Te  Te5  1  0.39366068  0.79061405  0.38548220  1
  Te  Te6  1  0.99182152  0.59486815  0.38548220  1
  Te  Te7  1  0.40513185  0.60633932  0.61451780  1
  Te  Te8  1  0.20938595  0.00817848  0.61451780  1
  Te  Te9  1  0.60633932  0.20938595  0.61451780  1
  Te  Te10  1  0.00817848  0.40513185  0.61451780  1
  Te  Te11  1  0.75957904  0.33108945  0.23333041  1
  Te  Te12  1  0.47375137  0.90224096  0.23333041  1
  Te  Te13  1  0.33108945  0.47375137  0.23333041  1
  Te  Te14  1  0.90224096  0.75957904  0.23333041  1
  Te  Te15  1  0.24042096  0.66891055  0.76666959  1
  Te  Te16  1  0.52624863  0.09775904  0.76666959  1
  Te  Te17  1  0.66891055  0.52624863  0.76666959  1
  Te  Te18  1  0.09775904  0.24042096  0.76666959  1
  Te  Te19  1  0.89832767  0.19497451  0.00000000  1
  Te  Te20  1  0.10167233  0.80502549  1.00000000  1
  Te  Te21  1  0.19497451  0.10167233  1.00000000  1
  Te  Te22  1  0.80502549  0.89832767  0.00000000  1
  Te  Te23  1  0.00000000  0.50000000  0.00000000  1
  Te  Te24  1  0.50000000  -0.00000000  0.00000000  1
