# generated using pymatgen
data_Co
_symmetry_space_group_name_H-M   'P 1'
_cell_length_a   7.86000974
_cell_length_b   7.86001006
_cell_length_c   9.68637248
_cell_angle_alpha   90.00000000
_cell_angle_beta   90.00000000
_cell_angle_gamma   119.99999865
_symmetry_Int_Tables_number   1
_chemical_formula_structural   Co
_chemical_formula_sum   Co46
_cell_volume   518.24842296
_cell_formula_units_Z   46
loop_
 _symmetry_equiv_pos_site_id
 _symmetry_equiv_pos_as_xyz
  1  'x, y, z'
loop_
 _atom_site_type_symbol
 _atom_site_label
 _atom_site_symmetry_multiplicity
 _atom_site_fract_x
 _atom_site_fract_y
 _atom_site_fract_z
 _atom_site_occupancy
  Co  Co0  1  0.00000000  0.00000000  0.35176282  1
  Co  Co1  1  0.32649267  0.16324634  0.47792956  1
  Co  Co2  1  0.18861738  0.37723476  0.22767205  1
  Co  Co3  1  0.00175310  0.50087655  0.09661708  1
  Co  Co4  1  0.81138262  0.18861738  0.72767205  1
  Co  Co5  1  0.49912345  0.50087655  0.09661708  1
  Co  Co6  1  0.67520462  0.83760231  0.72620964  1
  Co  Co7  1  0.00000000  0.00000000  0.85176282  1
  Co  Co8  1  0.49912345  0.99824690  0.09661708  1
  Co  Co9  1  0.48540664  0.51459336  0.84677871  1
  Co  Co10  1  0.83675366  0.67350733  0.47792956  1
  Co  Co11  1  0.00000000  0.00000000  0.10433212  1
  Co  Co12  1  0.17547617  0.35095234  0.47819784  1
  Co  Co13  1  0.83675366  0.16324634  0.47792956  1
  Co  Co14  1  0.35095234  0.17547617  0.97819784  1
  Co  Co15  1  0.82452383  0.64904766  0.97819784  1
  Co  Co16  1  0.33333300  0.66666700  0.38406097  1
  Co  Co17  1  0.82452383  0.17547617  0.97819784  1
  Co  Co18  1  0.67350733  0.83675366  0.97792956  1
  Co  Co19  1  0.02918672  0.51459336  0.84677871  1
  Co  Co20  1  0.51459336  0.02918672  0.34677871  1
  Co  Co21  1  0.50087655  0.49912345  0.59661708  1
  Co  Co22  1  0.64904766  0.82452383  0.47819784  1
  Co  Co23  1  0.62276524  0.81138262  0.22767205  1
  Co  Co24  1  0.51459336  0.48540664  0.34677871  1
  Co  Co25  1  0.16324634  0.83675366  0.97792956  1
  Co  Co26  1  0.50087655  0.00175310  0.59661708  1
  Co  Co27  1  0.83760231  0.67520462  0.22620964  1
  Co  Co28  1  0.33333300  0.66666700  0.67877591  1
  Co  Co29  1  0.16239769  0.32479538  0.72620964  1
  Co  Co30  1  0.97081328  0.48540664  0.34677871  1
  Co  Co31  1  0.66666700  0.33333300  0.17877591  1
  Co  Co32  1  0.48540664  0.97081328  0.84677871  1
  Co  Co33  1  0.17547617  0.82452383  0.47819784  1
  Co  Co34  1  0.83760231  0.16239769  0.22620964  1
  Co  Co35  1  0.16324634  0.32649267  0.97792956  1
  Co  Co36  1  0.66666700  0.33333300  0.88406097  1
  Co  Co37  1  0.66666700  0.33333300  0.48965356  1
  Co  Co38  1  0.81138262  0.62276524  0.72767205  1
  Co  Co39  1  0.16239769  0.83760231  0.72620964  1
  Co  Co40  1  0.37723476  0.18861738  0.72767205  1
  Co  Co41  1  0.00000000  0.00000000  0.60433212  1
  Co  Co42  1  0.32479538  0.16239769  0.22620964  1
  Co  Co43  1  0.33333300  0.66666700  0.98965356  1
  Co  Co44  1  0.18861738  0.81138262  0.22767205  1
  Co  Co45  1  0.99824690  0.49912345  0.59661708  1
