# generated using pymatgen
data_YWBrO4
_symmetry_space_group_name_H-M   'P 1'
_cell_length_a   7.03587897
_cell_length_b   7.34871045
_cell_length_c   11.07794732
_cell_angle_alpha   103.77082283
_cell_angle_beta   107.98850650
_cell_angle_gamma   94.28925591
_symmetry_Int_Tables_number   1
_chemical_formula_structural   YWBrO4
_chemical_formula_sum   'Y4 W4 Br4 O16'
_cell_volume   522.26022737
_cell_formula_units_Z   4
loop_
 _symmetry_equiv_pos_site_id
 _symmetry_equiv_pos_as_xyz
  1  'x, y, z'
loop_
 _atom_site_type_symbol
 _atom_site_label
 _atom_site_symmetry_multiplicity
 _atom_site_fract_x
 _atom_site_fract_y
 _atom_site_fract_z
 _atom_site_occupancy
  Y  Y0  1  0.66013837  0.11032931  0.73078321  1
  Y  Y1  1  0.33986163  0.88967069  0.26921679  1
  Y  Y2  1  0.37999816  0.66006230  0.76759550  1
  Y  Y3  1  0.62000184  0.33993770  0.23240450  1
  W  W4  1  0.72817048  0.81459774  0.13347474  1
  W  W5  1  0.27182952  0.18540226  0.86652526  1
  W  W6  1  0.76851532  0.58857093  0.62608560  1
  W  W7  1  0.23148468  0.41142907  0.37391440  1
  Br  Br8  1  0.26402185  0.00519868  0.51982331  1
  Br  Br9  1  0.73597815  0.99480132  0.48017669  1
  Br  Br10  1  0.19037064  0.72062318  0.98198552  1
  Br  Br11  1  0.80962936  0.27937682  0.01801448  1
  O  O12  1  0.65647178  0.73031612  0.95659821  1
  O  O13  1  0.34352822  0.26968388  0.04340179  1
  O  O14  1  0.99922145  0.87837954  0.20518821  1
  O  O15  1  0.00077855  0.12162046  0.79481179  1
  O  O16  1  0.63666391  0.63491092  0.19920366  1
  O  O17  1  0.36333609  0.36508908  0.80079634  1
  O  O18  1  0.40225180  0.98627448  0.81629677  1
  O  O19  1  0.59774820  0.01372552  0.18370323  1
  O  O20  1  0.03773324  0.65005283  0.66965050  1
  O  O21  1  0.96226676  0.34994717  0.33034950  1
  O  O22  1  0.72192722  0.40096470  0.69837242  1
  O  O23  1  0.27807278  0.59903530  0.30162758  1
  O  O24  1  0.66543680  0.50216432  0.44714173  1
  O  O25  1  0.33456320  0.49783568  0.55285827  1
  O  O26  1  0.65489302  0.78617468  0.70263185  1
  O  O27  1  0.34510698  0.21382532  0.29736815  1
