# generated using pymatgen
data_TbWBrO4
_symmetry_space_group_name_H-M   'P 1'
_cell_length_a   7.00720816
_cell_length_b   7.34943903
_cell_length_c   11.12948485
_cell_angle_alpha   104.71565765
_cell_angle_beta   107.85922516
_cell_angle_gamma   93.42850617
_symmetry_Int_Tables_number   1
_chemical_formula_structural   TbWBrO4
_chemical_formula_sum   'Tb4 W4 Br4 O16'
_cell_volume   521.70792927
_cell_formula_units_Z   4
loop_
 _symmetry_equiv_pos_site_id
 _symmetry_equiv_pos_as_xyz
  1  'x, y, z'
loop_
 _atom_site_type_symbol
 _atom_site_label
 _atom_site_symmetry_multiplicity
 _atom_site_fract_x
 _atom_site_fract_y
 _atom_site_fract_z
 _atom_site_occupancy
  Tb  Tb0  1  0.65378642  0.11813608  0.73076769  1
  Tb  Tb1  1  0.34621358  0.88186392  0.26923231  1
  Tb  Tb2  1  0.38436451  0.65587296  0.76788702  1
  Tb  Tb3  1  0.61563549  0.34412704  0.23211298  1
  W  W4  1  0.72997038  0.81321617  0.13306839  1
  W  W5  1  0.27002962  0.18678383  0.86693161  1
  W  W6  1  0.77003548  0.59069452  0.62710851  1
  W  W7  1  0.22996452  0.40930548  0.37289149  1
  Br  Br8  1  0.26259770  0.99657839  0.51868221  1
  Br  Br9  1  0.73740230  0.00342161  0.48131779  1
  Br  Br10  1  0.19288338  0.71845901  0.98130768  1
  Br  Br11  1  0.80711662  0.28154099  0.01869232  1
  O  O12  1  0.65964062  0.72929875  0.95658248  1
  O  O13  1  0.34035938  0.27070125  0.04341752  1
  O  O14  1  0.00193425  0.87075339  0.20692305  1
  O  O15  1  0.99806575  0.12924661  0.79307695  1
  O  O16  1  0.62912193  0.64256332  0.20050312  1
  O  O17  1  0.37087807  0.35743668  0.79949688  1
  O  O18  1  0.39677322  0.98236715  0.81758330  1
  O  O19  1  0.60322678  0.01763285  0.18241670  1
  O  O20  1  0.03981788  0.64940007  0.67243733  1
  O  O21  1  0.96018212  0.35059993  0.32756267  1
  O  O22  1  0.71756242  0.40921245  0.70063186  1
  O  O23  1  0.28243758  0.59078755  0.29936814  1
  O  O24  1  0.66825824  0.50293013  0.44851863  1
  O  O25  1  0.33174176  0.49706987  0.55148137  1
  O  O26  1  0.65541089  0.79240097  0.70153512  1
  O  O27  1  0.34458911  0.20759903  0.29846488  1
