# generated using pymatgen
data_MnB2(H7N)2
_symmetry_space_group_name_H-M   'P 1'
_cell_length_a   8.82837784
_cell_length_b   9.45307556
_cell_length_c   18.03328874
_cell_angle_alpha   90.00000000
_cell_angle_beta   90.00000000
_cell_angle_gamma   90.00000000
_symmetry_Int_Tables_number   1
_chemical_formula_structural   MnB2(H7N)2
_chemical_formula_sum   'Mn8 B16 H112 N16'
_cell_volume   1504.97393283
_cell_formula_units_Z   8
loop_
 _symmetry_equiv_pos_site_id
 _symmetry_equiv_pos_as_xyz
  1  'x, y, z'
loop_
 _atom_site_type_symbol
 _atom_site_label
 _atom_site_symmetry_multiplicity
 _atom_site_fract_x
 _atom_site_fract_y
 _atom_site_fract_z
 _atom_site_occupancy
  Mn  Mn0  1  0.52663893  0.63710756  0.87667417  1
  Mn  Mn1  1  0.97336107  0.36289244  0.37667417  1
  Mn  Mn2  1  0.02663893  0.86289244  0.12332583  1
  Mn  Mn3  1  0.47336107  0.13710756  0.62332583  1
  Mn  Mn4  1  0.47336107  0.36289244  0.12332583  1
  Mn  Mn5  1  0.02663893  0.63710756  0.62332583  1
  Mn  Mn6  1  0.97336107  0.13710756  0.87667417  1
  Mn  Mn7  1  0.52663893  0.86289244  0.37667417  1
  B  B8  1  0.77279441  0.57728287  0.86451235  1
  B  B9  1  0.72720559  0.42271713  0.36451235  1
  B  B10  1  0.27279441  0.92271713  0.13548765  1
  B  B11  1  0.22720559  0.07728287  0.63548765  1
  B  B12  1  0.22720559  0.42271713  0.13548765  1
  B  B13  1  0.27279441  0.57728287  0.63548765  1
  B  B14  1  0.72720559  0.07728287  0.86451235  1
  B  B15  1  0.77279441  0.92271713  0.36451235  1
  B  B16  1  0.32560182  0.47449918  0.89170913  1
  B  B17  1  0.17439818  0.52550082  0.39170913  1
  B  B18  1  0.82560182  0.02550082  0.10829087  1
  B  B19  1  0.67439818  0.97449918  0.60829087  1
  B  B20  1  0.67439818  0.52550082  0.10829087  1
  B  B21  1  0.82560182  0.47449918  0.60829087  1
  B  B22  1  0.17439818  0.97449918  0.89170913  1
  B  B23  1  0.32560182  0.02550082  0.39170913  1
  H  H24  1  0.42196994  0.85168005  0.96660594  1
  H  H25  1  0.07803006  0.14831995  0.46660594  1
  H  H26  1  0.92196994  0.64831995  0.03339406  1
  H  H27  1  0.57803006  0.35168005  0.53339406  1
  H  H28  1  0.57803006  0.14831995  0.03339406  1
  H  H29  1  0.92196994  0.85168005  0.53339406  1
  H  H30  1  0.07803006  0.35168005  0.96660594  1
  H  H31  1  0.42196994  0.64831995  0.46660594  1
  H  H32  1  0.60831998  0.85806255  0.96886991  1
  H  H33  1  0.89168002  0.14193745  0.46886991  1
  H  H34  1  0.10831998  0.64193745  0.03113009  1
  H  H35  1  0.39168002  0.35806255  0.53113009  1
  H  H36  1  0.39168002  0.14193745  0.03113009  1
  H  H37  1  0.10831998  0.85806255  0.53113009  1
  H  H38  1  0.89168002  0.35806255  0.96886991  1
  H  H39  1  0.60831998  0.64193745  0.46886991  1
  H  H40  1  0.51851605  0.74111877  0.01973557  1
  H  H41  1  0.98148395  0.25888123  0.51973557  1
  H  H42  1  0.01851605  0.75888123  0.98026443  1
  H  H43  1  0.48148395  0.24111877  0.48026443  1
  H  H44  1  0.48148395  0.25888123  0.98026443  1
  H  H45  1  0.01851605  0.74111877  0.48026443  1
  H  H46  1  0.98148395  0.24111877  0.01973557  1
  H  H47  1  0.51851605  0.75888123  0.51973557  1
  H  H48  1  0.36504185  0.83625192  0.80245934  1
  H  H49  1  0.13495815  0.16374808  0.30245934  1
  H  H50  1  0.86504185  0.66374808  0.19754066  1
  H  H51  1  0.63495815  0.33625192  0.69754066  1
  H  H52  1  0.63495815  0.16374808  0.19754066  1
  H  H53  1  0.86504185  0.83625192  0.69754066  1
  H  H54  1  0.13495815  0.33625192  0.80245934  1
  H  H55  1  0.36504185  0.66374808  0.30245934  1
  H  H56  1  0.44705369  0.73717657  0.73869130  1
  H  H57  1  0.05294631  0.26282343  0.23869130  1
  H  H58  1  0.94705369  0.76282343  0.26130870  1
  H  H59  1  0.55294631  0.23717657  0.76130870  1
  H  H60  1  0.55294631  0.26282343  0.26130870  1
  H  H61  1  0.94705369  0.73717657  0.76130870  1
  H  H62  1  0.05294631  0.23717657  0.73869130  1
  H  H63  1  0.44705369  0.76282343  0.23869130  1
  H  H64  1  0.54364285  0.86297968  0.78125547  1
  H  H65  1  0.95635715  0.13702032  0.28125547  1
  H  H66  1  0.04364285  0.63702032  0.21874453  1
  H  H67  1  0.45635715  0.36297968  0.71874453  1
  H  H68  1  0.45635715  0.13702032  0.21874453  1
  H  H69  1  0.04364285  0.86297968  0.71874453  1
  H  H70  1  0.95635715  0.36297968  0.78125547  1
  H  H71  1  0.54364285  0.63702032  0.28125547  1
  H  H72  1  0.75582959  0.70720491  0.86731244  1
  H  H73  1  0.74417041  0.29279509  0.36731244  1
  H  H74  1  0.25582959  0.79279509  0.13268756  1
  H  H75  1  0.24417041  0.20720491  0.63268756  1
  H  H76  1  0.24417041  0.29279509  0.13268756  1
  H  H77  1  0.25582959  0.70720491  0.63268756  1
  H  H78  1  0.74417041  0.20720491  0.86731244  1
  H  H79  1  0.75582959  0.79279509  0.36731244  1
  H  H80  1  0.90179795  0.55112793  0.84673265  1
  H  H81  1  0.59820205  0.44887207  0.34673265  1
  H  H82  1  0.40179795  0.94887207  0.15326735  1
  H  H83  1  0.09820205  0.05112793  0.65326735  1
  H  H84  1  0.09820205  0.44887207  0.15326735  1
  H  H85  1  0.40179795  0.55112793  0.65326735  1
  H  H86  1  0.59820205  0.05112793  0.84673265  1
  H  H87  1  0.90179795  0.94887207  0.34673265  1
  H  H88  1  0.73922466  0.52649773  0.92536006  1
  H  H89  1  0.76077534  0.47350227  0.42536006  1
  H  H90  1  0.23922466  0.97350227  0.07463994  1
  H  H91  1  0.26077534  0.02649773  0.57463994  1
  H  H92  1  0.26077534  0.47350227  0.07463994  1
  H  H93  1  0.23922466  0.52649773  0.57463994  1
  H  H94  1  0.76077534  0.02649773  0.92536006  1
  H  H95  1  0.73922466  0.97350227  0.42536006  1
  H  H96  1  0.68456062  0.52875007  0.81677778  1
  H  H97  1  0.81543938  0.47124993  0.31677778  1
  H  H98  1  0.18456062  0.97124993  0.18322222  1
  H  H99  1  0.31543938  0.02875007  0.68322222  1
  H  H100  1  0.31543938  0.47124993  0.18322222  1
  H  H101  1  0.18456062  0.52875007  0.68322222  1
  H  H102  1  0.81543938  0.02875007  0.81677778  1
  H  H103  1  0.68456062  0.97124993  0.31677778  1
  H  H104  1  0.37814398  0.48839879  0.82804416  1
  H  H105  1  0.12185602  0.51160121  0.32804416  1
  H  H106  1  0.87814398  0.01160121  0.17195584  1
  H  H107  1  0.62185602  0.98839879  0.67195584  1
  H  H108  1  0.62185602  0.51160121  0.17195584  1
  H  H109  1  0.87814398  0.48839879  0.67195584  1
  H  H110  1  0.12185602  0.98839879  0.82804416  1
  H  H111  1  0.37814398  0.01160121  0.32804416  1
  H  H112  1  0.21485583  0.54971192  0.89978584  1
  H  H113  1  0.28514417  0.45028808  0.39978584  1
  H  H114  1  0.71485583  0.95028808  0.10021416  1
  H  H115  1  0.78514417  0.04971192  0.60021416  1
  H  H116  1  0.78514417  0.45028808  0.10021416  1
  H  H117  1  0.71485583  0.54971192  0.60021416  1
  H  H118  1  0.28514417  0.04971192  0.89978584  1
  H  H119  1  0.21485583  0.95028808  0.39978584  1
  H  H120  1  0.30001907  0.34964194  0.90185525  1
  H  H121  1  0.19998093  0.65035806  0.40185525  1
  H  H122  1  0.80001907  0.15035806  0.09814475  1
  H  H123  1  0.69998093  0.84964194  0.59814475  1
  H  H124  1  0.69998093  0.65035806  0.09814475  1
  H  H125  1  0.80001907  0.34964194  0.59814475  1
  H  H126  1  0.19998093  0.84964194  0.90185525  1
  H  H127  1  0.30001907  0.15035806  0.40185525  1
  H  H128  1  0.42347815  0.50465536  0.93945199  1
  H  H129  1  0.07652185  0.49534464  0.43945199  1
  H  H130  1  0.92347815  0.99534464  0.06054801  1
  H  H131  1  0.57652185  0.00465536  0.56054801  1
  H  H132  1  0.57652185  0.49534464  0.06054801  1
  H  H133  1  0.92347815  0.50465536  0.56054801  1
  H  H134  1  0.07652185  0.00465536  0.93945199  1
  H  H135  1  0.42347815  0.99534464  0.43945199  1
  N  N136  1  0.51798910  0.79032865  0.96905150  1
  N  N137  1  0.98201090  0.20967135  0.46905150  1
  N  N138  1  0.01798910  0.70967135  0.03094850  1
  N  N139  1  0.48201090  0.29032865  0.53094850  1
  N  N140  1  0.48201090  0.20967135  0.03094850  1
  N  N141  1  0.01798910  0.79032865  0.53094850  1
  N  N142  1  0.98201090  0.29032865  0.96905150  1
  N  N143  1  0.51798910  0.70967135  0.46905150  1
  N  N144  1  0.46401077  0.78541055  0.78891799  1
  N  N145  1  0.03598923  0.21458945  0.28891799  1
  N  N146  1  0.96401077  0.71458945  0.21108201  1
  N  N147  1  0.53598923  0.28541055  0.71108201  1
  N  N148  1  0.53598923  0.21458945  0.21108201  1
  N  N149  1  0.96401077  0.78541055  0.71108201  1
  N  N150  1  0.03598923  0.28541055  0.78891799  1
  N  N151  1  0.46401077  0.71458945  0.28891799  1
