# generated using pymatgen
data_Co5B16
_symmetry_space_group_name_H-M   'P 1'
_cell_length_a   2.92405999
_cell_length_b   5.46479022
_cell_length_c   19.05214054
_cell_angle_alpha   90.00000000
_cell_angle_beta   90.00000000
_cell_angle_gamma   90.00000000
_symmetry_Int_Tables_number   1
_chemical_formula_structural   Co5B16
_chemical_formula_sum   'Co10 B32'
_cell_volume   304.44128750
_cell_formula_units_Z   2
loop_
 _symmetry_equiv_pos_site_id
 _symmetry_equiv_pos_as_xyz
  1  'x, y, z'
loop_
 _atom_site_type_symbol
 _atom_site_label
 _atom_site_symmetry_multiplicity
 _atom_site_fract_x
 _atom_site_fract_y
 _atom_site_fract_z
 _atom_site_occupancy
  Co  Co0  1  -0.00000000  0.57131477  0.34652024  1
  Co  Co1  1  0.00000000  0.42868523  0.65347976  1
  Co  Co2  1  0.00000000  0.57131477  0.15347976  1
  Co  Co3  1  0.00000000  0.42868523  0.84652024  1
  Co  Co4  1  0.50000000  0.95091815  0.31664554  1
  Co  Co5  1  0.50000000  0.04908185  0.68335446  1
  Co  Co6  1  0.50000000  0.95091815  0.18335446  1
  Co  Co7  1  0.50000000  0.04908185  0.81664554  1
  Co  Co8  1  0.00000000  0.00000000  0.50000000  1
  Co  Co9  1  0.00000000  0.00000000  -0.00000000  1
  B  B10  1  -0.00000000  0.78022462  0.25000000  1
  B  B11  1  0.00000000  0.21977538  0.75000000  1
  B  B12  1  0.00000000  0.21119057  0.33874515  1
  B  B13  1  -0.00000000  0.78880943  0.66125485  1
  B  B14  1  -0.00000000  0.21119057  0.16125485  1
  B  B15  1  -0.00000000  0.78880943  0.83874515  1
  B  B16  1  0.50000000  0.50628510  0.42967853  1
  B  B17  1  0.50000000  0.49371490  0.57032147  1
  B  B18  1  0.50000000  0.50628510  0.07032147  1
  B  B19  1  0.50000000  0.49371490  0.92967853  1
  B  B20  1  0.50000000  0.60722618  0.25000000  1
  B  B21  1  0.50000000  0.39277382  0.75000000  1
  B  B22  1  0.00000000  0.30553419  0.43183133  1
  B  B23  1  -0.00000000  0.69446581  0.56816867  1
  B  B24  1  -0.00000000  0.30553419  0.06816867  1
  B  B25  1  -0.00000000  0.69446581  0.93183133  1
  B  B26  1  0.00000000  0.98334929  0.39513800  1
  B  B27  1  0.00000000  0.01665071  0.60486200  1
  B  B28  1  -0.00000000  0.98334929  0.10486200  1
  B  B29  1  0.00000000  0.01665071  0.89513800  1
  B  B30  1  0.50000000  0.32978100  0.29711737  1
  B  B31  1  0.50000000  0.67021900  0.70288263  1
  B  B32  1  0.50000000  0.32978100  0.20288263  1
  B  B33  1  0.50000000  0.67021900  0.79711737  1
  B  B34  1  0.50000000  0.29098946  0.49090253  1
  B  B35  1  0.50000000  0.70901054  0.50909747  1
  B  B36  1  0.50000000  0.29098946  0.00909747  1
  B  B37  1  0.50000000  0.70901054  0.99090253  1
  B  B38  1  0.50000000  0.82127309  0.42296309  1
  B  B39  1  0.50000000  0.17872691  0.57703691  1
  B  B40  1  0.50000000  0.82127309  0.07703691  1
  B  B41  1  0.50000000  0.17872691  0.92296309  1
