# generated using pymatgen
data_CuH8(BrO2)2
_symmetry_space_group_name_H-M   'P 1'
_cell_length_a   4.22277315
_cell_length_b   7.51631254
_cell_length_c   11.88726734
_cell_angle_alpha   90.00000000
_cell_angle_beta   96.15027779
_cell_angle_gamma   90.00000000
_symmetry_Int_Tables_number   1
_chemical_formula_structural   CuH8(BrO2)2
_chemical_formula_sum   'Cu2 H16 Br4 O8'
_cell_volume   375.12648489
_cell_formula_units_Z   2
loop_
 _symmetry_equiv_pos_site_id
 _symmetry_equiv_pos_as_xyz
  1  'x, y, z'
loop_
 _atom_site_type_symbol
 _atom_site_label
 _atom_site_symmetry_multiplicity
 _atom_site_fract_x
 _atom_site_fract_y
 _atom_site_fract_z
 _atom_site_occupancy
  Cu  Cu0  1  0.50000000  0.50000000  0.50000000  1
  Cu  Cu1  1  0.00000000  0.00000000  0.00000000  1
  H  H2  1  0.28631480  0.47565954  0.29243636  1
  H  H3  1  0.21368520  0.97565954  0.20756364  1
  H  H4  1  0.71368520  0.52434046  0.70756364  1
  H  H5  1  0.78631480  0.02434046  0.79243636  1
  H  H6  1  0.66456434  0.49603343  0.29848796  1
  H  H7  1  0.83543566  0.99603343  0.20151204  1
  H  H8  1  0.33543566  0.50396657  0.70151204  1
  H  H9  1  0.16456434  0.00396657  0.79848796  1
  H  H10  1  0.88434150  0.47171858  0.14212135  1
  H  H11  1  0.61565850  0.97171858  0.35787865  1
  H  H12  1  0.11565850  0.52828142  0.85787865  1
  H  H13  1  0.38434150  0.02828142  0.64212135  1
  H  H14  1  0.95922492  0.66866558  0.18454894  1
  H  H15  1  0.54077508  0.16866558  0.31545106  1
  H  H16  1  0.04077508  0.33133442  0.81545106  1
  H  H17  1  0.45922492  0.83133442  0.68454894  1
  Br  Br18  1  0.86231461  0.74545095  0.47600303  1
  Br  Br19  1  0.63768539  0.24545095  0.02399697  1
  Br  Br20  1  0.13768539  0.25454905  0.52399697  1
  Br  Br21  1  0.36231461  0.75454905  0.97600303  1
  O  O22  1  0.49078720  0.43556105  0.33600325  1
  O  O23  1  0.00921280  0.93556105  0.16399675  1
  O  O24  1  0.50921280  0.56443895  0.66399675  1
  O  O25  1  0.99078720  0.06443895  0.83600325  1
  O  O26  1  0.94768862  0.54452146  0.21051988  1
  O  O27  1  0.55231138  0.04452146  0.28948012  1
  O  O28  1  0.05231138  0.45547854  0.78948012  1
  O  O29  1  0.44768862  0.95547854  0.71051988  1
