# generated using pymatgen
data_Sb2H3NF11
_symmetry_space_group_name_H-M   'P 1'
_cell_length_a   6.76469129
_cell_length_b   8.62662000
_cell_length_c   8.58201103
_cell_angle_alpha   76.99059552
_cell_angle_beta   70.94667076
_cell_angle_gamma   72.21568970
_symmetry_Int_Tables_number   1
_chemical_formula_structural   Sb2H3NF11
_chemical_formula_sum   'Sb4 H6 N2 F22'
_cell_volume   446.36043276
_cell_formula_units_Z   2
loop_
 _symmetry_equiv_pos_site_id
 _symmetry_equiv_pos_as_xyz
  1  'x, y, z'
loop_
 _atom_site_type_symbol
 _atom_site_label
 _atom_site_symmetry_multiplicity
 _atom_site_fract_x
 _atom_site_fract_y
 _atom_site_fract_z
 _atom_site_occupancy
  Sb  Sb0  1  0.37652890  0.31989452  0.36014667  1
  Sb  Sb1  1  0.62347110  0.68010548  0.63985333  1
  Sb  Sb2  1  0.20108612  0.22999460  0.87187265  1
  Sb  Sb3  1  0.79891388  0.77000540  0.12812735  1
  H  H4  1  0.80997090  0.01811859  0.64186750  1
  H  H5  1  0.19002910  0.98188141  0.35813250  1
  H  H6  1  0.92777039  0.17175537  0.52275811  1
  H  H7  1  0.07222961  0.82824463  0.47724189  1
  H  H8  1  0.06427108  0.01695141  0.64175938  1
  H  H9  1  0.93572892  0.98304859  0.35824062  1
  N  N10  1  0.95559461  0.04662697  0.56972861  1
  N  N11  1  0.04440539  0.95337303  0.43027139  1
  F  F12  1  0.46700722  0.33254428  0.12744762  1
  F  F13  1  0.53299278  0.66745572  0.87255238  1
  F  F14  1  0.36033783  0.54037999  0.36834041  1
  F  F15  1  0.63966217  0.45962001  0.63165959  1
  F  F16  1  0.66207448  0.24097380  0.38688527  1
  F  F17  1  0.33792552  0.75902620  0.61311473  1
  F  F18  1  0.07221273  0.36286311  0.38853864  1
  F  F19  1  0.92778727  0.63713689  0.61146136  1
  F  F20  1  0.36417155  0.09285302  0.39771148  1
  F  F21  1  0.63582845  0.90714698  0.60228852  1
  F  F22  1  0.22114234  0.44040459  0.88150664  1
  F  F23  1  0.77885766  0.55959541  0.11849336  1
  F  F24  1  0.91060268  0.31394058  0.86435086  1
  F  F25  1  0.08939732  0.68605942  0.13564914  1
  F  F26  1  0.13607768  0.15550416  0.10460721  1
  F  F27  1  0.86392232  0.84449584  0.89539279  1
  F  F28  1  0.50499455  0.14173354  0.83575054  1
  F  F29  1  0.49500545  0.85826646  0.16424946  1
  F  F30  1  0.18577590  0.03187651  0.81181830  1
  F  F31  1  0.81422410  0.96812349  0.18818170  1
  F  F32  1  0.28234450  0.30094267  0.61509561  1
  F  F33  1  0.71765550  0.69905733  0.38490439  1
