# generated using pymatgen
data_K5V9H20PtO37
_symmetry_space_group_name_H-M   'P 1'
_cell_length_a   10.33825754
_cell_length_b   13.01657644
_cell_length_c   13.91570125
_cell_angle_alpha   103.75639068
_cell_angle_beta   106.64149137
_cell_angle_gamma   92.54055385
_symmetry_Int_Tables_number   1
_chemical_formula_structural   K5V9H20PtO37
_chemical_formula_sum   'K10 V18 H40 Pt2 O74'
_cell_volume   1729.95555681
_cell_formula_units_Z   2
loop_
 _symmetry_equiv_pos_site_id
 _symmetry_equiv_pos_as_xyz
  1  'x, y, z'
loop_
 _atom_site_type_symbol
 _atom_site_label
 _atom_site_symmetry_multiplicity
 _atom_site_fract_x
 _atom_site_fract_y
 _atom_site_fract_z
 _atom_site_occupancy
  K  K0  1  0.80884270  0.04999423  0.19100680  1
  K  K1  1  0.19115730  0.95000577  0.80899320  1
  K  K2  1  0.66955620  0.72682069  0.00151527  1
  K  K3  1  0.33044380  0.27317931  0.99848473  1
  K  K4  1  0.71410941  0.81085286  0.75067268  1
  K  K5  1  0.28589059  0.18914714  0.24932732  1
  K  K6  1  0.85484726  0.84062209  0.48919441  1
  K  K7  1  0.14515274  0.15937791  0.51080559  1
  K  K8  1  0.67025263  0.50285031  0.37679074  1
  K  K9  1  0.32974737  0.49714969  0.62320926  1
  V  V10  1  0.92187778  0.25200787  0.03931880  1
  V  V11  1  0.07812222  0.74799213  0.96068120  1
  V  V12  1  0.93981077  0.42247361  0.64328463  1
  V  V13  1  0.06018923  0.57752639  0.35671537  1
  V  V14  1  0.63014060  0.32525630  0.53229188  1
  V  V15  1  0.36985940  0.67474370  0.46770812  1
  V  V16  1  0.61837200  0.23764878  0.72366302  1
  V  V17  1  0.38162800  0.76235122  0.27633698  1
  V  V18  1  0.61517839  0.15310742  0.91782197  1
  V  V19  1  0.38482161  0.84689258  0.08217803  1
  V  V20  1  0.84957177  0.09202516  0.81064346  1
  V  V21  1  0.15042823  0.90797484  0.18935654  1
  V  V22  1  0.85260824  0.17522242  0.61482765  1
  V  V23  1  0.14739176  0.82477758  0.38517235  1
  V  V24  1  0.71483232  0.48909680  0.75761997  1
  V  V25  1  0.28516768  0.51090320  0.24238003  1
  V  V26  1  0.70146604  0.40220664  0.95188651  1
  V  V27  1  0.29853396  0.59779336  0.04811349  1
  H  H28  1  0.08711209  0.49391341  0.84226740  1
  H  H29  1  0.91288791  0.50608659  0.15773260  1
  H  H30  1  0.07901579  0.41194676  0.02848119  1
  H  H31  1  0.92098421  0.58805324  0.97151881  1
  H  H32  1  0.83891573  0.28592561  0.31281273  1
  H  H33  1  0.16108427  0.71407439  0.68718727  1
  H  H34  1  0.86363884  0.25601353  0.41690743  1
  H  H35  1  0.13636116  0.74398647  0.58309257  1
  H  H36  1  0.65204224  0.10504372  0.38278185  1
  H  H37  1  0.34795776  0.89495628  0.61721815  1
  H  H38  1  0.57406045  0.99497690  0.30205776  1
  H  H39  1  0.42593955  0.00502310  0.69794224  1
  H  H40  1  0.87319991  0.82907273  0.22490191  1
  H  H41  1  0.12680009  0.17092727  0.77509809  1
  H  H42  1  0.73365529  0.79361323  0.23826457  1
  H  H43  1  0.26634471  0.20638677  0.76173543  1
  H  H44  1  0.88666754  0.90625759  0.00548274  1
  H  H45  1  0.11333246  0.09374241  0.99451726  1
  H  H46  1  0.77455093  0.97013070  0.94770894  1
  H  H47  1  0.22544907  0.02986930  0.05229106  1
  H  H48  1  0.45161475  0.87114524  0.77917401  1
  H  H49  1  0.54838525  0.12885476  0.22082599  1
  H  H50  1  0.50555975  0.88172871  0.89983127  1
  H  H51  1  0.49444025  0.11827129  0.10016873  1
  H  H52  1  0.65472551  0.98478950  0.60280211  1
  H  H53  1  0.34527449  0.01521050  0.39719789  1
  H  H54  1  0.56111040  0.88200249  0.52082171  1
  H  H55  1  0.43888960  0.11799751  0.47917829  1
  H  H56  1  0.77111390  0.62335085  0.23159614  1
  H  H57  1  0.22888610  0.37664915  0.76840386  1
  H  H58  1  0.61280685  0.62861809  0.21502769  1
  H  H59  1  0.38719315  0.37138191  0.78497231  1
  H  H60  1  0.62717238  0.28229589  0.19488124  1
  H  H61  1  0.37282762  0.71770411  0.80511876  1
  H  H62  1  0.72848251  0.35259118  0.16392046  1
  H  H63  1  0.27151749  0.64740882  0.83607954  1
  H  H64  1  0.69484363  0.65370816  0.57515139  1
  H  H65  1  0.30515637  0.34629184  0.42484861  1
  H  H66  1  0.84802188  0.64158380  0.62127747  1
  H  H67  1  0.15197812  0.35841620  0.37872253  1
  Pt  Pt68  1  0.92688777  0.33792643  0.84041514  1
  Pt  Pt69  1  0.07311223  0.66207357  0.15958486  1
  O  O70  1  0.77924278  0.25497582  0.86636383  1
  O  O71  1  0.22075722  0.74502418  0.13363617  1
  O  O72  1  0.78547378  0.32467556  0.70372722  1
  O  O73  1  0.21452622  0.67532444  0.29627278  1
  O  O74  1  0.96618781  0.19224184  0.76806216  1
  O  O75  1  0.03381219  0.80775816  0.23193784  1
  O  O76  1  0.84046260  0.46877090  0.89458102  1
  O  O77  1  0.15953740  0.53122910  0.10541898  1
  O  O78  1  0.72125254  0.12103088  0.68051201  1
  O  O79  1  0.27874746  0.87896912  0.31948799  1
  O  O80  1  0.60199735  0.37902628  0.79781592  1
  O  O81  1  0.39800265  0.62097372  0.20218408  1
  O  O82  1  0.06282929  0.42058798  0.79381431  1
  O  O83  1  0.93717071  0.57941202  0.20618569  1
  O  O84  1  0.05104387  0.33606974  0.98450290  1
  O  O85  1  0.94895613  0.66393026  0.01549710  1
  O  O86  1  0.78442422  0.39761534  0.52836446  1
  O  O87  1  0.21557578  0.60238466  0.47163554  1
  O  O88  1  0.52703767  0.24174068  0.60013183  1
  O  O89  1  0.47296233  0.75825932  0.39986817  1
  O  O90  1  0.52025049  0.16344438  0.77025713  1
  O  O91  1  0.47974951  0.83655562  0.22974287  1
  O  O92  1  0.76371073  0.17589656  0.03493399  1
  O  O93  1  0.23628927  0.82410344  0.96506601  1
  O  O94  1  0.95919854  0.13461413  0.94628760  1
  O  O95  1  0.04080146  0.86538587  0.05371240  1
  O  O96  1  0.70245550  0.04817791  0.84710568  1
  O  O97  1  0.29754450  0.95182209  0.15289432  1
  O  O98  1  0.71030758  0.19566034  0.50840207  1
  O  O99  1  0.28969242  0.80433966  0.49159793  1
  O  O100  1  0.97229205  0.27969223  0.60731509  1
  O  O101  1  0.02770795  0.72030777  0.39268491  1
  O  O102  1  0.85839574  0.52727528  0.71770243  1
  O  O103  1  0.14160426  0.47272472  0.28229757  1
  O  O104  1  0.59778603  0.44391427  0.62378993  1
  O  O105  1  0.40221397  0.55608573  0.37621007  1
  O  O106  1  0.84203475  0.38189101  0.06118524  1
  O  O107  1  0.15796525  0.61810899  0.93881476  1
  O  O108  1  0.58230275  0.29546194  0.95654914  1
  O  O109  1  0.41769725  0.70453806  0.04345086  1
  O  O110  1  0.02617079  0.24989235  0.15089999  1
  O  O111  1  0.97382921  0.75010765  0.84910001  1
  O  O112  1  0.05336575  0.48901295  0.61453044  1
  O  O113  1  0.94663425  0.51098705  0.38546956  1
  O  O114  1  0.51488229  0.32146139  0.42177745  1
  O  O115  1  0.48511771  0.67853861  0.57822255  1
  O  O116  1  0.49657990  0.08715135  0.94364149  1
  O  O117  1  0.50342010  0.91284865  0.05635851  1
  O  O118  1  0.90537488  0.98064703  0.76396253  1
  O  O119  1  0.09462512  0.01935297  0.23603747  1
  O  O120  1  0.90587713  0.06539634  0.56210176  1
  O  O121  1  0.09412287  0.93460366  0.43789824  1
  O  O122  1  0.66335714  0.60230495  0.80511714  1
  O  O123  1  0.33664286  0.39769505  0.19488286  1
  O  O124  1  0.65299539  0.51398423  0.00382737  1
  O  O125  1  0.34700461  0.48601577  0.99617263  1
  O  O126  1  0.88516051  0.23642037  0.35154095  1
  O  O127  1  0.11483949  0.76357963  0.64845905  1
  O  O128  1  0.62359666  0.06340956  0.30875058  1
  O  O129  1  0.37640334  0.93659044  0.69124942  1
  O  O130  1  0.77874830  0.84804676  0.21639477  1
  O  O131  1  0.22125170  0.15195324  0.78360523  1
  O  O132  1  0.78797358  0.91426365  0.98507270  1
  O  O133  1  0.21202642  0.08573635  0.01492730  1
  O  O134  1  0.48961718  0.83081965  0.83206817  1
  O  O135  1  0.51038282  0.16918035  0.16793183  1
  O  O136  1  0.64883654  0.90693967  0.57450904  1
  O  O137  1  0.35116346  0.09306033  0.42549096  1
  O  O138  1  0.70375654  0.65497476  0.26427693  1
  O  O139  1  0.29624346  0.34502524  0.73572307  1
  O  O140  1  0.69794484  0.34542062  0.22254766  1
  O  O141  1  0.30205516  0.65457938  0.77745234  1
  O  O142  1  0.78611791  0.67635316  0.57458814  1
  O  O143  1  0.21388209  0.32364684  0.42541186  1
