# generated using pymatgen
data_Li3CuB3O7
_symmetry_space_group_name_H-M   'P 1'
_cell_length_a   3.42335529
_cell_length_b   8.86424769
_cell_length_c   9.58656426
_cell_angle_alpha   84.01904871
_cell_angle_beta   89.62903365
_cell_angle_gamma   86.58032193
_symmetry_Int_Tables_number   1
_chemical_formula_structural   Li3CuB3O7
_chemical_formula_sum   'Li6 Cu2 B6 O14'
_cell_volume   288.81007319
_cell_formula_units_Z   2
loop_
 _symmetry_equiv_pos_site_id
 _symmetry_equiv_pos_as_xyz
  1  'x, y, z'
loop_
 _atom_site_type_symbol
 _atom_site_label
 _atom_site_symmetry_multiplicity
 _atom_site_fract_x
 _atom_site_fract_y
 _atom_site_fract_z
 _atom_site_occupancy
  Li  Li0  1  0.50373798  0.59351224  0.63908931  1
  Li  Li1  1  0.49626202  0.40648776  0.36091069  1
  Li  Li2  1  0.47496734  0.75578669  0.04200123  1
  Li  Li3  1  0.52503266  0.24421331  0.95799877  1
  Li  Li4  1  0.01142958  0.52888644  0.13458192  1
  Li  Li5  1  0.98857042  0.47111356  0.86541808  1
  Cu  Cu6  1  0.88994398  0.83524488  0.53901279  1
  Cu  Cu7  1  0.11005602  0.16475512  0.46098721  1
  B  B8  1  0.55938747  0.71008415  0.30342245  1
  B  B9  1  0.44061253  0.28991585  0.69657755  1
  B  B10  1  0.73850072  0.98637731  0.25478294  1
  B  B11  1  0.26149928  0.01362269  0.74521706  1
  B  B12  1  0.94850058  0.24640142  0.16349915  1
  B  B13  1  0.05149942  0.75359858  0.83650085  1
  O  O14  1  0.60233001  0.69423373  0.44595501  1
  O  O15  1  0.39766999  0.30576627  0.55404499  1
  O  O16  1  0.84891171  -0.00118745  0.38889877  1
  O  O17  1  0.15108829  0.00118745  0.61110123  1
  O  O18  1  0.01974596  0.29989252  0.29069942  1
  O  O19  1  0.98025404  0.70010748  0.70930058  1
  O  O20  1  0.48282797  0.59418160  0.22654595  1
  O  O21  1  0.51717203  0.40581840  0.77345405  1
  O  O22  1  0.59555764  0.85333086  0.21750721  1
  O  O23  1  0.40444236  0.14666914  0.78249279  1
  O  O24  1  0.77030870  0.10634116  0.15092741  1
  O  O25  1  0.22969130  0.89365884  0.84907259  1
  O  O26  1  0.01396181  0.33024534  0.03990159  1
  O  O27  1  0.98603819  0.66975466  0.96009841  1
