# generated using pymatgen
data_Pb(C2N3)2
_symmetry_space_group_name_H-M   'P 1'
_cell_length_a   4.05065775
_cell_length_b   12.17051790
_cell_length_c   13.68576061
_cell_angle_alpha   90.00000000
_cell_angle_beta   90.00000000
_cell_angle_gamma   90.00000000
_symmetry_Int_Tables_number   1
_chemical_formula_structural   Pb(C2N3)2
_chemical_formula_sum   'Pb4 C16 N24'
_cell_volume   674.68887432
_cell_formula_units_Z   4
loop_
 _symmetry_equiv_pos_site_id
 _symmetry_equiv_pos_as_xyz
  1  'x, y, z'
loop_
 _atom_site_type_symbol
 _atom_site_label
 _atom_site_symmetry_multiplicity
 _atom_site_fract_x
 _atom_site_fract_y
 _atom_site_fract_z
 _atom_site_occupancy
  Pb  Pb0  1  0.75000000  0.88012818  0.28439463  1
  Pb  Pb1  1  0.25000000  0.11987182  0.71560537  1
  Pb  Pb2  1  0.25000000  0.38012818  0.21560537  1
  Pb  Pb3  1  0.75000000  0.61987182  0.78439463  1
  C  C4  1  0.25000000  0.67678207  0.17439795  1
  C  C5  1  0.75000000  0.64570365  0.50099633  1
  C  C6  1  0.75000000  0.32321793  0.82560205  1
  C  C7  1  0.75000000  0.10860450  0.48198834  1
  C  C8  1  0.25000000  0.42351323  0.65481251  1
  C  C9  1  0.75000000  0.57648677  0.34518749  1
  C  C10  1  0.25000000  0.14570365  0.99900367  1
  C  C11  1  0.25000000  0.60860450  0.01801166  1
  C  C12  1  0.25000000  0.35429635  0.49900367  1
  C  C13  1  0.75000000  0.92351323  0.84518749  1
  C  C14  1  0.75000000  0.17678207  0.32560205  1
  C  C15  1  0.75000000  0.39139550  0.98198834  1
  C  C16  1  0.25000000  0.82321793  0.67439795  1
  C  C17  1  0.25000000  0.89139550  0.51801166  1
  C  C18  1  0.75000000  0.85429635  0.00099633  1
  C  C19  1  0.25000000  0.07648677  0.15481251  1
  N  N20  1  0.25000000  0.34339262  0.59373373  1
  N  N21  1  0.25000000  0.49177897  0.71700189  1
  N  N22  1  0.75000000  0.24428702  0.26299293  1
  N  N23  1  0.75000000  0.85738307  0.08708274  1
  N  N24  1  0.25000000  0.00822103  0.21700189  1
  N  N25  1  0.75000000  0.38848703  0.06843363  1
  N  N26  1  0.75000000  0.65660738  0.40626627  1
  N  N27  1  0.75000000  0.50822103  0.28299811  1
  N  N28  1  0.25000000  0.61151297  0.93156637  1
  N  N29  1  0.25000000  0.59729514  0.11228495  1
  N  N30  1  0.75000000  0.11151297  0.56843363  1
  N  N31  1  0.75000000  0.09729514  0.38771505  1
  N  N32  1  0.25000000  0.90270486  0.61228495  1
  N  N33  1  0.25000000  0.88848703  0.43156637  1
  N  N34  1  0.25000000  0.35738307  0.41291726  1
  N  N35  1  0.75000000  0.25571298  0.76299293  1
  N  N36  1  0.75000000  0.84339262  0.90626627  1
  N  N37  1  0.75000000  0.99177897  0.78299811  1
  N  N38  1  0.25000000  0.14261693  0.91291726  1
  N  N39  1  0.25000000  0.75571298  0.73700707  1
  N  N40  1  0.75000000  0.40270486  0.88771505  1
  N  N41  1  0.75000000  0.64261693  0.58708274  1
  N  N42  1  0.25000000  0.15660738  0.09373373  1
  N  N43  1  0.25000000  0.74428702  0.23700707  1
