# generated using pymatgen
data_Pb2C(SO3)2
_symmetry_space_group_name_H-M   'P 1'
_cell_length_a   4.67669082
_cell_length_b   8.90765790
_cell_length_c   16.58272804
_cell_angle_alpha   90.00000000
_cell_angle_beta   90.00000000
_cell_angle_gamma   90.00000000
_symmetry_Int_Tables_number   1
_chemical_formula_structural   Pb2C(SO3)2
_chemical_formula_sum   'Pb8 C4 S8 O24'
_cell_volume   690.80928645
_cell_formula_units_Z   4
loop_
 _symmetry_equiv_pos_site_id
 _symmetry_equiv_pos_as_xyz
  1  'x, y, z'
loop_
 _atom_site_type_symbol
 _atom_site_label
 _atom_site_symmetry_multiplicity
 _atom_site_fract_x
 _atom_site_fract_y
 _atom_site_fract_z
 _atom_site_occupancy
  Pb  Pb0  1  0.08546380  0.51404112  0.36346246  1
  Pb  Pb1  1  0.41453620  0.98595888  0.86346246  1
  Pb  Pb2  1  0.91453620  0.01404112  0.63653754  1
  Pb  Pb3  1  0.58546380  0.48595888  0.13653754  1
  Pb  Pb4  1  0.91453620  0.48595888  0.63653754  1
  Pb  Pb5  1  0.58546380  0.01404112  0.13653754  1
  Pb  Pb6  1  0.08546380  0.98595888  0.36346246  1
  Pb  Pb7  1  0.41453620  0.51404112  0.86346246  1
  C  C8  1  0.87864828  0.75000000  0.78772417  1
  C  C9  1  0.62135172  0.75000000  0.28772417  1
  C  C10  1  0.12135172  0.25000000  0.21227583  1
  C  C11  1  0.37864828  0.25000000  0.71227583  1
  S  S12  1  0.57531300  0.75000000  0.49700543  1
  S  S13  1  0.92468700  0.75000000  0.99700543  1
  S  S14  1  0.42468700  0.25000000  0.50299457  1
  S  S15  1  0.07531300  0.25000000  0.00299457  1
  S  S16  1  0.43013563  0.75000000  0.61331090  1
  S  S17  1  0.06986437  0.75000000  0.11331090  1
  S  S18  1  0.56986437  0.25000000  0.38668910  1
  S  S19  1  0.93013563  0.25000000  0.88668910  1
  O  O20  1  0.33023901  0.75000000  0.43926990  1
  O  O21  1  0.16976099  0.75000000  0.93926990  1
  O  O22  1  0.66976099  0.25000000  0.56073010  1
  O  O23  1  0.83023901  0.25000000  0.06073010  1
  O  O24  1  0.99753208  0.37826038  0.22489445  1
  O  O25  1  0.50246792  0.12173962  0.72489445  1
  O  O26  1  0.00246792  0.87826038  0.77510555  1
  O  O27  1  0.49753208  0.62173962  0.27510555  1
  O  O28  1  0.00246792  0.62173962  0.77510555  1
  O  O29  1  0.49753208  0.87826038  0.27510555  1
  O  O30  1  0.99753208  0.12173962  0.22489445  1
  O  O31  1  0.50246792  0.37826038  0.72489445  1
  O  O32  1  0.74802469  0.88861471  0.48658233  1
  O  O33  1  0.75197531  0.61138529  0.98658233  1
  O  O34  1  0.25197531  0.38861471  0.51341767  1
  O  O35  1  0.24802469  0.11138529  0.01341767  1
  O  O36  1  0.25197531  0.11138529  0.51341767  1
  O  O37  1  0.24802469  0.38861471  0.01341767  1
  O  O38  1  0.74802469  0.61138529  0.48658233  1
  O  O39  1  0.75197531  0.88861471  0.98658233  1
  O  O40  1  0.88630504  0.75000000  0.31330264  1
  O  O41  1  0.61369496  0.75000000  0.81330264  1
  O  O42  1  0.11369496  0.25000000  0.68669736  1
  O  O43  1  0.38630504  0.25000000  0.18669736  1
