# generated using pymatgen
data_SrZnRu5O11
_symmetry_space_group_name_H-M   'P 1'
_cell_length_a   11.87121911
_cell_length_b   11.87245490
_cell_length_c   13.54247153
_cell_angle_alpha   90.00000000
_cell_angle_beta   90.00000000
_cell_angle_gamma   120.00330896
_symmetry_Int_Tables_number   1
_chemical_formula_structural   SrZnRu5O11
_chemical_formula_sum   'Sr8 Zn8 Ru40 O88'
_cell_volume   1652.91275403
_cell_formula_units_Z   8
loop_
 _symmetry_equiv_pos_site_id
 _symmetry_equiv_pos_as_xyz
  1  'x, y, z'
loop_
 _atom_site_type_symbol
 _atom_site_label
 _atom_site_symmetry_multiplicity
 _atom_site_fract_x
 _atom_site_fract_y
 _atom_site_fract_z
 _atom_site_occupancy
  Sr  Sr0  1  0.33337844  0.66661756  0.75000000  1
  Sr  Sr1  1  0.66662156  0.33338244  0.25000000  1
  Sr  Sr2  1  0.82251615  0.67652915  0.75000000  1
  Sr  Sr3  1  0.32357559  0.14613185  0.75000000  1
  Sr  Sr4  1  0.85393617  0.17749448  0.75000000  1
  Sr  Sr5  1  0.17748385  0.32347085  0.25000000  1
  Sr  Sr6  1  0.67642441  0.85386815  0.25000000  1
  Sr  Sr7  1  0.14606383  0.82250552  0.25000000  1
  Zn  Zn8  1  0.66666238  0.33333057  0.75000000  1
  Zn  Zn9  1  0.33333762  0.66666943  0.25000000  1
  Zn  Zn10  1  0.15045842  0.82245459  0.75000000  1
  Zn  Zn11  1  0.17760486  0.32806852  0.75000000  1
  Zn  Zn12  1  0.67199655  0.84954397  0.75000000  1
  Zn  Zn13  1  0.84954158  0.17754541  0.25000000  1
  Zn  Zn14  1  0.82239514  0.67193148  0.25000000  1
  Zn  Zn15  1  0.32800345  0.15045603  0.25000000  1
  Ru  Ru16  1  0.00001418  0.00003858  0.64784780  1
  Ru  Ru17  1  0.99998582  0.99996142  0.14784780  1
  Ru  Ru18  1  0.99998582  0.99996142  0.35215220  1
  Ru  Ru19  1  0.00001418  0.00003858  0.85215220  1
  Ru  Ru20  1  0.96935595  0.72951311  0.50464162  1
  Ru  Ru21  1  0.27050486  0.23986678  0.50465833  1
  Ru  Ru22  1  0.76012190  0.03070721  0.50467965  1
  Ru  Ru23  1  0.03064405  0.27048689  0.00464162  1
  Ru  Ru24  1  0.72949514  0.76013322  0.00465833  1
  Ru  Ru25  1  0.23987810  0.96929279  0.00467965  1
  Ru  Ru26  1  0.03064405  0.27048689  0.49535838  1
  Ru  Ru27  1  0.72949514  0.76013322  0.49534167  1
  Ru  Ru28  1  0.23987810  0.96929279  0.49532035  1
  Ru  Ru29  1  0.96935595  0.72951311  0.99535838  1
  Ru  Ru30  1  0.27050486  0.23986678  0.99534167  1
  Ru  Ru31  1  0.76012190  0.03070721  0.99532035  1
  Ru  Ru32  1  0.50791712  0.50962898  0.65591055  1
  Ru  Ru33  1  0.49030963  0.99823620  0.65593996  1
  Ru  Ru34  1  0.00173434  0.49212262  0.65597475  1
  Ru  Ru35  1  0.49208288  0.49037102  0.15591055  1
  Ru  Ru36  1  0.50969037  0.00176380  0.15593996  1
  Ru  Ru37  1  0.99826566  0.50787738  0.15597475  1
  Ru  Ru38  1  0.49208288  0.49037102  0.34408945  1
  Ru  Ru39  1  0.50969037  0.00176380  0.34406004  1
  Ru  Ru40  1  0.99826566  0.50787738  0.34402525  1
  Ru  Ru41  1  0.50791712  0.50962898  0.84408945  1
  Ru  Ru42  1  0.49030963  0.99823620  0.84406004  1
  Ru  Ru43  1  0.00173434  0.49212262  0.84402525  1
  Ru  Ru44  1  0.75417311  0.50992807  0.50121489  1
  Ru  Ru45  1  0.49012467  0.24424845  0.50116999  1
  Ru  Ru46  1  0.75575467  0.24583080  0.50120302  1
  Ru  Ru47  1  0.24582689  0.49007193  0.00121489  1
  Ru  Ru48  1  0.50987533  0.75575155  0.00116999  1
  Ru  Ru49  1  0.24424533  0.75416920  0.00120302  1
  Ru  Ru50  1  0.24582689  0.49007193  0.49878511  1
  Ru  Ru51  1  0.50987533  0.75575155  0.49883001  1
  Ru  Ru52  1  0.24424533  0.75416920  0.49879698  1
  Ru  Ru53  1  0.75417311  0.50992807  0.99878511  1
  Ru  Ru54  1  0.49012467  0.24424845  0.99883001  1
  Ru  Ru55  1  0.75575467  0.24583080  0.99879698  1
  O  O56  1  0.89175729  0.82627842  0.57866631  1
  O  O57  1  0.17375174  0.06547021  0.57854753  1
  O  O58  1  0.93440688  0.10811383  0.57850489  1
  O  O59  1  0.10824271  0.17372158  0.07866631  1
  O  O60  1  0.82624826  0.93452979  0.07854753  1
  O  O61  1  0.06559312  0.89188617  0.07850489  1
  O  O62  1  0.10824271  0.17372158  0.42133369  1
  O  O63  1  0.82624826  0.93452979  0.42145247  1
  O  O64  1  0.06559312  0.89188617  0.42149511  1
  O  O65  1  0.89175729  0.82627842  0.92133369  1
  O  O66  1  0.17375174  0.06547021  0.92145247  1
  O  O67  1  0.93440688  0.10811383  0.92149511  1
  O  O68  1  0.41583243  0.83045476  0.57620297  1
  O  O69  1  0.16969366  0.58548090  0.57622799  1
  O  O70  1  0.41444325  0.58407382  0.57627051  1
  O  O71  1  0.58416757  0.16954524  0.07620297  1
  O  O72  1  0.83030634  0.41451910  0.07622799  1
  O  O73  1  0.58555675  0.41592618  0.07627051  1
  O  O74  1  0.58416757  0.16954524  0.42379703  1
  O  O75  1  0.83030634  0.41451910  0.42377201  1
  O  O76  1  0.58555675  0.41592618  0.42372949  1
  O  O77  1  0.41583243  0.83045476  0.92379703  1
  O  O78  1  0.16969366  0.58548090  0.92377201  1
  O  O79  1  0.41444325  0.58407382  0.92372949  1
  O  O80  1  0.42168191  0.32524941  0.60001631  1
  O  O81  1  0.67473676  0.09643382  0.59994508  1
  O  O82  1  0.90347918  0.57821887  0.59993181  1
  O  O83  1  0.57831809  0.67475059  0.10001631  1
  O  O84  1  0.32526324  0.90356618  0.09994508  1
  O  O85  1  0.09652082  0.42178113  0.09993181  1
  O  O86  1  0.57831809  0.67475059  0.39998369  1
  O  O87  1  0.32526324  0.90356618  0.40005492  1
  O  O88  1  0.09652082  0.42178113  0.40006819  1
  O  O89  1  0.42168191  0.32524941  0.89998369  1
  O  O90  1  0.67473676  0.09643382  0.90005492  1
  O  O91  1  0.90347918  0.57821887  0.90006819  1
  O  O92  1  0.92993104  0.33771449  0.57015969  1
  O  O93  1  0.66227422  0.59224756  0.57012880  1
  O  O94  1  0.40758009  0.06996922  0.57018169  1
  O  O95  1  0.07006896  0.66228551  0.07015969  1
  O  O96  1  0.33772578  0.40775244  0.07012880  1
  O  O97  1  0.59241991  0.93003078  0.07018169  1
  O  O98  1  0.07006896  0.66228551  0.42984031  1
  O  O99  1  0.33772578  0.40775244  0.42987120  1
  O  O100  1  0.59241991  0.93003078  0.42981831  1
  O  O101  1  0.92993104  0.33771449  0.92984031  1
  O  O102  1  0.66227422  0.59224756  0.92987120  1
  O  O103  1  0.40758009  0.06996922  0.92981831  1
  O  O104  1  0.04635017  0.90296110  0.75000000  1
  O  O105  1  0.09705078  0.14345613  0.75000000  1
  O  O106  1  0.85659850  0.95359937  0.75000000  1
  O  O107  1  0.95364983  0.09703890  0.25000000  1
  O  O108  1  0.90294922  0.85654387  0.25000000  1
  O  O109  1  0.14340150  0.04640063  0.25000000  1
  O  O110  1  0.61383775  0.46199135  0.75000000  1
  O  O111  1  0.53791342  0.15187575  0.75000000  1
  O  O112  1  0.84811299  0.38605609  0.75000000  1
  O  O113  1  0.38616225  0.53800865  0.25000000  1
  O  O114  1  0.46208658  0.84812425  0.25000000  1
  O  O115  1  0.15188701  0.61394391  0.25000000  1
  O  O116  1  0.54868025  0.90565086  0.75000000  1
  O  O117  1  0.09422298  0.64285295  0.75000000  1
  O  O118  1  0.35725731  0.45135477  0.75000000  1
  O  O119  1  0.45131975  0.09434914  0.25000000  1
  O  O120  1  0.90577702  0.35714705  0.25000000  1
  O  O121  1  0.64274269  0.54864523  0.25000000  1
  O  O122  1  0.33558144  0.91840951  0.75000000  1
  O  O123  1  0.08157515  0.41721284  0.75000000  1
  O  O124  1  0.58269205  0.66427720  0.75000000  1
  O  O125  1  0.66441856  0.08159049  0.25000000  1
  O  O126  1  0.91842485  0.58278716  0.25000000  1
  O  O127  1  0.41730795  0.33572280  0.25000000  1
  O  O128  1  0.66669235  0.33334887  0.92649961  1
  O  O129  1  0.33330765  0.66665113  0.42649961  1
  O  O130  1  0.33330765  0.66665113  0.07350039  1
  O  O131  1  0.66669235  0.33334887  0.57350039  1
  O  O132  1  0.13979850  0.81146234  0.91640604  1
  O  O133  1  0.18860958  0.32836356  0.91639936  1
  O  O134  1  0.67171463  0.86024635  0.91638648  1
  O  O135  1  0.86020150  0.18853766  0.41640604  1
  O  O136  1  0.81139042  0.67163644  0.41639936  1
  O  O137  1  0.32828537  0.13975365  0.41638648  1
  O  O138  1  0.86020150  0.18853766  0.08359396  1
  O  O139  1  0.81139042  0.67163644  0.08360064  1
  O  O140  1  0.32828537  0.13975365  0.08361352  1
  O  O141  1  0.13979850  0.81146234  0.58359396  1
  O  O142  1  0.18860958  0.32836356  0.58360064  1
  O  O143  1  0.67171463  0.86024635  0.58361352  1
