# generated using pymatgen
data_Zn2H10Cl4O5
_symmetry_space_group_name_H-M   'P 1'
_cell_length_a   7.41243446
_cell_length_b   10.02569259
_cell_length_c   15.49695059
_cell_angle_alpha   90.00000000
_cell_angle_beta   102.25520706
_cell_angle_gamma   90.00000000
_symmetry_Int_Tables_number   1
_chemical_formula_structural   Zn2H10Cl4O5
_chemical_formula_sum   'Zn8 H40 Cl16 O20'
_cell_volume   1125.40854897
_cell_formula_units_Z   4
loop_
 _symmetry_equiv_pos_site_id
 _symmetry_equiv_pos_as_xyz
  1  'x, y, z'
loop_
 _atom_site_type_symbol
 _atom_site_label
 _atom_site_symmetry_multiplicity
 _atom_site_fract_x
 _atom_site_fract_y
 _atom_site_fract_z
 _atom_site_occupancy
  Zn  Zn0  1  0.71937583  0.27176781  0.34533456  1
  Zn  Zn1  1  0.21937583  0.22823219  0.84533456  1
  Zn  Zn2  1  0.28062417  0.72823219  0.65466544  1
  Zn  Zn3  1  0.78062417  0.77176781  0.15466544  1
  Zn  Zn4  1  0.02270886  0.26864322  0.14460757  1
  Zn  Zn5  1  0.52270886  0.23135678  0.64460757  1
  Zn  Zn6  1  0.97729114  0.73135678  0.85539243  1
  Zn  Zn7  1  0.47729114  0.76864322  0.35539243  1
  H  H8  1  0.77426122  0.10252366  0.48628090  1
  H  H9  1  0.27426122  0.39747634  0.98628090  1
  H  H10  1  0.22573878  0.89747634  0.51371910  1
  H  H11  1  0.72573878  0.60252366  0.01371910  1
  H  H12  1  0.96475195  0.15164190  0.47018853  1
  H  H13  1  0.46475195  0.34835810  0.97018853  1
  H  H14  1  0.03524805  0.84835810  0.52981147  1
  H  H15  1  0.53524805  0.65164190  0.02981147  1
  H  H16  1  0.38946099  0.33974858  0.38692452  1
  H  H17  1  0.88946099  0.16025142  0.88692452  1
  H  H18  1  0.61053901  0.66025142  0.61307548  1
  H  H19  1  0.11053901  0.83974858  0.11307548  1
  H  H20  1  0.40186868  0.18157233  0.38848498  1
  H  H21  1  0.90186868  0.31842767  0.88848498  1
  H  H22  1  0.59813132  0.81842767  0.61151502  1
  H  H23  1  0.09813132  0.68157233  0.11151502  1
  H  H24  1  0.80418945  0.51927326  0.42383961  1
  H  H25  1  0.30418945  0.98072674  0.92383961  1
  H  H26  1  0.19581055  0.48072674  0.57616039  1
  H  H27  1  0.69581055  0.01927326  0.07616039  1
  H  H28  1  0.76518555  0.41678313  0.49419915  1
  H  H29  1  0.26518555  0.08321687  0.99419915  1
  H  H30  1  0.23481445  0.58321687  0.50580085  1
  H  H31  1  0.73481445  0.91678313  0.00580085  1
  H  H32  1  0.49138076  0.09785829  0.22679270  1
  H  H33  1  0.99138076  0.40214171  0.72679270  1
  H  H34  1  0.50861924  0.90214171  0.77320730  1
  H  H35  1  0.00861924  0.59785829  0.27320730  1
  H  H36  1  0.70164489  0.04703291  0.25223277  1
  H  H37  1  0.20164489  0.45296709  0.75223277  1
  H  H38  1  0.29835511  0.95296709  0.74776723  1
  H  H39  1  0.79835511  0.54703291  0.24776723  1
  H  H40  1  0.48741048  0.44932883  0.23042288  1
  H  H41  1  0.98741048  0.05067117  0.73042288  1
  H  H42  1  0.51258952  0.55067117  0.76957712  1
  H  H43  1  0.01258952  0.94932883  0.26957712  1
  H  H44  1  0.62725733  0.37450959  0.18466748  1
  H  H45  1  0.12725733  0.12549041  0.68466748  1
  H  H46  1  0.37274267  0.62549041  0.81533252  1
  H  H47  1  0.87274267  0.87450959  0.31533252  1
  Cl  Cl48  1  0.01459472  0.28140501  0.29532673  1
  Cl  Cl49  1  0.51459472  0.21859499  0.79532673  1
  Cl  Cl50  1  0.98540528  0.71859499  0.70467327  1
  Cl  Cl51  1  0.48540528  0.78140501  0.20467327  1
  Cl  Cl52  1  0.18784682  0.44978509  0.11462355  1
  Cl  Cl53  1  0.68784682  0.05021491  0.61462355  1
  Cl  Cl54  1  0.81215318  0.55021491  0.88537645  1
  Cl  Cl55  1  0.31215318  0.94978509  0.38537645  1
  Cl  Cl56  1  0.72313735  0.25585698  0.07012977  1
  Cl  Cl57  1  0.22313735  0.24414302  0.57012977  1
  Cl  Cl58  1  0.27686265  0.74414302  0.92987023  1
  Cl  Cl59  1  0.77686265  0.75585698  0.42987023  1
  Cl  Cl60  1  0.19263079  0.08069967  0.12984588  1
  Cl  Cl61  1  0.69263079  0.41930033  0.62984588  1
  Cl  Cl62  1  0.80736921  0.91930033  0.87015412  1
  Cl  Cl63  1  0.30736921  0.58069967  0.37015412  1
  O  O64  1  0.84075509  0.12551452  0.43914278  1
  O  O65  1  0.34075509  0.37448548  0.93914278  1
  O  O66  1  0.15924491  0.87448548  0.56085722  1
  O  O67  1  0.65924491  0.62551452  0.06085722  1
  O  O68  1  0.47486935  0.26432639  0.39396170  1
  O  O69  1  0.97486935  0.23567361  0.89396170  1
  O  O70  1  0.52513065  0.73567361  0.60603830  1
  O  O71  1  0.02513065  0.76432639  0.10603830  1
  O  O72  1  0.80843063  0.42358988  0.43834484  1
  O  O73  1  0.30843063  0.07641012  0.93834484  1
  O  O74  1  0.19156937  0.57641012  0.56165516  1
  O  O75  1  0.69156937  0.92358988  0.06165516  1
  O  O76  1  0.61864766  0.12367252  0.25354479  1
  O  O77  1  0.11864766  0.37632748  0.75354479  1
  O  O78  1  0.38135234  0.87632748  0.74645521  1
  O  O79  1  0.88135234  0.62367252  0.24645521  1
  O  O80  1  0.61652378  0.41940813  0.24029718  1
  O  O81  1  0.11652378  0.08059187  0.74029718  1
  O  O82  1  0.38347622  0.58059187  0.75970282  1
  O  O83  1  0.88347622  0.91940813  0.25970282  1
