# generated using pymatgen
data_Y2Al3Fe14
_symmetry_space_group_name_H-M   'P 1'
_cell_length_a   8.21028290
_cell_length_b   8.54911283
_cell_length_c   8.54911283
_cell_angle_alpha   119.99464792
_cell_angle_beta   90.00000000
_cell_angle_gamma   90.00000000
_symmetry_Int_Tables_number   1
_chemical_formula_structural   Y2Al3Fe14
_chemical_formula_sum   'Y4 Al6 Fe28'
_cell_volume   519.70185997
_cell_formula_units_Z   2
loop_
 _symmetry_equiv_pos_site_id
 _symmetry_equiv_pos_as_xyz
  1  'x, y, z'
loop_
 _atom_site_type_symbol
 _atom_site_label
 _atom_site_symmetry_multiplicity
 _atom_site_fract_x
 _atom_site_fract_y
 _atom_site_fract_z
 _atom_site_occupancy
  Y  Y0  1  0.75000000  0.99996485  0.00003515  1
  Y  Y1  1  0.25000000  0.00003515  0.99996485  1
  Y  Y2  1  0.25000000  0.66653141  0.33346859  1
  Y  Y3  1  0.75000000  0.33346859  0.66653141  1
  Al  Al4  1  0.50000000  0.50000000  0.00000000  1
  Al  Al5  1  0.50000000  0.50000000  0.50000000  1
  Al  Al6  1  0.50000000  -0.00000000  0.50000000  1
  Al  Al7  1  -0.00000000  0.50000000  0.00000000  1
  Al  Al8  1  -0.00000000  0.50000000  0.50000000  1
  Al  Al9  1  -0.00000000  -0.00000000  0.50000000  1
  Fe  Fe10  1  0.61157398  0.66665743  0.33334257  1
  Fe  Fe11  1  0.38842602  0.33334257  0.66665743  1
  Fe  Fe12  1  0.11157398  0.33334257  0.66665743  1
  Fe  Fe13  1  0.88842602  0.66665743  0.33334257  1
  Fe  Fe14  1  0.75000000  0.67698038  0.02954395  1
  Fe  Fe15  1  0.75000000  0.35267617  0.32301766  1
  Fe  Fe16  1  0.75000000  0.97020468  0.64718795  1
  Fe  Fe17  1  0.75000000  0.35281205  0.02979532  1
  Fe  Fe18  1  0.75000000  0.97045605  0.32301962  1
  Fe  Fe19  1  0.75000000  0.67698234  0.64732383  1
  Fe  Fe20  1  0.25000000  0.32301962  0.97045605  1
  Fe  Fe21  1  0.25000000  0.64732383  0.67698234  1
  Fe  Fe22  1  0.25000000  0.02979532  0.35281205  1
  Fe  Fe23  1  0.25000000  0.64718795  0.97020468  1
  Fe  Fe24  1  0.25000000  0.02954395  0.67698038  1
  Fe  Fe25  1  0.25000000  0.32301766  0.35267617  1
  Fe  Fe26  1  0.48809381  0.83391337  0.66799486  1
  Fe  Fe27  1  0.48838524  0.83399577  0.16600423  1
  Fe  Fe28  1  0.48809381  0.33200514  0.16608663  1
  Fe  Fe29  1  0.51190619  0.16608663  0.33200514  1
  Fe  Fe30  1  0.51161476  0.16600423  0.83399577  1
  Fe  Fe31  1  0.51190619  0.66799486  0.83391337  1
  Fe  Fe32  1  0.98809381  0.16608663  0.33200514  1
  Fe  Fe33  1  0.98838524  0.16600423  0.83399577  1
  Fe  Fe34  1  0.98809381  0.66799486  0.83391337  1
  Fe  Fe35  1  0.01190619  0.83391337  0.66799486  1
  Fe  Fe36  1  0.01161476  0.83399577  0.16600423  1
  Fe  Fe37  1  0.01190619  0.33200514  0.16608663  1
