# generated using pymatgen
data_La2P3(HO3)3
_symmetry_space_group_name_H-M   'P 1'
_cell_length_a   7.11930459
_cell_length_b   8.41220469
_cell_length_c   14.89649749
_cell_angle_alpha   90.00000000
_cell_angle_beta   90.00000000
_cell_angle_gamma   90.00000000
_symmetry_Int_Tables_number   1
_chemical_formula_structural   La2P3(HO3)3
_chemical_formula_sum   'La8 P12 H12 O36'
_cell_volume   892.13704519
_cell_formula_units_Z   4
loop_
 _symmetry_equiv_pos_site_id
 _symmetry_equiv_pos_as_xyz
  1  'x, y, z'
loop_
 _atom_site_type_symbol
 _atom_site_label
 _atom_site_symmetry_multiplicity
 _atom_site_fract_x
 _atom_site_fract_y
 _atom_site_fract_z
 _atom_site_occupancy
  La  La0  1  0.34676987  0.29906082  0.42578745  1
  La  La1  1  0.15323013  0.79906082  0.07421255  1
  La  La2  1  0.65323013  0.70093918  0.92578745  1
  La  La3  1  0.84676987  0.20093918  0.57421255  1
  La  La4  1  0.65323013  0.70093918  0.57421255  1
  La  La5  1  0.84676987  0.20093918  0.92578745  1
  La  La6  1  0.34676987  0.29906082  0.07421255  1
  La  La7  1  0.15323013  0.79906082  0.42578745  1
  P  P8  1  0.33674842  0.04814937  0.59935517  1
  P  P9  1  0.16325158  0.54814937  0.90064483  1
  P  P10  1  0.66325158  0.95185063  0.09935517  1
  P  P11  1  0.83674842  0.45185063  0.40064483  1
  P  P12  1  0.66325158  0.95185063  0.40064483  1
  P  P13  1  0.83674842  0.45185063  0.09935517  1
  P  P14  1  0.33674842  0.04814937  0.90064483  1
  P  P15  1  0.16325158  0.54814937  0.59935517  1
  P  P16  1  0.11504000  0.03194964  0.25000000  1
  P  P17  1  0.38496000  0.53194964  0.25000000  1
  P  P18  1  0.88496000  0.96805036  0.75000000  1
  P  P19  1  0.61504000  0.46805036  0.75000000  1
  H  H20  1  0.26594459  0.09800342  0.68276692  1
  H  H21  1  0.23405541  0.59800342  0.81723308  1
  H  H22  1  0.73405541  0.90199658  0.18276692  1
  H  H23  1  0.76594459  0.40199658  0.31723308  1
  H  H24  1  0.73405541  0.90199658  0.31723308  1
  H  H25  1  0.76594459  0.40199658  0.18276692  1
  H  H26  1  0.26594459  0.09800342  0.81723308  1
  H  H27  1  0.23405541  0.59800342  0.68276692  1
  H  H28  1  0.94147979  0.11388342  0.25000000  1
  H  H29  1  0.55852021  0.61388342  0.25000000  1
  H  H30  1  0.05852021  0.88611658  0.75000000  1
  H  H31  1  0.44147979  0.38611658  0.75000000  1
  O  O32  1  0.21456146  0.07311911  0.33871146  1
  O  O33  1  0.28543854  0.57311911  0.16128854  1
  O  O34  1  0.78543854  0.92688089  0.83871146  1
  O  O35  1  0.71456146  0.42688089  0.66128854  1
  O  O36  1  0.78543854  0.92688089  0.66128854  1
  O  O37  1  0.71456146  0.42688089  0.83871146  1
  O  O38  1  0.21456146  0.07311911  0.16128854  1
  O  O39  1  0.28543854  0.57311911  0.33871146  1
  O  O40  1  0.10652007  0.37443074  0.89139900  1
  O  O41  1  0.39347993  0.87443074  0.60860100  1
  O  O42  1  0.89347993  0.62556926  0.39139900  1
  O  O43  1  0.60652007  0.12556926  0.10860100  1
  O  O44  1  0.89347993  0.62556926  0.10860100  1
  O  O45  1  0.60652007  0.12556926  0.39139900  1
  O  O46  1  0.10652007  0.37443074  0.60860100  1
  O  O47  1  0.39347993  0.87443074  0.89139900  1
  O  O48  1  0.49520355  0.16351241  0.57102254  1
  O  O49  1  0.00479645  0.66351241  0.92897746  1
  O  O50  1  0.50479645  0.83648759  0.07102254  1
  O  O51  1  0.99520355  0.33648759  0.42897746  1
  O  O52  1  0.50479645  0.83648759  0.42897746  1
  O  O53  1  0.99520355  0.33648759  0.07102254  1
  O  O54  1  0.49520355  0.16351241  0.92897746  1
  O  O55  1  0.00479645  0.66351241  0.57102254  1
  O  O56  1  0.17391157  0.06446438  0.52932715  1
  O  O57  1  0.32608843  0.56446438  0.97067285  1
  O  O58  1  0.82608843  0.93553562  0.02932715  1
  O  O59  1  0.67391157  0.43553562  0.47067285  1
  O  O60  1  0.82608843  0.93553562  0.47067285  1
  O  O61  1  0.67391157  0.43553562  0.02932715  1
  O  O62  1  0.17391157  0.06446438  0.97067285  1
  O  O63  1  0.32608843  0.56446438  0.52932715  1
  O  O64  1  0.07993595  0.85090789  0.25000000  1
  O  O65  1  0.42006405  0.35090789  0.25000000  1
  O  O66  1  0.92006405  0.14909211  0.75000000  1
  O  O67  1  0.57993595  0.64909211  0.75000000  1
