# generated using pymatgen
data_H12C6S(N5O3)2
_symmetry_space_group_name_H-M   'P 1'
_cell_length_a   7.02467425
_cell_length_b   10.61516643
_cell_length_c   20.29197198
_cell_angle_alpha   90.00000000
_cell_angle_beta   90.00000000
_cell_angle_gamma   102.45921824
_symmetry_Int_Tables_number   1
_chemical_formula_structural   H12C6S(N5O3)2
_chemical_formula_sum   'H48 C24 S4 N40 O24'
_cell_volume   1477.49894493
_cell_formula_units_Z   4
loop_
 _symmetry_equiv_pos_site_id
 _symmetry_equiv_pos_as_xyz
  1  'x, y, z'
loop_
 _atom_site_type_symbol
 _atom_site_label
 _atom_site_symmetry_multiplicity
 _atom_site_fract_x
 _atom_site_fract_y
 _atom_site_fract_z
 _atom_site_occupancy
  H  H0  1  0.19925025  0.27787426  0.37905379  1
  H  H1  1  0.69925025  0.77787426  0.12094621  1
  H  H2  1  0.80074975  0.72212574  0.62094621  1
  H  H3  1  0.30074975  0.22212574  0.87905379  1
  H  H4  1  0.45320384  0.34704655  0.37357651  1
  H  H5  1  0.95320384  0.84704655  0.12642349  1
  H  H6  1  0.54679616  0.65295345  0.62642349  1
  H  H7  1  0.04679616  0.15295345  0.87357651  1
  H  H8  1  0.91408561  0.52463204  0.07482592  1
  H  H9  1  0.41408561  0.02463204  0.42517408  1
  H  H10  1  0.08591439  0.47536796  0.92517408  1
  H  H11  1  0.58591439  0.97536796  0.57482592  1
  H  H12  1  0.79375168  0.45648861  0.00275744  1
  H  H13  1  0.29375168  0.95648861  0.49724256  1
  H  H14  1  0.20624832  0.54351139  0.99724256  1
  H  H15  1  0.70624832  0.04351139  0.50275744  1
  H  H16  1  0.82867067  0.13981536  0.00761070  1
  H  H17  1  0.32867067  0.63981536  0.49238930  1
  H  H18  1  0.17132933  0.86018464  0.99238930  1
  H  H19  1  0.67132933  0.36018464  0.50761070  1
  H  H20  1  0.69961113  0.09914028  0.08414063  1
  H  H21  1  0.19961113  0.59914028  0.41585937  1
  H  H22  1  0.30038887  0.90085972  0.91585937  1
  H  H23  1  0.80038887  0.40085972  0.58414063  1
  H  H24  1  0.01587065  0.23565709  0.28080712  1
  H  H25  1  0.51587065  0.73565709  0.21919288  1
  H  H26  1  0.98412935  0.76434291  0.71919288  1
  H  H27  1  0.48412935  0.26434291  0.78080712  1
  H  H28  1  0.48416676  0.32908495  0.00427197  1
  H  H29  1  0.98416676  0.82908495  0.49572803  1
  H  H30  1  0.51583324  0.67091505  0.99572803  1
  H  H31  1  0.01583324  0.17091505  0.50427197  1
  H  H32  1  0.87614510  0.51231921  0.21520132  1
  H  H33  1  0.37614510  0.01231921  0.28479868  1
  H  H34  1  0.12385490  0.48768079  0.78479868  1
  H  H35  1  0.62385490  0.98768079  0.71520132  1
  H  H36  1  0.09414746  0.59822072  0.21684235  1
  H  H37  1  0.59414746  0.09822072  0.28315765  1
  H  H38  1  0.90585254  0.40177928  0.78315765  1
  H  H39  1  0.40585254  0.90177928  0.71684235  1
  H  H40  1  0.98207038  0.55155543  0.32834781  1
  H  H41  1  0.48207038  0.05155543  0.17165219  1
  H  H42  1  0.01792962  0.44844457  0.67165219  1
  H  H43  1  0.51792962  0.94844457  0.82834781  1
  H  H44  1  0.89451976  0.47451635  0.39192824  1
  H  H45  1  0.39451976  0.97451635  0.10807176  1
  H  H46  1  0.10548024  0.52548365  0.60807176  1
  H  H47  1  0.60548024  0.02548365  0.89192824  1
  C  C48  1  0.13801072  0.25765641  0.18747398  1
  C  C49  1  0.63801072  0.75765641  0.31252602  1
  C  C50  1  0.86198928  0.74234359  0.81252602  1
  C  C51  1  0.36198928  0.24234359  0.68747398  1
  C  C52  1  0.47779764  0.37848097  0.18833190  1
  C  C53  1  0.97779764  0.87848097  0.31166810  1
  C  C54  1  0.52220236  0.62151903  0.81166810  1
  C  C55  1  0.02220236  0.12151903  0.68833190  1
  C  C56  1  0.30600911  0.29818201  0.08621827  1
  C  C57  1  0.80600911  0.79818201  0.41378173  1
  C  C58  1  0.69399089  0.70181799  0.91378173  1
  C  C59  1  0.19399089  0.20181799  0.58621827  1
  C  C60  1  0.31667238  0.32477307  0.28595236  1
  C  C61  1  0.81667238  0.82477307  0.21404764  1
  C  C62  1  0.68332762  0.67522693  0.71404764  1
  C  C63  1  0.18332762  0.17522693  0.78595236  1
  C  C64  1  0.63381718  0.42094690  0.08844366  1
  C  C65  1  0.13381718  0.92094690  0.41155634  1
  C  C66  1  0.36618282  0.57905310  0.91155634  1
  C  C67  1  0.86618282  0.07905310  0.58844366  1
  C  C68  1  0.98941730  0.19062646  0.09004676  1
  C  C69  1  0.48941730  0.69062646  0.40995324  1
  C  C70  1  0.01058270  0.80937354  0.90995324  1
  C  C71  1  0.51058270  0.30937354  0.59004676  1
  S  S72  1  0.79861450  0.20253095  0.39693790  1
  S  S73  1  0.29861450  0.70253095  0.10306210  1
  S  S74  1  0.20138550  0.79746905  0.60306210  1
  S  S75  1  0.70138550  0.29746905  0.89693790  1
  N  N76  1  0.30821265  0.31344324  0.15414125  1
  N  N77  1  0.80821265  0.81344324  0.34585875  1
  N  N78  1  0.69178735  0.68655676  0.84585875  1
  N  N79  1  0.19178735  0.18655676  0.65414125  1
  N  N80  1  0.14571833  0.27033922  0.25386907  1
  N  N81  1  0.64571833  0.77033922  0.24613093  1
  N  N82  1  0.85428167  0.72966078  0.74613093  1
  N  N83  1  0.35428167  0.22966078  0.75386907  1
  N  N84  1  0.47846556  0.38176977  0.25328530  1
  N  N85  1  0.97846556  0.88176977  0.24671470  1
  N  N86  1  0.52153444  0.61823023  0.74671470  1
  N  N87  1  0.02153444  0.11823023  0.75328530  1
  N  N88  1  0.63515787  0.43491594  0.15426197  1
  N  N89  1  0.13515787  0.93491594  0.34573803  1
  N  N90  1  0.36484213  0.56508406  0.84573803  1
  N  N91  1  0.86484213  0.06508406  0.65426197  1
  N  N92  1  0.47474877  0.35059119  0.05513345  1
  N  N93  1  0.97474877  0.85059119  0.44486655  1
  N  N94  1  0.52525123  0.64940881  0.94486655  1
  N  N95  1  0.02525123  0.14940881  0.55513345  1
  N  N96  1  0.15246755  0.23936533  0.05343239  1
  N  N97  1  0.65246755  0.73936533  0.44656761  1
  N  N98  1  0.84753245  0.76063467  0.94656761  1
  N  N99  1  0.34753245  0.26063467  0.55343239  1
  N  N100  1  0.98054913  0.19644603  0.15737338  1
  N  N101  1  0.48054913  0.69644603  0.34262662  1
  N  N102  1  0.01945087  0.80355397  0.84262662  1
  N  N103  1  0.51945087  0.30355397  0.65737338  1
  N  N104  1  0.32021138  0.31967254  0.35102670  1
  N  N105  1  0.82021138  0.81967254  0.14897330  1
  N  N106  1  0.67978862  0.68032746  0.64897330  1
  N  N107  1  0.17978862  0.18032746  0.85102670  1
  N  N108  1  0.78724083  0.47441114  0.05303081  1
  N  N109  1  0.28724083  0.97441114  0.44696919  1
  N  N110  1  0.21275917  0.52558886  0.94696919  1
  N  N111  1  0.71275917  0.02558886  0.55303081  1
  N  N112  1  0.82960321  0.13451097  0.05816988  1
  N  N113  1  0.32960321  0.63451097  0.44183012  1
  N  N114  1  0.17039679  0.86548903  0.94183012  1
  N  N115  1  0.67039679  0.36548903  0.55816988  1
  O  O116  1  0.72062488  0.31829124  0.41395906  1
  O  O117  1  0.22062488  0.81829124  0.08604094  1
  O  O118  1  0.27937512  0.68170876  0.58604094  1
  O  O119  1  0.77937512  0.18170876  0.91395906  1
  O  O120  1  0.99598425  0.21359068  0.42803272  1
  O  O121  1  0.49598425  0.71359068  0.07196728  1
  O  O122  1  0.00401575  0.78640932  0.57196728  1
  O  O123  1  0.50401575  0.28640932  0.92803272  1
  O  O124  1  0.81704397  0.18950530  0.32423745  1
  O  O125  1  0.31704397  0.68950530  0.17576255  1
  O  O126  1  0.18295603  0.81049470  0.67576255  1
  O  O127  1  0.68295603  0.31049470  0.82423745  1
  O  O128  1  0.66709840  0.08275312  0.42251434  1
  O  O129  1  0.16709840  0.58275312  0.07748566  1
  O  O130  1  0.33290160  0.91724688  0.57748566  1
  O  O131  1  0.83290160  0.41724688  0.92251434  1
  O  O132  1  0.98751205  0.54773987  0.24383565  1
  O  O133  1  0.48751205  0.04773987  0.25616435  1
  O  O134  1  0.01248795  0.45226013  0.75616435  1
  O  O135  1  0.51248795  0.95226013  0.74383565  1
  O  O136  1  0.97675930  0.55720861  0.37737346  1
  O  O137  1  0.47675930  0.05720861  0.12262654  1
  O  O138  1  0.02324070  0.44279139  0.62262654  1
  O  O139  1  0.52324070  0.94279139  0.87737346  1
