# generated using pymatgen
data_LiB2H11N2
_symmetry_space_group_name_H-M   'P 1'
_cell_length_a   5.17991610
_cell_length_b   7.11971745
_cell_length_c   15.04129010
_cell_angle_alpha   90.00000000
_cell_angle_beta   90.00000000
_cell_angle_gamma   96.92590912
_symmetry_Int_Tables_number   1
_chemical_formula_structural   LiB2H11N2
_chemical_formula_sum   'Li4 B8 H44 N8'
_cell_volume   550.66803644
_cell_formula_units_Z   4
loop_
 _symmetry_equiv_pos_site_id
 _symmetry_equiv_pos_as_xyz
  1  'x, y, z'
loop_
 _atom_site_type_symbol
 _atom_site_label
 _atom_site_symmetry_multiplicity
 _atom_site_fract_x
 _atom_site_fract_y
 _atom_site_fract_z
 _atom_site_occupancy
  Li  Li0  1  0.70733744  0.08641388  0.08021625  1
  Li  Li1  1  0.79266256  0.91358612  0.58021625  1
  Li  Li2  1  0.29266256  0.91358612  0.91978375  1
  Li  Li3  1  0.20733744  0.08641388  0.41978375  1
  B  B4  1  0.87289580  0.57687076  0.64533470  1
  B  B5  1  0.62710420  0.42312924  0.14533470  1
  B  B6  1  0.12710420  0.42312924  0.35466530  1
  B  B7  1  0.37289580  0.57687076  0.85466530  1
  B  B8  1  0.25956009  0.05440045  0.58714776  1
  B  B9  1  0.24043991  0.94559955  0.08714776  1
  B  B10  1  0.74043991  0.94559955  0.41285224  1
  B  B11  1  0.75956009  0.05440045  0.91285224  1
  H  H12  1  0.88808467  0.72269061  0.68911696  1
  H  H13  1  0.61191533  0.27730939  0.18911696  1
  H  H14  1  0.11191533  0.27730939  0.31088304  1
  H  H15  1  0.38808467  0.72269061  0.81088304  1
  H  H16  1  0.75116797  0.44553800  0.68533493  1
  H  H17  1  0.74883203  0.55446200  0.18533493  1
  H  H18  1  0.24883203  0.55446200  0.31466507  1
  H  H19  1  0.25116797  0.44553800  0.81466507  1
  H  H20  1  0.77313516  0.59677951  0.57281925  1
  H  H21  1  0.72686484  0.40322049  0.07281925  1
  H  H22  1  0.22686484  0.40322049  0.42718075  1
  H  H23  1  0.27313516  0.59677951  0.92718075  1
  H  H24  1  0.57493747  0.12821940  0.67565590  1
  H  H25  1  0.92506253  0.87178060  0.17565590  1
  H  H26  1  0.42506253  0.87178060  0.32434410  1
  H  H27  1  0.07493747  0.12821940  0.82434410  1
  H  H28  1  0.42090202  0.92368962  0.69918959  1
  H  H29  1  0.07909798  0.07631038  0.19918959  1
  H  H30  1  0.57909798  0.07631038  0.30081041  1
  H  H31  1  0.92090202  0.92368962  0.80081041  1
  H  H32  1  0.16729629  0.39548504  0.60233776  1
  H  H33  1  0.33270371  0.60451496  0.10233776  1
  H  H34  1  0.83270371  0.60451496  0.39766224  1
  H  H35  1  0.66729629  0.39548504  0.89766224  1
  H  H36  1  0.26774679  0.62459384  0.59073790  1
  H  H37  1  0.23225321  0.37540616  0.09073790  1
  H  H38  1  0.73225321  0.37540616  0.40926210  1
  H  H39  1  0.76774679  0.62459384  0.90926210  1
  H  H40  1  0.25674974  0.52579190  0.69073283  1
  H  H41  1  0.24325026  0.47420810  0.19073283  1
  H  H42  1  0.74325026  0.47420810  0.30926717  1
  H  H43  1  0.75674974  0.52579190  0.80926717  1
  H  H44  1  0.17658148  0.91609044  0.54003041  1
  H  H45  1  0.32341852  0.08390956  0.04003041  1
  H  H46  1  0.82341852  0.08390956  0.45996959  1
  H  H47  1  0.67658148  0.91609044  0.95996959  1
  H  H48  1  0.33893815  0.18599150  0.53677718  1
  H  H49  1  0.16106185  0.81400850  0.03677718  1
  H  H50  1  0.66106185  0.81400850  0.46322282  1
  H  H51  1  0.83893815  0.18599150  0.96322282  1
  H  H52  1  0.07101969  0.10379597  0.62895397  1
  H  H53  1  0.42898031  0.89620403  0.12895397  1
  H  H54  1  0.92898031  0.89620403  0.37104603  1
  H  H55  1  0.57101969  0.10379597  0.87104603  1
  N  N56  1  0.16172432  0.52701042  0.63044855  1
  N  N57  1  0.33827568  0.47298958  0.13044855  1
  N  N58  1  0.83827568  0.47298958  0.36955145  1
  N  N59  1  0.66172432  0.52701042  0.86955145  1
  N  N60  1  0.48705983  0.00670210  0.64639652  1
  N  N61  1  0.01294017  0.99329790  0.14639652  1
  N  N62  1  0.51294017  0.99329790  0.35360348  1
  N  N63  1  0.98705983  0.00670210  0.85360348  1
