# generated using pymatgen
data_Dy4B4O11F2
_symmetry_space_group_name_H-M   'P 1'
_cell_length_a   4.62780660
_cell_length_b   7.14732388
_cell_length_c   13.67043055
_cell_angle_alpha   91.24518997
_cell_angle_beta   90.00000000
_cell_angle_gamma   108.88949861
_symmetry_Int_Tables_number   1
_chemical_formula_structural   Dy4B4O11F2
_chemical_formula_sum   'Dy8 B8 O22 F4'
_cell_volume   427.70452266
_cell_formula_units_Z   2
loop_
 _symmetry_equiv_pos_site_id
 _symmetry_equiv_pos_as_xyz
  1  'x, y, z'
loop_
 _atom_site_type_symbol
 _atom_site_label
 _atom_site_symmetry_multiplicity
 _atom_site_fract_x
 _atom_site_fract_y
 _atom_site_fract_z
 _atom_site_occupancy
  Dy  Dy0  1  0.45866315  0.88216025  0.12982117  1
  Dy  Dy1  1  0.57650289  0.11783975  0.37017883  1
  Dy  Dy2  1  0.54133685  0.11783975  0.87017883  1
  Dy  Dy3  1  0.42349711  0.88216025  0.62982117  1
  Dy  Dy4  1  0.73433104  0.43896589  0.13037776  1
  Dy  Dy5  1  0.29536516  0.56103411  0.36962224  1
  Dy  Dy6  1  0.26566896  0.56103411  0.86962224  1
  Dy  Dy7  1  0.70463484  0.43896589  0.63037776  1
  B  B8  1  0.06807737  0.18734474  0.21367604  1
  B  B9  1  0.88073264  0.81265526  0.28632396  1
  B  B10  1  0.93192263  0.81265526  0.78632396  1
  B  B11  1  0.11926736  0.18734474  0.71367604  1
  B  B12  1  0.86142459  0.80784112  0.97716102  1
  B  B13  1  0.05358347  0.19215888  0.52283898  1
  B  B14  1  0.13857541  0.19215888  0.02283898  1
  B  B15  1  0.94641653  0.80784112  0.47716102  1
  O  O16  1  0.95004121  0.17588012  0.10485835  1
  O  O17  1  0.77416110  0.82411988  0.39514165  1
  O  O18  1  0.04995879  0.82411988  0.89514165  1
  O  O19  1  0.22583890  0.17588012  0.60485835  1
  O  O20  1  0.63735584  0.64768982  0.24290830  1
  O  O21  1  0.98966601  0.35231018  0.25709170  1
  O  O22  1  0.36264416  0.35231018  0.75709170  1
  O  O23  1  0.01033399  0.64768982  0.74290830  1
  O  O24  1  0.58743392  0.84248070  0.96645849  1
  O  O25  1  0.74495323  0.15751930  0.53354151  1
  O  O26  1  0.41256608  0.15751930  0.03354151  1
  O  O27  1  0.25504677  0.84248070  0.46645849  1
  O  O28  1  0.83987971  0.00000000  0.25000000  1
  O  O29  1  0.16012029  0.00000000  0.75000000  1
  O  O30  1  0.94805617  0.76852117  0.06813655  1
  O  O31  1  0.17953500  0.23147883  0.43186345  1
  O  O32  1  0.05194383  0.23147883  0.93186345  1
  O  O33  1  0.82046500  0.76852117  0.56813655  1
  O  O34  1  0.37912248  0.19673291  0.22364941  1
  O  O35  1  0.18238957  0.80326709  0.27635059  1
  O  O36  1  0.62087752  0.80326709  0.77635059  1
  O  O37  1  0.81761043  0.19673291  0.72364941  1
  F  F38  1  0.29623751  0.53800258  0.07578828  1
  F  F39  1  0.75823493  0.46199742  0.42421172  1
  F  F40  1  0.70376249  0.46199742  0.92421172  1
  F  F41  1  0.24176507  0.53800258  0.57578828  1
