# generated using pymatgen
data_Ce3Mn(Al3Cu)8
_symmetry_space_group_name_H-M   'P 1'
_cell_length_a   8.44730607
_cell_length_b   8.44852402
_cell_length_c   8.44879386
_cell_angle_alpha   90.01593415
_cell_angle_beta   90.00025419
_cell_angle_gamma   89.99714459
_symmetry_Int_Tables_number   1
_chemical_formula_structural   Ce3Mn(Al3Cu)8
_chemical_formula_sum   'Ce3 Mn1 Al24 Cu8'
_cell_volume   602.96731423
_cell_formula_units_Z   1
loop_
 _symmetry_equiv_pos_site_id
 _symmetry_equiv_pos_as_xyz
  1  'x, y, z'
loop_
 _atom_site_type_symbol
 _atom_site_label
 _atom_site_symmetry_multiplicity
 _atom_site_fract_x
 _atom_site_fract_y
 _atom_site_fract_z
 _atom_site_occupancy
  Ce  Ce0  1  0.00001393  0.99998666  0.49999921  1
  Ce  Ce1  1  0.50000216  0.99999161  0.00000070  1
  Ce  Ce2  1  0.00000784  0.49999927  0.00000272  1
  Mn  Mn3  1  0.49980627  0.50014573  0.49998898  1
  Al  Al4  1  -0.00000016  0.33640032  0.33638954  1
  Al  Al5  1  0.27108041  0.27112167  0.50000846  1
  Al  Al6  1  0.66357323  0.33635325  -0.00000021  1
  Al  Al7  1  0.66355993  0.66362328  0.00000102  1
  Al  Al8  1  0.33643881  0.66363735  0.00000650  1
  Al  Al9  1  0.00000801  0.33637323  0.66363805  1
  Al  Al10  1  0.66358746  0.99999737  0.66363971  1
  Al  Al11  1  0.66358728  0.00000103  0.33636121  1
  Al  Al12  1  0.72892367  0.27112392  0.50001069  1
  Al  Al13  1  0.33644860  0.33636860  0.99999380  1
  Al  Al14  1  0.27109510  0.49999391  0.72869019  1
  Al  Al15  1  0.00000228  0.66359235  0.66360932  1
  Al  Al16  1  0.50000499  0.27102463  0.27119903  1
  Al  Al17  1  0.33642466  0.99999194  0.33636032  1
  Al  Al18  1  0.50000795  0.72897497  0.72880521  1
  Al  Al19  1  0.50001206  0.72897340  0.27119249  1
  Al  Al20  1  0.00000355  0.66361827  0.33636253  1
  Al  Al21  1  0.72891971  0.49999411  0.72869312  1
  Al  Al22  1  0.27108803  0.49999511  0.27130503  1
  Al  Al23  1  0.50000795  0.27102413  0.72880452  1
  Al  Al24  1  0.27108209  0.72887717  0.49999209  1
  Al  Al25  1  0.33642434  -0.00000127  0.66363773  1
  Al  Al26  1  0.72892855  0.72887374  0.49998938  1
  Al  Al27  1  0.72891315  0.49999570  0.27131224  1
  Cu  Cu28  1  0.84539449  0.84539006  0.84540041  1
  Cu  Cu29  1  0.84537982  0.15456520  0.84542067  1
  Cu  Cu30  1  0.15463092  0.15456478  0.84542829  1
  Cu  Cu31  1  0.84537301  0.84541233  0.15458273  1
  Cu  Cu32  1  0.84540739  0.15458457  0.15459522  1
  Cu  Cu33  1  0.15461392  0.84538663  0.84539101  1
  Cu  Cu34  1  0.15462343  0.15461238  0.15461510  1
  Cu  Cu35  1  0.15462512  0.84543261  0.15457298  1
