# generated using pymatgen
data_Rb2U2P3H3O13
_symmetry_space_group_name_H-M   'P 1'
_cell_length_a   11.32524855
_cell_length_b   11.64180143
_cell_length_c   12.87065802
_cell_angle_alpha   90.00000000
_cell_angle_beta   109.78070125
_cell_angle_gamma   90.00000000
_symmetry_Int_Tables_number   1
_chemical_formula_structural   Rb2U2P3H3O13
_chemical_formula_sum   'Rb8 U8 P12 H12 O52'
_cell_volume   1596.81980140
_cell_formula_units_Z   4
loop_
 _symmetry_equiv_pos_site_id
 _symmetry_equiv_pos_as_xyz
  1  'x, y, z'
loop_
 _atom_site_type_symbol
 _atom_site_label
 _atom_site_symmetry_multiplicity
 _atom_site_fract_x
 _atom_site_fract_y
 _atom_site_fract_z
 _atom_site_occupancy
  Rb  Rb0  1  0.13556066  0.61795095  0.46273086  1
  Rb  Rb1  1  0.63556066  0.88204905  0.96273086  1
  Rb  Rb2  1  0.86443934  0.38204905  0.53726914  1
  Rb  Rb3  1  0.36443934  0.11795095  0.03726914  1
  Rb  Rb4  1  0.14849568  0.13737463  0.45114995  1
  Rb  Rb5  1  0.64849568  0.36262537  0.95114995  1
  Rb  Rb6  1  0.85150432  0.86262537  0.54885005  1
  Rb  Rb7  1  0.35150432  0.63737463  0.04885005  1
  U  U8  1  0.25971166  0.88337388  0.26692691  1
  U  U9  1  0.75971166  0.61662612  0.76692691  1
  U  U10  1  0.74028834  0.11662612  0.73307309  1
  U  U11  1  0.24028834  0.38337388  0.23307309  1
  U  U12  1  0.70657037  0.64082519  0.29760061  1
  U  U13  1  0.20657037  0.85917481  0.79760061  1
  U  U14  1  0.29342963  0.35917481  0.70239939  1
  U  U15  1  0.79342963  0.14082519  0.20239939  1
  P  P16  1  0.93336035  0.83867654  0.24712372  1
  P  P17  1  0.43336035  0.66132346  0.74712372  1
  P  P18  1  0.06663965  0.16132346  0.75287628  1
  P  P19  1  0.56663965  0.33867654  0.25287628  1
  P  P20  1  0.57825132  0.94409291  0.27567785  1
  P  P21  1  0.07825132  0.55590709  0.77567785  1
  P  P22  1  0.42174868  0.05590709  0.72432215  1
  P  P23  1  0.92174868  0.44409291  0.22432215  1
  P  P24  1  0.42652987  0.62966636  0.37790473  1
  P  P25  1  0.92652987  0.87033364  0.87790473  1
  P  P26  1  0.57347013  0.37033364  0.62209527  1
  P  P27  1  0.07347013  0.12966636  0.12209527  1
  H  H28  1  0.91425778  0.78538668  0.14397552  1
  H  H29  1  0.41425778  0.71461332  0.64397552  1
  H  H30  1  0.08574222  0.21461332  0.85602448  1
  H  H31  1  0.58574222  0.28538668  0.35602448  1
  H  H32  1  0.59277365  0.01539020  0.36804002  1
  H  H33  1  0.09277365  0.48460980  0.86804002  1
  H  H34  1  0.40722635  0.98460980  0.63195998  1
  H  H35  1  0.90722635  0.51539020  0.13195998  1
  H  H36  1  0.51691984  0.61043428  0.48241830  1
  H  H37  1  0.01691984  0.88956572  0.98241830  1
  H  H38  1  0.48308016  0.38956572  0.51758170  1
  H  H39  1  0.98308016  0.11043428  0.01758170  1
  O  O40  1  0.88079802  0.51381632  0.30788604  1
  O  O41  1  0.38079802  0.98618368  0.80788604  1
  O  O42  1  0.11920198  0.48618368  0.69211396  1
  O  O43  1  0.61920198  0.01381632  0.19211396  1
  O  O44  1  0.35548652  0.73995382  0.38916884  1
  O  O45  1  0.85548652  0.76004618  0.88916884  1
  O  O46  1  0.64451348  0.26004618  0.61083116  1
  O  O47  1  0.14451348  0.23995382  0.11083116  1
  O  O48  1  0.65550249  0.83559214  0.32050192  1
  O  O49  1  0.15550249  0.66440786  0.82050192  1
  O  O50  1  0.34449751  0.16440786  0.67949808  1
  O  O51  1  0.84449751  0.33559214  0.17949808  1
  O  O52  1  0.76403902  0.62609378  0.44772436  1
  O  O53  1  0.26403902  0.87390622  0.94772436  1
  O  O54  1  0.23596098  0.37390622  0.55227564  1
  O  O55  1  0.73596098  0.12609378  0.05227564  1
  O  O56  1  0.20924675  0.77665479  0.15731656  1
  O  O57  1  0.70924675  0.72334521  0.65731656  1
  O  O58  1  0.79075325  0.22334521  0.84268344  1
  O  O59  1  0.29075325  0.27665479  0.34268344  1
  O  O60  1  0.07586689  0.85890697  0.30303201  1
  O  O61  1  0.57586689  0.64109303  0.80303201  1
  O  O62  1  0.92413311  0.14109303  0.69696799  1
  O  O63  1  0.42413311  0.35890697  0.19696799  1
  O  O64  1  0.43622656  0.91724724  0.22343538  1
  O  O65  1  0.93622656  0.58275276  0.72343538  1
  O  O66  1  0.56377344  0.08275276  0.77656462  1
  O  O67  1  0.06377344  0.41724724  0.27656462  1
  O  O68  1  0.88725551  0.75611580  0.31830887  1
  O  O69  1  0.38725551  0.74388420  0.81830887  1
  O  O70  1  0.11274449  0.24388420  0.68169113  1
  O  O71  1  0.61274449  0.25611580  0.18169113  1
  O  O72  1  0.30773648  0.98644660  0.37997773  1
  O  O73  1  0.80773648  0.51355340  0.87997773  1
  O  O74  1  0.69226352  0.01355340  0.62002227  1
  O  O75  1  0.19226352  0.48644660  0.12002227  1
  O  O76  1  0.16401481  0.02604716  0.14464854  1
  O  O77  1  0.66401481  0.47395284  0.64464854  1
  O  O78  1  0.83598519  0.97395284  0.85535146  1
  O  O79  1  0.33598519  0.52604716  0.35535146  1
  O  O80  1  0.65157994  0.65657795  0.14717250  1
  O  O81  1  0.15157994  0.84342205  0.64717250  1
  O  O82  1  0.34842006  0.34342205  0.85282750  1
  O  O83  1  0.84842006  0.15657795  0.35282750  1
  O  O84  1  0.86057687  0.95133259  0.21997736  1
  O  O85  1  0.36057687  0.54866741  0.71997736  1
  O  O86  1  0.13942313  0.04866741  0.78002264  1
  O  O87  1  0.63942313  0.45133259  0.28002264  1
  O  O88  1  0.49414869  0.64084364  0.29327147  1
  O  O89  1  0.99414869  0.85915636  0.79327147  1
  O  O90  1  0.50585131  0.35915636  0.70672853  1
  O  O91  1  0.00585131  0.14084364  0.20672853  1
