# generated using pymatgen
data_LuZn5
_symmetry_space_group_name_H-M   'P 1'
_cell_length_a   8.86762318
_cell_length_b   8.86762318
_cell_length_c   8.95402934
_cell_angle_alpha   90.00000000
_cell_angle_beta   90.00000000
_cell_angle_gamma   120.05190616
_symmetry_Int_Tables_number   1
_chemical_formula_structural   LuZn5
_chemical_formula_sum   'Lu6 Zn30'
_cell_volume   609.44737902
_cell_formula_units_Z   6
loop_
 _symmetry_equiv_pos_site_id
 _symmetry_equiv_pos_as_xyz
  1  'x, y, z'
loop_
 _atom_site_type_symbol
 _atom_site_label
 _atom_site_symmetry_multiplicity
 _atom_site_fract_x
 _atom_site_fract_y
 _atom_site_fract_z
 _atom_site_occupancy
  Lu  Lu0  1  0.80460452  0.60930882  0.75000000  1
  Lu  Lu1  1  0.80466105  0.19533895  0.75000000  1
  Lu  Lu2  1  0.39069118  0.19539548  0.75000000  1
  Lu  Lu3  1  0.19539548  0.39069118  0.25000000  1
  Lu  Lu4  1  0.19533895  0.80466105  0.25000000  1
  Lu  Lu5  1  0.60930882  0.80460452  0.25000000  1
  Zn  Zn6  1  -0.00000000  -0.00000000  0.50000000  1
  Zn  Zn7  1  -0.00000000  -0.00000000  0.00000000  1
  Zn  Zn8  1  0.66663557  0.33336443  0.51377665  1
  Zn  Zn9  1  0.33336443  0.66663557  0.48622335  1
  Zn  Zn10  1  0.33336443  0.66663557  0.01377665  1
  Zn  Zn11  1  0.66663557  0.33336443  0.98622335  1
  Zn  Zn12  1  0.50000000  -0.00000000  0.50000000  1
  Zn  Zn13  1  0.50000000  0.50000000  0.50000000  1
  Zn  Zn14  1  -0.00000000  0.50000000  0.50000000  1
  Zn  Zn15  1  0.50000000  -0.00000000  0.00000000  1
  Zn  Zn16  1  0.50000000  0.50000000  0.00000000  1
  Zn  Zn17  1  -0.00000000  0.50000000  0.00000000  1
  Zn  Zn18  1  0.43319507  0.86631851  0.75000000  1
  Zn  Zn19  1  0.43316132  0.56683868  0.75000000  1
  Zn  Zn20  1  0.13368149  0.56680493  0.75000000  1
  Zn  Zn21  1  0.56680493  0.13368149  0.25000000  1
  Zn  Zn22  1  0.56683868  0.43316132  0.25000000  1
  Zn  Zn23  1  0.86631851  0.43319507  0.25000000  1
  Zn  Zn24  1  0.15926838  0.31857604  0.59118280  1
  Zn  Zn25  1  0.15927421  0.84072579  0.59116387  1
  Zn  Zn26  1  0.68142396  0.84073162  0.59118280  1
  Zn  Zn27  1  0.84073162  0.68142396  0.40881720  1
  Zn  Zn28  1  0.84072579  0.15927421  0.40883613  1
  Zn  Zn29  1  0.31857604  0.15926838  0.40881720  1
  Zn  Zn30  1  0.84073162  0.68142396  0.09118280  1
  Zn  Zn31  1  0.84072579  0.15927421  0.09116387  1
  Zn  Zn32  1  0.31857604  0.15926838  0.09118280  1
  Zn  Zn33  1  0.15926838  0.31857604  0.90881720  1
  Zn  Zn34  1  0.15927421  0.84072579  0.90883613  1
  Zn  Zn35  1  0.68142396  0.84073162  0.90881720  1
