# generated using pymatgen
data_Pr2Fe6Co8B
_symmetry_space_group_name_H-M   'P 1'
_cell_length_a   8.73294378
_cell_length_b   8.73294378
_cell_length_c   11.87686553
_cell_angle_alpha   90.00000000
_cell_angle_beta   90.00000000
_cell_angle_gamma   90.00000000
_symmetry_Int_Tables_number   1
_chemical_formula_structural   Pr2Fe6Co8B
_chemical_formula_sum   'Pr8 Fe24 Co32 B4'
_cell_volume   905.78091975
_cell_formula_units_Z   4
loop_
 _symmetry_equiv_pos_site_id
 _symmetry_equiv_pos_as_xyz
  1  'x, y, z'
loop_
 _atom_site_type_symbol
 _atom_site_label
 _atom_site_symmetry_multiplicity
 _atom_site_fract_x
 _atom_site_fract_y
 _atom_site_fract_z
 _atom_site_occupancy
  Pr  Pr0  1  0.23054475  0.76945525  0.50000000  1
  Pr  Pr1  1  0.76945525  0.23054475  0.50000000  1
  Pr  Pr2  1  0.26945525  0.26945525  -0.00000000  1
  Pr  Pr3  1  0.73054475  0.73054475  -0.00000000  1
  Pr  Pr4  1  0.64314554  0.64314554  0.50000000  1
  Pr  Pr5  1  0.35685446  0.35685446  0.50000000  1
  Pr  Pr6  1  0.85685446  0.14314554  -0.00000000  1
  Pr  Pr7  1  0.14314554  0.85685446  -0.00000000  1
  Fe  Fe8  1  0.00000000  0.50000000  0.50000000  1
  Fe  Fe9  1  0.50000000  -0.00000000  -0.00000000  1
  Fe  Fe10  1  0.50000000  -0.00000000  0.50000000  1
  Fe  Fe11  1  0.00000000  0.50000000  -0.00000000  1
  Fe  Fe12  1  0.50000000  0.50000000  0.11555511  1
  Fe  Fe13  1  0.00000000  -0.00000000  0.61555511  1
  Fe  Fe14  1  0.50000000  0.50000000  0.88444489  1
  Fe  Fe15  1  0.00000000  -0.00000000  0.38444489  1
  Fe  Fe16  1  0.93281797  0.72312320  0.37043932  1
  Fe  Fe17  1  0.06718203  0.27687680  0.37043932  1
  Fe  Fe18  1  0.56718203  0.22312320  0.87043932  1
  Fe  Fe19  1  0.43281797  0.77687680  0.87043932  1
  Fe  Fe20  1  0.06718203  0.27687680  0.62956068  1
  Fe  Fe21  1  0.93281797  0.72312320  0.62956068  1
  Fe  Fe22  1  0.43281797  0.77687680  0.12956068  1
  Fe  Fe23  1  0.56718203  0.22312320  0.12956068  1
  Fe  Fe24  1  0.72312320  0.93281797  0.37043932  1
  Fe  Fe25  1  0.27687680  0.06718203  0.37043932  1
  Fe  Fe26  1  0.22312320  0.56718203  0.87043932  1
  Fe  Fe27  1  0.77687680  0.43281797  0.87043932  1
  Fe  Fe28  1  0.27687680  0.06718203  0.62956068  1
  Fe  Fe29  1  0.72312320  0.93281797  0.62956068  1
  Fe  Fe30  1  0.77687680  0.43281797  0.12956068  1
  Fe  Fe31  1  0.22312320  0.56718203  0.12956068  1
  Co  Co32  1  0.18230620  0.81769380  0.25144227  1
  Co  Co33  1  0.81769380  0.18230620  0.25144227  1
  Co  Co34  1  0.31769380  0.31769380  0.75144227  1
  Co  Co35  1  0.68230620  0.68230620  0.75144227  1
  Co  Co36  1  0.81769380  0.18230620  0.74855773  1
  Co  Co37  1  0.18230620  0.81769380  0.74855773  1
  Co  Co38  1  0.68230620  0.68230620  0.24855773  1
  Co  Co39  1  0.31769380  0.31769380  0.24855773  1
  Co  Co40  1  0.40038737  0.59961263  0.29069355  1
  Co  Co41  1  0.59961263  0.40038737  0.29069355  1
  Co  Co42  1  0.09961263  0.09961263  0.79069355  1
  Co  Co43  1  0.90038737  0.90038737  0.79069355  1
  Co  Co44  1  0.59961263  0.40038737  0.70930645  1
  Co  Co45  1  0.40038737  0.59961263  0.70930645  1
  Co  Co46  1  0.90038737  0.90038737  0.20930645  1
  Co  Co47  1  0.09961263  0.09961263  0.20930645  1
  Co  Co48  1  0.14063351  0.53592453  0.32129377  1
  Co  Co49  1  0.85936649  0.46407547  0.32129377  1
  Co  Co50  1  0.35936649  0.03592453  0.82129377  1
  Co  Co51  1  0.64063351  0.96407547  0.82129377  1
  Co  Co52  1  0.85936649  0.46407547  0.67870623  1
  Co  Co53  1  0.14063351  0.53592453  0.67870623  1
  Co  Co54  1  0.64063351  0.96407547  0.17870623  1
  Co  Co55  1  0.35936649  0.03592453  0.17870623  1
  Co  Co56  1  0.53592453  0.14063351  0.32129377  1
  Co  Co57  1  0.46407547  0.85936649  0.32129377  1
  Co  Co58  1  0.03592453  0.35936649  0.82129377  1
  Co  Co59  1  0.96407547  0.64063351  0.82129377  1
  Co  Co60  1  0.46407547  0.85936649  0.67870623  1
  Co  Co61  1  0.53592453  0.14063351  0.67870623  1
  Co  Co62  1  0.96407547  0.64063351  0.17870623  1
  Co  Co63  1  0.03592453  0.35936649  0.17870623  1
  B  B64  1  0.87602469  0.87602469  0.50000000  1
  B  B65  1  0.12397531  0.12397531  0.50000000  1
  B  B66  1  0.62397531  0.37602469  -0.00000000  1
  B  B67  1  0.37602469  0.62397531  -0.00000000  1
