# generated using pymatgen
data_Ge
_symmetry_space_group_name_H-M   'P 1'
_cell_length_a   10.92736884
_cell_length_b   10.92736884
_cell_length_c   10.92736884
_cell_angle_alpha   60.00000000
_cell_angle_beta   60.00000000
_cell_angle_gamma   60.00000000
_symmetry_Int_Tables_number   1
_chemical_formula_structural   Ge
_chemical_formula_sum   Ge34
_cell_volume   922.63900324
_cell_formula_units_Z   34
loop_
 _symmetry_equiv_pos_site_id
 _symmetry_equiv_pos_as_xyz
  1  'x, y, z'
loop_
 _atom_site_type_symbol
 _atom_site_label
 _atom_site_symmetry_multiplicity
 _atom_site_fract_x
 _atom_site_fract_y
 _atom_site_fract_z
 _atom_site_occupancy
  Ge  Ge0  1  0.12500000  0.12500000  0.12500000  1
  Ge  Ge1  1  0.87500000  0.87500000  0.87500000  1
  Ge  Ge2  1  0.78290493  0.78290493  0.15128522  1
  Ge  Ge3  1  0.78290493  0.15128522  0.78290493  1
  Ge  Ge4  1  0.15128522  0.78290493  0.78290493  1
  Ge  Ge5  1  0.78290493  0.78290493  0.78290493  1
  Ge  Ge6  1  0.21709507  0.21709507  0.84871478  1
  Ge  Ge7  1  0.21709507  0.84871478  0.21709507  1
  Ge  Ge8  1  0.84871478  0.21709507  0.21709507  1
  Ge  Ge9  1  0.21709507  0.21709507  0.21709507  1
  Ge  Ge10  1  0.62954682  0.62954682  0.23565585  1
  Ge  Ge11  1  0.00525052  0.23565585  0.62954682  1
  Ge  Ge12  1  0.23565585  0.00525052  0.62954682  1
  Ge  Ge13  1  0.62954682  0.62954682  0.00525052  1
  Ge  Ge14  1  0.23565585  0.62954682  0.62954682  1
  Ge  Ge15  1  0.62954682  0.00525052  0.23565585  1
  Ge  Ge16  1  0.62954682  0.23565585  0.00525052  1
  Ge  Ge17  1  0.00525052  0.62954682  0.62954682  1
  Ge  Ge18  1  0.62954682  0.23565585  0.62954682  1
  Ge  Ge19  1  0.23565585  0.62954682  0.00525052  1
  Ge  Ge20  1  0.00525052  0.62954682  0.23565585  1
  Ge  Ge21  1  0.62954682  0.00525052  0.62954682  1
  Ge  Ge22  1  0.37045318  0.37045318  0.76434415  1
  Ge  Ge23  1  0.99474948  0.76434415  0.37045318  1
  Ge  Ge24  1  0.76434415  0.99474948  0.37045318  1
  Ge  Ge25  1  0.37045318  0.37045318  0.99474948  1
  Ge  Ge26  1  0.76434415  0.37045318  0.37045318  1
  Ge  Ge27  1  0.37045318  0.99474948  0.76434415  1
  Ge  Ge28  1  0.37045318  0.76434415  0.99474948  1
  Ge  Ge29  1  0.99474948  0.37045318  0.37045318  1
  Ge  Ge30  1  0.37045318  0.76434415  0.37045318  1
  Ge  Ge31  1  0.76434415  0.37045318  0.99474948  1
  Ge  Ge32  1  0.99474948  0.37045318  0.76434415  1
  Ge  Ge33  1  0.37045318  0.99474948  0.37045318  1
