# generated using pymatgen
data_Pr6Fe13Cu
_symmetry_space_group_name_H-M   'P 1'
_cell_length_a   8.05565758
_cell_length_b   8.05565758
_cell_length_c   12.78155706
_cell_angle_alpha   108.36855196
_cell_angle_beta   108.36855196
_cell_angle_gamma   90.00000000
_symmetry_Int_Tables_number   1
_chemical_formula_structural   Pr6Fe13Cu
_chemical_formula_sum   'Pr12 Fe26 Cu2'
_cell_volume   742.51853805
_cell_formula_units_Z   2
loop_
 _symmetry_equiv_pos_site_id
 _symmetry_equiv_pos_as_xyz
  1  'x, y, z'
loop_
 _atom_site_type_symbol
 _atom_site_label
 _atom_site_symmetry_multiplicity
 _atom_site_fract_x
 _atom_site_fract_y
 _atom_site_fract_z
 _atom_site_occupancy
  Pr  Pr0  1  0.97564465  0.47564465  0.62306526  1
  Pr  Pr1  1  0.64742061  0.14742061  0.62306526  1
  Pr  Pr2  1  0.14742061  0.97564465  0.62306526  1
  Pr  Pr3  1  0.47564465  0.64742061  0.62306526  1
  Pr  Pr4  1  0.02435535  0.52435535  0.37693474  1
  Pr  Pr5  1  0.35257939  0.85257939  0.37693474  1
  Pr  Pr6  1  0.85257939  0.02435535  0.37693474  1
  Pr  Pr7  1  0.52435535  0.35257939  0.37693474  1
  Pr  Pr8  1  0.60976574  0.60976574  0.21953147  1
  Pr  Pr9  1  0.10976574  0.10976574  0.21953147  1
  Pr  Pr10  1  0.39023426  0.39023426  0.78046853  1
  Pr  Pr11  1  0.89023426  0.89023426  0.78046853  1
  Fe  Fe12  1  0.11842991  0.61842991  0.88077202  1
  Fe  Fe13  1  0.76234211  0.26234211  0.88077202  1
  Fe  Fe14  1  0.26234211  0.11842991  0.88077202  1
  Fe  Fe15  1  0.61842991  0.76234211  0.88077202  1
  Fe  Fe16  1  0.88157009  0.38157009  0.11922798  1
  Fe  Fe17  1  0.23765789  0.73765789  0.11922798  1
  Fe  Fe18  1  0.73765789  0.88157009  0.11922798  1
  Fe  Fe19  1  0.38157009  0.23765789  0.11922798  1
  Fe  Fe20  1  0.71104857  0.56689595  0.00000000  1
  Fe  Fe21  1  0.28895143  0.43310405  -0.00000000  1
  Fe  Fe22  1  0.78895143  0.06689595  -0.00000000  1
  Fe  Fe23  1  0.21104857  0.93310405  0.00000000  1
  Fe  Fe24  1  0.56689595  0.28895143  0.00000000  1
  Fe  Fe25  1  0.43310405  0.71104857  -0.00000000  1
  Fe  Fe26  1  0.06689595  0.21104857  0.00000000  1
  Fe  Fe27  1  0.93310405  0.78895143  -0.00000000  1
  Fe  Fe28  1  0.29066198  0.79066198  0.80928605  1
  Fe  Fe29  1  0.51862407  0.01862407  0.80928605  1
  Fe  Fe30  1  0.01862407  0.29066198  0.80928605  1
  Fe  Fe31  1  0.79066198  0.51862407  0.80928605  1
  Fe  Fe32  1  0.70933802  0.20933802  0.19071395  1
  Fe  Fe33  1  0.48137593  0.98137593  0.19071395  1
  Fe  Fe34  1  0.98137593  0.70933802  0.19071395  1
  Fe  Fe35  1  0.20933802  0.48137593  0.19071395  1
  Fe  Fe36  1  -0.00000000  0.50000000  0.00000000  1
  Fe  Fe37  1  0.50000000  -0.00000000  0.00000000  1
  Cu  Cu38  1  0.25000000  0.25000000  0.50000000  1
  Cu  Cu39  1  0.75000000  0.75000000  0.50000000  1
