# generated using pymatgen
data_Zn2CoP2(H2O3)4
_symmetry_space_group_name_H-M   'P 1'
_cell_length_a   5.04934804
_cell_length_b   10.64092614
_cell_length_c   18.99769319
_cell_angle_alpha   90.00000000
_cell_angle_beta   90.00000000
_cell_angle_gamma   90.00000000
_symmetry_Int_Tables_number   1
_chemical_formula_structural   Zn2CoP2(H2O3)4
_chemical_formula_sum   'Zn8 Co4 P8 H32 O48'
_cell_volume   1020.74110713
_cell_formula_units_Z   4
loop_
 _symmetry_equiv_pos_site_id
 _symmetry_equiv_pos_as_xyz
  1  'x, y, z'
loop_
 _atom_site_type_symbol
 _atom_site_label
 _atom_site_symmetry_multiplicity
 _atom_site_fract_x
 _atom_site_fract_y
 _atom_site_fract_z
 _atom_site_occupancy
  Zn  Zn0  1  0.27531289  0.64197478  0.50088251  1
  Zn  Zn1  1  0.22468711  0.14197478  0.99911749  1
  Zn  Zn2  1  0.72468711  0.35802522  0.00088251  1
  Zn  Zn3  1  0.77531289  0.85802522  0.49911749  1
  Zn  Zn4  1  0.72468711  0.35802522  0.49911749  1
  Zn  Zn5  1  0.77531289  0.85802522  0.00088251  1
  Zn  Zn6  1  0.27531289  0.64197478  0.99911749  1
  Zn  Zn7  1  0.22468711  0.14197478  0.50088251  1
  Co  Co8  1  0.06474015  0.26792732  0.75000000  1
  Co  Co9  1  0.43525985  0.76792732  0.75000000  1
  Co  Co10  1  0.93525985  0.73207268  0.25000000  1
  Co  Co11  1  0.56474015  0.23207268  0.25000000  1
  P  P12  1  0.23350944  0.39801387  0.59410659  1
  P  P13  1  0.26649056  0.89801387  0.90589341  1
  P  P14  1  0.76649056  0.60198613  0.09410659  1
  P  P15  1  0.73350944  0.10198613  0.40589341  1
  P  P16  1  0.76649056  0.60198613  0.40589341  1
  P  P17  1  0.73350944  0.10198613  0.09410659  1
  P  P18  1  0.23350944  0.39801387  0.90589341  1
  P  P19  1  0.26649056  0.89801387  0.59410659  1
  H  H20  1  0.62455230  0.39599352  0.79007186  1
  H  H21  1  0.87544770  0.89599352  0.70992814  1
  H  H22  1  0.37544770  0.60400648  0.29007186  1
  H  H23  1  0.12455230  0.10400648  0.20992814  1
  H  H24  1  0.37544770  0.60400648  0.20992814  1
  H  H25  1  0.12455230  0.10400648  0.29007186  1
  H  H26  1  0.62455230  0.39599352  0.70992814  1
  H  H27  1  0.87544770  0.89599352  0.79007186  1
  H  H28  1  0.37072207  0.06685680  0.79047635  1
  H  H29  1  0.12927793  0.56685680  0.70952365  1
  H  H30  1  0.62927793  0.93314320  0.29047635  1
  H  H31  1  0.87072207  0.43314320  0.20952365  1
  H  H32  1  0.62927793  0.93314320  0.20952365  1
  H  H33  1  0.87072207  0.43314320  0.29047635  1
  H  H34  1  0.37072207  0.06685680  0.70952365  1
  H  H35  1  0.12927793  0.56685680  0.79047635  1
  H  H36  1  0.93453856  0.11836201  0.63381130  1
  H  H37  1  0.56546144  0.61836201  0.86618870  1
  H  H38  1  0.06546144  0.88163799  0.13381130  1
  H  H39  1  0.43453856  0.38163799  0.36618870  1
  H  H40  1  0.06546144  0.88163799  0.36618870  1
  H  H41  1  0.43453856  0.38163799  0.13381130  1
  H  H42  1  0.93453856  0.11836201  0.86618870  1
  H  H43  1  0.56546144  0.61836201  0.63381130  1
  H  H44  1  0.69727469  0.21279913  0.65314342  1
  H  H45  1  0.80272531  0.71279913  0.84685658  1
  H  H46  1  0.30272531  0.78720087  0.15314342  1
  H  H47  1  0.19727469  0.28720087  0.34685658  1
  H  H48  1  0.30272531  0.78720087  0.34685658  1
  H  H49  1  0.19727469  0.28720087  0.15314342  1
  H  H50  1  0.69727469  0.21279913  0.84685658  1
  H  H51  1  0.80272531  0.71279913  0.65314342  1
  O  O52  1  0.29915121  0.35917779  0.66981681  1
  O  O53  1  0.20084879  0.85917779  0.83018319  1
  O  O54  1  0.70084879  0.64082221  0.16981681  1
  O  O55  1  0.79915121  0.14082221  0.33018319  1
  O  O56  1  0.70084879  0.64082221  0.33018319  1
  O  O57  1  0.79915121  0.14082221  0.16981681  1
  O  O58  1  0.29915121  0.35917779  0.83018319  1
  O  O59  1  0.20084879  0.85917779  0.66981681  1
  O  O60  1  0.35196208  0.53158060  0.57991796  1
  O  O61  1  0.14803792  0.03158060  0.92008204  1
  O  O62  1  0.64803792  0.46841940  0.07991796  1
  O  O63  1  0.85196208  0.96841940  0.42008204  1
  O  O64  1  0.64803792  0.46841940  0.42008204  1
  O  O65  1  0.85196208  0.96841940  0.07991796  1
  O  O66  1  0.35196208  0.53158060  0.92008204  1
  O  O67  1  0.14803792  0.03158060  0.57991796  1
  O  O68  1  0.06703447  0.60226578  0.41953350  1
  O  O69  1  0.43296553  0.10226578  0.08046650  1
  O  O70  1  0.93296553  0.39773422  0.91953350  1
  O  O71  1  0.56703447  0.89773422  0.58046650  1
  O  O72  1  0.93296553  0.39773422  0.58046650  1
  O  O73  1  0.56703447  0.89773422  0.91953350  1
  O  O74  1  0.06703447  0.60226578  0.08046650  1
  O  O75  1  0.43296553  0.10226578  0.41953350  1
  O  O76  1  0.62769363  0.69490305  0.46050554  1
  O  O77  1  0.87230637  0.19490305  0.03949446  1
  O  O78  1  0.37230637  0.30509695  0.96050554  1
  O  O79  1  0.12769363  0.80509695  0.53949446  1
  O  O80  1  0.37230637  0.30509695  0.53949446  1
  O  O81  1  0.12769363  0.80509695  0.96050554  1
  O  O82  1  0.62769363  0.69490305  0.03949446  1
  O  O83  1  0.87230637  0.19490305  0.46050554  1
  O  O84  1  0.75043841  0.39704412  0.75000000  1
  O  O85  1  0.74956159  0.89704412  0.75000000  1
  O  O86  1  0.24956159  0.60295588  0.25000000  1
  O  O87  1  0.25043841  0.10295588  0.25000000  1
  O  O88  1  0.33990562  0.12121377  0.75000000  1
  O  O89  1  0.16009438  0.62121377  0.75000000  1
  O  O90  1  0.66009438  0.87878623  0.25000000  1
  O  O91  1  0.83990562  0.37878623  0.25000000  1
  O  O92  1  0.84832983  0.16688227  0.67205662  1
  O  O93  1  0.65167017  0.66688227  0.82794338  1
  O  O94  1  0.15167017  0.83311773  0.17205662  1
  O  O95  1  0.34832983  0.33311773  0.32794338  1
  O  O96  1  0.15167017  0.83311773  0.32794338  1
  O  O97  1  0.34832983  0.33311773  0.17205662  1
  O  O98  1  0.84832983  0.16688227  0.82794338  1
  O  O99  1  0.65167017  0.66688227  0.67205662  1
