# generated using pymatgen
data_NaUH9(SeO6)2
_symmetry_space_group_name_H-M   'P 1'
_cell_length_a   8.97862225
_cell_length_b   10.58194344
_cell_length_c   13.21743114
_cell_angle_alpha   90.00000000
_cell_angle_beta   104.16718441
_cell_angle_gamma   90.00000000
_symmetry_Int_Tables_number   1
_chemical_formula_structural   NaUH9(SeO6)2
_chemical_formula_sum   'Na4 U4 H36 Se8 O48'
_cell_volume   1217.61051275
_cell_formula_units_Z   4
loop_
 _symmetry_equiv_pos_site_id
 _symmetry_equiv_pos_as_xyz
  1  'x, y, z'
loop_
 _atom_site_type_symbol
 _atom_site_label
 _atom_site_symmetry_multiplicity
 _atom_site_fract_x
 _atom_site_fract_y
 _atom_site_fract_z
 _atom_site_occupancy
  Na  Na0  1  0.58901770  0.42418913  0.72390965  1
  Na  Na1  1  0.08901770  0.07581087  0.22390965  1
  Na  Na2  1  0.41098230  0.57581087  0.27609035  1
  Na  Na3  1  0.91098230  0.92418913  0.77609035  1
  U  U4  1  0.21421438  0.68116461  0.65991731  1
  U  U5  1  0.71421438  0.81883539  0.15991731  1
  U  U6  1  0.78578562  0.31883539  0.34008269  1
  U  U7  1  0.28578562  0.18116461  0.84008269  1
  H  H8  1  0.40883969  0.16851414  0.53020416  1
  H  H9  1  0.90883969  0.33148586  0.03020416  1
  H  H10  1  0.59116031  0.83148586  0.46979584  1
  H  H11  1  0.09116031  0.66851414  0.96979584  1
  H  H12  1  0.89383940  0.28307342  0.73633253  1
  H  H13  1  0.39383940  0.21692658  0.23633253  1
  H  H14  1  0.10616060  0.71692658  0.26366747  1
  H  H15  1  0.60616060  0.78307342  0.76366747  1
  H  H16  1  0.77069039  0.19586531  0.76254955  1
  H  H17  1  0.27069039  0.30413469  0.26254955  1
  H  H18  1  0.22930961  0.80413469  0.23745045  1
  H  H19  1  0.72930961  0.69586531  0.73745045  1
  H  H20  1  0.59044541  0.29401674  0.52194969  1
  H  H21  1  0.09044541  0.20598326  0.02194969  1
  H  H22  1  0.40955459  0.70598326  0.47805031  1
  H  H23  1  0.90955459  0.79401674  0.97805031  1
  H  H24  1  0.45198735  0.38498889  0.51090328  1
  H  H25  1  0.95198735  0.11501111  0.01090328  1
  H  H26  1  0.54801265  0.61501111  0.48909672  1
  H  H27  1  0.04801265  0.88498889  0.98909672  1
  H  H28  1  0.47167079  0.55145539  0.86973616  1
  H  H29  1  0.97167079  0.94854461  0.36973616  1
  H  H30  1  0.52832921  0.44854461  0.13026384  1
  H  H31  1  0.02832921  0.05145539  0.63026384  1
  H  H32  1  0.64178504  0.57951190  0.92963652  1
  H  H33  1  0.14178504  0.92048810  0.42963652  1
  H  H34  1  0.35821496  0.42048810  0.07036348  1
  H  H35  1  0.85821496  0.07951190  0.57036348  1
  H  H36  1  0.83458895  0.53258693  0.61932963  1
  H  H37  1  0.33458895  0.96741307  0.11932963  1
  H  H38  1  0.16541105  0.46741307  0.38067037  1
  H  H39  1  0.66541105  0.03258693  0.88067037  1
  H  H40  1  0.73065816  0.65192204  0.60068935  1
  H  H41  1  0.23065816  0.84807796  0.10068935  1
  H  H42  1  0.26934184  0.34807796  0.39931065  1
  H  H43  1  0.76934184  0.15192204  0.89931065  1
  Se  Se44  1  0.08281965  0.35924373  0.59525664  1
  Se  Se45  1  0.58281965  0.14075627  0.09525664  1
  Se  Se46  1  0.91718035  0.64075627  0.40474336  1
  Se  Se47  1  0.41718035  0.85924373  0.90474336  1
  Se  Se48  1  0.38605807  0.99389761  0.63039651  1
  Se  Se49  1  0.88605807  0.50610239  0.13039651  1
  Se  Se50  1  0.61394193  0.00610239  0.36960349  1
  Se  Se51  1  0.11394193  0.49389761  0.86960349  1
  O  O52  1  0.35937388  0.57952514  0.62506510  1
  O  O53  1  0.85937388  0.92047486  0.12506510  1
  O  O54  1  0.64062612  0.42047486  0.37493490  1
  O  O55  1  0.14062612  0.07952514  0.87493490  1
  O  O56  1  0.06667248  0.77099275  0.70214400  1
  O  O57  1  0.56667248  0.72900725  0.20214400  1
  O  O58  1  0.93332752  0.22900725  0.29785600  1
  O  O59  1  0.43332752  0.27099275  0.79785600  1
  O  O60  1  0.03238352  0.51329951  0.62290353  1
  O  O61  1  0.53238352  0.98670049  0.12290353  1
  O  O62  1  0.96761648  0.48670049  0.37709647  1
  O  O63  1  0.46761648  0.01329951  0.87709647  1
  O  O64  1  0.08875538  0.28993220  0.71551057  1
  O  O65  1  0.58875538  0.21006780  0.21551057  1
  O  O66  1  0.91124462  0.71006780  0.28448943  1
  O  O67  1  0.41124462  0.78993220  0.78448943  1
  O  O68  1  0.91169807  0.30492036  0.52143519  1
  O  O69  1  0.41169807  0.19507964  0.02143519  1
  O  O70  1  0.08830193  0.69507964  0.47856481  1
  O  O71  1  0.58830193  0.80492036  0.97856481  1
  O  O72  1  0.24787334  0.06132243  0.68377739  1
  O  O73  1  0.74787334  0.43867757  0.18377739  1
  O  O74  1  0.75212666  0.93867757  0.31622261  1
  O  O75  1  0.25212666  0.56132243  0.81622261  1
  O  O76  1  0.29911090  0.86036303  0.57167404  1
  O  O77  1  0.79911090  0.63963697  0.07167404  1
  O  O78  1  0.70088910  0.13963697  0.42832596  1
  O  O79  1  0.20088910  0.36036303  0.92832596  1
  O  O80  1  0.35657406  0.08457518  0.51250674  1
  O  O81  1  0.85657406  0.41542482  0.01250674  1
  O  O82  1  0.64342594  0.91542482  0.48749326  1
  O  O83  1  0.14342594  0.58457518  0.98749326  1
  O  O84  1  0.79609585  0.28505731  0.75811016  1
  O  O85  1  0.29609585  0.21494269  0.25811016  1
  O  O86  1  0.20390415  0.71494269  0.24188984  1
  O  O87  1  0.70390415  0.78505731  0.74188984  1
  O  O88  1  0.50304022  0.31285241  0.55169422  1
  O  O89  1  0.00304022  0.18714759  0.05169422  1
  O  O90  1  0.49695978  0.68714759  0.44830578  1
  O  O91  1  0.99695978  0.81285241  0.94830578  1
  O  O92  1  0.57903954  0.53719780  0.86813489  1
  O  O93  1  0.07903954  0.96280220  0.36813489  1
  O  O94  1  0.42096046  0.46280220  0.13186511  1
  O  O95  1  0.92096046  0.03719780  0.63186511  1
  O  O96  1  0.72994306  0.56314673  0.62046206  1
  O  O97  1  0.22994306  0.93685327  0.12046206  1
  O  O98  1  0.27005694  0.43685327  0.37953794  1
  O  O99  1  0.77005694  0.06314673  0.87953794  1
