# generated using pymatgen
data_RbC2N3
_symmetry_space_group_name_H-M   'P 1'
_cell_length_a   8.75547104
_cell_length_b   8.74581207
_cell_length_c   14.10226348
_cell_angle_alpha   100.79327625
_cell_angle_beta   104.18989606
_cell_angle_gamma   107.89840759
_symmetry_Int_Tables_number   1
_chemical_formula_structural   RbC2N3
_chemical_formula_sum   'Rb8 C16 N24'
_cell_volume   955.03528930
_cell_formula_units_Z   8
loop_
 _symmetry_equiv_pos_site_id
 _symmetry_equiv_pos_as_xyz
  1  'x, y, z'
loop_
 _atom_site_type_symbol
 _atom_site_label
 _atom_site_symmetry_multiplicity
 _atom_site_fract_x
 _atom_site_fract_y
 _atom_site_fract_z
 _atom_site_occupancy
  Rb  Rb0  1  0.25502745  0.30451453  0.91302563  1
  Rb  Rb1  1  0.79196184  0.82999753  0.62907879  1
  Rb  Rb2  1  0.11012069  0.66248513  0.41454109  1
  Rb  Rb3  1  0.29978410  0.83823272  0.13081219  1
  Rb  Rb4  1  0.74751949  0.70031325  0.08629223  1
  Rb  Rb5  1  0.88994325  0.34105891  0.58646592  1
  Rb  Rb6  1  0.70168801  0.16228029  0.87179498  1
  Rb  Rb7  1  0.20859223  0.17242950  0.37168571  1
  C  C8  1  0.42367467  0.51315952  0.61754679  1
  C  C9  1  0.60405869  0.19284383  0.11815723  1
  C  C10  1  0.98236890  0.58113417  0.87617617  1
  C  C11  1  0.39351888  0.80395239  0.88332945  1
  C  C12  1  0.79229030  0.89273335  0.37648609  1
  C  C13  1  0.79114084  0.22199339  0.27406586  1
  C  C14  1  0.95858950  0.84011322  0.88924617  1
  C  C15  1  0.45428921  0.06876661  0.61116516  1
  C  C16  1  0.44907776  0.52010889  0.22597372  1
  C  C17  1  0.57662427  0.48923186  0.38183304  1
  C  C18  1  0.04272918  0.15940579  0.11173021  1
  C  C19  1  0.21013189  0.77840242  0.72712119  1
  C  C20  1  0.55277602  0.48241099  0.77330652  1
  C  C21  1  0.54927479  0.93340248  0.39156290  1
  C  C22  1  0.01653011  0.41768801  0.12400974  1
  C  C23  1  0.20863853  0.10587406  0.62428855  1
  N  N24  1  0.44485548  0.46591359  0.30547792  1
  N  N25  1  0.91054794  0.28400021  0.34919383  1
  N  N26  1  0.45232887  0.77078984  0.95812787  1
  N  N27  1  0.93386872  0.95389613  0.86315839  1
  N  N28  1  0.30002058  0.06068091  0.57268888  1
  N  N29  1  0.59431502  0.07073562  0.63777381  1
  N  N30  1  0.31658615  0.50243558  0.54372076  1
  N  N31  1  0.98168019  0.44774203  0.83867708  1
  N  N32  1  0.43529960  0.56294808  0.15047209  1
  N  N33  1  0.98911835  0.72437838  0.92783115  1
  N  N34  1  0.40969442  0.93278075  0.36607223  1
  N  N35  1  0.01143817  0.27473872  0.07314499  1
  N  N36  1  0.09048753  0.71866711  0.65206613  1
  N  N37  1  0.68317973  0.50002529  0.45597803  1
  N  N38  1  0.56741328  0.43973714  0.84892825  1
  N  N39  1  0.01557562  0.55073417  0.16060982  1
  N  N40  1  0.55594740  0.53634554  0.69363746  1
  N  N41  1  0.34607924  0.85921402  0.80590424  1
  N  N42  1  0.06813341  0.04601429  0.13794907  1
  N  N43  1  0.54166378  0.22476165  0.04371930  1
  N  N44  1  0.70342816  0.94052446  0.42910447  1
  N  N45  1  0.65615831  0.13826299  0.19508902  1
  N  N46  1  0.11332959  0.14309423  0.66188936  1
  N  N47  1  0.88560187  0.85336745  0.33791850  1
