# generated using pymatgen
data_LaZnCrFeO6
_symmetry_space_group_name_H-M   'P 1'
_cell_length_a   5.52553772
_cell_length_b   5.35610013
_cell_length_c   7.64522676
_cell_angle_alpha   89.75316767
_cell_angle_beta   90.00000000
_cell_angle_gamma   90.00000000
_symmetry_Int_Tables_number   1
_chemical_formula_structural   LaZnCrFeO6
_chemical_formula_sum   'La2 Zn2 Cr2 Fe2 O12'
_cell_volume   226.26093441
_cell_formula_units_Z   2
loop_
 _symmetry_equiv_pos_site_id
 _symmetry_equiv_pos_as_xyz
  1  'x, y, z'
loop_
 _atom_site_type_symbol
 _atom_site_label
 _atom_site_symmetry_multiplicity
 _atom_site_fract_x
 _atom_site_fract_y
 _atom_site_fract_z
 _atom_site_occupancy
  La  La0  1  0.03375253  0.98924856  0.24776167  1
  La  La1  1  0.46624747  0.48924856  0.74776167  1
  Zn  Zn2  1  0.52861181  0.52467585  0.24850091  1
  Zn  Zn3  1  0.97138819  0.02467585  0.74850091  1
  Cr  Cr4  1  0.50976472  -0.00119343  0.49856116  1
  Cr  Cr5  1  0.99023528  0.49880657  0.99856116  1
  Fe  Fe6  1  0.50118831  0.99811064  0.99884880  1
  Fe  Fe7  1  -0.00118831  0.49811064  0.49884880  1
  O  O8  1  0.01808746  0.63581190  0.75904021  1
  O  O9  1  0.19852695  0.19673454  0.94090118  1
  O  O10  1  0.21114308  0.19045442  0.55763564  1
  O  O11  1  0.28885692  0.69045442  0.05763564  1
  O  O12  1  0.30147305  0.69673454  0.44090118  1
  O  O13  1  0.48191254  0.13581190  0.25903921  1
  O  O14  1  0.53534427  0.92150121  0.74297026  1
  O  O15  1  0.73716711  0.26731453  0.55943121  1
  O  O16  1  0.73557785  0.27734079  0.94634896  1
  O  O17  1  0.76442215  0.77734079  0.44634896  1
  O  O18  1  0.76283289  0.76731453  0.05943121  1
  O  O19  1  0.96465573  0.42150121  0.24297026  1
