# generated using pymatgen
data_Hf2Sc3Si4
_symmetry_space_group_name_H-M   'P 1'
_cell_length_a   7.17057728
_cell_length_b   7.17057728
_cell_length_c   12.99519959
_cell_angle_alpha   90.00000000
_cell_angle_beta   90.00000000
_cell_angle_gamma   90.00000000
_symmetry_Int_Tables_number   1
_chemical_formula_structural   Hf2Sc3Si4
_chemical_formula_sum   'Hf8 Sc12 Si16'
_cell_volume   668.17649733
_cell_formula_units_Z   4
loop_
 _symmetry_equiv_pos_site_id
 _symmetry_equiv_pos_as_xyz
  1  'x, y, z'
loop_
 _atom_site_type_symbol
 _atom_site_label
 _atom_site_symmetry_multiplicity
 _atom_site_fract_x
 _atom_site_fract_y
 _atom_site_fract_z
 _atom_site_occupancy
  Hf  Hf0  1  0.64249338  0.49873599  0.87566524  1
  Hf  Hf1  1  0.35750662  0.50126401  0.37566524  1
  Hf  Hf2  1  0.99873599  0.85750662  0.62566524  1
  Hf  Hf3  1  0.00126401  0.14249338  0.12566524  1
  Hf  Hf4  1  0.50126401  0.35750662  0.62433476  1
  Hf  Hf5  1  0.49873599  0.64249338  0.12433476  1
  Hf  Hf6  1  0.85750662  0.99873599  0.37433476  1
  Hf  Hf7  1  0.14249338  0.00126401  0.87433476  1
  Sc  Sc8  1  0.82318827  0.17681173  0.75000000  1
  Sc  Sc9  1  0.17681173  0.82318827  0.25000000  1
  Sc  Sc10  1  0.67681173  0.67681173  0.50000000  1
  Sc  Sc11  1  0.32318827  0.32318827  -0.00000000  1
  Sc  Sc12  1  0.84612506  0.49624935  0.28481949  1
  Sc  Sc13  1  0.15387494  0.50375065  0.78481949  1
  Sc  Sc14  1  0.99624935  0.65387494  0.03481949  1
  Sc  Sc15  1  0.00375065  0.34612506  0.53481949  1
  Sc  Sc16  1  0.50375065  0.15387494  0.21518051  1
  Sc  Sc17  1  0.49624935  0.84612506  0.71518051  1
  Sc  Sc18  1  0.65387494  0.99624935  0.96518051  1
  Sc  Sc19  1  0.34612506  0.00375065  0.46518051  1
  Si  Si20  1  0.70881731  0.35589003  0.07372923  1
  Si  Si21  1  0.29118269  0.64410997  0.57372923  1
  Si  Si22  1  0.85589003  0.79118269  0.82372923  1
  Si  Si23  1  0.14410997  0.20881731  0.32372923  1
  Si  Si24  1  0.64410997  0.29118269  0.42627077  1
  Si  Si25  1  0.35589003  0.70881731  0.92627077  1
  Si  Si26  1  0.79118269  0.85589003  0.17627077  1
  Si  Si27  1  0.20881731  0.14410997  0.67627077  1
  Si  Si28  1  0.80049255  0.55188695  0.68642177  1
  Si  Si29  1  0.19950745  0.44811305  0.18642177  1
  Si  Si30  1  0.05188695  0.69950745  0.43642177  1
  Si  Si31  1  0.94811305  0.30049255  0.93642177  1
  Si  Si32  1  0.44811305  0.19950745  0.81357823  1
  Si  Si33  1  0.55188695  0.80049255  0.31357823  1
  Si  Si34  1  0.69950745  0.05188695  0.56357823  1
  Si  Si35  1  0.30049255  0.94811305  0.06357823  1
