# generated using pymatgen
data_K2P2H4O7
_symmetry_space_group_name_H-M   'P 1'
_cell_length_a   7.83688887
_cell_length_b   10.18344310
_cell_length_c   10.37658436
_cell_angle_alpha   93.40982136
_cell_angle_beta   90.00000000
_cell_angle_gamma   90.00000000
_symmetry_Int_Tables_number   1
_chemical_formula_structural   K2P2H4O7
_chemical_formula_sum   'K8 P8 H16 O28'
_cell_volume   826.65293998
_cell_formula_units_Z   4
loop_
 _symmetry_equiv_pos_site_id
 _symmetry_equiv_pos_as_xyz
  1  'x, y, z'
loop_
 _atom_site_type_symbol
 _atom_site_label
 _atom_site_symmetry_multiplicity
 _atom_site_fract_x
 _atom_site_fract_y
 _atom_site_fract_z
 _atom_site_occupancy
  K  K0  1  0.77722163  0.92760477  0.89313971  1
  K  K1  1  0.72277837  0.42760477  0.39313971  1
  K  K2  1  0.22277837  0.07239523  0.10686029  1
  K  K3  1  0.27722163  0.57239523  0.60686029  1
  K  K4  1  0.99435060  0.27514892  0.77258340  1
  K  K5  1  0.50564940  0.77514892  0.27258340  1
  K  K6  1  0.00564940  0.72485108  0.22741660  1
  K  K7  1  0.49435060  0.22485108  0.72741660  1
  P  P8  1  0.74445916  0.08393536  0.20931845  1
  P  P9  1  0.75554084  0.58393536  0.70931845  1
  P  P10  1  0.25554084  0.91606464  0.79068155  1
  P  P11  1  0.24445916  0.41606464  0.29068155  1
  P  P12  1  0.75370839  0.24284240  0.07325748  1
  P  P13  1  0.74629161  0.74284240  0.57325748  1
  P  P14  1  0.24629161  0.75715760  0.92674252  1
  P  P15  1  0.25370839  0.25715760  0.42674252  1
  H  H16  1  0.95650667  0.14740854  0.34609679  1
  H  H17  1  0.54349333  0.64740854  0.84609679  1
  H  H18  1  0.04349333  0.85259146  0.65390321  1
  H  H19  1  0.45650667  0.35259146  0.15390321  1
  H  H20  1  0.98962411  0.34881018  0.14239194  1
  H  H21  1  0.51037589  0.84881018  0.64239194  1
  H  H22  1  0.01037589  0.65118982  0.85760806  1
  H  H23  1  0.48962411  0.15118982  0.35760806  1
  H  H24  1  0.30414653  0.47190937  0.88293177  1
  H  H25  1  0.19585347  0.97190937  0.38293177  1
  H  H26  1  0.69585347  0.52809063  0.11706823  1
  H  H27  1  0.80414653  0.02809063  0.61706823  1
  H  H28  1  0.28035462  0.36290361  0.97890949  1
  H  H29  1  0.21964538  0.86290361  0.47890949  1
  H  H30  1  0.71964538  0.63709639  0.02109051  1
  H  H31  1  0.78035462  0.13709639  0.52109051  1
  O  O32  1  0.85452210  0.97129183  0.15587373  1
  O  O33  1  0.64547790  0.47129183  0.65587373  1
  O  O34  1  0.14547790  0.02870817  0.84412627  1
  O  O35  1  0.35452210  0.52870817  0.34412627  1
  O  O36  1  0.55762851  0.05701176  0.23990834  1
  O  O37  1  0.94237149  0.55701176  0.73990834  1
  O  O38  1  0.44237149  0.94298824  0.76009166  1
  O  O39  1  0.05762851  0.44298824  0.26009166  1
  O  O40  1  0.82521294  0.15254444  0.34067577  1
  O  O41  1  0.67478706  0.65254444  0.84067577  1
  O  O42  1  0.17478706  0.84745556  0.65932423  1
  O  O43  1  0.32521294  0.34745556  0.15932423  1
  O  O44  1  0.70456644  0.18795876  0.94013390  1
  O  O45  1  0.79543356  0.68795876  0.44013390  1
  O  O46  1  0.29543356  0.81204124  0.05986610  1
  O  O47  1  0.20456644  0.31204124  0.55986610  1
  O  O48  1  0.65196422  0.35925903  0.13537998  1
  O  O49  1  0.84803578  0.85925903  0.63537998  1
  O  O50  1  0.34803578  0.64074097  0.86462002  1
  O  O51  1  0.15196422  0.14074097  0.36462002  1
  O  O52  1  0.95202396  0.28345148  0.06869661  1
  O  O53  1  0.54797604  0.78345148  0.56869661  1
  O  O54  1  0.04797604  0.71654852  0.93130339  1
  O  O55  1  0.45202396  0.21654852  0.43130339  1
  O  O56  1  0.28238604  0.37645882  0.88585375  1
  O  O57  1  0.21761396  0.87645882  0.38585375  1
  O  O58  1  0.71761396  0.62354118  0.11414625  1
  O  O59  1  0.78238604  0.12354118  0.61414625  1
