# generated using pymatgen
data_AlH6C2SeCl3
_symmetry_space_group_name_H-M   'P 1'
_cell_length_a   6.60685603
_cell_length_b   11.01103805
_cell_length_c   13.42708240
_cell_angle_alpha   90.00000000
_cell_angle_beta   90.00000000
_cell_angle_gamma   90.00000000
_symmetry_Int_Tables_number   1
_chemical_formula_structural   AlH6C2SeCl3
_chemical_formula_sum   'Al4 H24 C8 Se4 Cl12'
_cell_volume   976.79799777
_cell_formula_units_Z   4
loop_
 _symmetry_equiv_pos_site_id
 _symmetry_equiv_pos_as_xyz
  1  'x, y, z'
loop_
 _atom_site_type_symbol
 _atom_site_label
 _atom_site_symmetry_multiplicity
 _atom_site_fract_x
 _atom_site_fract_y
 _atom_site_fract_z
 _atom_site_occupancy
  Al  Al0  1  0.56239358  0.75000000  0.55782505  1
  Al  Al1  1  0.43760642  0.25000000  0.44217495  1
  Al  Al2  1  0.56239358  0.25000000  0.94217495  1
  Al  Al3  1  0.43760642  0.75000000  0.05782505  1
  H  H4  1  0.95594237  0.62127656  0.42116412  1
  H  H5  1  0.04405763  0.12127656  0.57883588  1
  H  H6  1  0.95594237  0.37872344  0.07883588  1
  H  H7  1  0.04405763  0.87872344  0.92116412  1
  H  H8  1  0.04405763  0.37872344  0.57883588  1
  H  H9  1  0.95594237  0.87872344  0.42116412  1
  H  H10  1  0.04405763  0.62127656  0.92116412  1
  H  H11  1  0.95594237  0.12127656  0.07883588  1
  H  H12  1  0.75450522  0.53152728  0.36808604  1
  H  H13  1  0.24549478  0.03152728  0.63191396  1
  H  H14  1  0.75450522  0.46847272  0.13191396  1
  H  H15  1  0.24549478  0.96847272  0.86808604  1
  H  H16  1  0.24549478  0.46847272  0.63191396  1
  H  H17  1  0.75450522  0.96847272  0.36808604  1
  H  H18  1  0.24549478  0.53152728  0.86808604  1
  H  H19  1  0.75450522  0.03152728  0.13191396  1
  H  H20  1  0.91013164  0.62486019  0.28814003  1
  H  H21  1  0.08986836  0.12486019  0.71185997  1
  H  H22  1  0.91013164  0.37513981  0.21185997  1
  H  H23  1  0.08986836  0.87513981  0.78814003  1
  H  H24  1  0.08986836  0.37513981  0.71185997  1
  H  H25  1  0.91013164  0.87513981  0.28814003  1
  H  H26  1  0.08986836  0.62486019  0.78814003  1
  H  H27  1  0.91013164  0.12486019  0.21185997  1
  C  C28  1  0.84184403  0.61570565  0.36219492  1
  C  C29  1  0.15815597  0.11570565  0.63780508  1
  C  C30  1  0.84184403  0.38429435  0.13780508  1
  C  C31  1  0.15815597  0.88429435  0.86219492  1
  C  C32  1  0.15815597  0.38429435  0.63780508  1
  C  C33  1  0.84184403  0.88429435  0.36219492  1
  C  C34  1  0.15815597  0.61570565  0.86219492  1
  C  C35  1  0.84184403  0.11570565  0.13780508  1
  Se  Se36  1  0.64751262  0.75000000  0.37315394  1
  Se  Se37  1  0.35248738  0.25000000  0.62684606  1
  Se  Se38  1  0.64751262  0.25000000  0.12684606  1
  Se  Se39  1  0.35248738  0.75000000  0.87315394  1
  Cl  Cl40  1  0.23807584  0.75000000  0.56599677  1
  Cl  Cl41  1  0.76192416  0.25000000  0.43400323  1
  Cl  Cl42  1  0.23807584  0.25000000  0.93400323  1
  Cl  Cl43  1  0.76192416  0.75000000  0.06599677  1
  Cl  Cl44  1  0.68385391  0.91397355  0.61812141  1
  Cl  Cl45  1  0.31614609  0.41397355  0.38187859  1
  Cl  Cl46  1  0.68385391  0.08602645  0.88187859  1
  Cl  Cl47  1  0.31614609  0.58602645  0.11812141  1
  Cl  Cl48  1  0.31614609  0.08602645  0.38187859  1
  Cl  Cl49  1  0.68385391  0.58602645  0.61812141  1
  Cl  Cl50  1  0.31614609  0.91397355  0.11812141  1
  Cl  Cl51  1  0.68385391  0.41397355  0.88187859  1
