# generated using pymatgen
data_ZnAs2S4(O2F3)4
_symmetry_space_group_name_H-M   'P 1'
_cell_length_a   8.82029463
_cell_length_b   14.04805719
_cell_length_c   15.34275361
_cell_angle_alpha   90.00000000
_cell_angle_beta   98.83091617
_cell_angle_gamma   90.00000000
_symmetry_Int_Tables_number   1
_chemical_formula_structural   ZnAs2S4(O2F3)4
_chemical_formula_sum   'Zn4 As8 S16 O32 F48'
_cell_volume   1878.55385224
_cell_formula_units_Z   4
loop_
 _symmetry_equiv_pos_site_id
 _symmetry_equiv_pos_as_xyz
  1  'x, y, z'
loop_
 _atom_site_type_symbol
 _atom_site_label
 _atom_site_symmetry_multiplicity
 _atom_site_fract_x
 _atom_site_fract_y
 _atom_site_fract_z
 _atom_site_occupancy
  Zn  Zn0  1  0.77447462  0.81301179  0.75789936  1
  Zn  Zn1  1  0.22552538  0.31301179  0.74210064  1
  Zn  Zn2  1  0.22552538  0.18698821  0.24210064  1
  Zn  Zn3  1  0.77447462  0.68698821  0.25789936  1
  As  As4  1  0.96297407  0.64713106  0.60909269  1
  As  As5  1  0.03702593  0.14713106  0.89090731  1
  As  As6  1  0.03702593  0.35286894  0.39090731  1
  As  As7  1  0.96297407  0.85286894  0.10909269  1
  As  As8  1  0.58924299  0.61381968  0.86878997  1
  As  As9  1  0.41075701  0.11381968  0.63121003  1
  As  As10  1  0.41075701  0.38618032  0.13121003  1
  As  As11  1  0.58924299  0.88618032  0.36878997  1
  S  S12  1  0.62505698  0.97483464  0.89402695  1
  S  S13  1  0.37494302  0.47483464  0.60597305  1
  S  S14  1  0.37494302  0.02516536  0.10597305  1
  S  S15  1  0.62505698  0.52516536  0.39402695  1
  S  S16  1  0.90821305  0.96891588  0.60372496  1
  S  S17  1  0.09178695  0.46891588  0.89627504  1
  S  S18  1  0.09178695  0.03108412  0.39627504  1
  S  S19  1  0.90821305  0.53108412  0.10372496  1
  S  S20  1  0.15452173  0.82795624  0.84218873  1
  S  S21  1  0.84547827  0.32795624  0.65781127  1
  S  S22  1  0.84547827  0.17204376  0.15781127  1
  S  S23  1  0.15452173  0.67204376  0.34218873  1
  S  S24  1  0.42480109  0.79911402  0.61208822  1
  S  S25  1  0.57519891  0.29911402  0.88791178  1
  S  S26  1  0.57519891  0.20088598  0.38791178  1
  S  S27  1  0.42480109  0.70088598  0.11208822  1
  O  O28  1  0.71438034  0.92580147  0.83470668  1
  O  O29  1  0.28561966  0.42580147  0.66529332  1
  O  O30  1  0.28561966  0.07419853  0.16529332  1
  O  O31  1  0.71438034  0.57419853  0.33470668  1
  O  O32  1  0.48229772  0.93196036  0.90761300  1
  O  O33  1  0.51770228  0.43196036  0.59238700  1
  O  O34  1  0.51770228  0.06803964  0.09238700  1
  O  O35  1  0.48229772  0.56803964  0.40761300  1
  O  O36  1  0.84388913  0.92335743  0.67567875  1
  O  O37  1  0.15611087  0.42335743  0.82432125  1
  O  O38  1  0.15611087  0.07664257  0.32432125  1
  O  O39  1  0.84388913  0.57664257  0.17567875  1
  O  O40  1  0.87380909  0.06825890  0.58921040  1
  O  O41  1  0.12619091  0.56825890  0.91078960  1
  O  O42  1  0.12619091  0.93174110  0.41078960  1
  O  O43  1  0.87380909  0.43174110  0.08921040  1
  O  O44  1  0.98954227  0.81088789  0.83802813  1
  O  O45  1  0.01045773  0.31088789  0.66197187  1
  O  O46  1  0.01045773  0.18911211  0.16197187  1
  O  O47  1  0.98954227  0.68911211  0.33802813  1
  O  O48  1  0.20651063  0.85724047  0.76176150  1
  O  O49  1  0.79348937  0.35724047  0.73823850  1
  O  O50  1  0.79348937  0.14275953  0.23823850  1
  O  O51  1  0.20651063  0.64275953  0.26176150  1
  O  O52  1  0.55590928  0.81557529  0.68146699  1
  O  O53  1  0.44409072  0.31557529  0.81853301  1
  O  O54  1  0.44409072  0.18442471  0.31853301  1
  O  O55  1  0.55590928  0.68442471  0.18146699  1
  O  O56  1  0.41494641  0.70829510  0.56862130  1
  O  O57  1  0.58505359  0.20829510  0.93137870  1
  O  O58  1  0.58505359  0.29170490  0.43137870  1
  O  O59  1  0.41494641  0.79170490  0.06862130  1
  F  F60  1  0.84229853  0.70502094  0.68320502  1
  F  F61  1  0.15770147  0.20502094  0.81679498  1
  F  F62  1  0.15770147  0.29497906  0.31679498  1
  F  F63  1  0.84229853  0.79497906  0.18320502  1
  F  F64  1  0.07679555  0.59339144  0.53860340  1
  F  F65  1  0.92320445  0.09339144  0.96139660  1
  F  F66  1  0.92320445  0.40660856  0.46139660  1
  F  F67  1  0.07679555  0.90660856  0.03860340  1
  F  F68  1  0.79828910  0.64375570  0.52785114  1
  F  F69  1  0.20171090  0.14375570  0.97214886  1
  F  F70  1  0.20171090  0.35624430  0.47214886  1
  F  F71  1  0.79828910  0.85624430  0.02785114  1
  F  F72  1  0.00758440  0.76203820  0.57400486  1
  F  F73  1  0.99241560  0.26203820  0.92599514  1
  F  F74  1  0.99241560  0.23796180  0.42599514  1
  F  F75  1  0.00758440  0.73796180  0.07400486  1
  F  F76  1  0.11834578  0.65347395  0.69617856  1
  F  F77  1  0.88165422  0.15347395  0.80382144  1
  F  F78  1  0.88165422  0.34652605  0.30382144  1
  F  F79  1  0.11834578  0.84652605  0.19617856  1
  F  F80  1  0.91009481  0.53654439  0.64991383  1
  F  F81  1  0.08990519  0.03654439  0.85008617  1
  F  F82  1  0.08990519  0.46345561  0.35008617  1
  F  F83  1  0.91009481  0.96345561  0.14991383  1
  F  F84  1  0.71000506  0.71535991  0.84549823  1
  F  F85  1  0.28999494  0.21535991  0.65450177  1
  F  F86  1  0.28999494  0.28464009  0.15450177  1
  F  F87  1  0.71000506  0.78464009  0.34549823  1
  F  F88  1  0.47546288  0.51731699  0.89144167  1
  F  F89  1  0.52453712  0.01731699  0.60855833  1
  F  F90  1  0.52453712  0.48268301  0.10855833  1
  F  F91  1  0.47546288  0.98268301  0.39144167  1
  F  F92  1  0.54715521  0.59406150  0.75395580  1
  F  F93  1  0.45284479  0.09406150  0.74604420  1
  F  F94  1  0.45284479  0.40593850  0.24604420  1
  F  F95  1  0.54715521  0.90593850  0.25395580  1
  F  F96  1  0.75357484  0.54081746  0.87512121  1
  F  F97  1  0.24642516  0.04081746  0.62487879  1
  F  F98  1  0.24642516  0.45918254  0.12487879  1
  F  F99  1  0.75357484  0.95918254  0.37512121  1
  F  F100  1  0.64044108  0.63980479  0.98258174  1
  F  F101  1  0.35955892  0.13980479  0.51741826  1
  F  F102  1  0.35955892  0.36019521  0.01741826  1
  F  F103  1  0.64044108  0.86019521  0.48258174  1
  F  F104  1  0.43429095  0.69379326  0.86320056  1
  F  F105  1  0.56570905  0.19379326  0.63679944  1
  F  F106  1  0.56570905  0.30620674  0.13679944  1
  F  F107  1  0.43429095  0.80620674  0.36320056  1
