# generated using pymatgen
data_RbCS(OF)3
_symmetry_space_group_name_H-M   'P 1'
_cell_length_a   5.29117434
_cell_length_b   15.79189186
_cell_length_c   15.79189238
_cell_angle_alpha   100.14967345
_cell_angle_beta   97.89538050
_cell_angle_gamma   97.89537763
_symmetry_Int_Tables_number   1
_chemical_formula_structural   RbCS(OF)3
_chemical_formula_sum   'Rb8 C8 S8 O24 F24'
_cell_volume   1268.78349039
_cell_formula_units_Z   8
loop_
 _symmetry_equiv_pos_site_id
 _symmetry_equiv_pos_as_xyz
  1  'x, y, z'
loop_
 _atom_site_type_symbol
 _atom_site_label
 _atom_site_symmetry_multiplicity
 _atom_site_fract_x
 _atom_site_fract_y
 _atom_site_fract_z
 _atom_site_occupancy
  Rb  Rb0  1  0.50825382  0.88713849  0.13202190  1
  Rb  Rb1  1  0.48902501  0.08940222  0.59865833  1
  Rb  Rb2  1  0.48902501  0.59865833  0.08940222  1
  Rb  Rb3  1  0.51577160  0.87255697  0.87255697  1
  Rb  Rb4  1  0.49410309  0.59927704  0.34783410  1
  Rb  Rb5  1  0.49064811  0.32121606  0.32121606  1
  Rb  Rb6  1  0.50825382  0.13202190  0.88713849  1
  Rb  Rb7  1  0.49410309  0.34783410  0.59927704  1
  C  C8  1  0.11723914  0.36941755  0.79234378  1
  C  C9  1  0.88949647  0.07445325  0.38031279  1
  C  C10  1  0.11723914  0.79234378  0.36941755  1
  C  C11  1  0.88949647  0.38031279  0.07445325  1
  C  C12  1  0.83818895  0.86440222  0.63853256  1
  C  C13  1  0.16766523  0.12890532  0.12890532  1
  C  C14  1  0.19201161  0.57887472  0.57887472  1
  C  C15  1  0.83818895  0.63853256  0.86440222  1
  S  S16  1  0.11364132  0.03468718  0.03468718  1
  S  S17  1  0.09426423  0.75973971  0.24706964  1
  S  S18  1  0.94713214  0.43631065  0.19157007  1
  S  S19  1  0.94713214  0.19157007  0.43631065  1
  S  S20  1  0.91562740  0.72746017  0.96411643  1
  S  S21  1  0.91562740  0.96411643  0.72746017  1
  S  S22  1  0.09426423  0.24706964  0.75973971  1
  S  S23  1  0.03619180  0.48735327  0.48735327  1
  O  O24  1  0.99236117  0.21366852  0.83105620  1
  O  O25  1  0.65847065  0.74156119  0.98282414  1
  O  O26  1  0.05851251  0.93466795  0.79953216  1
  O  O27  1  0.37739318  0.02240928  0.02240928  1
  O  O28  1  0.18519380  0.19649758  0.49721310  1
  O  O29  1  0.25798385  0.45476756  0.45476756  1
  O  O30  1  0.92393794  0.67559221  0.22684267  1
  O  O31  1  0.97343286  0.23945518  0.36602557  1
  O  O32  1  0.71676534  0.20124645  0.47610778  1
  O  O33  1  0.06381682  0.68965389  0.02843583  1
  O  O34  1  0.05851251  0.79953216  0.93466795  1
  O  O35  1  0.18519380  0.49721310  0.19649758  1
  O  O36  1  0.97073105  0.06678566  0.96462173  1
  O  O37  1  0.99236117  0.83105620  0.21366852  1
  O  O38  1  0.06381682  0.02843583  0.68965389  1
  O  O39  1  0.88542440  0.52965844  0.42794185  1
  O  O40  1  0.65847065  0.98282414  0.74156119  1
  O  O41  1  0.36354542  0.75475890  0.23633510  1
  O  O42  1  0.88542440  0.42794185  0.52965844  1
  O  O43  1  0.97073105  0.96462173  0.06678566  1
  O  O44  1  0.71676534  0.47610778  0.20124645  1
  O  O45  1  0.92393794  0.22684267  0.67559221  1
  O  O46  1  0.36354542  0.23633510  0.75475890  1
  O  O47  1  0.97343286  0.36602557  0.23945518  1
  F  F48  1  0.73764131  0.56165000  0.88418135  1
  F  F49  1  0.11346036  0.04865484  0.36241270  1
  F  F50  1  0.28770390  0.74982055  0.41213510  1
  F  F51  1  0.28770390  0.41213510  0.74982055  1
  F  F52  1  0.88433886  0.77030609  0.39433681  1
  F  F53  1  0.78930606  0.43263145  0.02258938  1
  F  F54  1  0.19820015  0.87874437  0.39955443  1
  F  F55  1  0.72021454  0.05920484  0.30422959  1
  F  F56  1  0.34445876  0.54870851  0.63969556  1
  F  F57  1  0.66174376  0.80265425  0.65789736  1
  F  F58  1  0.30440389  0.11071506  0.20131295  1
  F  F59  1  0.66174376  0.65789736  0.80265425  1
  F  F60  1  0.88433886  0.39433681  0.77030609  1
  F  F61  1  0.30440389  0.20131295  0.11071506  1
  F  F62  1  0.05342956  0.82915345  0.62667355  1
  F  F63  1  0.01674962  0.61857476  0.61857476  1
  F  F64  1  0.05342956  0.62667355  0.82915345  1
  F  F65  1  0.93908694  0.14842968  0.14842968  1
  F  F66  1  0.73764131  0.88418135  0.56165000  1
  F  F67  1  0.78930606  0.02258938  0.43263145  1
  F  F68  1  0.72021454  0.30422959  0.05920484  1
  F  F69  1  0.19820015  0.39955443  0.87874437  1
  F  F70  1  0.34445876  0.63969556  0.54870851  1
  F  F71  1  0.11346036  0.36241270  0.04865484  1
