# generated using pymatgen
data_Yb6H40N8O49
_symmetry_space_group_name_H-M   'P 1'
_cell_length_a   10.25785791
_cell_length_b   10.56740340
_cell_length_c   11.48978395
_cell_angle_alpha   95.42282774
_cell_angle_beta   109.19264624
_cell_angle_gamma   111.57837112
_symmetry_Int_Tables_number   1
_chemical_formula_structural   Yb6H40N8O49
_chemical_formula_sum   'Yb6 H40 N8 O49'
_cell_volume   1060.40468331
_cell_formula_units_Z   1
loop_
 _symmetry_equiv_pos_site_id
 _symmetry_equiv_pos_as_xyz
  1  'x, y, z'
loop_
 _atom_site_type_symbol
 _atom_site_label
 _atom_site_symmetry_multiplicity
 _atom_site_fract_x
 _atom_site_fract_y
 _atom_site_fract_z
 _atom_site_occupancy
  Yb  Yb0  1  0.73515629  0.47417248  0.61281855  1
  Yb  Yb1  1  0.26484371  0.52582752  0.38718145  1
  Yb  Yb2  1  0.66102009  0.77035058  0.51857550  1
  Yb  Yb3  1  0.33897991  0.22964942  0.48142450  1
  Yb  Yb4  1  0.47511010  0.57078931  0.71295007  1
  Yb  Yb5  1  0.52488990  0.42921069  0.28704993  1
  H  H6  1  0.79910608  0.73222750  0.77628846  1
  H  H7  1  0.20089392  0.26777250  0.22371154  1
  H  H8  1  0.84809289  0.64645714  0.45215458  1
  H  H9  1  0.15190711  0.35354286  0.54784542  1
  H  H10  1  0.42451208  0.79258077  0.59120392  1
  H  H11  1  0.57548792  0.20741923  0.40879608  1
  H  H12  1  0.55014457  0.34120572  0.75953901  1
  H  H13  1  0.44985543  0.65879428  0.24046099  1
  H  H14  1  0.96477896  0.53852820  0.85980357  1
  H  H15  1  0.03522104  0.46147180  0.14019643  1
  H  H16  1  0.84009764  0.40461562  0.87116092  1
  H  H17  1  0.15990236  0.59538438  0.12883908  1
  H  H18  1  0.00228223  0.75300427  0.69182705  1
  H  H19  1  0.99771777  0.24699573  0.30817295  1
  H  H20  1  0.08768345  0.65164305  0.70601693  1
  H  H21  1  0.91231655  0.34835695  0.29398307  1
  H  H22  1  0.94516173  0.96820731  0.69426733  1
  H  H23  1  0.05483827  0.03179269  0.30573267  1
  H  H24  1  0.02951454  0.95122312  0.60729937  1
  H  H25  1  0.97048546  0.04877688  0.39270063  1
  H  H26  1  0.73555926  0.05492971  0.69431817  1
  H  H27  1  0.26444074  0.94507029  0.30568183  1
  H  H28  1  0.67971108  0.92739562  0.75740532  1
  H  H29  1  0.32028892  0.07260438  0.24259468  1
  H  H30  1  0.48895252  0.83925692  0.85235341  1
  H  H31  1  0.51104748  0.16074308  0.14764659  1
  H  H32  1  0.64618407  0.84313778  0.93436252  1
  H  H33  1  0.35381593  0.15686222  0.06563748  1
  H  H34  1  0.65583161  0.57848612  0.99769579  1
  H  H35  1  0.34416839  0.42151388  0.00230421  1
  H  H36  1  0.74532955  0.56706728  0.91173625  1
  H  H37  1  0.25467045  0.43293272  0.08826375  1
  H  H38  1  0.73429491  0.98871620  0.12472022  1
  H  H39  1  0.26570509  0.01128380  0.87527978  1
  H  H40  1  0.75770510  0.85595045  0.14999764  1
  H  H41  1  0.24229490  0.14404955  0.85000236  1
  H  H42  1  0.02271537  0.80487299  0.97217766  1
  H  H43  1  0.97728463  0.19512701  0.02782234  1
  H  H44  1  0.03347457  0.93738763  0.92257527  1
  H  H45  1  0.96652543  0.06261237  0.07742473  1
  N  N46  1  0.88992673  0.27539308  0.60228104  1
  N  N47  1  0.11007327  0.72460692  0.39771896  1
  N  N48  1  0.67724311  0.98163694  0.36262950  1
  N  N49  1  0.32275689  0.01836306  0.63737050  1
  N  N50  1  0.23763672  0.50759746  0.81668691  1
  N  N51  1  0.76236328  0.49240254  0.18331309  1
  N  N52  1  0.67654389  0.21161247  0.95565246  1
  N  N53  1  0.32345611  0.78838753  0.04434754  1
  O  O54  1  0.50000000  0.50000000  0.50000000  1
  O  O55  1  0.71046432  0.67410006  0.69492144  1
  O  O56  1  0.28953568  0.32589994  0.30507856  1
  O  O57  1  0.74595467  0.60634114  0.45310691  1
  O  O58  1  0.25404533  0.39365886  0.54689309  1
  O  O59  1  0.43805268  0.70912596  0.56534690  1
  O  O60  1  0.56194732  0.29087404  0.43465310  1
  O  O61  1  0.53139087  0.36610540  0.67700325  1
  O  O62  1  0.46860913  0.63389460  0.32299675  1
  O  O63  1  0.85637005  0.49345895  0.84441811  1
  O  O64  1  0.14362995  0.50654105  0.15558189  1
  O  O65  1  0.99239675  0.65825067  0.69936518  1
  O  O66  1  0.00760325  0.34174933  0.30063482  1
  O  O67  1  0.94548108  0.89879228  0.63166423  1
  O  O68  1  0.05451892  0.10120772  0.36833577  1
  O  O69  1  0.73170408  0.96167443  0.70024958  1
  O  O70  1  0.26829592  0.03832557  0.29975042  1
  O  O71  1  0.57113532  0.81745842  0.84494191  1
  O  O72  1  0.42886468  0.18254158  0.15505809  1
  O  O73  1  0.65704600  0.58326049  0.91284571  1
  O  O74  1  0.34295400  0.41673951  0.08715429  1
  O  O75  1  0.77004392  0.92218648  0.09638628  1
  O  O76  1  0.22995608  0.07781352  0.90361372  1
  O  O77  1  0.95921488  0.84868852  0.92625498  1
  O  O78  1  0.04078512  0.15131148  0.07374502  1
  O  O79  1  0.91283608  0.38425426  0.55980726  1
  O  O80  1  0.08716392  0.61574574  0.44019274  1
  O  O81  1  0.78856971  0.23772375  0.64778077  1
  O  O82  1  0.21143029  0.76227625  0.35221923  1
  O  O83  1  0.96682454  0.20693021  0.59903938  1
  O  O84  1  0.03317546  0.79306979  0.40096062  1
  O  O85  1  0.58599292  0.95169877  0.41821765  1
  O  O86  1  0.41400708  0.04830123  0.58178235  1
  O  O87  1  0.76112604  0.91515850  0.37239389  1
  O  O88  1  0.23887396  0.08484150  0.62760611  1
  O  O89  1  0.68704517  0.07384101  0.30044234  1
  O  O90  1  0.31295483  0.92615899  0.69955766  1
  O  O91  1  0.33404059  0.45380942  0.84353177  1
  O  O92  1  0.66595941  0.54619058  0.15646823  1
  O  O93  1  0.24992066  0.59247465  0.74524960  1
  O  O94  1  0.75007934  0.40752535  0.25475040  1
  O  O95  1  0.13608169  0.47678467  0.85994723  1
  O  O96  1  0.86391831  0.52321533  0.14005277  1
  O  O97  1  0.57348555  0.24844328  0.89771010  1
  O  O98  1  0.42651445  0.75155672  0.10228990  1
  O  O99  1  0.65956846  0.14255482  0.03674730  1
  O  O100  1  0.34043154  0.85744518  0.96325270  1
  O  O101  1  0.79546844  0.24456909  0.93157654  1
  O  O102  1  0.20453156  0.75543091  0.06842346  1
