# generated using pymatgen
data_CeAg(PO3)4
_symmetry_space_group_name_H-M   'P 1'
_cell_length_a   7.37579856
_cell_length_b   10.14486066
_cell_length_c   13.35584887
_cell_angle_alpha   90.00000000
_cell_angle_beta   90.00000000
_cell_angle_gamma   89.48525232
_symmetry_Int_Tables_number   1
_chemical_formula_structural   CeAg(PO3)4
_chemical_formula_sum   'Ce4 Ag4 P16 O48'
_cell_volume   999.33040988
_cell_formula_units_Z   4
loop_
 _symmetry_equiv_pos_site_id
 _symmetry_equiv_pos_as_xyz
  1  'x, y, z'
loop_
 _atom_site_type_symbol
 _atom_site_label
 _atom_site_symmetry_multiplicity
 _atom_site_fract_x
 _atom_site_fract_y
 _atom_site_fract_z
 _atom_site_occupancy
  Ce  Ce0  1  0.51353773  0.52332050  0.71630202  1
  Ce  Ce1  1  0.98646227  0.97667950  0.21630202  1
  Ce  Ce2  1  0.48646227  0.47667950  0.28369798  1
  Ce  Ce3  1  0.01353773  0.02332050  0.78369798  1
  Ag  Ag4  1  0.00034919  0.43298964  0.72280555  1
  Ag  Ag5  1  0.49965081  0.06701036  0.22280555  1
  Ag  Ag6  1  0.99965081  0.56701036  0.27719445  1
  Ag  Ag7  1  0.50034919  0.93298964  0.77719445  1
  P  P8  1  0.25256611  0.25404519  0.59877652  1
  P  P9  1  0.24743389  0.24595481  0.09877652  1
  P  P10  1  0.74743389  0.74595481  0.40122348  1
  P  P11  1  0.75256611  0.75404519  0.90122348  1
  P  P12  1  0.14507307  0.69485130  0.87352348  1
  P  P13  1  0.35492693  0.80514870  0.37352348  1
  P  P14  1  0.85492693  0.30514870  0.12647652  1
  P  P15  1  0.64507307  0.19485130  0.62647652  1
  P  P16  1  0.76656273  0.30187840  0.91084427  1
  P  P17  1  0.73343727  0.19812160  0.41084427  1
  P  P18  1  0.23343727  0.69812160  0.08915573  1
  P  P19  1  0.26656273  0.80187840  0.58915573  1
  P  P20  1  0.87964330  0.73799688  0.61395444  1
  P  P21  1  0.62035670  0.76200312  0.11395444  1
  P  P22  1  0.12035670  0.26200312  0.38604556  1
  P  P23  1  0.37964330  0.23799688  0.88604556  1
  O  O24  1  0.21658767  0.60600768  0.79198214  1
  O  O25  1  0.28341233  0.89399232  0.29198214  1
  O  O26  1  0.78341233  0.39399232  0.20801786  1
  O  O27  1  0.71658767  0.10600768  0.70801786  1
  O  O28  1  0.17717896  0.84038037  0.86747020  1
  O  O29  1  0.32282104  0.65961963  0.36747020  1
  O  O30  1  0.82282104  0.15961963  0.13252980  1
  O  O31  1  0.67717896  0.34038037  0.63252980  1
  O  O32  1  0.21411694  0.20658125  0.48591471  1
  O  O33  1  0.28588306  0.29341875  0.98591471  1
  O  O34  1  0.78588306  0.79341875  0.51408529  1
  O  O35  1  0.71411694  0.70658125  0.01408529  1
  O  O36  1  0.80439781  0.60559830  0.64189528  1
  O  O37  1  0.69560219  0.89440170  0.14189528  1
  O  O38  1  0.19560219  0.39440170  0.35810472  1
  O  O39  1  0.30439781  0.10559830  0.85810472  1
  O  O40  1  0.86926900  0.84678202  0.68947634  1
  O  O41  1  0.63073100  0.65321798  0.18947634  1
  O  O42  1  0.13073100  0.15321798  0.31052366  1
  O  O43  1  0.36926900  0.34678202  0.81052366  1
  O  O44  1  0.29151018  0.39939381  0.60409394  1
  O  O45  1  0.20848982  0.10060619  0.10409394  1
  O  O46  1  0.70848982  0.60060619  0.39590606  1
  O  O47  1  0.79151018  0.89939381  0.89590606  1
  O  O48  1  0.78132915  0.36480949  0.02184319  1
  O  O49  1  0.71867085  0.13519051  0.52184319  1
  O  O50  1  0.21867085  0.63519051  0.97815681  1
  O  O51  1  0.28132915  0.86480949  0.47815681  1
  O  O52  1  0.10201276  0.20235775  0.66442736  1
  O  O53  1  0.39798724  0.29764225  0.16442736  1
  O  O54  1  0.89798724  0.79764225  0.33557264  1
  O  O55  1  0.60201276  0.70235775  0.83557264  1
  O  O56  1  0.43060699  0.16571352  0.62009150  1
  O  O57  1  0.06939301  0.33428648  0.12009150  1
  O  O58  1  0.56939301  0.83428648  0.37990850  1
  O  O59  1  0.93060699  0.66571352  0.87990850  1
  O  O60  1  0.58662416  0.21311555  0.92085698  1
  O  O61  1  0.91337584  0.28688445  0.42085698  1
  O  O62  1  0.41337584  0.78688445  0.07914302  1
  O  O63  1  0.08662416  0.71311555  0.57914302  1
  O  O64  1  0.73614911  0.41617016  0.84081022  1
  O  O65  1  0.76385089  0.08382984  0.34081022  1
  O  O66  1  0.26385089  0.58382984  0.15918978  1
  O  O67  1  0.23614911  0.91617016  0.65918978  1
  O  O68  1  0.92272310  0.20937298  0.89119296  1
  O  O69  1  0.57727690  0.29062702  0.39119296  1
  O  O70  1  0.07727690  0.79062702  0.10880704  1
  O  O71  1  0.42272310  0.70937298  0.60880704  1
