# generated using pymatgen
data_PH11(C2Cl)2
_symmetry_space_group_name_H-M   'P 1'
_cell_length_a   10.81784116
_cell_length_b   12.75878005
_cell_length_c   13.75408344
_cell_angle_alpha   90.00000000
_cell_angle_beta   90.00000000
_cell_angle_gamma   90.00000000
_symmetry_Int_Tables_number   1
_chemical_formula_structural   PH11(C2Cl)2
_chemical_formula_sum   'P8 H88 C32 Cl16'
_cell_volume   1898.37237609
_cell_formula_units_Z   8
loop_
 _symmetry_equiv_pos_site_id
 _symmetry_equiv_pos_as_xyz
  1  'x, y, z'
loop_
 _atom_site_type_symbol
 _atom_site_label
 _atom_site_symmetry_multiplicity
 _atom_site_fract_x
 _atom_site_fract_y
 _atom_site_fract_z
 _atom_site_occupancy
  P  P0  1  0.80141063  0.40276763  0.86834442  1
  P  P1  1  0.69858937  0.90276763  0.13165558  1
  P  P2  1  0.30141063  0.59723237  0.63165558  1
  P  P3  1  0.19858937  0.09723237  0.36834442  1
  P  P4  1  0.19858937  0.59723237  0.13165558  1
  P  P5  1  0.30141063  0.09723237  0.86834442  1
  P  P6  1  0.69858937  0.40276763  0.36834442  1
  P  P7  1  0.80141063  0.90276763  0.63165558  1
  H  H8  1  0.86385669  0.36792035  0.02903011  1
  H  H9  1  0.63614331  0.86792035  0.97096989  1
  H  H10  1  0.36385669  0.63207965  0.47096989  1
  H  H11  1  0.13614331  0.13207965  0.52903011  1
  H  H12  1  0.13614331  0.63207965  0.97096989  1
  H  H13  1  0.36385669  0.13207965  0.02903011  1
  H  H14  1  0.63614331  0.36792035  0.52903011  1
  H  H15  1  0.86385669  0.86792035  0.47096989  1
  H  H16  1  0.83650826  0.24804965  0.96052683  1
  H  H17  1  0.66349174  0.74804965  0.03947317  1
  H  H18  1  0.33650826  0.75195035  0.53947317  1
  H  H19  1  0.16349174  0.25195035  0.46052683  1
  H  H20  1  0.16349174  0.75195035  0.03947317  1
  H  H21  1  0.33650826  0.25195035  0.96052683  1
  H  H22  1  0.66349174  0.24804965  0.46052683  1
  H  H23  1  0.83650826  0.74804965  0.53947317  1
  H  H24  1  0.97670321  0.32466750  0.94241309  1
  H  H25  1  0.52329679  0.82466750  0.05758691  1
  H  H26  1  0.47670321  0.67533250  0.55758691  1
  H  H27  1  0.02329679  0.17533250  0.44241309  1
  H  H28  1  0.02329679  0.67533250  0.05758691  1
  H  H29  1  0.47670321  0.17533250  0.94241309  1
  H  H30  1  0.52329679  0.32466750  0.44241309  1
  H  H31  1  0.97670321  0.82466750  0.55758691  1
  H  H32  1  0.97648443  0.50997908  0.84066767  1
  H  H33  1  0.52351557  0.00997908  0.15933233  1
  H  H34  1  0.47648443  0.49002092  0.65933233  1
  H  H35  1  0.02351557  0.99002092  0.34066767  1
  H  H36  1  0.02351557  0.49002092  0.15933233  1
  H  H37  1  0.47648443  0.99002092  0.84066767  1
  H  H38  1  0.52351557  0.50997908  0.34066767  1
  H  H39  1  0.97648443  0.00997908  0.65933233  1
  H  H40  1  0.83666252  0.56213667  0.78536214  1
  H  H41  1  0.66333748  0.06213667  0.21463786  1
  H  H42  1  0.33666252  0.43786333  0.71463786  1
  H  H43  1  0.16333748  0.93786333  0.28536214  1
  H  H44  1  0.16333748  0.43786333  0.21463786  1
  H  H45  1  0.33666252  0.93786333  0.78536214  1
  H  H46  1  0.66333748  0.56213667  0.28536214  1
  H  H47  1  0.83666252  0.06213667  0.71463786  1
  H  H48  1  0.86178470  0.57227584  0.91613320  1
  H  H49  1  0.63821530  0.07227584  0.08386680  1
  H  H50  1  0.36178470  0.42772416  0.58386680  1
  H  H51  1  0.13821530  0.92772416  0.41613320  1
  H  H52  1  0.13821530  0.42772416  0.08386680  1
  H  H53  1  0.36178470  0.92772416  0.91613320  1
  H  H54  1  0.63821530  0.57227584  0.41613320  1
  H  H55  1  0.86178470  0.07227584  0.58386680  1
  H  H56  1  0.59775307  0.47203500  0.84427689  1
  H  H57  1  0.90224693  0.97203500  0.15572311  1
  H  H58  1  0.09775307  0.52796500  0.65572311  1
  H  H59  1  0.40224693  0.02796500  0.34427689  1
  H  H60  1  0.40224693  0.52796500  0.15572311  1
  H  H61  1  0.09775307  0.02796500  0.84427689  1
  H  H62  1  0.90224693  0.47203500  0.34427689  1
  H  H63  1  0.59775307  0.97203500  0.65572311  1
  H  H64  1  0.59439375  0.34578600  0.90162182  1
  H  H65  1  0.90560625  0.84578600  0.09837818  1
  H  H66  1  0.09439375  0.65421400  0.59837818  1
  H  H67  1  0.40560625  0.15421400  0.40162182  1
  H  H68  1  0.40560625  0.65421400  0.09837818  1
  H  H69  1  0.09439375  0.15421400  0.90162182  1
  H  H70  1  0.90560625  0.34578600  0.40162182  1
  H  H71  1  0.59439375  0.84578600  0.59837818  1
  H  H72  1  0.63842436  0.46017743  0.97060000  1
  H  H73  1  0.86157564  0.96017743  0.02940000  1
  H  H74  1  0.13842436  0.53982257  0.52940000  1
  H  H75  1  0.36157564  0.03982257  0.47060000  1
  H  H76  1  0.36157564  0.53982257  0.02940000  1
  H  H77  1  0.13842436  0.03982257  0.97060000  1
  H  H78  1  0.86157564  0.46017743  0.47060000  1
  H  H79  1  0.63842436  0.96017743  0.52940000  1
  H  H80  1  0.74791862  0.37722728  0.70141204  1
  H  H81  1  0.75208138  0.87722728  0.29858796  1
  H  H82  1  0.24791862  0.62277272  0.79858796  1
  H  H83  1  0.25208138  0.12277272  0.20141204  1
  H  H84  1  0.25208138  0.62277272  0.29858796  1
  H  H85  1  0.24791862  0.12277272  0.70141204  1
  H  H86  1  0.75208138  0.37722728  0.20141204  1
  H  H87  1  0.74791862  0.87722728  0.79858796  1
  H  H88  1  0.75801663  0.25316017  0.76843366  1
  H  H89  1  0.74198337  0.75316017  0.23156634  1
  H  H90  1  0.25801663  0.74683983  0.73156634  1
  H  H91  1  0.24198337  0.24683983  0.26843366  1
  H  H92  1  0.24198337  0.74683983  0.23156634  1
  H  H93  1  0.25801663  0.24683983  0.76843366  1
  H  H94  1  0.74198337  0.25316017  0.26843366  1
  H  H95  1  0.75801663  0.75316017  0.73156634  1
  C  C96  1  0.80033221  0.33000243  0.75412295  1
  C  C97  1  0.69966779  0.83000243  0.24587705  1
  C  C98  1  0.30033221  0.66999757  0.74587705  1
  C  C99  1  0.19966779  0.16999757  0.25412295  1
  C  C100  1  0.19966779  0.66999757  0.24587705  1
  C  C101  1  0.30033221  0.16999757  0.75412295  1
  C  C102  1  0.69966779  0.33000243  0.25412295  1
  C  C103  1  0.80033221  0.83000243  0.74587705  1
  C  C104  1  0.87748157  0.32703799  0.95963478  1
  C  C105  1  0.62251843  0.82703799  0.04036522  1
  C  C106  1  0.37748157  0.67296201  0.54036522  1
  C  C107  1  0.12251843  0.17296201  0.45963478  1
  C  C108  1  0.12251843  0.67296201  0.04036522  1
  C  C109  1  0.37748157  0.17296201  0.95963478  1
  C  C110  1  0.62251843  0.32703799  0.45963478  1
  C  C111  1  0.87748157  0.82703799  0.54036522  1
  C  C112  1  0.87700750  0.52516481  0.85027576  1
  C  C113  1  0.62299250  0.02516481  0.14972424  1
  C  C114  1  0.37700750  0.47483519  0.64972424  1
  C  C115  1  0.12299250  0.97483519  0.35027576  1
  C  C116  1  0.12299250  0.47483519  0.14972424  1
  C  C117  1  0.37700750  0.97483519  0.85027576  1
  C  C118  1  0.62299250  0.52516481  0.35027576  1
  C  C119  1  0.87700750  0.02516481  0.64972424  1
  C  C120  1  0.64173052  0.42174282  0.89886176  1
  C  C121  1  0.85826948  0.92174282  0.10113824  1
  C  C122  1  0.14173052  0.57825718  0.60113824  1
  C  C123  1  0.35826948  0.07825718  0.39886176  1
  C  C124  1  0.35826948  0.57825718  0.10113824  1
  C  C125  1  0.14173052  0.07825718  0.89886176  1
  C  C126  1  0.85826948  0.42174282  0.39886176  1
  C  C127  1  0.64173052  0.92174282  0.60113824  1
  Cl  Cl128  1  0.95185480  0.31033574  0.70655378  1
  Cl  Cl129  1  0.54814520  0.81033574  0.29344622  1
  Cl  Cl130  1  0.45185480  0.68966426  0.79344622  1
  Cl  Cl131  1  0.04814520  0.18966426  0.20655378  1
  Cl  Cl132  1  0.04814520  0.68966426  0.29344622  1
  Cl  Cl133  1  0.45185480  0.18966426  0.70655378  1
  Cl  Cl134  1  0.54814520  0.31033574  0.20655378  1
  Cl  Cl135  1  0.95185480  0.81033574  0.79344622  1
  Cl  Cl136  1  0.71408129  0.57506154  0.61401526  1
  Cl  Cl137  1  0.78591871  0.07506154  0.38598474  1
  Cl  Cl138  1  0.21408129  0.42493846  0.88598474  1
  Cl  Cl139  1  0.28591871  0.92493846  0.11401526  1
  Cl  Cl140  1  0.28591871  0.42493846  0.38598474  1
  Cl  Cl141  1  0.21408129  0.92493846  0.61401526  1
  Cl  Cl142  1  0.78591871  0.57506154  0.11401526  1
  Cl  Cl143  1  0.71408129  0.07506154  0.88598474  1
