# generated using pymatgen
data_TiH24C6I3(N2O)6
_symmetry_space_group_name_H-M   'P 1'
_cell_length_a   11.68082782
_cell_length_b   11.68082782
_cell_length_c   11.68082781
_cell_angle_alpha   102.74162156
_cell_angle_beta   102.74162156
_cell_angle_gamma   102.74162154
_symmetry_Int_Tables_number   1
_chemical_formula_structural   TiH24C6I3(N2O)6
_chemical_formula_sum   'Ti2 H48 C12 I6 N24 O12'
_cell_volume   1454.25803227
_cell_formula_units_Z   2
loop_
 _symmetry_equiv_pos_site_id
 _symmetry_equiv_pos_as_xyz
  1  'x, y, z'
loop_
 _atom_site_type_symbol
 _atom_site_label
 _atom_site_symmetry_multiplicity
 _atom_site_fract_x
 _atom_site_fract_y
 _atom_site_fract_z
 _atom_site_occupancy
  Ti  Ti0  1  0.25000000  0.25000000  0.25000000  1
  Ti  Ti1  1  0.75000000  0.75000000  0.75000000  1
  H  H2  1  0.60373088  0.13919281  0.50608684  1
  H  H3  1  0.13919281  0.50608684  0.60373088  1
  H  H4  1  0.50608684  0.60373088  0.13919281  1
  H  H5  1  0.10373088  0.00608684  0.63919281  1
  H  H6  1  0.00608684  0.63919281  0.10373088  1
  H  H7  1  0.63919281  0.10373088  0.00608684  1
  H  H8  1  0.39626912  0.86080719  0.49391316  1
  H  H9  1  0.86080719  0.49391316  0.39626912  1
  H  H10  1  0.49391316  0.39626912  0.86080719  1
  H  H11  1  0.89626912  0.99391316  0.36080719  1
  H  H12  1  0.99391316  0.36080719  0.89626912  1
  H  H13  1  0.36080719  0.89626912  0.99391316  1
  H  H14  1  0.46713593  0.13560200  0.54601088  1
  H  H15  1  0.13560200  0.54601088  0.46713593  1
  H  H16  1  0.54601088  0.46713593  0.13560200  1
  H  H17  1  0.96713593  0.04601088  0.63560200  1
  H  H18  1  0.04601088  0.63560200  0.96713593  1
  H  H19  1  0.63560200  0.96713593  0.04601088  1
  H  H20  1  0.53286407  0.86439800  0.45398912  1
  H  H21  1  0.86439800  0.45398912  0.53286407  1
  H  H22  1  0.45398912  0.53286407  0.86439800  1
  H  H23  1  0.03286407  0.95398912  0.36439800  1
  H  H24  1  0.95398912  0.36439800  0.03286407  1
  H  H25  1  0.36439800  0.03286407  0.95398912  1
  H  H26  1  0.63619816  0.21295900  0.34317956  1
  H  H27  1  0.21295900  0.34317956  0.63619816  1
  H  H28  1  0.34317956  0.63619816  0.21295900  1
  H  H29  1  0.13619816  0.84317956  0.71295900  1
  H  H30  1  0.84317956  0.71295900  0.13619816  1
  H  H31  1  0.71295900  0.13619816  0.84317956  1
  H  H32  1  0.36380184  0.78704100  0.65682044  1
  H  H33  1  0.78704100  0.65682044  0.36380184  1
  H  H34  1  0.65682044  0.36380184  0.78704100  1
  H  H35  1  0.86380184  0.15682044  0.28704100  1
  H  H36  1  0.15682044  0.28704100  0.86380184  1
  H  H37  1  0.28704100  0.86380184  0.15682044  1
  H  H38  1  0.52714636  0.27169238  0.26512118  1
  H  H39  1  0.27169238  0.26512118  0.52714636  1
  H  H40  1  0.26512118  0.52714636  0.27169238  1
  H  H41  1  0.02714636  0.76512118  0.77169238  1
  H  H42  1  0.76512118  0.77169238  0.02714636  1
  H  H43  1  0.77169238  0.02714636  0.76512118  1
  H  H44  1  0.47285364  0.72830762  0.73487882  1
  H  H45  1  0.72830762  0.73487882  0.47285364  1
  H  H46  1  0.73487882  0.47285364  0.72830762  1
  H  H47  1  0.97285364  0.23487882  0.22830762  1
  H  H48  1  0.23487882  0.22830762  0.97285364  1
  H  H49  1  0.22830762  0.97285364  0.23487882  1
  C  C50  1  0.48107680  0.20212365  0.40017521  1
  C  C51  1  0.20212365  0.40017521  0.48107680  1
  C  C52  1  0.40017521  0.48107680  0.20212365  1
  C  C53  1  0.98107680  0.90017521  0.70212365  1
  C  C54  1  0.90017521  0.70212365  0.98107680  1
  C  C55  1  0.70212365  0.98107680  0.90017521  1
  C  C56  1  0.51892320  0.79787635  0.59982479  1
  C  C57  1  0.79787635  0.59982479  0.51892320  1
  C  C58  1  0.59982479  0.51892320  0.79787635  1
  C  C59  1  0.01892320  0.09982479  0.29787635  1
  C  C60  1  0.09982479  0.29787635  0.01892320  1
  C  C61  1  0.29787635  0.01892320  0.09982479  1
  I  I62  1  0.62136247  0.87863753  0.25000000  1
  I  I63  1  0.87863753  0.25000000  0.62136247  1
  I  I64  1  0.25000000  0.62136247  0.87863753  1
  I  I65  1  0.12136247  0.75000000  0.37863753  1
  I  I66  1  0.75000000  0.37863753  0.12136247  1
  I  I67  1  0.37863753  0.12136247  0.75000000  1
  N  N68  1  0.51755813  0.14859801  0.48635724  1
  N  N69  1  0.14859801  0.48635724  0.51755813  1
  N  N70  1  0.48635724  0.51755813  0.14859801  1
  N  N71  1  0.01755813  0.98635724  0.64859801  1
  N  N72  1  0.98635724  0.64859801  0.01755813  1
  N  N73  1  0.64859801  0.01755813  0.98635724  1
  N  N74  1  0.48244187  0.85140199  0.51364276  1
  N  N75  1  0.85140199  0.51364276  0.48244187  1
  N  N76  1  0.51364276  0.48244187  0.85140199  1
  N  N77  1  0.98244187  0.01364276  0.35140199  1
  N  N78  1  0.01364276  0.35140199  0.98244187  1
  N  N79  1  0.35140199  0.98244187  0.01364276  1
  N  N80  1  0.55540817  0.23386826  0.33269555  1
  N  N81  1  0.23386826  0.33269555  0.55540817  1
  N  N82  1  0.33269555  0.55540817  0.23386826  1
  N  N83  1  0.05540817  0.83269555  0.73386826  1
  N  N84  1  0.83269555  0.73386826  0.05540817  1
  N  N85  1  0.73386826  0.05540817  0.83269555  1
  N  N86  1  0.44459183  0.76613174  0.66730445  1
  N  N87  1  0.76613174  0.66730445  0.44459183  1
  N  N88  1  0.66730445  0.44459183  0.76613174  1
  N  N89  1  0.94459183  0.16730445  0.26613174  1
  N  N90  1  0.16730445  0.26613174  0.94459183  1
  N  N91  1  0.26613174  0.94459183  0.16730445  1
  O  O92  1  0.37514090  0.22113797  0.38385047  1
  O  O93  1  0.22113797  0.38385047  0.37514090  1
  O  O94  1  0.38385047  0.37514090  0.22113797  1
  O  O95  1  0.87514090  0.88385047  0.72113797  1
  O  O96  1  0.88385047  0.72113797  0.87514090  1
  O  O97  1  0.72113797  0.87514090  0.88385047  1
  O  O98  1  0.62485910  0.77886203  0.61614953  1
  O  O99  1  0.77886203  0.61614953  0.62485910  1
  O  O100  1  0.61614953  0.62485910  0.77886203  1
  O  O101  1  0.12485910  0.11614953  0.27886203  1
  O  O102  1  0.11614953  0.27886203  0.12485910  1
  O  O103  1  0.27886203  0.12485910  0.11614953  1
