# generated using pymatgen
data_MgH16(ClO4)2
_symmetry_space_group_name_H-M   'P 1'
_cell_length_a   7.39351482
_cell_length_b   12.23440241
_cell_length_c   13.54687491
_cell_angle_alpha   90.00000000
_cell_angle_beta   90.00000000
_cell_angle_gamma   90.00000000
_symmetry_Int_Tables_number   1
_chemical_formula_structural   MgH16(ClO4)2
_chemical_formula_sum   'Mg4 H64 Cl8 O32'
_cell_volume   1225.38576071
_cell_formula_units_Z   4
loop_
 _symmetry_equiv_pos_site_id
 _symmetry_equiv_pos_as_xyz
  1  'x, y, z'
loop_
 _atom_site_type_symbol
 _atom_site_label
 _atom_site_symmetry_multiplicity
 _atom_site_fract_x
 _atom_site_fract_y
 _atom_site_fract_z
 _atom_site_occupancy
  Mg  Mg0  1  0.50000000  0.50000000  -0.00000000  1
  Mg  Mg1  1  0.50000000  0.00000000  0.50000000  1
  Mg  Mg2  1  0.00000000  0.50000000  0.50000000  1
  Mg  Mg3  1  0.00000000  0.00000000  -0.00000000  1
  H  H4  1  0.25234232  0.48704455  0.85575892  1
  H  H5  1  0.74765768  0.98704455  0.64424108  1
  H  H6  1  0.24765768  0.51295545  0.35575892  1
  H  H7  1  0.75234232  0.01295545  0.14424108  1
  H  H8  1  0.74765768  0.51295545  0.14424108  1
  H  H9  1  0.25234232  0.01295545  0.35575892  1
  H  H10  1  0.75234232  0.48704455  0.64424108  1
  H  H11  1  0.24765768  0.98704455  0.85575892  1
  H  H12  1  0.49921290  0.29291861  0.92116588  1
  H  H13  1  0.50078710  0.79291861  0.57883412  1
  H  H14  1  0.00078710  0.70708139  0.42116588  1
  H  H15  1  0.99921290  0.20708139  0.07883412  1
  H  H16  1  0.50078710  0.70708139  0.07883412  1
  H  H17  1  0.49921290  0.20708139  0.42116588  1
  H  H18  1  0.99921290  0.29291861  0.57883412  1
  H  H19  1  0.00078710  0.79291861  0.92116588  1
  H  H20  1  0.16627747  0.53692921  0.08143344  1
  H  H21  1  0.83372253  0.03692921  0.41856656  1
  H  H22  1  0.33372253  0.46307079  0.58143344  1
  H  H23  1  0.66627747  0.96307079  0.91856656  1
  H  H24  1  0.83372253  0.46307079  0.91856656  1
  H  H25  1  0.16627747  0.96307079  0.58143344  1
  H  H26  1  0.66627747  0.53692921  0.41856656  1
  H  H27  1  0.33372253  0.03692921  0.08143344  1
  H  H28  1  0.51520753  0.27916824  0.03697020  1
  H  H29  1  0.48479247  0.77916824  0.46302980  1
  H  H30  1  0.98479247  0.72083176  0.53697020  1
  H  H31  1  0.01520753  0.22083176  0.96302980  1
  H  H32  1  0.48479247  0.72083176  0.96302980  1
  H  H33  1  0.51520753  0.22083176  0.53697020  1
  H  H34  1  0.01520753  0.27916824  0.46302980  1
  H  H35  1  0.98479247  0.77916824  0.03697020  1
  H  H36  1  0.19364245  0.41302262  0.09901917  1
  H  H37  1  0.80635755  0.91302262  0.40098083  1
  H  H38  1  0.30635755  0.58697738  0.59901917  1
  H  H39  1  0.69364245  0.08697738  0.90098083  1
  H  H40  1  0.80635755  0.58697738  0.90098083  1
  H  H41  1  0.19364245  0.08697738  0.59901917  1
  H  H42  1  0.69364245  0.41302262  0.40098083  1
  H  H43  1  0.30635755  0.91302262  0.09901917  1
  H  H44  1  0.50064076  0.22564257  0.19065300  1
  H  H45  1  0.49935924  0.72564257  0.30934700  1
  H  H46  1  0.99935924  0.77435743  0.69065300  1
  H  H47  1  0.00064076  0.27435743  0.80934700  1
  H  H48  1  0.49935924  0.77435743  0.80934700  1
  H  H49  1  0.50064076  0.27435743  0.69065300  1
  H  H50  1  0.00064076  0.22564257  0.30934700  1
  H  H51  1  0.99935924  0.72564257  0.19065300  1
  H  H52  1  0.33254715  0.19431175  0.13036748  1
  H  H53  1  0.66745285  0.69431175  0.36963252  1
  H  H54  1  0.16745285  0.80568825  0.63036748  1
  H  H55  1  0.83254715  0.30568825  0.86963252  1
  H  H56  1  0.66745285  0.80568825  0.86963252  1
  H  H57  1  0.33254715  0.30568825  0.63036748  1
  H  H58  1  0.83254715  0.19431175  0.36963252  1
  H  H59  1  0.16745285  0.69431175  0.13036748  1
  H  H60  1  0.40601490  0.55752119  0.80634906  1
  H  H61  1  0.59398510  0.05752119  0.69365094  1
  H  H62  1  0.09398510  0.44247881  0.30634906  1
  H  H63  1  0.90601490  0.94247881  0.19365094  1
  H  H64  1  0.59398510  0.44247881  0.19365094  1
  H  H65  1  0.40601490  0.94247881  0.30634906  1
  H  H66  1  0.90601490  0.55752119  0.69365094  1
  H  H67  1  0.09398510  0.05752119  0.80634906  1
  Cl  Cl68  1  0.51472654  0.33100813  0.30968490  1
  Cl  Cl69  1  0.48527346  0.83100813  0.19031510  1
  Cl  Cl70  1  0.98527346  0.66899187  0.80968490  1
  Cl  Cl71  1  0.01472654  0.16899187  0.69031510  1
  Cl  Cl72  1  0.48527346  0.66899187  0.69031510  1
  Cl  Cl73  1  0.51472654  0.16899187  0.80968490  1
  Cl  Cl74  1  0.01472654  0.33100813  0.19031510  1
  Cl  Cl75  1  0.98527346  0.83100813  0.30968490  1
  O  O76  1  0.52811842  0.33349496  0.98216586  1
  O  O77  1  0.47188158  0.83349496  0.51783414  1
  O  O78  1  0.97188158  0.66650504  0.48216586  1
  O  O79  1  0.02811842  0.16650504  0.01783414  1
  O  O80  1  0.47188158  0.66650504  0.01783414  1
  O  O81  1  0.52811842  0.16650504  0.48216586  1
  O  O82  1  0.02811842  0.33349496  0.51783414  1
  O  O83  1  0.97188158  0.83349496  0.98216586  1
  O  O84  1  0.38147858  0.50325819  0.85900403  1
  O  O85  1  0.61852142  0.00325819  0.64099597  1
  O  O86  1  0.11852142  0.49674181  0.35900403  1
  O  O87  1  0.88147858  0.99674181  0.14099597  1
  O  O88  1  0.61852142  0.49674181  0.14099597  1
  O  O89  1  0.38147858  0.99674181  0.35900403  1
  O  O90  1  0.88147858  0.50325819  0.64099597  1
  O  O91  1  0.11852142  0.00325819  0.85900403  1
  O  O92  1  0.24523311  0.47639389  0.06264867  1
  O  O93  1  0.75476689  0.97639389  0.43735133  1
  O  O94  1  0.25476689  0.52360611  0.56264867  1
  O  O95  1  0.74523311  0.02360611  0.93735133  1
  O  O96  1  0.75476689  0.52360611  0.93735133  1
  O  O97  1  0.24523311  0.02360611  0.56264867  1
  O  O98  1  0.74523311  0.47639389  0.43735133  1
  O  O99  1  0.25476689  0.97639389  0.06264867  1
  O  O100  1  0.46442236  0.18677938  0.12874187  1
  O  O101  1  0.53557764  0.68677938  0.37125813  1
  O  O102  1  0.03557764  0.81322062  0.62874187  1
  O  O103  1  0.96442236  0.31322062  0.87125813  1
  O  O104  1  0.53557764  0.81322062  0.87125813  1
  O  O105  1  0.46442236  0.31322062  0.62874187  1
  O  O106  1  0.96442236  0.18677938  0.37125813  1
  O  O107  1  0.03557764  0.68677938  0.12874187  1
