# generated using pymatgen
data_PC2S2N3
_symmetry_space_group_name_H-M   'P 1'
_cell_length_a   8.19788839
_cell_length_b   10.51265918
_cell_length_c   11.98840329
_cell_angle_alpha   99.40581476
_cell_angle_beta   97.10780423
_cell_angle_gamma   95.81936767
_symmetry_Int_Tables_number   1
_chemical_formula_structural   PC2S2N3
_chemical_formula_sum   'P6 C12 S12 N18'
_cell_volume   1003.62137274
_cell_formula_units_Z   6
loop_
 _symmetry_equiv_pos_site_id
 _symmetry_equiv_pos_as_xyz
  1  'x, y, z'
loop_
 _atom_site_type_symbol
 _atom_site_label
 _atom_site_symmetry_multiplicity
 _atom_site_fract_x
 _atom_site_fract_y
 _atom_site_fract_z
 _atom_site_occupancy
  P  P0  1  0.81889739  0.15181169  0.36142476  1
  P  P1  1  0.03479934  0.74736871  0.80871285  1
  P  P2  1  0.91443287  0.98514311  0.18212259  1
  P  P3  1  0.18110261  0.84818831  0.63857524  1
  P  P4  1  0.08556713  0.01485689  0.81787741  1
  P  P5  1  0.96520066  0.25263129  0.19128715  1
  C  C6  1  0.80184279  0.14014895  0.79485761  1
  C  C7  1  0.26737726  0.40792763  0.27972412  1
  C  C8  1  0.49304668  0.14410501  0.41638391  1
  C  C9  1  0.99366325  0.26877927  0.56417884  1
  C  C10  1  0.81328440  0.42012983  0.06593258  1
  C  C11  1  0.73262274  0.59207237  0.72027588  1
  C  C12  1  0.18671560  0.57987017  0.93406742  1
  C  C13  1  0.19815721  0.85985105  0.20514239  1
  C  C14  1  0.50695332  0.85589499  0.58361609  1
  C  C15  1  0.66665650  0.86874426  0.00320048  1
  C  C16  1  0.00633675  0.73122073  0.43582116  1
  C  C17  1  0.33334350  0.13125574  0.99679952  1
  S  S18  1  0.42121405  0.49906667  0.34881817  1
  S  S19  1  0.57878595  0.50093333  0.65118183  1
  S  S20  1  0.10248748  0.37983816  0.65173107  1
  S  S21  1  0.37563233  0.81842428  0.22215540  1
  S  S22  1  0.53232307  0.83182357  0.89530173  1
  S  S23  1  0.89751252  0.62016184  0.34826893  1
  S  S24  1  0.46767693  0.16817643  0.10469827  1
  S  S25  1  0.67799601  0.86880072  0.53907083  1
  S  S26  1  0.27185891  0.46728832  0.97707478  1
  S  S27  1  0.32200399  0.13119928  0.46092917  1
  S  S28  1  0.72814109  0.53271168  0.02292522  1
  S  S29  1  0.62436767  0.18157572  0.77784460  1
  N  N30  1  0.62269988  0.15528225  0.37876930  1
  N  N31  1  0.87072277  0.27078157  0.30029286  1
  N  N32  1  0.02003905  0.89161276  0.86920192  1
  N  N33  1  0.84774661  0.66445581  0.77813012  1
  N  N34  1  0.84695200  0.01038588  0.30222802  1
  N  N35  1  0.97996095  0.10838724  0.13079808  1
  N  N36  1  0.23100017  0.10975361  0.91180294  1
  N  N37  1  0.12927723  0.72921843  0.69970714  1
  N  N38  1  0.91113164  0.17855700  0.49691081  1
  N  N39  1  0.87813714  0.32928874  0.09382780  1
  N  N40  1  0.12186286  0.67071126  0.90617220  1
  N  N41  1  0.76899983  0.89024639  0.08819706  1
  N  N42  1  0.15304800  0.98961412  0.69777198  1
  N  N43  1  0.05743762  0.88623874  0.19167951  1
  N  N44  1  0.37730012  0.84471775  0.62123070  1
  N  N45  1  0.94256238  0.11376126  0.80832049  1
  N  N46  1  0.08886836  0.82144300  0.50308919  1
  N  N47  1  0.15225339  0.33554419  0.22186988  1
