# generated using pymatgen
data_Co2AsO5
_symmetry_space_group_name_H-M   'P 1'
_cell_length_a   5.95827732
_cell_length_b   8.40891322
_cell_length_c   8.41697275
_cell_angle_alpha   90.00000000
_cell_angle_beta   90.00000000
_cell_angle_gamma   90.00000000
_symmetry_Int_Tables_number   1
_chemical_formula_structural   Co2AsO5
_chemical_formula_sum   'Co8 As4 O20'
_cell_volume   421.71252970
_cell_formula_units_Z   4
loop_
 _symmetry_equiv_pos_site_id
 _symmetry_equiv_pos_as_xyz
  1  'x, y, z'
loop_
 _atom_site_type_symbol
 _atom_site_label
 _atom_site_symmetry_multiplicity
 _atom_site_fract_x
 _atom_site_fract_y
 _atom_site_fract_z
 _atom_site_occupancy
  Co  Co0  1  0.74516169  0.50000000  0.50000000  1
  Co  Co1  1  0.75483831  0.00000000  0.00000000  1
  Co  Co2  1  0.25483831  0.50000000  0.50000000  1
  Co  Co3  1  0.24516169  0.00000000  -0.00000000  1
  Co  Co4  1  0.00000000  0.87840864  0.34731887  1
  Co  Co5  1  -0.00000000  0.12159136  0.65268113  1
  Co  Co6  1  0.50000000  0.37840864  0.15268113  1
  Co  Co7  1  0.50000000  0.62159136  0.84731887  1
  As  As8  1  0.50000000  0.74757665  0.24462551  1
  As  As9  1  0.50000000  0.25242335  0.75537449  1
  As  As10  1  -0.00000000  0.24757665  0.25537449  1
  As  As11  1  0.00000000  0.75242335  0.74462551  1
  O  O12  1  -0.00000000  0.93035249  0.12461465  1
  O  O13  1  0.00000000  0.06964751  0.87538535  1
  O  O14  1  0.50000000  0.43035249  0.37538535  1
  O  O15  1  0.50000000  0.56964751  0.62461465  1
  O  O16  1  0.50000000  0.92915571  0.14086804  1
  O  O17  1  0.50000000  0.07084429  0.85913196  1
  O  O18  1  -0.00000000  0.42915571  0.35913196  1
  O  O19  1  -0.00000000  0.57084429  0.64086804  1
  O  O20  1  0.50000000  0.60616507  0.09742200  1
  O  O21  1  0.50000000  0.39383493  0.90257800  1
  O  O22  1  0.00000000  0.10616507  0.40257800  1
  O  O23  1  -0.00000000  0.89383493  0.59742200  1
  O  O24  1  0.73519846  0.73337724  0.36257617  1
  O  O25  1  0.73519846  0.26662276  0.63742383  1
  O  O26  1  0.76480154  0.23337724  0.13742383  1
  O  O27  1  0.76480154  0.76662276  0.86257617  1
  O  O28  1  0.26480154  0.26662276  0.63742383  1
  O  O29  1  0.26480154  0.73337724  0.36257617  1
  O  O30  1  0.23519846  0.76662276  0.86257617  1
  O  O31  1  0.23519846  0.23337724  0.13742383  1
