# generated using pymatgen
data_Na4NiH38(W3O20)2
_symmetry_space_group_name_H-M   'P 1'
_cell_length_a   7.90079190
_cell_length_b   10.60970895
_cell_length_c   12.57665821
_cell_angle_alpha   69.35324304
_cell_angle_beta   71.83794658
_cell_angle_gamma   82.41044185
_symmetry_Int_Tables_number   1
_chemical_formula_structural   Na4NiH38(W3O20)2
_chemical_formula_sum   'Na4 Ni1 H38 W6 O40'
_cell_volume   937.08661224
_cell_formula_units_Z   1
loop_
 _symmetry_equiv_pos_site_id
 _symmetry_equiv_pos_as_xyz
  1  'x, y, z'
loop_
 _atom_site_type_symbol
 _atom_site_label
 _atom_site_symmetry_multiplicity
 _atom_site_fract_x
 _atom_site_fract_y
 _atom_site_fract_z
 _atom_site_occupancy
  Na  Na0  1  0.77824384  0.86033336  0.41790351  1
  Na  Na1  1  0.22175616  0.13966664  0.58209649  1
  Na  Na2  1  0.58867881  0.86292781  0.19935028  1
  Na  Na3  1  0.41132119  0.13707219  0.80064972  1
  Ni  Ni4  1  -0.00000000  0.50000000  0.00000000  1
  H  H5  1  0.78461621  0.54106610  0.20559083  1
  H  H6  1  0.21538379  0.45893390  0.79440917  1
  H  H7  1  0.07478580  0.23614998  0.04250806  1
  H  H8  1  0.92521420  0.76385002  0.95749194  1
  H  H9  1  0.66565294  0.56188724  0.97279254  1
  H  H10  1  0.33434706  0.43811276  0.02720746  1
  H  H11  1  0.75632231  0.80574054  0.66538888  1
  H  H12  1  0.24367769  0.19425946  0.33461112  1
  H  H13  1  0.55719792  0.79106522  0.67923065  1
  H  H14  1  0.44280208  0.20893478  0.32076935  1
  H  H15  1  0.11108071  0.72852902  0.50379406  1
  H  H16  1  0.88891929  0.27147098  0.49620594  1
  H  H17  1  0.17171848  0.77631188  0.36846548  1
  H  H18  1  0.82828152  0.22368812  0.63153452  1
  H  H19  1  0.90035662  0.93871973  0.15222168  1
  H  H20  1  0.09964338  0.06128027  0.84777832  1
  H  H21  1  0.96933765  0.78759318  0.18516595  1
  H  H22  1  0.03066235  0.21240682  0.81483405  1
  H  H23  1  0.41009751  0.83412644  0.45724681  1
  H  H24  1  0.58990249  0.16587356  0.54275319  1
  H  H25  1  0.41849444  0.98931122  0.38196776  1
  H  H26  1  0.58150556  0.01068878  0.61803224  1
  H  H27  1  0.64984006  0.59080438  0.55509202  1
  H  H28  1  0.35015994  0.40919562  0.44490798  1
  H  H29  1  0.80504313  0.58578609  0.44185441  1
  H  H30  1  0.19495687  0.41421391  0.55814559  1
  H  H31  1  0.64839842  0.78916672  0.98719882  1
  H  H32  1  0.35160158  0.21083328  0.01280118  1
  H  H33  1  0.72241861  0.93544554  0.94470353  1
  H  H34  1  0.27758139  0.06455446  0.05529647  1
  H  H35  1  0.23704123  0.83424335  0.15952030  1
  H  H36  1  0.76295877  0.16575665  0.84047970  1
  H  H37  1  0.17166046  0.93583200  0.22927496  1
  H  H38  1  0.82833954  0.06416800  0.77072504  1
  H  H39  1  0.50727189  0.56455504  0.27433603  1
  H  H40  1  0.49272811  0.43544496  0.72566397  1
  H  H41  1  0.60764552  0.60207785  0.35281982  1
  H  H42  1  0.39235448  0.39792215  0.64718018  1
  W  W43  1  0.85975084  0.26211154  0.26808994  1
  W  W44  1  0.14024916  0.73788846  0.73191006  1
  W  W45  1  0.70665904  0.27074429  0.04417899  1
  W  W46  1  0.29334096  0.72925571  0.95582101  1
  W  W47  1  0.86355602  0.50024385  0.76958725  1
  W  W48  1  0.13644398  0.49975615  0.23041275  1
  O  O49  1  0.89218943  0.48669847  0.17514869  1
  O  O50  1  0.10781057  0.51330153  0.82485131  1
  O  O51  1  0.96724327  0.29260010  0.06936526  1
  O  O52  1  0.03275673  0.70739990  0.93063474  1
  O  O53  1  0.76334778  0.49317518  0.96022426  1
  O  O54  1  0.23665222  0.50682482  0.03977574  1
  O  O55  1  0.65643467  0.28522392  0.20121498  1
  O  O56  1  0.34356533  0.71477608  0.79878502  1
  O  O57  1  0.84527615  0.30672566  0.87360669  1
  O  O58  1  0.15472385  0.69327434  0.12639331  1
  O  O59  1  0.90338917  0.69255831  0.73540950  1
  O  O60  1  0.09661083  0.30744169  0.26459050  1
  O  O61  1  0.72828867  0.28105468  0.40534930  1
  O  O62  1  0.27171133  0.71894532  0.59465070  1
  O  O63  1  0.90254184  0.08585272  0.30264004  1
  O  O64  1  0.09745816  0.91414728  0.69735996  1
  O  O65  1  0.72620813  0.09291072  0.07920636  1
  O  O66  1  0.27379187  0.90708928  0.92079364  1
  O  O67  1  0.48489821  0.30936823  0.02868298  1
  O  O68  1  0.51510179  0.69063177  0.97131702  1
  O  O69  1  0.65375274  0.52266908  0.73882727  1
  O  O70  1  0.34624726  0.47733092  0.26117273  1
  O  O71  1  0.01152470  0.47033270  0.64273431  1
  O  O72  1  0.98847530  0.52966730  0.35726569  1
  O  O73  1  0.66039321  0.84767850  0.62754207  1
  O  O74  1  0.33960679  0.15232150  0.37245793  1
  O  O75  1  0.06516992  0.76985840  0.43490088  1
  O  O76  1  0.93483008  0.23014160  0.56509912  1
  O  O77  1  0.88601054  0.85250928  0.21684835  1
  O  O78  1  0.11398946  0.14749072  0.78315165  1
  O  O79  1  0.48161507  0.90091871  0.38516034  1
  O  O80  1  0.51838493  0.09908129  0.61483966  1
  O  O81  1  0.68577781  0.62734518  0.46848794  1
  O  O82  1  0.31422219  0.37265482  0.53151206  1
  O  O83  1  0.73029463  0.84297411  0.00019860  1
  O  O84  1  0.26970537  0.15702589  -0.00019860  1
  O  O85  1  0.27892943  0.90454211  0.17939744  1
  O  O86  1  0.72107057  0.09545789  0.82060256  1
  O  O87  1  0.60390363  0.61857293  0.27065421  1
  O  O88  1  0.39609637  0.38142707  0.72934579  1
