# generated using pymatgen
data_Ca2MnO4
_symmetry_space_group_name_H-M   'P 1'
_cell_length_a   3.76844676
_cell_length_b   3.76844676
_cell_length_c   6.50823841
_cell_angle_alpha   106.82883684
_cell_angle_beta   106.82883684
_cell_angle_gamma   90.00000000
_symmetry_Int_Tables_number   1
_chemical_formula_structural   Ca2MnO4
_chemical_formula_sum   'Ca2 Mn1 O4'
_cell_volume   84.32275901
_cell_formula_units_Z   1
loop_
 _symmetry_equiv_pos_site_id
 _symmetry_equiv_pos_as_xyz
  1  'x, y, z'
loop_
 _atom_site_type_symbol
 _atom_site_label
 _atom_site_symmetry_multiplicity
 _atom_site_fract_x
 _atom_site_fract_y
 _atom_site_fract_z
 _atom_site_occupancy
  Ca  Ca0  1  0.35526669  0.85526669  0.21053338  1
  Ca  Ca1  1  0.64473331  0.14473331  0.78946662  1
  Mn  Mn2  1  0.00000000  0.50000000  0.50000000  1
  O  O3  1  0.16373677  0.66373677  0.82747353  1
  O  O4  1  0.83626323  0.33626323  0.17252647  1
  O  O5  1  0.00000000  0.00000000  0.50000000  1
  O  O6  1  0.50000000  0.50000000  0.50000000  1
