# generated using pymatgen
data_Nb7(B4Rh3)2
_symmetry_space_group_name_H-M   'P 1'
_cell_length_a   6.57626248
_cell_length_b   16.33723086
_cell_length_c   16.33710250
_cell_angle_alpha   120.00097082
_cell_angle_beta   90.00000000
_cell_angle_gamma   90.00000000
_symmetry_Int_Tables_number   1
_chemical_formula_structural   Nb7(B4Rh3)2
_chemical_formula_sum   'Nb42 B48 Rh36'
_cell_volume   1520.05394911
_cell_formula_units_Z   6
loop_
 _symmetry_equiv_pos_site_id
 _symmetry_equiv_pos_as_xyz
  1  'x, y, z'
loop_
 _atom_site_type_symbol
 _atom_site_label
 _atom_site_symmetry_multiplicity
 _atom_site_fract_x
 _atom_site_fract_y
 _atom_site_fract_z
 _atom_site_occupancy
  Nb  Nb0  1  0.75000000  0.66667496  0.33333714  1
  Nb  Nb1  1  0.25000000  0.33332504  0.66666286  1
  Nb  Nb2  1  0.75000000  0.33331973  0.66666041  1
  Nb  Nb3  1  0.25000000  0.66668027  0.33333959  1
  Nb  Nb4  1  0.75000000  0.00000069  0.99999770  1
  Nb  Nb5  1  0.25000000  -0.00000069  0.00000230  1
  Nb  Nb6  1  0.75000000  0.85354073  0.78350983  1
  Nb  Nb7  1  0.75000000  0.21648117  0.07001911  1
  Nb  Nb8  1  0.75000000  0.92998467  0.14647660  1
  Nb  Nb9  1  0.25000000  0.14645927  0.21649017  1
  Nb  Nb10  1  0.25000000  0.78351883  0.92998089  1
  Nb  Nb11  1  0.25000000  0.07001533  0.85352340  1
  Nb  Nb12  1  0.75000000  0.73834611  0.18829762  1
  Nb  Nb13  1  0.75000000  0.81172652  0.55004272  1
  Nb  Nb14  1  0.75000000  0.44996265  0.26166192  1
  Nb  Nb15  1  0.25000000  0.26165389  0.81170238  1
  Nb  Nb16  1  0.25000000  0.18827348  0.44995728  1
  Nb  Nb17  1  0.25000000  0.55003735  0.73833808  1
  Nb  Nb18  1  0.75000000  0.05945790  0.84936132  1
  Nb  Nb19  1  0.75000000  0.15061622  0.21009250  1
  Nb  Nb20  1  0.75000000  0.78991990  0.94054448  1
  Nb  Nb21  1  0.25000000  0.94054210  0.15063868  1
  Nb  Nb22  1  0.25000000  0.84938378  0.78990750  1
  Nb  Nb23  1  0.25000000  0.21008010  0.05945552  1
  Nb  Nb24  1  0.75000000  0.27285198  0.81638881  1
  Nb  Nb25  1  0.75000000  0.18358431  0.45646894  1
  Nb  Nb26  1  0.75000000  0.54352484  0.72713893  1
  Nb  Nb27  1  0.25000000  0.72714802  0.18361119  1
  Nb  Nb28  1  0.25000000  0.81641569  0.54353106  1
  Nb  Nb29  1  0.25000000  0.45647516  0.27286107  1
  Nb  Nb30  1  0.75000000  0.47788732  0.87902664  1
  Nb  Nb31  1  0.75000000  0.12095143  0.59885389  1
  Nb  Nb32  1  0.75000000  0.40112637  0.52211113  1
  Nb  Nb33  1  0.25000000  0.52211268  0.12097336  1
  Nb  Nb34  1  0.25000000  0.87904857  0.40114611  1
  Nb  Nb35  1  0.25000000  0.59887363  0.47788887  1
  Nb  Nb36  1  0.75000000  0.51448362  0.11932215  1
  Nb  Nb37  1  0.75000000  0.88070047  0.39517478  1
  Nb  Nb38  1  0.75000000  0.60485575  0.48552289  1
  Nb  Nb39  1  0.25000000  0.48551638  0.88067785  1
  Nb  Nb40  1  0.25000000  0.11929953  0.60482522  1
  Nb  Nb41  1  0.25000000  0.39514425  0.51447711  1
  B  B42  1  0.75000000  0.34138936  0.00656939  1
  B  B43  1  0.75000000  0.99342981  0.33482248  1
  B  B44  1  0.75000000  0.66518354  0.65861081  1
  B  B45  1  0.25000000  0.65861064  0.99343061  1
  B  B46  1  0.25000000  0.00657019  0.66517752  1
  B  B47  1  0.25000000  0.33481646  0.34138919  1
  B  B48  1  0.75000000  0.98694080  0.67104241  1
  B  B49  1  0.75000000  0.32895371  0.31589538  1
  B  B50  1  0.75000000  0.68410698  0.01306483  1
  B  B51  1  0.25000000  0.01305920  0.32895759  1
  B  B52  1  0.25000000  0.67104629  0.68410462  1
  B  B53  1  0.25000000  0.31589302  0.98693517  1
  B  B54  1  0.00002850  0.23699325  0.69489415  1
  B  B55  1  0.00002703  0.30509927  0.54209946  1
  B  B56  1  0.00003014  0.45790445  0.76301195  1
  B  B57  1  0.50002850  0.76300675  0.30510585  1
  B  B58  1  0.50002703  0.69490073  0.45790054  1
  B  B59  1  0.50003014  0.54209555  0.23698805  1
  B  B60  1  -0.00002850  0.76300675  0.30510585  1
  B  B61  1  -0.00002703  0.69490073  0.45790054  1
  B  B62  1  -0.00003014  0.54209555  0.23698805  1
  B  B63  1  0.49997150  0.23699325  0.69489415  1
  B  B64  1  0.49997297  0.30509927  0.54209946  1
  B  B65  1  0.49996986  0.45790445  0.76301195  1
  B  B66  1  0.00523830  0.36169346  0.79163733  1
  B  B67  1  0.00524128  0.20836749  0.57006349  1
  B  B68  1  0.00523994  0.42993914  0.63831050  1
  B  B69  1  0.50523830  0.63830654  0.20836267  1
  B  B70  1  0.50524128  0.79163251  0.42993651  1
  B  B71  1  0.50523994  0.57006086  0.36168950  1
  B  B72  1  0.99476170  0.63830654  0.20836267  1
  B  B73  1  0.99475872  0.79163251  0.42993651  1
  B  B74  1  0.99476006  0.57006086  0.36168950  1
  B  B75  1  0.49476170  0.36169346  0.79163733  1
  B  B76  1  0.49475872  0.20836749  0.57006349  1
  B  B77  1  0.49476006  0.42993914  0.63831050  1
  B  B78  1  0.00201172  0.97127900  0.87531076  1
  B  B79  1  0.00201542  0.12468869  0.09596850  1
  B  B80  1  0.00200928  0.90403593  0.02872581  1
  B  B81  1  0.50201172  0.02872100  0.12468924  1
  B  B82  1  0.50201542  0.87531131  0.90403150  1
  B  B83  1  0.50200928  0.09596407  0.97127419  1
  B  B84  1  0.99798828  0.02872100  0.12468924  1
  B  B85  1  0.99798458  0.87531131  0.90403150  1
  B  B86  1  0.99799072  0.09596407  0.97127419  1
  B  B87  1  0.49798828  0.97127900  0.87531076  1
  B  B88  1  0.49798458  0.12468869  0.09596850  1
  B  B89  1  0.49799072  0.90403593  0.02872581  1
  Rh  Rh90  1  0.02119336  0.40170975  0.95844693  1
  Rh  Rh91  1  0.02120170  0.04153886  0.44327572  1
  Rh  Rh92  1  0.02121145  0.55673592  0.59828857  1
  Rh  Rh93  1  0.52119336  0.59829025  0.04155307  1
  Rh  Rh94  1  0.52120170  0.95846114  0.55672428  1
  Rh  Rh95  1  0.52121145  0.44326408  0.40171143  1
  Rh  Rh96  1  0.97880664  0.59829025  0.04155307  1
  Rh  Rh97  1  0.97879830  0.95846114  0.55672428  1
  Rh  Rh98  1  0.97878855  0.44326408  0.40171143  1
  Rh  Rh99  1  0.47880664  0.40170975  0.95844693  1
  Rh  Rh100  1  0.47879830  0.04153886  0.44327572  1
  Rh  Rh101  1  0.47878855  0.55673592  0.59828857  1
  Rh  Rh102  1  0.97116372  0.22236917  0.93020991  1
  Rh  Rh103  1  0.97115353  0.06976250  0.29217817  1
  Rh  Rh104  1  0.97116329  0.70784835  0.77761318  1
  Rh  Rh105  1  0.47116372  0.77763083  0.06979009  1
  Rh  Rh106  1  0.47115353  0.93023750  0.70782183  1
  Rh  Rh107  1  0.47116329  0.29215165  0.22238682  1
  Rh  Rh108  1  0.02883628  0.77763083  0.06979009  1
  Rh  Rh109  1  0.02884647  0.93023750  0.70782183  1
  Rh  Rh110  1  0.02883671  0.29215165  0.22238682  1
  Rh  Rh111  1  0.52883628  0.22236917  0.93020991  1
  Rh  Rh112  1  0.52884647  0.06976250  0.29217817  1
  Rh  Rh113  1  0.52883671  0.70784835  0.77761318  1
  Rh  Rh114  1  0.97474280  0.10998031  0.73544016  1
  Rh  Rh115  1  0.97472181  0.26451627  0.37452942  1
  Rh  Rh116  1  0.97473570  0.62547681  0.89001739  1
  Rh  Rh117  1  0.47474280  0.89001969  0.26455984  1
  Rh  Rh118  1  0.47472181  0.73548373  0.62547058  1
  Rh  Rh119  1  0.47473570  0.37452319  0.10998261  1
  Rh  Rh120  1  0.02525720  0.89001969  0.26455984  1
  Rh  Rh121  1  0.02527819  0.73548373  0.62547058  1
  Rh  Rh122  1  0.02526430  0.37452319  0.10998261  1
  Rh  Rh123  1  0.52525720  0.10998031  0.73544016  1
  Rh  Rh124  1  0.52527819  0.26451627  0.37452942  1
  Rh  Rh125  1  0.52526430  0.62547681  0.89001739  1
