# generated using pymatgen
data_Cs2K2Pd2N8O25
_symmetry_space_group_name_H-M   'P 1'
_cell_length_a   7.88226503
_cell_length_b   7.88226503
_cell_length_c   22.60625313
_cell_angle_alpha   86.87482909
_cell_angle_beta   86.87482909
_cell_angle_gamma   89.85974821
_symmetry_Int_Tables_number   1
_chemical_formula_structural   Cs2K2Pd2N8O25
_chemical_formula_sum   'Cs4 K4 Pd4 N16 O50'
_cell_volume   1400.35413949
_cell_formula_units_Z   2
loop_
 _symmetry_equiv_pos_site_id
 _symmetry_equiv_pos_as_xyz
  1  'x, y, z'
loop_
 _atom_site_type_symbol
 _atom_site_label
 _atom_site_symmetry_multiplicity
 _atom_site_fract_x
 _atom_site_fract_y
 _atom_site_fract_z
 _atom_site_occupancy
  Cs  Cs0  1  0.74916322  0.26187851  0.02433904  1
  Cs  Cs1  1  0.73812149  0.25083678  0.47566096  1
  Cs  Cs2  1  0.25083678  0.73812149  0.97566096  1
  Cs  Cs3  1  0.26187851  0.74916322  0.52433904  1
  K  K4  1  0.85539651  0.75544392  0.74734168  1
  K  K5  1  0.24455608  0.14460349  0.75265832  1
  K  K6  1  0.14460349  0.24455608  0.25265832  1
  K  K7  1  0.75544392  0.85539651  0.24734168  1
  Pd  Pd8  1  0.76723134  0.26916045  0.83378682  1
  Pd  Pd9  1  0.73083955  0.23276866  0.66621318  1
  Pd  Pd10  1  0.23276866  0.73083955  0.16621318  1
  Pd  Pd11  1  0.26916045  0.76723134  0.33378682  1
  N  N12  1  0.59838721  0.58222754  0.86901424  1
  N  N13  1  0.41777246  0.40161279  0.63098576  1
  N  N14  1  0.40161279  0.41777246  0.13098576  1
  N  N15  1  0.58222754  0.59838721  0.36901424  1
  N  N16  1  0.91641549  0.94686151  0.87729644  1
  N  N17  1  0.05313849  0.08358451  0.62270356  1
  N  N18  1  0.08358451  0.05313849  0.12270356  1
  N  N19  1  0.94686151  0.91641549  0.37729644  1
  N  N20  1  0.44986272  0.10646578  0.88022557  1
  N  N21  1  0.89353422  0.55013728  0.61977443  1
  N  N22  1  0.55013728  0.89353422  0.11977443  1
  N  N23  1  0.10646578  0.44986272  0.38022557  1
  N  N24  1  0.91835843  0.57372596  0.13343858  1
  N  N25  1  0.42627404  0.08164157  0.36656142  1
  N  N26  1  0.08164157  0.42627404  0.86656142  1
  N  N27  1  0.57372596  0.91835843  0.63343858  1
  O  O28  1  0.67663245  0.50944736  0.82280395  1
  O  O29  1  0.49055264  0.32336755  0.67719605  1
  O  O30  1  0.32336755  0.49055264  0.17719605  1
  O  O31  1  0.50944736  0.67663245  0.32280395  1
  O  O32  1  0.58094980  0.50020146  0.91749576  1
  O  O33  1  0.49979854  0.41905020  0.58250424  1
  O  O34  1  0.41905020  0.49979854  0.08250424  1
  O  O35  1  0.50020146  0.58094980  0.41749576  1
  O  O36  1  0.54929553  0.72971933  0.85871156  1
  O  O37  1  0.27028067  0.45070447  0.64128844  1
  O  O38  1  0.45070447  0.27028067  0.14128844  1
  O  O39  1  0.72971933  0.54929553  0.35871156  1
  O  O40  1  0.86511162  0.03045344  0.82811131  1
  O  O41  1  0.96954656  0.13488838  0.67188869  1
  O  O42  1  0.13488838  0.96954656  0.17188869  1
  O  O43  1  0.03045344  0.86511162  0.32811131  1
  O  O44  1  0.91680218  0.01981280  0.92426448  1
  O  O45  1  0.98018720  0.08319782  0.57573552  1
  O  O46  1  0.08319782  0.98018720  0.07573552  1
  O  O47  1  0.01981280  0.91680218  0.42426448  1
  O  O48  1  0.96217600  0.79751841  0.87042491  1
  O  O49  1  0.20248159  0.03782400  0.62957509  1
  O  O50  1  0.03782400  0.20248159  0.12957509  1
  O  O51  1  0.79751841  0.96217600  0.37042491  1
  O  O52  1  0.52599998  0.17782095  0.83104461  1
  O  O53  1  0.82217905  0.47400002  0.66895539  1
  O  O54  1  0.47400002  0.82217905  0.16895539  1
  O  O55  1  0.17782095  0.52599998  0.33104461  1
  O  O56  1  0.52827639  0.08828301  0.92608373  1
  O  O57  1  0.91171699  0.47172361  0.57391627  1
  O  O58  1  0.47172361  0.91171699  0.07391627  1
  O  O59  1  0.08828301  0.52827639  0.42608373  1
  O  O60  1  0.29969585  0.06162028  0.87539997  1
  O  O61  1  0.93837972  0.70030415  0.62460003  1
  O  O62  1  0.70030415  0.93837972  0.12460003  1
  O  O63  1  0.06162028  0.29969585  0.37539997  1
  O  O64  1  0.99628838  0.57974713  0.08414649  1
  O  O65  1  0.42025287  0.00371162  0.41585351  1
  O  O66  1  0.00371162  0.42025287  0.91585351  1
  O  O67  1  0.57974713  0.99628838  0.58414649  1
  O  O68  1  0.77436239  0.51523668  0.14470762  1
  O  O69  1  0.48476332  0.22563761  0.35529238  1
  O  O70  1  0.22563761  0.48476332  0.85529238  1
  O  O71  1  0.51523668  0.77436239  0.64470762  1
  O  O72  1  0.99384719  0.63492409  0.17985392  1
  O  O73  1  0.36507591  0.00615281  0.32014608  1
  O  O74  1  0.00615281  0.36507591  0.82014608  1
  O  O75  1  0.63492409  0.99384719  0.67985392  1
  O  O76  1  0.21381448  0.78618552  0.75000000  1
  O  O77  1  0.78618552  0.21381448  0.25000000  1
