# generated using pymatgen
data_Tb6(Ga3Co)7
_symmetry_space_group_name_H-M   'P 1'
_cell_length_a   4.14431213
_cell_length_b   16.69229222
_cell_length_c   16.69229222
_cell_angle_alpha   90.00000000
_cell_angle_beta   90.00000000
_cell_angle_gamma   90.00000000
_symmetry_Int_Tables_number   1
_chemical_formula_structural   Tb6(Ga3Co)7
_chemical_formula_sum   'Tb12 Ga42 Co14'
_cell_volume   1154.74054505
_cell_formula_units_Z   2
loop_
 _symmetry_equiv_pos_site_id
 _symmetry_equiv_pos_as_xyz
  1  'x, y, z'
loop_
 _atom_site_type_symbol
 _atom_site_label
 _atom_site_symmetry_multiplicity
 _atom_site_fract_x
 _atom_site_fract_y
 _atom_site_fract_z
 _atom_site_occupancy
  Tb  Tb0  1  0.50000000  0.10729405  0.60729405  1
  Tb  Tb1  1  0.50000000  0.89270595  0.39270595  1
  Tb  Tb2  1  0.50000000  0.39270595  0.10729405  1
  Tb  Tb3  1  0.50000000  0.60729405  0.89270595  1
  Tb  Tb4  1  0.00000000  0.65777564  0.58684109  1
  Tb  Tb5  1  -0.00000000  0.34222436  0.41315891  1
  Tb  Tb6  1  -0.00000000  0.84222436  0.08684109  1
  Tb  Tb7  1  0.00000000  0.15777564  0.91315891  1
  Tb  Tb8  1  0.00000000  0.58684109  0.34222436  1
  Tb  Tb9  1  -0.00000000  0.41315891  0.65777564  1
  Tb  Tb10  1  -0.00000000  0.08684109  0.15777564  1
  Tb  Tb11  1  0.00000000  0.91315891  0.84222436  1
  Ga  Ga12  1  0.00000000  0.00000000  0.50000000  1
  Ga  Ga13  1  0.00000000  0.50000000  0.00000000  1
  Ga  Ga14  1  -0.00000000  0.32045521  0.82045521  1
  Ga  Ga15  1  -0.00000000  0.67954479  0.17954479  1
  Ga  Ga16  1  -0.00000000  0.17954479  0.32045521  1
  Ga  Ga17  1  0.00000000  0.82045521  0.67954479  1
  Ga  Ga18  1  0.50000000  0.42549468  0.92549468  1
  Ga  Ga19  1  0.50000000  0.57450532  0.07450532  1
  Ga  Ga20  1  0.50000000  0.07450532  0.42549468  1
  Ga  Ga21  1  0.50000000  0.92549468  0.57450532  1
  Ga  Ga22  1  -0.00000000  0.57537818  0.75839580  1
  Ga  Ga23  1  0.00000000  0.42462182  0.24160420  1
  Ga  Ga24  1  0.00000000  0.92462182  0.25839580  1
  Ga  Ga25  1  -0.00000000  0.07537818  0.74160420  1
  Ga  Ga26  1  -0.00000000  0.75839580  0.42462182  1
  Ga  Ga27  1  0.00000000  0.24160420  0.57537818  1
  Ga  Ga28  1  0.00000000  0.25839580  0.07537818  1
  Ga  Ga29  1  -0.00000000  0.74160420  0.92462182  1
  Ga  Ga30  1  0.50000000  0.53167049  0.60840338  1
  Ga  Ga31  1  0.50000000  0.46832951  0.39159662  1
  Ga  Ga32  1  0.50000000  0.96832951  0.10840338  1
  Ga  Ga33  1  0.50000000  0.03167049  0.89159662  1
  Ga  Ga34  1  0.50000000  0.60840338  0.46832951  1
  Ga  Ga35  1  0.50000000  0.39159662  0.53167049  1
  Ga  Ga36  1  0.50000000  0.10840338  0.03167049  1
  Ga  Ga37  1  0.50000000  0.89159662  0.96832951  1
  Ga  Ga38  1  0.50000000  0.67842036  0.71059656  1
  Ga  Ga39  1  0.50000000  0.32157964  0.28940344  1
  Ga  Ga40  1  0.50000000  0.82157964  0.21059656  1
  Ga  Ga41  1  0.50000000  0.17842036  0.78940344  1
  Ga  Ga42  1  0.50000000  0.71059656  0.32157964  1
  Ga  Ga43  1  0.50000000  0.28940344  0.67842036  1
  Ga  Ga44  1  0.50000000  0.21059656  0.17842036  1
  Ga  Ga45  1  0.50000000  0.78940344  0.82157964  1
  Ga  Ga46  1  0.50000000  0.77261977  0.54276389  1
  Ga  Ga47  1  0.50000000  0.22738023  0.45723611  1
  Ga  Ga48  1  0.50000000  0.72738023  0.04276389  1
  Ga  Ga49  1  0.50000000  0.27261977  0.95723611  1
  Ga  Ga50  1  0.50000000  0.54276389  0.22738023  1
  Ga  Ga51  1  0.50000000  0.45723611  0.77261977  1
  Ga  Ga52  1  0.50000000  0.04276389  0.27261977  1
  Ga  Ga53  1  0.50000000  0.95723611  0.72738023  1
  Co  Co54  1  -0.00000000  0.21885120  0.71885120  1
  Co  Co55  1  0.00000000  0.78114880  0.28114880  1
  Co  Co56  1  -0.00000000  0.28114880  0.21885120  1
  Co  Co57  1  0.00000000  0.71885120  0.78114880  1
  Co  Co58  1  -0.00000000  0.96397455  0.64764009  1
  Co  Co59  1  0.00000000  0.03602545  0.35235991  1
  Co  Co60  1  0.00000000  0.53602545  0.14764009  1
  Co  Co61  1  -0.00000000  0.46397455  0.85235991  1
  Co  Co62  1  -0.00000000  0.64764009  0.03602545  1
  Co  Co63  1  0.00000000  0.35235991  0.96397455  1
  Co  Co64  1  0.00000000  0.14764009  0.46397455  1
  Co  Co65  1  -0.00000000  0.85235991  0.53602545  1
  Co  Co66  1  0.00000000  0.50000000  0.50000000  1
  Co  Co67  1  0.00000000  -0.00000000  0.00000000  1
