# generated using pymatgen
data_La4Co3O10
_symmetry_space_group_name_H-M   'P 1'
_cell_length_a   5.47809192
_cell_length_b   5.58137050
_cell_length_c   28.24844811
_cell_angle_alpha   90.00000000
_cell_angle_beta   90.64028795
_cell_angle_gamma   90.00000000
_symmetry_Int_Tables_number   1
_chemical_formula_structural   La4Co3O10
_chemical_formula_sum   'La16 Co12 O40'
_cell_volume   863.64973322
_cell_formula_units_Z   4
loop_
 _symmetry_equiv_pos_site_id
 _symmetry_equiv_pos_as_xyz
  1  'x, y, z'
loop_
 _atom_site_type_symbol
 _atom_site_label
 _atom_site_symmetry_multiplicity
 _atom_site_fract_x
 _atom_site_fract_y
 _atom_site_fract_z
 _atom_site_occupancy
  La  La0  1  0.50780284  0.48485230  0.30085289  1
  La  La1  1  0.99219716  0.98485230  0.69914711  1
  La  La2  1  0.49219716  0.51514770  0.69914711  1
  La  La3  1  0.00780284  0.01514770  0.30085289  1
  La  La4  1  0.99619904  0.48742950  0.80037981  1
  La  La5  1  0.50380096  0.98742950  0.19962019  1
  La  La6  1  0.00380096  0.51257050  0.19962019  1
  La  La7  1  0.49619904  0.01257050  0.80037981  1
  La  La8  1  0.52211563  0.49803065  0.43210139  1
  La  La9  1  0.97788437  0.99803065  0.56789861  1
  La  La10  1  0.47788437  0.50196935  0.56789861  1
  La  La11  1  0.02211563  0.00196935  0.43210139  1
  La  La12  1  0.01952536  0.50170039  0.93235197  1
  La  La13  1  0.48047464  0.00170039  0.06764803  1
  La  La14  1  0.98047464  0.49829961  0.06764803  1
  La  La15  1  0.51952536  0.99829961  0.93235197  1
  Co  Co16  1  0.50000000  0.00000000  0.50000000  1
  Co  Co17  1  -0.00000000  0.50000000  0.50000000  1
  Co  Co18  1  0.50000000  0.50000000  -0.00000000  1
  Co  Co19  1  -0.00000000  0.00000000  -0.00000000  1
  Co  Co20  1  0.50246355  0.49688659  0.13945191  1
  Co  Co21  1  0.99753645  0.99688659  0.86054809  1
  Co  Co22  1  0.49753645  0.50311341  0.86054809  1
  Co  Co23  1  0.00246355  0.00311341  0.13945191  1
  Co  Co24  1  0.99221215  0.49738132  0.63922592  1
  Co  Co25  1  0.50778785  0.99738132  0.36077408  1
  Co  Co26  1  0.00778785  0.50261868  0.36077408  1
  Co  Co27  1  0.49221215  0.00261868  0.63922592  1
  O  O28  1  0.78017742  0.21888787  0.48892957  1
  O  O29  1  0.71982258  0.71888787  0.51107043  1
  O  O30  1  0.21982258  0.78111213  0.51107043  1
  O  O31  1  0.28017742  0.28111213  0.48892957  1
  O  O32  1  0.80619374  0.29267409  0.99234208  1
  O  O33  1  0.69380626  0.79267409  0.00765792  1
  O  O34  1  0.19380626  0.70732591  0.00765792  1
  O  O35  1  0.30619374  0.20732591  0.99234208  1
  O  O36  1  0.50646632  0.44001196  0.06814427  1
  O  O37  1  0.99353368  0.94001196  0.93185573  1
  O  O38  1  0.49353368  0.55998804  0.93185573  1
  O  O39  1  0.00646632  0.05998804  0.06814427  1
  O  O40  1  0.00449788  0.42876720  0.56722915  1
  O  O41  1  0.49550212  0.92876720  0.43277085  1
  O  O42  1  0.99550212  0.57123280  0.43277085  1
  O  O43  1  0.50449788  0.07123280  0.56722915  1
  O  O44  1  0.75276040  0.24763152  0.14789757  1
  O  O45  1  0.74723960  0.74763152  0.85210243  1
  O  O46  1  0.24723960  0.75236848  0.85210243  1
  O  O47  1  0.25276040  0.25236848  0.14789757  1
  O  O48  1  0.23879921  0.24576419  0.64832326  1
  O  O49  1  0.26120079  0.74576419  0.35167674  1
  O  O50  1  0.76120079  0.75423581  0.35167674  1
  O  O51  1  0.73879921  0.25423581  0.64832326  1
  O  O52  1  0.50850058  0.55076780  0.21809278  1
  O  O53  1  0.99149942  0.05076780  0.78190722  1
  O  O54  1  0.49149942  0.44923220  0.78190722  1
  O  O55  1  0.00850058  0.94923220  0.21809278  1
  O  O56  1  0.99229353  0.55459549  0.71776504  1
  O  O57  1  0.50770647  0.05459549  0.28223496  1
  O  O58  1  0.00770647  0.44540451  0.28223496  1
  O  O59  1  0.49229353  0.94540451  0.71776504  1
  O  O60  1  0.24710398  0.25235466  0.86591687  1
  O  O61  1  0.25289602  0.75235466  0.13408313  1
  O  O62  1  0.75289602  0.74764534  0.13408313  1
  O  O63  1  0.74710398  0.24764534  0.86591687  1
  O  O64  1  0.75355184  0.25434754  0.36791533  1
  O  O65  1  0.74644816  0.75434754  0.63208467  1
  O  O66  1  0.24644816  0.74565246  0.63208467  1
  O  O67  1  0.25355184  0.24565246  0.36791533  1
