# generated using pymatgen
data_Tm2CoGe6
_symmetry_space_group_name_H-M   'P 1'
_cell_length_a   4.03251984
_cell_length_b   3.96222233
_cell_length_c   10.83906297
_cell_angle_alpha   100.53144533
_cell_angle_beta   90.00000000
_cell_angle_gamma   90.00000000
_symmetry_Int_Tables_number   1
_chemical_formula_structural   Tm2CoGe6
_chemical_formula_sum   'Tm2 Co1 Ge6'
_cell_volume   170.26640738
_cell_formula_units_Z   1
loop_
 _symmetry_equiv_pos_site_id
 _symmetry_equiv_pos_as_xyz
  1  'x, y, z'
loop_
 _atom_site_type_symbol
 _atom_site_label
 _atom_site_symmetry_multiplicity
 _atom_site_fract_x
 _atom_site_fract_y
 _atom_site_fract_z
 _atom_site_occupancy
  Tm  Tm0  1  0.50000000  0.22283728  0.44567455  1
  Tm  Tm1  1  0.50000000  0.88651526  0.77303052  1
  Co  Co2  1  0.00000000  0.44444340  0.88888681  1
  Ge  Ge3  1  0.50000000  0.50023578  0.00047156  1
  Ge  Ge4  1  0.50000000  0.61784382  0.23568765  1
  Ge  Ge5  1  0.00000000  0.00133603  0.00267205  1
  Ge  Ge6  1  0.00000000  0.11992514  0.23985028  1
  Ge  Ge7  1  0.00000000  0.33779121  0.67558242  1
  Ge  Ge8  1  0.00000000  0.76207208  0.52414415  1
