# generated using pymatgen
data_KAu(CN)2
_symmetry_space_group_name_H-M   'P 1'
_cell_length_a   9.61292214
_cell_length_b   9.61292239
_cell_length_c   9.61292209
_cell_angle_alpha   46.23061204
_cell_angle_beta   46.23061046
_cell_angle_gamma   46.23061114
_symmetry_Int_Tables_number   1
_chemical_formula_structural   KAu(CN)2
_chemical_formula_sum   'K3 Au3 C6 N6'
_cell_volume   422.73459679
_cell_formula_units_Z   3
loop_
 _symmetry_equiv_pos_site_id
 _symmetry_equiv_pos_as_xyz
  1  'x, y, z'
loop_
 _atom_site_type_symbol
 _atom_site_label
 _atom_site_symmetry_multiplicity
 _atom_site_fract_x
 _atom_site_fract_y
 _atom_site_fract_z
 _atom_site_occupancy
  K  K0  1  0.65602301  0.65602301  0.65602301  1
  K  K1  1  0.34397699  0.34397699  0.34397699  1
  K  K2  1  0.00000000  0.00000000  0.00000000  1
  Au  Au3  1  0.00000000  0.50000000  0.00000000  1
  Au  Au4  1  0.50000000  0.00000000  0.00000000  1
  Au  Au5  1  0.00000000  0.00000000  0.50000000  1
  C  C6  1  0.83000545  0.43336934  0.02023487  1
  C  C7  1  0.56663066  0.97976513  0.16999455  1
  C  C8  1  0.43336934  0.02023487  0.83000545  1
  C  C9  1  0.16999455  0.56663066  0.97976513  1
  C  C10  1  0.97976513  0.16999455  0.56663066  1
  C  C11  1  0.02023487  0.83000545  0.43336934  1
  N  N12  1  0.72816779  0.39510326  0.03293997  1
  N  N13  1  0.96706003  0.27183221  0.60489674  1
  N  N14  1  0.27183221  0.60489674  0.96706003  1
  N  N15  1  0.60489674  0.96706003  0.27183221  1
  N  N16  1  0.03293997  0.72816779  0.39510326  1
  N  N17  1  0.39510326  0.03293997  0.72816779  1
