# generated using pymatgen
data_Yb11(Mn2C3)6
_symmetry_space_group_name_H-M   'P 1'
_cell_length_a   8.80899783
_cell_length_b   8.80899783
_cell_length_c   8.80899783
_cell_angle_alpha   109.47122063
_cell_angle_beta   109.47122063
_cell_angle_gamma   109.47122063
_symmetry_Int_Tables_number   1
_chemical_formula_structural   Yb11(Mn2C3)6
_chemical_formula_sum   'Yb11 Mn12 C18'
_cell_volume   526.20820868
_cell_formula_units_Z   1
loop_
 _symmetry_equiv_pos_site_id
 _symmetry_equiv_pos_as_xyz
  1  'x, y, z'
loop_
 _atom_site_type_symbol
 _atom_site_label
 _atom_site_symmetry_multiplicity
 _atom_site_fract_x
 _atom_site_fract_y
 _atom_site_fract_z
 _atom_site_occupancy
  Yb  Yb0  1  0.41184213  0.41184213  0.41184213  1
  Yb  Yb1  1  0.58815787  0.00000000  0.00000000  1
  Yb  Yb2  1  -0.00000000  0.58815787  -0.00000000  1
  Yb  Yb3  1  -0.00000000  0.00000000  0.58815787  1
  Yb  Yb4  1  0.25000000  0.75000000  0.50000000  1
  Yb  Yb5  1  0.75000000  0.25000000  0.50000000  1
  Yb  Yb6  1  0.75000000  0.50000000  0.25000000  1
  Yb  Yb7  1  0.25000000  0.50000000  0.75000000  1
  Yb  Yb8  1  0.50000000  0.25000000  0.75000000  1
  Yb  Yb9  1  0.50000000  0.75000000  0.25000000  1
  Yb  Yb10  1  0.00000000  0.00000000  0.00000000  1
  Mn  Mn11  1  0.84347185  0.65775016  0.65775016  1
  Mn  Mn12  1  0.15652815  0.81427832  0.81427832  1
  Mn  Mn13  1  0.00000000  0.34224984  0.18572168  1
  Mn  Mn14  1  0.65775016  0.65775016  0.84347185  1
  Mn  Mn15  1  0.00000000  0.18572168  0.34224984  1
  Mn  Mn16  1  0.81427832  0.81427832  0.15652815  1
  Mn  Mn17  1  0.34224984  0.18572168  -0.00000000  1
  Mn  Mn18  1  0.18572168  0.34224984  -0.00000000  1
  Mn  Mn19  1  0.65775016  0.84347185  0.65775016  1
  Mn  Mn20  1  0.18572168  0.00000000  0.34224984  1
  Mn  Mn21  1  0.34224984  0.00000000  0.18572168  1
  Mn  Mn22  1  0.81427832  0.15652815  0.81427832  1
  C  C23  1  0.56680810  0.56680810  0.00000000  1
  C  C24  1  0.43319190  0.43319190  0.00000000  1
  C  C25  1  0.56680810  0.00000000  0.56680810  1
  C  C26  1  0.43319190  0.00000000  0.43319190  1
  C  C27  1  -0.00000000  0.56680810  0.56680810  1
  C  C28  1  -0.00000000  0.43319190  0.43319190  1
  C  C29  1  0.49572119  0.70833608  0.70833608  1
  C  C30  1  0.50427881  0.21261489  0.21261489  1
  C  C31  1  0.00000000  0.29166392  0.78738511  1
  C  C32  1  0.70833608  0.70833608  0.49572119  1
  C  C33  1  -0.00000000  0.78738511  0.29166392  1
  C  C34  1  0.21261489  0.21261489  0.50427881  1
  C  C35  1  0.29166392  0.78738511  -0.00000000  1
  C  C36  1  0.78738511  0.29166392  -0.00000000  1
  C  C37  1  0.70833608  0.49572119  0.70833608  1
  C  C38  1  0.78738511  -0.00000000  0.29166392  1
  C  C39  1  0.29166392  0.00000000  0.78738511  1
  C  C40  1  0.21261489  0.50427881  0.21261489  1
