# generated using pymatgen
data_Sm3(SiPd)2
_symmetry_space_group_name_H-M   'P 1'
_cell_length_a   5.71267792
_cell_length_b   8.07808317
_cell_length_c   13.14308089
_cell_angle_alpha   90.00000000
_cell_angle_beta   90.00000000
_cell_angle_gamma   90.00000000
_symmetry_Int_Tables_number   1
_chemical_formula_structural   Sm3(SiPd)2
_chemical_formula_sum   'Sm12 Si8 Pd8'
_cell_volume   606.52015926
_cell_formula_units_Z   4
loop_
 _symmetry_equiv_pos_site_id
 _symmetry_equiv_pos_as_xyz
  1  'x, y, z'
loop_
 _atom_site_type_symbol
 _atom_site_label
 _atom_site_symmetry_multiplicity
 _atom_site_fract_x
 _atom_site_fract_y
 _atom_site_fract_z
 _atom_site_occupancy
  Sm  Sm0  1  0.64299596  0.25121274  0.25000000  1
  Sm  Sm1  1  0.35700404  0.74878726  0.75000000  1
  Sm  Sm2  1  0.35700404  0.75121274  0.25000000  1
  Sm  Sm3  1  0.64299596  0.24878726  0.75000000  1
  Sm  Sm4  1  0.12973099  0.39146309  0.10411138  1
  Sm  Sm5  1  0.87026901  0.60853691  0.89588862  1
  Sm  Sm6  1  0.87026901  0.60853691  0.60411138  1
  Sm  Sm7  1  0.87026901  0.89146309  0.39588862  1
  Sm  Sm8  1  0.12973099  0.39146309  0.39588862  1
  Sm  Sm9  1  0.12973099  0.10853691  0.60411138  1
  Sm  Sm10  1  0.12973099  0.10853691  0.89588862  1
  Sm  Sm11  1  0.87026901  0.89146309  0.10411138  1
  Si  Si12  1  0.14803037  0.10279779  0.25000000  1
  Si  Si13  1  0.85196963  0.89720221  0.75000000  1
  Si  Si14  1  0.85196963  0.60279779  0.25000000  1
  Si  Si15  1  0.14803037  0.39720221  0.75000000  1
  Si  Si16  1  0.66922798  0.25000000  0.00000000  1
  Si  Si17  1  0.33077202  0.75000000  0.00000000  1
  Si  Si18  1  0.33077202  0.75000000  0.50000000  1
  Si  Si19  1  0.66922798  0.25000000  0.50000000  1
  Pd  Pd20  1  0.38257512  0.04019861  0.09184709  1
  Pd  Pd21  1  0.61742488  0.95980139  0.90815291  1
  Pd  Pd22  1  0.61742488  0.95980139  0.59184709  1
  Pd  Pd23  1  0.61742488  0.54019861  0.40815291  1
  Pd  Pd24  1  0.38257512  0.04019861  0.40815291  1
  Pd  Pd25  1  0.38257512  0.45980139  0.59184709  1
  Pd  Pd26  1  0.38257512  0.45980139  0.90815291  1
  Pd  Pd27  1  0.61742488  0.54019861  0.09184709  1
