# generated using pymatgen
data_V5Bi17Pb5O43
_symmetry_space_group_name_H-M   'P 1'
_cell_length_a   11.98186663
_cell_length_b   11.91490786
_cell_length_c   11.91490786
_cell_angle_alpha   92.95414442
_cell_angle_beta   118.08834296
_cell_angle_gamma   118.08834296
_symmetry_Int_Tables_number   1
_chemical_formula_structural   V5Bi17Pb5O43
_chemical_formula_sum   'V5 Bi17 Pb5 O43'
_cell_volume   1239.66822454
_cell_formula_units_Z   1
loop_
 _symmetry_equiv_pos_site_id
 _symmetry_equiv_pos_as_xyz
  1  'x, y, z'
loop_
 _atom_site_type_symbol
 _atom_site_label
 _atom_site_symmetry_multiplicity
 _atom_site_fract_x
 _atom_site_fract_y
 _atom_site_fract_z
 _atom_site_occupancy
  V  V0  1  0.29756229  0.65857059  0.96880434  1
  V  V1  1  0.29756229  0.96880434  0.65857059  1
  V  V2  1  0.97089867  0.98115612  0.98115612  1
  V  V3  1  0.65453783  0.64843127  0.34348942  1
  V  V4  1  0.65453783  0.34348942  0.64843127  1
  Bi  Bi5  1  0.65019737  0.99770272  0.99770272  1
  Bi  Bi6  1  0.70128904  0.35551250  0.01639608  1
  Bi  Bi7  1  0.70128904  0.01639608  0.35551250  1
  Bi  Bi8  1  0.99473698  0.36193207  0.63998666  1
  Bi  Bi9  1  0.99473698  0.63998666  0.36193207  1
  Bi  Bi10  1  0.59469775  0.63376370  0.63376370  1
  Bi  Bi11  1  0.98506598  0.67157320  0.03117754  1
  Bi  Bi12  1  0.98506598  0.03117754  0.67157320  1
  Bi  Bi13  1  0.99230806  0.65817211  0.65817211  1
  Bi  Bi14  1  0.97970307  0.32303139  0.00840454  1
  Bi  Bi15  1  0.97970307  0.00840454  0.32303139  1
  Bi  Bi16  1  0.64316853  0.65466666  0.99863819  1
  Bi  Bi17  1  0.64316853  0.99863819  0.65466666  1
  Bi  Bi18  1  0.34877765  0.35824507  0.00808148  1
  Bi  Bi19  1  0.34877765  0.00808148  0.35824507  1
  Bi  Bi20  1  0.35381367  0.03440528  0.03440528  1
  Bi  Bi21  1  0.30332649  0.33180656  0.33180656  1
  Pb  Pb22  1  0.67257740  0.33280266  0.33280266  1
  Pb  Pb23  1  0.00342042  0.33784216  0.33784216  1
  Pb  Pb24  1  0.32152592  0.66763740  0.33741710  1
  Pb  Pb25  1  0.32152592  0.33741710  0.66763740  1
  Pb  Pb26  1  0.31620584  0.65845080  0.65845080  1
  O  O27  1  0.82014255  0.45264382  0.65019248  1
  O  O28  1  0.82014255  0.65019248  0.45264382  1
  O  O29  1  0.93084850  0.06425105  0.06425105  1
  O  O30  1  0.35712033  0.48758874  0.48758874  1
  O  O31  1  0.14462447  0.38966419  0.21362536  1
  O  O32  1  0.14462447  0.21362536  0.38966419  1
  O  O33  1  0.80606573  0.58894760  0.07009439  1
  O  O34  1  0.80606573  0.07009439  0.58894760  1
  O  O35  1  0.79137463  0.21450411  0.02869995  1
  O  O36  1  0.79137463  0.02869995  0.21450411  1
  O  O37  1  0.52637230  0.59626605  0.77200775  1
  O  O38  1  0.52637230  0.77200775  0.59626605  1
  O  O39  1  0.47503590  0.74125512  0.98823488  1
  O  O40  1  0.47503590  0.98823488  0.74125512  1
  O  O41  1  0.88849783  0.81155794  0.97890627  1
  O  O42  1  0.88849783  0.97890627  0.81155794  1
  O  O43  1  0.16635986  0.06497532  0.06497532  1
  O  O44  1  0.14980995  0.24321588  0.78391877  1
  O  O45  1  0.14980995  0.78391877  0.24321588  1
  O  O46  1  0.96959767  0.51828033  0.51828033  1
  O  O47  1  0.95169182  0.47664316  0.06628833  1
  O  O48  1  0.95169182  0.06628833  0.47664316  1
  O  O49  1  0.81872796  0.42102103  0.23838764  1
  O  O50  1  0.81872796  0.23838764  0.42102103  1
  O  O51  1  0.24908165  0.50978692  0.00625976  1
  O  O52  1  0.24908165  0.00625976  0.50978692  1
  O  O53  1  0.16064912  0.60373850  0.78816178  1
  O  O54  1  0.16064912  0.78816178  0.60373850  1
  O  O55  1  0.59858967  0.58842948  0.17570841  1
  O  O56  1  0.59858967  0.17570841  0.58842948  1
  O  O57  1  0.47035102  0.44027204  0.91754470  1
  O  O58  1  0.47035102  0.91754470  0.44027204  1
  O  O59  1  0.69149658  0.38932101  0.80599581  1
  O  O60  1  0.69149658  0.80599581  0.38932101  1
  O  O61  1  0.46621552  0.25116745  0.07393651  1
  O  O62  1  0.46621552  0.07393651  0.25116745  1
  O  O63  1  0.16838602  0.41853245  0.60326983  1
  O  O64  1  0.16838602  0.60326983  0.41853245  1
  O  O65  1  0.27427061  0.76185162  0.04802668  1
  O  O66  1  0.27427061  0.04802668  0.76185162  1
  O  O67  1  0.56376688  0.07325963  0.07325963  1
  O  O68  1  0.50817993  0.53806171  0.35940794  1
  O  O69  1  0.50817993  0.35940794  0.53806171  1
