# generated using pymatgen
data_Ti3Pb5F19
_symmetry_space_group_name_H-M   'P 1'
_cell_length_a   7.85393856
_cell_length_b   11.15794981
_cell_length_c   11.15794981
_cell_angle_alpha   82.88482569
_cell_angle_beta   69.39376075
_cell_angle_gamma   69.39376075
_symmetry_Int_Tables_number   1
_chemical_formula_structural   Ti3Pb5F19
_chemical_formula_sum   'Ti6 Pb10 F38'
_cell_volume   856.69788014
_cell_formula_units_Z   2
loop_
 _symmetry_equiv_pos_site_id
 _symmetry_equiv_pos_as_xyz
  1  'x, y, z'
loop_
 _atom_site_type_symbol
 _atom_site_label
 _atom_site_symmetry_multiplicity
 _atom_site_fract_x
 _atom_site_fract_y
 _atom_site_fract_z
 _atom_site_occupancy
  Ti  Ti0  1  0.71663516  0.50000000  0.17273246  1
  Ti  Ti1  1  0.38936762  0.50000000  0.82726754  1
  Ti  Ti2  1  0.88936762  0.82726754  0.50000000  1
  Ti  Ti3  1  0.21663516  0.17273246  0.50000000  1
  Ti  Ti4  1  0.25092817  0.00000000  0.00000000  1
  Ti  Ti5  1  0.75092817  0.00000000  0.00000000  1
  Pb  Pb6  1  0.33346881  0.83376283  0.70441280  1
  Pb  Pb7  1  0.87164443  0.16623717  0.29558720  1
  Pb  Pb8  1  0.03788161  0.29558720  0.83376283  1
  Pb  Pb9  1  0.83346881  0.70441280  0.83376283  1
  Pb  Pb10  1  0.16723164  0.70441280  0.16623717  1
  Pb  Pb11  1  0.37164443  0.29558720  0.16623717  1
  Pb  Pb12  1  0.53788161  0.83376283  0.29558720  1
  Pb  Pb13  1  0.66723164  0.16623717  0.70441280  1
  Pb  Pb14  1  0.71580139  0.50000000  0.50000000  1
  Pb  Pb15  1  0.21580139  0.50000000  0.50000000  1
  F  F16  1  0.54286796  0.50000000  0.35263743  1
  F  F17  1  0.39550538  0.50000000  0.64736257  1
  F  F18  1  0.89550538  0.64736257  0.50000000  1
  F  F19  1  0.04286796  0.35263743  0.50000000  1
  F  F20  1  0.28291854  0.24561451  0.62815532  1
  F  F21  1  0.15668837  0.75438549  0.37184468  1
  F  F22  1  0.91107386  0.37184468  0.24561451  1
  F  F23  1  0.78291854  0.62815532  0.24561451  1
  F  F24  1  0.52853305  0.62815532  0.75438549  1
  F  F25  1  0.65668837  0.37184468  0.75438549  1
  F  F26  1  0.41107386  0.24561451  0.37184468  1
  F  F27  1  0.02853305  0.75438549  0.62815532  1
  F  F28  1  0.35373267  0.50000000  0.00542844  1
  F  F29  1  0.85916110  0.50000000  0.99457156  1
  F  F30  1  0.35916110  0.99457156  0.50000000  1
  F  F31  1  0.85373267  0.00542844  0.50000000  1
  F  F32  1  0.21014064  0.50000000  0.27409544  1
  F  F33  1  0.98423608  0.50000000  0.72590456  1
  F  F34  1  0.48423608  0.72590456  0.50000000  1
  F  F35  1  0.71014064  0.27409544  0.50000000  1
  F  F36  1  0.00073491  1.00000000  1.00000000  1
  F  F37  1  0.50073491  1.00000000  1.00000000  1
  F  F38  1  0.29890094  0.06414733  0.82305426  1
  F  F39  1  0.18610252  0.93585267  0.17694574  1
  F  F40  1  0.12195520  0.17694574  0.06414733  1
  F  F41  1  0.79890094  0.82305426  0.06414733  1
  F  F42  1  0.36304827  0.82305426  0.93585267  1
  F  F43  1  0.68610252  0.17694574  0.93585267  1
  F  F44  1  0.62195520  0.06414733  0.17694574  1
  F  F45  1  0.86304827  0.93585267  0.82305426  1
  F  F46  1  0.64560613  0.85487600  0.65398258  1
  F  F47  1  0.15446471  0.14512400  0.34601742  1
  F  F48  1  0.29958871  0.34601742  0.85487600  1
  F  F49  1  0.14560613  0.65398258  0.85487600  1
  F  F50  1  0.50048213  0.65398258  0.14512400  1
  F  F51  1  0.65446471  0.34601742  0.14512400  1
  F  F52  1  0.79958871  0.85487600  0.34601742  1
  F  F53  1  0.00048213  0.14512400  0.65398258  1
