# generated using pymatgen
data_Sr3Ta5O15
_symmetry_space_group_name_H-M   'P 1'
_cell_length_a   3.97861155
_cell_length_b   12.59709027
_cell_length_c   12.59709027
_cell_angle_alpha   90.00000000
_cell_angle_beta   90.00000000
_cell_angle_gamma   90.00000000
_symmetry_Int_Tables_number   1
_chemical_formula_structural   Sr3Ta5O15
_chemical_formula_sum   'Sr6 Ta10 O30'
_cell_volume   631.35267089
_cell_formula_units_Z   2
loop_
 _symmetry_equiv_pos_site_id
 _symmetry_equiv_pos_as_xyz
  1  'x, y, z'
loop_
 _atom_site_type_symbol
 _atom_site_label
 _atom_site_symmetry_multiplicity
 _atom_site_fract_x
 _atom_site_fract_y
 _atom_site_fract_z
 _atom_site_occupancy
  Sr  Sr0  1  0.50000000  0.66347166  0.16347166  1
  Sr  Sr1  1  0.50000000  0.33652834  0.83652834  1
  Sr  Sr2  1  0.50000000  0.83652834  0.66347166  1
  Sr  Sr3  1  0.50000000  0.16347166  0.33652834  1
  Sr  Sr4  1  0.50000000  -0.00000000  0.00000000  1
  Sr  Sr5  1  0.50000000  0.50000000  0.50000000  1
  Ta  Ta6  1  -0.00000000  0.21021483  0.07997744  1
  Ta  Ta7  1  0.00000000  0.78978517  0.92002256  1
  Ta  Ta8  1  -0.00000000  0.92002256  0.21021483  1
  Ta  Ta9  1  -0.00000000  0.28978517  0.57997744  1
  Ta  Ta10  1  0.00000000  0.07997744  0.78978517  1
  Ta  Ta11  1  0.00000000  0.71021483  0.42002256  1
  Ta  Ta12  1  -0.00000000  0.57997744  0.71021483  1
  Ta  Ta13  1  0.00000000  0.42002256  0.28978517  1
  Ta  Ta14  1  0.00000000  -0.00000000  0.50000000  1
  Ta  Ta15  1  0.00000000  0.50000000  0.00000000  1
  O  O16  1  0.00000000  0.22925945  0.72925945  1
  O  O17  1  -0.00000000  0.77074055  0.27074055  1
  O  O18  1  0.00000000  0.27074055  0.22925945  1
  O  O19  1  -0.00000000  0.72925945  0.77074055  1
  O  O20  1  0.00000000  0.00852493  0.34155450  1
  O  O21  1  -0.00000000  0.99147507  0.65844550  1
  O  O22  1  0.00000000  0.65844550  0.00852493  1
  O  O23  1  0.00000000  0.49147507  0.84155450  1
  O  O24  1  -0.00000000  0.34155450  0.99147507  1
  O  O25  1  -0.00000000  0.50852493  0.15844550  1
  O  O26  1  0.00000000  0.84155450  0.50852493  1
  O  O27  1  -0.00000000  0.15844550  0.49147507  1
  O  O28  1  0.50000000  0.20691485  0.08097908  1
  O  O29  1  0.50000000  0.79308515  0.91902092  1
  O  O30  1  0.50000000  0.91902092  0.20691485  1
  O  O31  1  0.50000000  0.29308515  0.58097908  1
  O  O32  1  0.50000000  0.08097908  0.79308515  1
  O  O33  1  0.50000000  0.70691485  0.41902092  1
  O  O34  1  0.50000000  0.58097908  0.70691485  1
  O  O35  1  0.50000000  0.41902092  0.29308515  1
  O  O36  1  -0.00000000  0.06319728  0.13639285  1
  O  O37  1  0.00000000  0.93680272  0.86360715  1
  O  O38  1  -0.00000000  0.86360715  0.06319728  1
  O  O39  1  -0.00000000  0.43680272  0.63639285  1
  O  O40  1  0.00000000  0.13639285  0.93680272  1
  O  O41  1  0.00000000  0.56319728  0.36360715  1
  O  O42  1  -0.00000000  0.63639285  0.56319728  1
  O  O43  1  0.00000000  0.36360715  0.43680272  1
  O  O44  1  0.50000000  -0.00000000  0.50000000  1
  O  O45  1  0.50000000  0.50000000  0.00000000  1
