# generated using pymatgen
data_VAg2HgO4
_symmetry_space_group_name_H-M   'P 1'
_cell_length_a   11.17030798
_cell_length_b   11.17030798
_cell_length_c   11.17030798
_cell_angle_alpha   108.94322518
_cell_angle_beta   110.53245215
_cell_angle_gamma   108.94322518
_symmetry_Int_Tables_number   1
_chemical_formula_structural   VAg2HgO4
_chemical_formula_sum   'V8 Ag16 Hg8 O32'
_cell_volume   1072.65869239
_cell_formula_units_Z   8
loop_
 _symmetry_equiv_pos_site_id
 _symmetry_equiv_pos_as_xyz
  1  'x, y, z'
loop_
 _atom_site_type_symbol
 _atom_site_label
 _atom_site_symmetry_multiplicity
 _atom_site_fract_x
 _atom_site_fract_y
 _atom_site_fract_z
 _atom_site_occupancy
  V  V0  1  0.37376309  0.45894147  0.12177592  1
  V  V1  1  0.66283445  0.54105853  0.91482162  1
  V  V2  1  0.08517838  0.74801283  0.62623691  1
  V  V3  1  0.87623691  0.24801283  0.83517838  1
  V  V4  1  0.87822408  0.25198717  0.33716555  1
  V  V5  1  0.58716555  0.75198717  0.62822408  1
  V  V6  1  0.16482162  0.04105853  0.41283445  1
  V  V7  1  0.37177592  0.95894147  0.12376309  1
  Ag  Ag8  1  0.18221243  0.15856465  0.14902251  1
  Ag  Ag9  1  0.99045786  0.84143535  0.02364778  1
  Ag  Ag10  1  0.97635222  0.96681008  0.81778757  1
  Ag  Ag11  1  0.06778757  0.46681008  0.72635222  1
  Ag  Ag12  1  0.85097749  0.03318992  0.00954214  1
  Ag  Ag13  1  0.25954214  0.53318992  0.60097749  1
  Ag  Ag14  1  0.27364778  0.34143535  0.74045786  1
  Ag  Ag15  1  0.39902251  0.65856465  0.93221243  1
  Ag  Ag16  1  0.46910525  0.36976269  0.52513365  1
  Ag  Ag17  1  0.15537096  0.63023731  0.09934256  1
  Ag  Ag18  1  0.90065744  0.05602840  0.53089475  1
  Ag  Ag19  1  0.78089475  0.55602840  0.65065744  1
  Ag  Ag20  1  0.47486635  0.94397160  0.84462904  1
  Ag  Ag21  1  0.09462904  0.44397160  0.22486635  1
  Ag  Ag22  1  0.34934256  0.13023731  0.90537096  1
  Ag  Ag23  1  0.77513365  0.86976269  0.21910525  1
  Hg  Hg24  1  0.59564388  0.36385179  0.34030012  1
  Hg  Hg25  1  0.97644833  0.63614821  0.23179209  1
  Hg  Hg26  1  0.76820791  0.74465623  0.40435612  1
  Hg  Hg27  1  0.65435612  0.24465623  0.51820791  1
  Hg  Hg28  1  0.65969988  0.25534377  0.02355167  1
  Hg  Hg29  1  0.27355167  0.75534377  0.40969988  1
  Hg  Hg30  1  0.48179209  0.13614821  0.72644833  1
  Hg  Hg31  1  0.59030012  0.86385179  0.34564388  1
  O  O32  1  0.51138613  0.37894106  0.75673301  1
  O  O33  1  0.37779194  0.62105894  0.13244507  1
  O  O34  1  0.86755493  0.24534688  0.48861387  1
  O  O35  1  0.73861387  0.74534688  0.61755493  1
  O  O36  1  0.24326699  0.75465312  0.62220806  1
  O  O37  1  0.87220806  0.25465312  0.99326699  1
  O  O38  1  0.38244507  0.12105894  0.12779194  1
  O  O39  1  0.00673301  0.87894106  0.26138613  1
  O  O40  1  0.23317969  0.16760303  0.36183861  1
  O  O41  1  0.19423558  0.83239697  0.06557666  1
  O  O42  1  0.93442334  0.12865892  0.76682031  1
  O  O43  1  0.01682031  0.62865892  0.68442334  1
  O  O44  1  0.63816139  0.87134108  0.80576442  1
  O  O45  1  0.05576442  0.37134108  0.38816139  1
  O  O46  1  0.31557666  0.33239697  0.94423558  1
  O  O47  1  0.61183861  0.66760303  0.98317969  1
  O  O48  1  0.25329383  0.37982569  0.17323497  1
  O  O49  1  0.79340928  0.62017431  0.87346814  1
  O  O50  1  0.12653186  0.91994114  0.74670617  1
  O  O51  1  0.99670617  0.41994114  0.87653186  1
  O  O52  1  0.82676503  0.08005886  0.20659072  1
  O  O53  1  0.45659072  0.58005886  0.57676503  1
  O  O54  1  0.12346814  0.12017431  0.54340928  1
  O  O55  1  0.42323497  0.87982569  0.00329383  1
  O  O56  1  0.55459478  0.49947440  0.24172359  1
  O  O57  1  0.74224918  0.50052560  0.05512037  1
  O  O58  1  0.94487963  0.68712881  0.44540522  1
  O  O59  1  0.69540522  0.18712881  0.69487963  1
  O  O60  1  0.75827641  0.31287119  0.25775082  1
  O  O61  1  0.50775082  0.81287119  0.50827641  1
  O  O62  1  0.30512037  0.00052560  0.49224918  1
  O  O63  1  0.49172359  0.99947440  0.30459478  1
