# generated using pymatgen
data_NaCo(PO3)3
_symmetry_space_group_name_H-M   'P 1'
_cell_length_a   12.79676348
_cell_length_b   12.79676348
_cell_length_c   12.79676348
_cell_angle_alpha   109.47122063
_cell_angle_beta   109.47122063
_cell_angle_gamma   109.47122063
_symmetry_Int_Tables_number   1
_chemical_formula_structural   NaCo(PO3)3
_chemical_formula_sum   'Na8 Co8 P24 O72'
_cell_volume   1613.16406255
_cell_formula_units_Z   8
loop_
 _symmetry_equiv_pos_site_id
 _symmetry_equiv_pos_as_xyz
  1  'x, y, z'
loop_
 _atom_site_type_symbol
 _atom_site_label
 _atom_site_symmetry_multiplicity
 _atom_site_fract_x
 _atom_site_fract_y
 _atom_site_fract_z
 _atom_site_occupancy
  Na  Na0  1  0.71956162  0.71956162  0.71956162  1
  Na  Na1  1  0.78043838  0.00000000  0.50000000  1
  Na  Na2  1  0.50000000  0.78043838  -0.00000000  1
  Na  Na3  1  0.21956162  0.21956162  0.21956162  1
  Na  Na4  1  0.00000000  0.50000000  0.78043838  1
  Na  Na5  1  0.28043838  -0.00000000  0.50000000  1
  Na  Na6  1  -0.00000000  0.50000000  0.28043838  1
  Na  Na7  1  0.50000000  0.28043838  0.00000000  1
  Co  Co8  1  0.96979788  0.96979788  0.96979788  1
  Co  Co9  1  0.53020212  0.00000000  0.50000000  1
  Co  Co10  1  0.50000000  0.53020212  0.00000000  1
  Co  Co11  1  0.46979788  0.46979788  0.46979788  1
  Co  Co12  1  -0.00000000  0.50000000  0.53020212  1
  Co  Co13  1  0.03020212  -0.00000000  0.50000000  1
  Co  Co14  1  -0.00000000  0.50000000  0.03020212  1
  Co  Co15  1  0.50000000  0.03020212  -0.00000000  1
  P  P16  1  0.50509528  0.71948546  0.44197679  1
  P  P17  1  0.99490472  0.93688151  0.71439018  1
  P  P18  1  0.22249133  0.78051454  0.78560982  1
  P  P19  1  0.71948546  0.44197679  0.50509528  1
  P  P20  1  0.00509528  0.94197679  0.21948546  1
  P  P21  1  0.27750867  0.56311849  0.05802321  1
  P  P22  1  0.93688151  0.71439018  0.99490472  1
  P  P23  1  0.49490472  0.21439018  0.43688151  1
  P  P24  1  0.78051454  0.78560982  0.22249133  1
  P  P25  1  0.72249133  0.28560982  0.28051454  1
  P  P26  1  0.56311849  0.05802321  0.27750867  1
  P  P27  1  0.77750867  0.55802321  0.06311849  1
  P  P28  1  0.44197679  0.50509528  0.71948546  1
  P  P29  1  0.21948546  0.00509528  0.94197679  1
  P  P30  1  0.78560982  0.22249133  0.78051454  1
  P  P31  1  0.28051454  0.72249133  0.28560982  1
  P  P32  1  0.05802321  0.27750867  0.56311849  1
  P  P33  1  0.06311849  0.77750867  0.55802321  1
  P  P34  1  0.71439018  0.99490472  0.93688151  1
  P  P35  1  0.43688151  0.49490472  0.21439018  1
  P  P36  1  0.94197679  0.21948546  0.00509528  1
  P  P37  1  0.21439018  0.43688151  0.49490472  1
  P  P38  1  0.55802321  0.06311849  0.77750867  1
  P  P39  1  0.28560982  0.28051454  0.72249133  1
  O  O40  1  0.58562859  0.85972872  0.49303349  1
  O  O41  1  0.91437141  0.90740490  0.77410012  1
  O  O42  1  0.13330477  0.64027128  0.72589988  1
  O  O43  1  0.85972872  0.49303349  0.58562859  1
  O  O44  1  0.08562859  0.99303349  0.35972872  1
  O  O45  1  0.36669523  0.59259510  0.00696651  1
  O  O46  1  0.90740490  0.77410012  0.91437141  1
  O  O47  1  0.41437141  0.27410012  0.40740490  1
  O  O48  1  0.64027128  0.72589988  0.13330477  1
  O  O49  1  0.63330477  0.22589988  0.14027128  1
  O  O50  1  0.59259510  0.00696651  0.36669523  1
  O  O51  1  0.86669523  0.50696651  0.09259510  1
  O  O52  1  0.49303349  0.58562859  0.85972872  1
  O  O53  1  0.35972872  0.08562859  0.99303349  1
  O  O54  1  0.72589988  0.13330477  0.64027128  1
  O  O55  1  0.14027128  0.63330477  0.22589988  1
  O  O56  1  0.00696651  0.36669523  0.59259510  1
  O  O57  1  0.09259510  0.86669523  0.50696651  1
  O  O58  1  0.77410012  0.91437141  0.90740490  1
  O  O59  1  0.40740490  0.41437141  0.27410012  1
  O  O60  1  0.99303349  0.35972872  0.08562859  1
  O  O61  1  0.27410012  0.40740490  0.41437141  1
  O  O62  1  0.50696651  0.09259510  0.86669523  1
  O  O63  1  0.22589988  0.14027128  0.63330477  1
  O  O64  1  0.52000869  0.64522326  0.32178727  1
  O  O65  1  0.97999131  0.80177857  0.62521457  1
  O  O66  1  0.17656401  0.85477674  0.87478543  1
  O  O67  1  0.64522326  0.32178727  0.52000869  1
  O  O68  1  0.02000869  0.82178727  0.14522326  1
  O  O69  1  0.32343599  0.69822143  0.17821273  1
  O  O70  1  0.80177857  0.62521457  0.97999131  1
  O  O71  1  0.47999131  0.12521457  0.30177857  1
  O  O72  1  0.85477674  0.87478543  0.17656401  1
  O  O73  1  0.67656401  0.37478543  0.35477674  1
  O  O74  1  0.69822143  0.17821273  0.32343599  1
  O  O75  1  0.82343599  0.67821273  0.19822143  1
  O  O76  1  0.32178727  0.52000869  0.64522326  1
  O  O77  1  0.14522326  0.02000869  0.82178727  1
  O  O78  1  0.87478543  0.17656401  0.85477674  1
  O  O79  1  0.35477674  0.67656401  0.37478543  1
  O  O80  1  0.17821273  0.32343599  0.69822143  1
  O  O81  1  0.19822143  0.82343599  0.67821273  1
  O  O82  1  0.62521457  0.97999131  0.80177857  1
  O  O83  1  0.30177857  0.47999131  0.12521457  1
  O  O84  1  0.82178727  0.14522326  0.02000869  1
  O  O85  1  0.12521457  0.30177857  0.47999131  1
  O  O86  1  0.67821273  0.19822143  0.82343599  1
  O  O87  1  0.37478543  0.35477674  0.67656401  1
  O  O88  1  0.66542442  0.52937318  0.52809329  1
  O  O89  1  0.83457558  0.86266887  0.36394876  1
  O  O90  1  0.49872011  0.97062682  0.13605124  1
  O  O91  1  0.52937318  0.52809329  0.66542442  1
  O  O92  1  0.16542442  0.02809329  0.02937318  1
  O  O93  1  0.00127989  0.63733113  0.97190671  1
  O  O94  1  0.86266887  0.36394876  0.83457558  1
  O  O95  1  0.33457558  0.86394876  0.36266887  1
  O  O96  1  0.97062682  0.13605124  0.49872011  1
  O  O97  1  0.99872011  0.63605124  0.47062682  1
  O  O98  1  0.63733113  0.97190671  0.00127989  1
  O  O99  1  0.50127989  0.47190671  0.13733113  1
  O  O100  1  0.52809329  0.66542442  0.52937318  1
  O  O101  1  0.02937318  0.16542442  0.02809329  1
  O  O102  1  0.13605124  0.49872011  0.97062682  1
  O  O103  1  0.47062682  0.99872011  0.63605124  1
  O  O104  1  0.97190671  0.00127989  0.63733113  1
  O  O105  1  0.13733113  0.50127989  0.47190671  1
  O  O106  1  0.36394876  0.83457558  0.86266887  1
  O  O107  1  0.36266887  0.33457558  0.86394876  1
  O  O108  1  0.02809329  0.02937318  0.16542442  1
  O  O109  1  0.86394876  0.36266887  0.33457558  1
  O  O110  1  0.47190671  0.13733113  0.50127989  1
  O  O111  1  0.63605124  0.47062682  0.99872011  1
