# generated using pymatgen
data_NdNb3O9
_symmetry_space_group_name_H-M   'P 1'
_cell_length_a   5.42442567
_cell_length_b   7.71946552
_cell_length_c   16.66622778
_cell_angle_alpha   90.00000000
_cell_angle_beta   92.01319754
_cell_angle_gamma   90.00000000
_symmetry_Int_Tables_number   1
_chemical_formula_structural   NdNb3O9
_chemical_formula_sum   'Nd4 Nb12 O36'
_cell_volume   697.44531529
_cell_formula_units_Z   4
loop_
 _symmetry_equiv_pos_site_id
 _symmetry_equiv_pos_as_xyz
  1  'x, y, z'
loop_
 _atom_site_type_symbol
 _atom_site_label
 _atom_site_symmetry_multiplicity
 _atom_site_fract_x
 _atom_site_fract_y
 _atom_site_fract_z
 _atom_site_occupancy
  Nd  Nd0  1  0.46561339  0.24996378  0.03209836  1
  Nd  Nd1  1  0.53438661  0.75003622  0.96790164  1
  Nd  Nd2  1  0.53438661  0.74996378  0.46790164  1
  Nd  Nd3  1  0.46561339  0.25003622  0.53209836  1
  Nb  Nb4  1  0.02075594  0.99885402  0.40030824  1
  Nb  Nb5  1  0.97924406  0.00114598  0.59969176  1
  Nb  Nb6  1  0.97924406  0.49885402  0.09969176  1
  Nb  Nb7  1  0.02075594  0.50114598  0.90030824  1
  Nb  Nb8  1  0.02783423  0.48332505  0.40068548  1
  Nb  Nb9  1  0.97216577  0.51667495  0.59931452  1
  Nb  Nb10  1  0.97216577  0.98332505  0.09931452  1
  Nb  Nb11  1  0.02783423  0.01667495  0.90068548  1
  Nb  Nb12  1  0.49181512  0.02900563  0.25125296  1
  Nb  Nb13  1  0.50818488  0.97099437  0.74874704  1
  Nb  Nb14  1  0.50818488  0.52900563  0.24874704  1
  Nb  Nb15  1  0.49181512  0.47099437  0.75125296  1
  O  O16  1  0.40385998  0.25536913  0.25907060  1
  O  O17  1  0.59614002  0.74463087  0.74092940  1
  O  O18  1  0.59614002  0.75536913  0.24092940  1
  O  O19  1  0.40385998  0.24463087  0.75907060  1
  O  O20  1  0.23826553  0.53596967  0.51670030  1
  O  O21  1  0.76173447  0.46403033  0.48329970  1
  O  O22  1  0.76173447  0.03596967  0.98329970  1
  O  O23  1  0.23826553  0.96403033  0.01670030  1
  O  O24  1  0.14909192  0.24885055  0.41994333  1
  O  O25  1  0.85090808  0.75114945  0.58005667  1
  O  O26  1  0.85090808  0.74885055  0.08005667  1
  O  O27  1  0.14909192  0.25114945  0.91994333  1
  O  O28  1  0.17972182  0.55326825  0.18937046  1
  O  O29  1  0.82027818  0.44673175  0.81062954  1
  O  O30  1  0.82027818  0.05326825  0.31062954  1
  O  O31  1  0.17972182  0.94673175  0.68937046  1
  O  O32  1  0.18293146  0.54838405  0.68854027  1
  O  O33  1  0.81706854  0.45161595  0.31145973  1
  O  O34  1  0.81706854  0.04838405  0.81145973  1
  O  O35  1  0.18293146  0.95161595  0.18854027  1
  O  O36  1  0.23889350  0.53737389  0.01674526  1
  O  O37  1  0.76110650  0.46262611  0.98325474  1
  O  O38  1  0.76110650  0.03737389  0.48325474  1
  O  O39  1  0.23889350  0.96262611  0.51674526  1
  O  O40  1  0.65408427  0.06238982  0.14323772  1
  O  O41  1  0.34591573  0.93761018  0.85676228  1
  O  O42  1  0.34591573  0.56238982  0.35676228  1
  O  O43  1  0.65408427  0.43761018  0.64323772  1
  O  O44  1  0.06381620  0.25085478  0.09438836  1
  O  O45  1  0.93618380  0.74914522  0.90561164  1
  O  O46  1  0.93618380  0.75085478  0.40561164  1
  O  O47  1  0.06381620  0.24914522  0.59438836  1
  O  O48  1  0.65051763  0.44508715  0.14337089  1
  O  O49  1  0.34948237  0.55491285  0.85662911  1
  O  O50  1  0.34948237  0.94508715  0.35662911  1
  O  O51  1  0.65051763  0.05491285  0.64337089  1
