# generated using pymatgen
data_Sm3(Co2Sn)4
_symmetry_space_group_name_H-M   'P 1'
_cell_length_a   7.60491010
_cell_length_b   8.93573990
_cell_length_c   8.93573990
_cell_angle_alpha   119.99999997
_cell_angle_beta   90.00000000
_cell_angle_gamma   90.00000000
_symmetry_Int_Tables_number   1
_chemical_formula_structural   Sm3(Co2Sn)4
_chemical_formula_sum   'Sm6 Co16 Sn8'
_cell_volume   525.87890958
_cell_formula_units_Z   2
loop_
 _symmetry_equiv_pos_site_id
 _symmetry_equiv_pos_as_xyz
  1  'x, y, z'
loop_
 _atom_site_type_symbol
 _atom_site_label
 _atom_site_symmetry_multiplicity
 _atom_site_fract_x
 _atom_site_fract_y
 _atom_site_fract_z
 _atom_site_occupancy
  Sm  Sm0  1  0.78382702  0.47535861  0.95071722  1
  Sm  Sm1  1  0.78382702  0.47535861  0.52464139  1
  Sm  Sm2  1  0.28382702  0.52464139  0.04928278  1
  Sm  Sm3  1  0.78382702  0.04928278  0.52464139  1
  Sm  Sm4  1  0.28382702  0.52464139  0.47535861  1
  Sm  Sm5  1  0.28382702  0.95071722  0.47535861  1
  Co  Co6  1  0.61809335  0.66666700  0.33333300  1
  Co  Co7  1  0.11809335  0.33333300  0.66666700  1
  Co  Co8  1  0.75592800  0.09592493  0.19184985  1
  Co  Co9  1  0.75592800  0.09592493  0.90407507  1
  Co  Co10  1  0.25592800  0.90407507  0.80815015  1
  Co  Co11  1  0.75592800  0.80815015  0.90407507  1
  Co  Co12  1  0.25592800  0.90407507  0.09592493  1
  Co  Co13  1  0.25592800  0.19184985  0.09592493  1
  Co  Co14  1  0.94644900  0.84301562  0.68603125  1
  Co  Co15  1  0.94644900  0.84301562  0.15698438  1
  Co  Co16  1  0.44644900  0.15698438  0.31396875  1
  Co  Co17  1  0.94644900  0.31396875  0.15698438  1
  Co  Co18  1  0.44644900  0.15698438  0.84301562  1
  Co  Co19  1  0.44644900  0.68603125  0.84301562  1
  Co  Co20  1  0.00028916  0.00000000  0.00000000  1
  Co  Co21  1  0.50028916  0.00000000  0.00000000  1
  Sn  Sn22  1  0.96834939  0.66666700  0.33333300  1
  Sn  Sn23  1  0.46834939  0.33333300  0.66666700  1
  Sn  Sn24  1  0.57325202  0.82973169  0.65946337  1
  Sn  Sn25  1  0.57325202  0.82973169  0.17026831  1
  Sn  Sn26  1  0.07325202  0.17026831  0.34053663  1
  Sn  Sn27  1  0.57325202  0.34053663  0.17026831  1
  Sn  Sn28  1  0.07325202  0.17026831  0.82973169  1
  Sn  Sn29  1  0.07325202  0.65946337  0.82973169  1
