# generated using pymatgen
data_Na3MnO4
_symmetry_space_group_name_H-M   'P 1'
_cell_length_a   7.80262769
_cell_length_b   7.80262769
_cell_length_c   7.80262769
_cell_angle_alpha   90.00000000
_cell_angle_beta   90.00000000
_cell_angle_gamma   90.00000000
_symmetry_Int_Tables_number   1
_chemical_formula_structural   Na3MnO4
_chemical_formula_sum   'Na12 Mn4 O16'
_cell_volume   475.03176757
_cell_formula_units_Z   4
loop_
 _symmetry_equiv_pos_site_id
 _symmetry_equiv_pos_as_xyz
  1  'x, y, z'
loop_
 _atom_site_type_symbol
 _atom_site_label
 _atom_site_symmetry_multiplicity
 _atom_site_fract_x
 _atom_site_fract_y
 _atom_site_fract_z
 _atom_site_occupancy
  Na  Na0  1  0.99304810  0.99304810  0.99304810  1
  Na  Na1  1  0.50695190  0.00695190  0.49304810  1
  Na  Na2  1  0.00695190  0.49304810  0.50695190  1
  Na  Na3  1  0.49304810  0.50695190  0.00695190  1
  Na  Na4  1  0.21175007  0.21175007  0.21175007  1
  Na  Na5  1  0.28824993  0.78824993  0.71175007  1
  Na  Na6  1  0.78824993  0.71175007  0.28824993  1
  Na  Na7  1  0.71175007  0.28824993  0.78824993  1
  Na  Na8  1  0.74108655  0.74108655  0.74108655  1
  Na  Na9  1  0.75891345  0.25891345  0.24108655  1
  Na  Na10  1  0.25891345  0.24108655  0.75891345  1
  Na  Na11  1  0.24108655  0.75891345  0.25891345  1
  Mn  Mn12  1  0.50023516  0.50023516  0.50023516  1
  Mn  Mn13  1  -0.00023516  0.49976484  0.00023516  1
  Mn  Mn14  1  0.49976484  0.00023516  -0.00023516  1
  Mn  Mn15  1  0.00023516  -0.00023516  0.49976484  1
  O  O16  1  0.37498667  0.37498667  0.37498667  1
  O  O17  1  0.12501333  0.62501333  0.87498667  1
  O  O18  1  0.62501333  0.87498667  0.12501333  1
  O  O19  1  0.87498667  0.12501333  0.62501333  1
  O  O20  1  0.96554379  0.04614604  0.28580591  1
  O  O21  1  0.53445621  0.95385396  0.78580591  1
  O  O22  1  0.03445621  0.54614604  0.21419409  1
  O  O23  1  0.28580591  0.96554379  0.04614604  1
  O  O24  1  0.46554379  0.45385396  0.71419409  1
  O  O25  1  0.78580591  0.53445621  0.95385396  1
  O  O26  1  0.21419409  0.03445621  0.54614604  1
  O  O27  1  0.71419409  0.46554379  0.45385396  1
  O  O28  1  0.04614604  0.28580591  0.96554379  1
  O  O29  1  0.54614604  0.21419409  0.03445621  1
  O  O30  1  0.45385396  0.71419409  0.46554379  1
  O  O31  1  0.95385396  0.78580591  0.53445621  1
