# generated using pymatgen
data_LiBi2P5O18
_symmetry_space_group_name_H-M   'P 1'
_cell_length_a   9.78988213
_cell_length_b   11.09873519
_cell_length_c   6.83409582
_cell_angle_alpha   92.77597660
_cell_angle_beta   92.50509720
_cell_angle_gamma   95.79024794
_symmetry_Int_Tables_number   1
_chemical_formula_structural   LiBi2P5O18
_chemical_formula_sum   'Li2 Bi4 P10 O36'
_cell_volume   737.02244166
_cell_formula_units_Z   2
loop_
 _symmetry_equiv_pos_site_id
 _symmetry_equiv_pos_as_xyz
  1  'x, y, z'
loop_
 _atom_site_type_symbol
 _atom_site_label
 _atom_site_symmetry_multiplicity
 _atom_site_fract_x
 _atom_site_fract_y
 _atom_site_fract_z
 _atom_site_occupancy
  Li  Li0  1  0.78488301  0.30288419  0.86804892  1
  Li  Li1  1  0.21511699  0.69711581  0.13195108  1
  Bi  Bi2  1  0.35687857  0.39860616  0.23574995  1
  Bi  Bi3  1  0.76650106  0.94808131  0.33190114  1
  Bi  Bi4  1  0.23349894  0.05191869  0.66809886  1
  Bi  Bi5  1  0.64312143  0.60139384  0.76425005  1
  P  P6  1  0.99319230  0.59348936  0.77785739  1
  P  P7  1  0.41732609  0.34672739  0.72780554  1
  P  P8  1  0.00680770  0.40651064  0.22214261  1
  P  P9  1  0.27206741  0.09571561  0.16936890  1
  P  P10  1  0.04563505  0.79159993  0.48295467  1
  P  P11  1  0.95436495  0.20840007  0.51704533  1
  P  P12  1  0.72793259  0.90428439  0.83063110  1
  P  P13  1  0.57338849  0.17365876  0.15780117  1
  P  P14  1  0.42661151  0.82634124  0.84219883  1
  P  P15  1  0.58267391  0.65327261  0.27219446  1
  O  O16  1  0.92966128  0.10222349  0.35920062  1
  O  O17  1  0.34087165  0.81606157  0.01620821  1
  O  O18  1  0.65912835  0.18393843  0.98379179  1
  O  O19  1  0.43062700  0.59789700  0.21458388  1
  O  O20  1  0.36073602  0.42182787  0.56085922  1
  O  O21  1  0.18034603  0.04756354  0.98967525  1
  O  O22  1  0.91531449  0.50531864  0.27101243  1
  O  O23  1  0.15738266  0.47263021  0.22117570  1
  O  O24  1  0.41578429  0.21097129  0.66558292  1
  O  O25  1  0.16838955  0.75554212  0.38371398  1
  O  O26  1  0.97869288  0.67819506  0.59550037  1
  O  O27  1  0.56937300  0.40210300  0.78541612  1
  O  O28  1  0.32792142  0.36347366  0.90726505  1
  O  O29  1  0.26105372  0.00989194  0.33860115  1
  O  O30  1  0.73894628  0.99010806  0.66139885  1
  O  O31  1  0.02130712  0.32180494  0.40449963  1
  O  O32  1  0.95580091  0.32992872  0.04055755  1
  O  O33  1  0.63926398  0.57817213  0.43914078  1
  O  O34  1  0.38066323  0.91006263  0.68250571  1
  O  O35  1  0.75815697  0.77907387  0.74506320  1
  O  O36  1  0.83161045  0.24445788  0.61628602  1
  O  O37  1  0.57852723  0.88987835  0.91964317  1
  O  O38  1  0.84261734  0.52736979  0.77882430  1
  O  O39  1  0.24184303  0.22092613  0.25493680  1
  O  O40  1  0.54815146  0.29776921  0.25983653  1
  O  O41  1  0.07033872  0.89777651  0.64079938  1
  O  O42  1  0.04419909  0.67007128  0.95944245  1
  O  O43  1  0.58421571  0.78902871  0.33441708  1
  O  O44  1  0.61933677  0.08993737  0.31749429  1
  O  O45  1  0.42147277  0.11012165  0.08035683  1
  O  O46  1  0.06866630  0.18060504  0.66859864  1
  O  O47  1  0.81965397  0.95243646  0.01032475  1
  O  O48  1  0.45184854  0.70223079  0.74016347  1
  O  O49  1  0.93133370  0.81939496  0.33140136  1
  O  O50  1  0.67207858  0.63652634  0.09273495  1
  O  O51  1  0.08468551  0.49468136  0.72898757  1
