# generated using pymatgen
data_LiGaPO4F
_symmetry_space_group_name_H-M   'P 1'
_cell_length_a   5.16741611
_cell_length_b   5.28773388
_cell_length_c   7.25549474
_cell_angle_alpha   107.10388887
_cell_angle_beta   108.75990927
_cell_angle_gamma   98.38948489
_symmetry_Int_Tables_number   1
_chemical_formula_structural   LiGaPO4F
_chemical_formula_sum   'Li2 Ga2 P2 O8 F2'
_cell_volume   172.96389541
_cell_formula_units_Z   2
loop_
 _symmetry_equiv_pos_site_id
 _symmetry_equiv_pos_as_xyz
  1  'x, y, z'
loop_
 _atom_site_type_symbol
 _atom_site_label
 _atom_site_symmetry_multiplicity
 _atom_site_fract_x
 _atom_site_fract_y
 _atom_site_fract_z
 _atom_site_occupancy
  Li  Li0  1  0.28246902  0.12853842  0.71738459  1
  Li  Li1  1  0.71753098  0.87146158  0.28261541  1
  Ga  Ga2  1  0.00000000  0.50000000  0.50000000  1
  Ga  Ga3  1  0.00000000  0.50000000  0.00000000  1
  P  P4  1  0.32235697  0.14863055  0.26132046  1
  P  P5  1  0.67764303  0.85136945  0.73867954  1
  O  O6  1  0.63294867  0.26082640  0.42351751  1
  O  O7  1  0.36705133  0.73917360  0.57648249  1
  O  O8  1  0.30453242  0.84137569  0.15373452  1
  O  O9  1  0.69546758  0.15862431  0.84626548  1
  O  O10  1  0.26300311  0.29607655  0.10494312  1
  O  O11  1  0.73699689  0.70392345  0.89505688  1
  O  O12  1  0.11318628  0.16775993  0.37813011  1
  O  O13  1  0.88681372  0.83224007  0.62186989  1
  F  F14  1  0.13080035  0.43897167  0.76670305  1
  F  F15  1  0.86919965  0.56102833  0.23329695  1
