# generated using pymatgen
data_Nd3TiCl5O4
_symmetry_space_group_name_H-M   'P 1'
_cell_length_a   4.04556465
_cell_length_b   16.73896499
_cell_length_c   14.62387218
_cell_angle_alpha   90.00000000
_cell_angle_beta   90.00000000
_cell_angle_gamma   90.00000000
_symmetry_Int_Tables_number   1
_chemical_formula_structural   Nd3TiCl5O4
_chemical_formula_sum   'Nd12 Ti4 Cl20 O16'
_cell_volume   990.30763937
_cell_formula_units_Z   4
loop_
 _symmetry_equiv_pos_site_id
 _symmetry_equiv_pos_as_xyz
  1  'x, y, z'
loop_
 _atom_site_type_symbol
 _atom_site_label
 _atom_site_symmetry_multiplicity
 _atom_site_fract_x
 _atom_site_fract_y
 _atom_site_fract_z
 _atom_site_occupancy
  Nd  Nd0  1  0.75000000  0.87031144  0.73875231  1
  Nd  Nd1  1  0.25000000  0.12968856  0.26124769  1
  Nd  Nd2  1  0.25000000  0.62968856  0.23875231  1
  Nd  Nd3  1  0.75000000  0.37031144  0.76124769  1
  Nd  Nd4  1  0.75000000  0.62064689  0.91570021  1
  Nd  Nd5  1  0.25000000  0.37935311  0.08429979  1
  Nd  Nd6  1  0.25000000  0.87935311  0.41570021  1
  Nd  Nd7  1  0.75000000  0.12064689  0.58429979  1
  Nd  Nd8  1  0.75000000  0.37954533  0.41899086  1
  Nd  Nd9  1  0.25000000  0.62045467  0.58100914  1
  Nd  Nd10  1  0.25000000  0.12045467  0.91899086  1
  Nd  Nd11  1  0.75000000  0.87954533  0.08100914  1
  Ti  Ti12  1  0.75000000  0.70869600  0.41042349  1
  Ti  Ti13  1  0.25000000  0.29130400  0.58957651  1
  Ti  Ti14  1  0.25000000  0.79130400  0.91042349  1
  Ti  Ti15  1  0.75000000  0.20869600  0.08957651  1
  Cl  Cl16  1  0.75000000  0.97871130  0.28425104  1
  Cl  Cl17  1  0.25000000  0.02128870  0.71574896  1
  Cl  Cl18  1  0.25000000  0.52128870  0.78425104  1
  Cl  Cl19  1  0.75000000  0.47871130  0.21574896  1
  Cl  Cl20  1  0.75000000  0.98361663  0.90333126  1
  Cl  Cl21  1  0.25000000  0.01638337  0.09666874  1
  Cl  Cl22  1  0.25000000  0.51638337  0.40333126  1
  Cl  Cl23  1  0.75000000  0.48361663  0.59666874  1
  Cl  Cl24  1  0.75000000  0.70231022  0.10029410  1
  Cl  Cl25  1  0.25000000  0.29768978  0.89970590  1
  Cl  Cl26  1  0.25000000  0.79768978  0.60029410  1
  Cl  Cl27  1  0.75000000  0.20231022  0.39970590  1
  Cl  Cl28  1  0.75000000  0.67936911  0.72562761  1
  Cl  Cl29  1  0.25000000  0.32063089  0.27437239  1
  Cl  Cl30  1  0.25000000  0.82063089  0.22562761  1
  Cl  Cl31  1  0.75000000  0.17936911  0.77437239  1
  Cl  Cl32  1  0.75000000  0.94594583  0.55733298  1
  Cl  Cl33  1  0.25000000  0.05405417  0.44266702  1
  Cl  Cl34  1  0.25000000  0.55405417  0.05733298  1
  Cl  Cl35  1  0.75000000  0.44594583  0.94266702  1
  O  O36  1  0.75000000  0.79161216  0.90852687  1
  O  O37  1  0.25000000  0.20838784  0.09147313  1
  O  O38  1  0.25000000  0.70838784  0.40852687  1
  O  O39  1  0.75000000  0.29161216  0.59147313  1
  O  O40  1  0.75000000  0.65396746  0.30024214  1
  O  O41  1  0.25000000  0.34603254  0.69975786  1
  O  O42  1  0.25000000  0.84603254  0.80024214  1
  O  O43  1  0.75000000  0.15396746  0.19975786  1
  O  O44  1  0.75000000  0.81903603  0.41005155  1
  O  O45  1  0.25000000  0.18096397  0.58994845  1
  O  O46  1  0.25000000  0.68096397  0.91005155  1
  O  O47  1  0.75000000  0.31903603  0.08994845  1
  O  O48  1  0.75000000  0.65142211  0.51901107  1
  O  O49  1  0.25000000  0.34857789  0.48098893  1
  O  O50  1  0.25000000  0.84857789  0.01901107  1
  O  O51  1  0.75000000  0.15142211  0.98098893  1
