# generated using pymatgen
data_LaVS3
_symmetry_space_group_name_H-M   'P 1'
_cell_length_a   3.83711477
_cell_length_b   7.80645394
_cell_length_c   13.23313800
_cell_angle_alpha   90.00000000
_cell_angle_beta   90.00000000
_cell_angle_gamma   90.00000000
_symmetry_Int_Tables_number   1
_chemical_formula_structural   LaVS3
_chemical_formula_sum   'La4 V4 S12'
_cell_volume   396.38885249
_cell_formula_units_Z   4
loop_
 _symmetry_equiv_pos_site_id
 _symmetry_equiv_pos_as_xyz
  1  'x, y, z'
loop_
 _atom_site_type_symbol
 _atom_site_label
 _atom_site_symmetry_multiplicity
 _atom_site_fract_x
 _atom_site_fract_y
 _atom_site_fract_z
 _atom_site_occupancy
  La  La0  1  0.75000000  0.57781138  0.33171426  1
  La  La1  1  0.25000000  0.42218862  0.66828574  1
  La  La2  1  0.25000000  0.92218862  0.83171426  1
  La  La3  1  0.75000000  0.07781138  0.16828574  1
  V  V4  1  0.75000000  0.85926271  0.54642763  1
  V  V5  1  0.25000000  0.14073729  0.45357237  1
  V  V6  1  0.25000000  0.64073729  0.04642763  1
  V  V7  1  0.75000000  0.35926271  0.95357237  1
  S  S8  1  0.75000000  0.97809274  0.38716841  1
  S  S9  1  0.25000000  0.02190726  0.61283159  1
  S  S10  1  0.25000000  0.52190726  0.88716841  1
  S  S11  1  0.75000000  0.47809274  0.11283159  1
  S  S12  1  0.75000000  0.83010698  0.99522323  1
  S  S13  1  0.25000000  0.16989302  0.00477677  1
  S  S14  1  0.25000000  0.66989302  0.49522323  1
  S  S15  1  0.75000000  0.33010698  0.50477677  1
  S  S16  1  0.75000000  0.70612508  0.71057582  1
  S  S17  1  0.25000000  0.29387492  0.28942418  1
  S  S18  1  0.25000000  0.79387492  0.21057582  1
  S  S19  1  0.75000000  0.20612508  0.78942418  1
