# generated using pymatgen
data_KLiY2(MoO4)4
_symmetry_space_group_name_H-M   'P 1'
_cell_length_a   5.28573121
_cell_length_b   6.92507181
_cell_length_c   19.63667639
_cell_angle_alpha   88.83394523
_cell_angle_beta   86.94336075
_cell_angle_gamma   67.56486704
_symmetry_Int_Tables_number   1
_chemical_formula_structural   KLiY2(MoO4)4
_chemical_formula_sum   'K2 Li2 Y4 Mo8 O32'
_cell_volume   663.43398495
_cell_formula_units_Z   2
loop_
 _symmetry_equiv_pos_site_id
 _symmetry_equiv_pos_as_xyz
  1  'x, y, z'
loop_
 _atom_site_type_symbol
 _atom_site_label
 _atom_site_symmetry_multiplicity
 _atom_site_fract_x
 _atom_site_fract_y
 _atom_site_fract_z
 _atom_site_occupancy
  K  K0  1  0.46895711  0.06208578  0.75000000  1
  K  K1  1  0.53104289  0.93791422  0.25000000  1
  Li  Li2  1  0.18630795  0.62738411  0.75000000  1
  Li  Li3  1  0.81369205  0.37261589  0.25000000  1
  Y  Y4  1  0.35256302  0.29394071  0.96737891  1
  Y  Y5  1  0.64743698  0.70605929  0.03262109  1
  Y  Y6  1  0.35349627  0.29394071  0.53262109  1
  Y  Y7  1  0.64650373  0.70605929  0.46737891  1
  Mo  Mo8  1  0.08175043  0.87512360  0.90841257  1
  Mo  Mo9  1  0.91824957  0.12487640  0.09158743  1
  Mo  Mo10  1  0.04312597  0.87512360  0.59158743  1
  Mo  Mo11  1  0.95687403  0.12487640  0.40841257  1
  Mo  Mo12  1  0.76792419  0.48468089  0.85198606  1
  Mo  Mo13  1  0.23207581  0.51531911  0.14801394  1
  Mo  Mo14  1  0.74739493  0.48468089  0.64801394  1
  Mo  Mo15  1  0.25260507  0.51531911  0.35198606  1
  O  O16  1  0.33319810  0.65982097  0.95767590  1
  O  O17  1  0.66680190  0.34017903  0.04232410  1
  O  O18  1  0.00698093  0.65982097  0.54232410  1
  O  O19  1  0.99301907  0.34017903  0.45767590  1
  O  O20  1  0.51055187  0.72146981  0.82661866  1
  O  O21  1  0.48944813  0.27853019  0.17338134  1
  O  O22  1  0.76797832  0.72146981  0.67338134  1
  O  O23  1  0.23202168  0.27853019  0.32661866  1
  O  O24  1  0.27773759  0.96094347  0.53729578  1
  O  O25  1  0.72226241  0.03905653  0.46270422  1
  O  O26  1  0.76131895  0.96094347  0.96270422  1
  O  O27  1  0.23868105  0.03905653  0.03729578  1
  O  O28  1  0.56390109  0.51944955  0.56659718  1
  O  O29  1  0.43609891  0.48055045  0.43340282  1
  O  O30  1  0.91664936  0.51944955  0.93340282  1
  O  O31  1  0.08335064  0.48055045  0.06659718  1
  O  O32  1  0.19935127  0.81685847  0.67059719  1
  O  O33  1  0.80064873  0.18314153  0.32940281  1
  O  O34  1  0.98379027  0.81685847  0.82940281  1
  O  O35  1  0.01620973  0.18314153  0.17059719  1
  O  O36  1  0.27886597  0.90954838  0.39845976  1
  O  O37  1  0.72113403  0.09045162  0.60154024  1
  O  O38  1  0.81158565  0.90954838  0.10154024  1
  O  O39  1  0.18841435  0.09045162  0.89845976  1
  O  O40  1  0.60035568  0.30170422  0.86752447  1
  O  O41  1  0.39964432  0.69829578  0.13247553  1
  O  O42  1  0.09794010  0.30170422  0.63247553  1
  O  O43  1  0.90205990  0.69829578  0.36752447  1
  O  O44  1  0.56443106  0.40682186  0.71383288  1
  O  O45  1  0.43556894  0.59317814  0.28616712  1
  O  O46  1  0.02874709  0.40682186  0.78616712  1
  O  O47  1  0.97125291  0.59317814  0.21383288  1
