# generated using pymatgen
data_CeCu2Si
_symmetry_space_group_name_H-M   'P 1'
_cell_length_a   3.98098348
_cell_length_b   4.07833768
_cell_length_c   8.92632404
_cell_angle_alpha   90.00000000
_cell_angle_beta   102.88477860
_cell_angle_gamma   90.00000000
_symmetry_Int_Tables_number   1
_chemical_formula_structural   CeCu2Si
_chemical_formula_sum   'Ce2 Cu4 Si2'
_cell_volume   141.27679877
_cell_formula_units_Z   2
loop_
 _symmetry_equiv_pos_site_id
 _symmetry_equiv_pos_as_xyz
  1  'x, y, z'
loop_
 _atom_site_type_symbol
 _atom_site_label
 _atom_site_symmetry_multiplicity
 _atom_site_fract_x
 _atom_site_fract_y
 _atom_site_fract_z
 _atom_site_occupancy
  Ce  Ce0  1  0.61013667  0.25000000  0.22027334  1
  Ce  Ce1  1  0.38986333  0.75000000  0.77972666  1
  Cu  Cu2  1  0.96243374  0.25000000  0.92486749  1
  Cu  Cu3  1  0.03756626  0.75000000  0.07513251  1
  Cu  Cu4  1  0.24929690  0.25000000  0.49859379  1
  Cu  Cu5  1  0.75070310  0.75000000  0.50140621  1
  Si  Si6  1  0.82591570  0.25000000  0.65183140  1
  Si  Si7  1  0.17408430  0.75000000  0.34816860  1
