# generated using pymatgen
data_K10CoMo7O27
_symmetry_space_group_name_H-M   'P 1'
_cell_length_a   8.03323140
_cell_length_b   18.62914596
_cell_length_c   10.75643536
_cell_angle_alpha   90.00000000
_cell_angle_beta   90.00000000
_cell_angle_gamma   90.00000000
_symmetry_Int_Tables_number   1
_chemical_formula_structural   K10CoMo7O27
_chemical_formula_sum   'K20 Co2 Mo14 O54'
_cell_volume   1609.72464906
_cell_formula_units_Z   2
loop_
 _symmetry_equiv_pos_site_id
 _symmetry_equiv_pos_as_xyz
  1  'x, y, z'
loop_
 _atom_site_type_symbol
 _atom_site_label
 _atom_site_symmetry_multiplicity
 _atom_site_fract_x
 _atom_site_fract_y
 _atom_site_fract_z
 _atom_site_occupancy
  K  K0  1  0.12118509  -0.00000000  0.90294421  1
  K  K1  1  0.87881491  0.50000000  0.40294421  1
  K  K2  1  0.76600993  0.84644853  0.13874280  1
  K  K3  1  0.23399007  0.65355147  0.63874280  1
  K  K4  1  0.23399007  0.34644853  0.63874280  1
  K  K5  1  0.76600993  0.15355147  0.13874280  1
  K  K6  1  0.44389312  0.82054247  0.82530473  1
  K  K7  1  0.55610688  0.67945753  0.32530473  1
  K  K8  1  0.55610688  0.32054247  0.32530473  1
  K  K9  1  0.44389312  0.17945753  0.82530473  1
  K  K10  1  0.40262836  -0.00000000  0.25360164  1
  K  K11  1  0.59737164  0.50000000  0.75360164  1
  K  K12  1  0.88060446  0.64159333  0.99647269  1
  K  K13  1  0.11939554  0.85840667  0.49647269  1
  K  K14  1  0.11939554  0.14159333  0.49647269  1
  K  K15  1  0.88060446  0.35840667  0.99647269  1
  K  K16  1  0.75885778  0.68345984  0.65382669  1
  K  K17  1  0.24114222  0.81654016  0.15382669  1
  K  K18  1  0.24114222  0.18345984  0.15382669  1
  K  K19  1  0.75885778  0.31654016  0.65382669  1
  Co  Co20  1  0.78272249  -0.00000000  0.64496254  1
  Co  Co21  1  0.21727751  0.50000000  0.14496254  1
  Mo  Mo22  1  0.94064293  -0.00000000  0.31793038  1
  Mo  Mo23  1  0.05935707  0.50000000  0.81793038  1
  Mo  Mo24  1  0.59322467  0.84644182  0.48054278  1
  Mo  Mo25  1  0.40677533  0.65355818  0.98054278  1
  Mo  Mo26  1  0.40677533  0.34644182  0.98054278  1
  Mo  Mo27  1  0.59322467  0.15355818  0.48054278  1
  Mo  Mo28  1  0.38989694  -0.00000000  0.63343760  1
  Mo  Mo29  1  0.61010306  0.50000000  0.13343760  1
  Mo  Mo30  1  0.96224614  0.83449548  0.80924854  1
  Mo  Mo31  1  0.03775386  0.66550452  0.30924854  1
  Mo  Mo32  1  0.03775386  0.33449548  0.30924854  1
  Mo  Mo33  1  0.96224614  0.16550452  0.80924854  1
  Mo  Mo34  1  0.60037710  -0.00000000  0.95491812  1
  Mo  Mo35  1  0.39962290  0.50000000  0.45491812  1
  O  O36  1  0.95002485  0.57876993  0.76351933  1
  O  O37  1  0.04997515  0.92123007  0.26351933  1
  O  O38  1  0.04997515  0.07876993  0.26351933  1
  O  O39  1  0.95002485  0.42123007  0.76351933  1
  O  O40  1  0.90358131  0.64589113  0.43852037  1
  O  O41  1  0.09641869  0.85410887  0.93852037  1
  O  O42  1  0.09641869  0.14589113  0.93852037  1
  O  O43  1  0.90358131  0.35410887  0.43852037  1
  O  O44  1  0.60316807  0.93120074  0.57168058  1
  O  O45  1  0.39683193  0.56879926  0.07168058  1
  O  O46  1  0.39683193  0.43120074  0.07168058  1
  O  O47  1  0.60316807  0.06879926  0.57168058  1
  O  O48  1  0.50262162  0.57783465  0.51754701  1
  O  O49  1  0.49737838  0.92216535  0.01754701  1
  O  O50  1  0.49737838  0.07783465  0.01754701  1
  O  O51  1  0.50262162  0.42216535  0.51754701  1
  O  O52  1  0.73301166  -0.00000000  0.25969542  1
  O  O53  1  0.26698834  0.50000000  0.75969542  1
  O  O54  1  0.77977190  0.78985473  0.86696228  1
  O  O55  1  0.22022810  0.71014527  0.36696228  1
  O  O56  1  0.22022810  0.28985473  0.36696228  1
  O  O57  1  0.77977190  0.21014527  0.86696228  1
  O  O58  1  0.90561511  0.91753823  0.73115868  1
  O  O59  1  0.09438489  0.58246177  0.23115868  1
  O  O60  1  0.09438489  0.41753823  0.23115868  1
  O  O61  1  0.90561511  0.08246177  0.73115868  1
  O  O62  1  0.50318982  0.77670048  0.57412979  1
  O  O63  1  0.49681018  0.72329952  0.07412979  1
  O  O64  1  0.49681018  0.27670048  0.07412979  1
  O  O65  1  0.50318982  0.22329952  0.57412979  1
  O  O66  1  0.52696287  0.64538752  0.84084737  1
  O  O67  1  0.47303713  0.85461248  0.34084737  1
  O  O68  1  0.47303713  0.14538752  0.34084737  1
  O  O69  1  0.52696287  0.35461248  0.84084737  1
  O  O70  1  0.58544905  -0.00000000  0.78385921  1
  O  O71  1  0.41455095  0.50000000  0.28385921  1
  O  O72  1  0.93818822  0.72526675  0.20120389  1
  O  O73  1  0.06181178  0.77473325  0.70120389  1
  O  O74  1  0.06181178  0.22526675  0.70120389  1
  O  O75  1  0.93818822  0.27473325  0.20120389  1
  O  O76  1  0.79512667  0.81861134  0.43930462  1
  O  O77  1  0.20487333  0.68138866  0.93930462  1
  O  O78  1  0.20487333  0.31861134  0.93930462  1
  O  O79  1  0.79512667  0.18138866  0.43930462  1
  O  O80  1  0.81187228  -0.00000000  0.99747614  1
  O  O81  1  0.18812772  0.50000000  0.49747614  1
  O  O82  1  0.93151594  -0.00000000  0.48616803  1
  O  O83  1  0.06848406  0.50000000  0.98616803  1
  O  O84  1  0.29368965  0.92476438  0.70548763  1
  O  O85  1  0.70631035  0.57523562  0.20548763  1
  O  O86  1  0.70631035  0.42476438  0.20548763  1
  O  O87  1  0.29368965  0.07523562  0.70548763  1
  O  O88  1  0.30309231  -0.00000000  0.48206708  1
  O  O89  1  0.69690769  0.50000000  0.98206708  1
