# generated using pymatgen
data_CuPO4
_symmetry_space_group_name_H-M   'P 1'
_cell_length_a   4.87689903
_cell_length_b   9.75420194
_cell_length_c   6.92586648
_cell_angle_alpha   90.00000000
_cell_angle_beta   90.51550433
_cell_angle_gamma   90.00000000
_symmetry_Int_Tables_number   1
_chemical_formula_structural   CuPO4
_chemical_formula_sum   'Cu4 P4 O16'
_cell_volume   329.45191986
_cell_formula_units_Z   4
loop_
 _symmetry_equiv_pos_site_id
 _symmetry_equiv_pos_as_xyz
  1  'x, y, z'
loop_
 _atom_site_type_symbol
 _atom_site_label
 _atom_site_symmetry_multiplicity
 _atom_site_fract_x
 _atom_site_fract_y
 _atom_site_fract_z
 _atom_site_occupancy
  Cu  Cu0  1  0.78090451  0.85670636  0.52208754  1
  Cu  Cu1  1  0.71909549  0.35670636  0.97791246  1
  Cu  Cu2  1  0.21909549  0.14329364  0.47791246  1
  Cu  Cu3  1  0.28090451  0.64329364  0.02208754  1
  P  P4  1  0.19964659  0.40871382  0.24513886  1
  P  P5  1  0.80035341  0.59128618  0.75486114  1
  P  P6  1  0.30035341  0.90871382  0.25486114  1
  P  P7  1  0.69964659  0.09128618  0.74513886  1
  O  O8  1  0.75126854  0.43547520  0.72495911  1
  O  O9  1  0.88853221  0.38115995  0.22411592  1
  O  O10  1  0.11146779  0.61884005  0.77588408  1
  O  O11  1  0.66519209  0.62860163  0.94957474  1
  O  O12  1  0.18761602  0.82898030  0.08092786  1
  O  O13  1  0.33480791  0.37139837  0.05042526  1
  O  O14  1  0.31238398  0.32898030  0.41907214  1
  O  O15  1  0.24873146  0.56452480  0.27504089  1
  O  O16  1  0.68761602  0.67101970  0.58092786  1
  O  O17  1  0.74873146  0.93547520  0.77504089  1
  O  O18  1  0.25126854  0.06452480  0.22495911  1
  O  O19  1  0.16519209  0.87139837  0.44957474  1
  O  O20  1  0.83480791  0.12860163  0.55042526  1
  O  O21  1  0.61146779  0.88115995  0.27588408  1
  O  O22  1  0.38853221  0.11884005  0.72411592  1
  O  O23  1  0.81238398  0.17101970  0.91907214  1
