# generated using pymatgen
data_Hg3(PS4)2
_symmetry_space_group_name_H-M   'P 1'
_cell_length_a   11.04186030
_cell_length_b   11.04186030
_cell_length_c   11.04186030
_cell_angle_alpha   90.00000000
_cell_angle_beta   90.00000000
_cell_angle_gamma   90.00000000
_symmetry_Int_Tables_number   1
_chemical_formula_structural   Hg3(PS4)2
_chemical_formula_sum   'Hg12 P8 S32'
_cell_volume   1346.25318765
_cell_formula_units_Z   4
loop_
 _symmetry_equiv_pos_site_id
 _symmetry_equiv_pos_as_xyz
  1  'x, y, z'
loop_
 _atom_site_type_symbol
 _atom_site_label
 _atom_site_symmetry_multiplicity
 _atom_site_fract_x
 _atom_site_fract_y
 _atom_site_fract_z
 _atom_site_occupancy
  Hg  Hg0  1  0.12782622  0.41282727  0.27978963  1
  Hg  Hg1  1  0.37217378  0.58717273  0.77978963  1
  Hg  Hg2  1  0.87217378  0.91282727  0.22021037  1
  Hg  Hg3  1  0.27978963  0.12782622  0.41282727  1
  Hg  Hg4  1  0.62782622  0.08717273  0.72021037  1
  Hg  Hg5  1  0.77978963  0.37217378  0.58717273  1
  Hg  Hg6  1  0.22021037  0.87217378  0.91282727  1
  Hg  Hg7  1  0.72021037  0.62782622  0.08717273  1
  Hg  Hg8  1  0.41282727  0.27978963  0.12782622  1
  Hg  Hg9  1  0.91282727  0.22021037  0.87217378  1
  Hg  Hg10  1  0.08717273  0.72021037  0.62782622  1
  Hg  Hg11  1  0.58717273  0.77978963  0.37217378  1
  P  P12  1  0.41439518  0.41439518  0.41439518  1
  P  P13  1  0.08560482  0.58560482  0.91439518  1
  P  P14  1  0.58560482  0.91439518  0.08560482  1
  P  P15  1  0.91439518  0.08560482  0.58560482  1
  P  P16  1  0.13350878  0.13350878  0.13350878  1
  P  P17  1  0.36649122  0.86649122  0.63350878  1
  P  P18  1  0.86649122  0.63350878  0.36649122  1
  P  P19  1  0.63350878  0.36649122  0.86649122  1
  S  S20  1  0.51806047  0.51806047  0.51806047  1
  S  S21  1  0.98193953  0.48193953  0.01806047  1
  S  S22  1  0.48193953  0.01806047  0.98193953  1
  S  S23  1  0.01806047  0.98193953  0.48193953  1
  S  S24  1  0.02600515  0.02600515  0.02600515  1
  S  S25  1  0.47399485  0.97399485  0.52600515  1
  S  S26  1  0.97399485  0.52600515  0.47399485  1
  S  S27  1  0.52600515  0.47399485  0.97399485  1
  S  S28  1  0.01309645  0.22843781  0.24222580  1
  S  S29  1  0.48690355  0.77156219  0.74222580  1
  S  S30  1  0.98690355  0.72843781  0.25777420  1
  S  S31  1  0.24222580  0.01309645  0.22843781  1
  S  S32  1  0.51309645  0.27156219  0.75777420  1
  S  S33  1  0.74222580  0.48690355  0.77156219  1
  S  S34  1  0.25777420  0.98690355  0.72843781  1
  S  S35  1  0.75777420  0.51309645  0.27156219  1
  S  S36  1  0.22843781  0.24222580  0.01309645  1
  S  S37  1  0.72843781  0.25777420  0.98690355  1
  S  S38  1  0.27156219  0.75777420  0.51309645  1
  S  S39  1  0.77156219  0.74222580  0.48690355  1
  S  S40  1  0.02464452  0.20704891  0.68286595  1
  S  S41  1  0.47535548  0.79295109  0.18286595  1
  S  S42  1  0.97535548  0.70704891  0.81713405  1
  S  S43  1  0.68286595  0.02464452  0.20704891  1
  S  S44  1  0.52464452  0.29295109  0.31713405  1
  S  S45  1  0.18286595  0.47535548  0.79295109  1
  S  S46  1  0.81713405  0.97535548  0.70704891  1
  S  S47  1  0.31713405  0.52464452  0.29295109  1
  S  S48  1  0.20704891  0.68286595  0.02464452  1
  S  S49  1  0.70704891  0.81713405  0.97535548  1
  S  S50  1  0.29295109  0.31713405  0.52464452  1
  S  S51  1  0.79295109  0.18286595  0.47535548  1
