# generated using pymatgen
data_CsEr(MoO4)2
_symmetry_space_group_name_H-M   'P 1'
_cell_length_a   5.08825250
_cell_length_b   8.10583407
_cell_length_c   9.62821489
_cell_angle_alpha   90.00000000
_cell_angle_beta   90.00000000
_cell_angle_gamma   90.00000000
_symmetry_Int_Tables_number   1
_chemical_formula_structural   CsEr(MoO4)2
_chemical_formula_sum   'Cs2 Er2 Mo4 O16'
_cell_volume   397.11120241
_cell_formula_units_Z   2
loop_
 _symmetry_equiv_pos_site_id
 _symmetry_equiv_pos_as_xyz
  1  'x, y, z'
loop_
 _atom_site_type_symbol
 _atom_site_label
 _atom_site_symmetry_multiplicity
 _atom_site_fract_x
 _atom_site_fract_y
 _atom_site_fract_z
 _atom_site_occupancy
  Cs  Cs0  1  -0.00000000  0.75000000  0.50000000  1
  Cs  Cs1  1  -0.00000000  0.25000000  0.50000000  1
  Er  Er2  1  -0.00000000  0.75000000  0.00000000  1
  Er  Er3  1  -0.00000000  0.25000000  0.00000000  1
  Mo  Mo4  1  0.47717937  0.00000000  0.80597444  1
  Mo  Mo5  1  0.52282063  0.00000000  0.19402556  1
  Mo  Mo6  1  0.52282063  0.50000000  0.80597444  1
  Mo  Mo7  1  0.47717937  0.50000000  0.19402556  1
  O  O8  1  0.75257976  0.00000000  0.93441391  1
  O  O9  1  0.24742024  0.00000000  0.06558609  1
  O  O10  1  0.24742024  0.50000000  0.93441391  1
  O  O11  1  0.75257976  0.50000000  0.06558609  1
  O  O12  1  0.74218682  0.67571338  0.81552802  1
  O  O13  1  0.25781318  0.32428662  0.18447198  1
  O  O14  1  0.25781318  0.67571338  0.18447198  1
  O  O15  1  0.25781318  0.82428662  0.81552802  1
  O  O16  1  0.74218682  0.32428662  0.81552802  1
  O  O17  1  0.74218682  0.17571338  0.18447198  1
  O  O18  1  0.74218682  0.82428662  0.18447198  1
  O  O19  1  0.25781318  0.17571338  0.81552802  1
  O  O20  1  0.61362727  0.00000000  0.63891770  1
  O  O21  1  0.38637273  0.00000000  0.36108230  1
  O  O22  1  0.38637273  0.50000000  0.63891770  1
  O  O23  1  0.61362727  0.50000000  0.36108230  1
