# generated using pymatgen
data_La5CuGe3
_symmetry_space_group_name_H-M   'P 1'
_cell_length_a   6.78232304
_cell_length_b   9.27796785
_cell_length_c   9.27792928
_cell_angle_alpha   120.00082359
_cell_angle_beta   90.00035592
_cell_angle_gamma   89.99953060
_symmetry_Int_Tables_number   1
_chemical_formula_structural   La5CuGe3
_chemical_formula_sum   'La10 Cu2 Ge6'
_cell_volume   505.60274130
_cell_formula_units_Z   2
loop_
 _symmetry_equiv_pos_site_id
 _symmetry_equiv_pos_as_xyz
  1  'x, y, z'
loop_
 _atom_site_type_symbol
 _atom_site_label
 _atom_site_symmetry_multiplicity
 _atom_site_fract_x
 _atom_site_fract_y
 _atom_site_fract_z
 _atom_site_occupancy
  La  La0  1  0.75000006  0.72973898  0.72973816  1
  La  La1  1  0.24999355  0.27025436  0.27024864  1
  La  La2  1  0.75000518  0.00000065  0.27026066  1
  La  La3  1  0.25000120  0.99999518  0.72974801  1
  La  La4  1  0.75001347  0.27025098  0.00000178  1
  La  La5  1  0.24997761  0.72974225  -0.00001480  1
  La  La6  1  -0.00000667  0.66666423  0.33334139  1
  La  La7  1  0.00000256  0.33333610  0.66666449  1
  La  La8  1  0.50000687  0.33334123  0.66667073  1
  La  La9  1  0.50000002  0.66666151  0.33333076  1
  Cu  Cu10  1  0.99999883  0.99999570  -0.00000089  1
  Cu  Cu11  1  0.49999948  0.99999738  -0.00000062  1
  Ge  Ge12  1  0.74999997  0.38085069  0.38085672  1
  Ge  Ge13  1  0.25000267  0.61916190  0.61916584  1
  Ge  Ge14  1  0.75000055  0.00000233  0.61915457  1
  Ge  Ge15  1  0.25000166  0.00000547  0.38084126  1
  Ge  Ge16  1  0.75000283  0.61916006  0.99999664  1
  Ge  Ge17  1  0.25000014  0.38084100  0.99999666  1
