# generated using pymatgen
data_LaIn6Ni7
_symmetry_space_group_name_H-M   'P 1'
_cell_length_a   8.08176019
_cell_length_b   8.82938769
_cell_length_c   8.82938769
_cell_angle_alpha   64.23534340
_cell_angle_beta   62.76362128
_cell_angle_gamma   62.76362128
_symmetry_Int_Tables_number   1
_chemical_formula_structural   LaIn6Ni7
_chemical_formula_sum   'La2 In12 Ni14'
_cell_volume   477.43333180
_cell_formula_units_Z   2
loop_
 _symmetry_equiv_pos_site_id
 _symmetry_equiv_pos_as_xyz
  1  'x, y, z'
loop_
 _atom_site_type_symbol
 _atom_site_label
 _atom_site_symmetry_multiplicity
 _atom_site_fract_x
 _atom_site_fract_y
 _atom_site_fract_z
 _atom_site_occupancy
  La  La0  1  0.25000000  0.25000000  0.25000000  1
  La  La1  1  0.75000000  0.75000000  0.75000000  1
  In  In2  1  0.46645888  0.16820980  0.55348488  1
  In  In3  1  0.53354112  0.83179020  0.44651512  1
  In  In4  1  0.81184644  0.55348488  0.16820980  1
  In  In5  1  0.03354112  0.94651512  0.33179020  1
  In  In6  1  0.18815356  0.44651512  0.83179020  1
  In  In7  1  0.96645888  0.05348488  0.66820980  1
  In  In8  1  0.68815356  0.33179020  0.94651512  1
  In  In9  1  0.31184644  0.66820980  0.05348488  1
  In  In10  1  0.67616065  0.95561030  0.04438970  1
  In  In11  1  0.32383935  0.04438970  0.95561030  1
  In  In12  1  0.82383935  0.45561030  0.54438970  1
  In  In13  1  0.17616065  0.54438970  0.45561030  1
  Ni  Ni14  1  0.70220467  0.08398734  0.25906737  1
  Ni  Ni15  1  0.29779533  0.91601266  0.74093263  1
  Ni  Ni16  1  0.95474063  0.25906737  0.08398734  1
  Ni  Ni17  1  0.79779533  0.24093263  0.41601266  1
  Ni  Ni18  1  0.04525937  0.74093263  0.91601266  1
  Ni  Ni19  1  0.20220467  0.75906737  0.58398734  1
  Ni  Ni20  1  0.54525937  0.41601266  0.24093263  1
  Ni  Ni21  1  0.45474063  0.58398734  0.75906737  1
  Ni  Ni22  1  0.00000000  0.00000000  0.00000000  1
  Ni  Ni23  1  0.50000000  0.50000000  0.50000000  1
  Ni  Ni24  1  0.92537759  0.73887274  0.26112726  1
  Ni  Ni25  1  0.07462241  0.26112726  0.73887274  1
  Ni  Ni26  1  0.57462241  0.23887274  0.76112726  1
  Ni  Ni27  1  0.42537759  0.76112726  0.23887274  1
