# generated using pymatgen
data_Ca3V3(CuO6)2
_symmetry_space_group_name_H-M   'P 1'
_cell_length_a   10.88034137
_cell_length_b   10.88034137
_cell_length_c   10.88034137
_cell_angle_alpha   109.47122063
_cell_angle_beta   109.47122063
_cell_angle_gamma   109.47122063
_symmetry_Int_Tables_number   1
_chemical_formula_structural   Ca3V3(CuO6)2
_chemical_formula_sum   'Ca12 V12 Cu8 O48'
_cell_volume   991.52957815
_cell_formula_units_Z   4
loop_
 _symmetry_equiv_pos_site_id
 _symmetry_equiv_pos_as_xyz
  1  'x, y, z'
loop_
 _atom_site_type_symbol
 _atom_site_label
 _atom_site_symmetry_multiplicity
 _atom_site_fract_x
 _atom_site_fract_y
 _atom_site_fract_z
 _atom_site_occupancy
  Ca  Ca0  1  0.87500000  0.62500000  0.75000000  1
  Ca  Ca1  1  0.12500000  0.37500000  0.25000000  1
  Ca  Ca2  1  0.62500000  0.87500000  0.25000000  1
  Ca  Ca3  1  0.62500000  0.75000000  0.87500000  1
  Ca  Ca4  1  0.87500000  0.25000000  0.62500000  1
  Ca  Ca5  1  0.37500000  0.12500000  0.75000000  1
  Ca  Ca6  1  0.37500000  0.25000000  0.12500000  1
  Ca  Ca7  1  0.12500000  0.75000000  0.37500000  1
  Ca  Ca8  1  0.75000000  0.87500000  0.62500000  1
  Ca  Ca9  1  0.25000000  0.12500000  0.37500000  1
  Ca  Ca10  1  0.25000000  0.62500000  0.87500000  1
  Ca  Ca11  1  0.75000000  0.37500000  0.12500000  1
  V  V12  1  0.62500000  0.37500000  0.75000000  1
  V  V13  1  0.37500000  0.62500000  0.25000000  1
  V  V14  1  0.87500000  0.12500000  0.25000000  1
  V  V15  1  0.37500000  0.75000000  0.62500000  1
  V  V16  1  0.62500000  0.25000000  0.37500000  1
  V  V17  1  0.12500000  0.87500000  0.75000000  1
  V  V18  1  0.12500000  0.25000000  0.87500000  1
  V  V19  1  0.87500000  0.75000000  0.12500000  1
  V  V20  1  0.75000000  0.62500000  0.37500000  1
  V  V21  1  0.25000000  0.37500000  0.62500000  1
  V  V22  1  0.25000000  0.87500000  0.12500000  1
  V  V23  1  0.75000000  0.12500000  0.87500000  1
  Cu  Cu24  1  0.00000000  0.00000000  0.00000000  1
  Cu  Cu25  1  0.50000000  0.00000000  0.50000000  1
  Cu  Cu26  1  0.50000000  0.50000000  0.00000000  1
  Cu  Cu27  1  0.00000000  0.00000000  0.50000000  1
  Cu  Cu28  1  0.00000000  0.50000000  0.50000000  1
  Cu  Cu29  1  0.50000000  0.50000000  0.50000000  1
  Cu  Cu30  1  0.50000000  0.00000000  0.00000000  1
  Cu  Cu31  1  0.00000000  0.50000000  0.00000000  1
  O  O32  1  0.71191387  0.62071908  0.51880865  1
  O  O33  1  0.28808613  0.37928092  0.48119135  1
  O  O34  1  0.78808613  0.80689477  0.40880521  1
  O  O35  1  0.39808956  0.87928092  0.09119479  1
  O  O36  1  0.62071908  0.51880865  0.71191387  1
  O  O37  1  0.71191387  0.09119479  0.69310523  1
  O  O38  1  0.21191387  0.19310523  0.59119479  1
  O  O39  1  0.60191044  0.12071908  0.90880521  1
  O  O40  1  0.37928092  0.48119135  0.28808613  1
  O  O41  1  0.28808613  0.90880521  0.30689477  1
  O  O42  1  0.10191044  0.69310523  0.98119135  1
  O  O43  1  0.80689477  0.40880521  0.78808613  1
  O  O44  1  0.78808613  0.98119135  0.87928092  1
  O  O45  1  0.89808956  0.30689477  0.01880865  1
  O  O46  1  0.19310523  0.59119479  0.21191387  1
  O  O47  1  0.21191387  0.01880865  0.12071908  1
  O  O48  1  0.87928092  0.09119479  0.39808956  1
  O  O49  1  0.39808956  0.51880865  0.80689477  1
  O  O50  1  0.12071908  0.90880521  0.60191044  1
  O  O51  1  0.60191044  0.48119135  0.19310523  1
  O  O52  1  0.69310523  0.98119135  0.10191044  1
  O  O53  1  0.10191044  0.40880521  0.62071908  1
  O  O54  1  0.30689477  0.01880865  0.89808956  1
  O  O55  1  0.89808956  0.59119479  0.37928092  1
  O  O56  1  0.51880865  0.71191387  0.62071908  1
  O  O57  1  0.62071908  0.10191044  0.40880521  1
  O  O58  1  0.48119135  0.28808613  0.37928092  1
  O  O59  1  0.37928092  0.89808956  0.59119479  1
  O  O60  1  0.09119479  0.39808956  0.87928092  1
  O  O61  1  0.87928092  0.78808613  0.98119135  1
  O  O62  1  0.90880521  0.60191044  0.12071908  1
  O  O63  1  0.12071908  0.21191387  0.01880865  1
  O  O64  1  0.98119135  0.10191044  0.69310523  1
  O  O65  1  0.69310523  0.71191387  0.09119479  1
  O  O66  1  0.01880865  0.89808956  0.30689477  1
  O  O67  1  0.30689477  0.28808613  0.90880521  1
  O  O68  1  0.40880521  0.78808613  0.80689477  1
  O  O69  1  0.80689477  0.39808956  0.51880865  1
  O  O70  1  0.59119479  0.21191387  0.19310523  1
  O  O71  1  0.19310523  0.60191044  0.48119135  1
  O  O72  1  0.09119479  0.69310523  0.71191387  1
  O  O73  1  0.90880521  0.30689477  0.28808613  1
  O  O74  1  0.98119135  0.87928092  0.78808613  1
  O  O75  1  0.01880865  0.12071908  0.21191387  1
  O  O76  1  0.40880521  0.62071908  0.10191044  1
  O  O77  1  0.59119479  0.37928092  0.89808956  1
  O  O78  1  0.51880865  0.80689477  0.39808956  1
  O  O79  1  0.48119135  0.19310523  0.60191044  1
