# generated using pymatgen
data_Ba2Y2Mn4O11
_symmetry_space_group_name_H-M   'P 1'
_cell_length_a   3.85724768
_cell_length_b   8.18097457
_cell_length_c   8.77520549
_cell_angle_alpha   117.78412174
_cell_angle_beta   90.00000000
_cell_angle_gamma   90.00000000
_symmetry_Int_Tables_number   1
_chemical_formula_structural   Ba2Y2Mn4O11
_chemical_formula_sum   'Ba2 Y2 Mn4 O11'
_cell_volume   244.98578971
_cell_formula_units_Z   1
loop_
 _symmetry_equiv_pos_site_id
 _symmetry_equiv_pos_as_xyz
  1  'x, y, z'
loop_
 _atom_site_type_symbol
 _atom_site_label
 _atom_site_symmetry_multiplicity
 _atom_site_fract_x
 _atom_site_fract_y
 _atom_site_fract_z
 _atom_site_occupancy
  Ba  Ba0  1  0.50000000  0.50000000  0.50000000  1
  Ba  Ba1  1  0.50000000  0.00000000  0.50000000  1
  Y  Y2  1  0.50000000  0.22597063  0.00000000  1
  Y  Y3  1  0.50000000  0.77402937  -0.00000000  1
  Mn  Mn4  1  0.00000000  0.38617341  0.77234682  1
  Mn  Mn5  1  -0.00000000  0.61382659  0.22765318  1
  Mn  Mn6  1  0.00000000  0.12441848  0.24883697  1
  Mn  Mn7  1  0.00000000  0.87558152  0.75116303  1
  O  O8  1  0.50000000  0.41232890  0.82465779  1
  O  O9  1  0.50000000  0.58767110  0.17534221  1
  O  O10  1  0.50000000  0.11324907  0.22649814  1
  O  O11  1  0.50000000  0.88675093  0.77350186  1
  O  O12  1  -0.00000000  0.24943741  0.49887483  1
  O  O13  1  0.00000000  0.75056259  0.50112517  1
  O  O14  1  0.00000000  0.36499589  0.19795018  1
  O  O15  1  -0.00000000  0.63500411  0.80204982  1
  O  O16  1  -0.00000000  0.83295429  0.19795018  1
  O  O17  1  -0.00000000  0.16704571  0.80204982  1
  O  O18  1  -0.00000000  0.00000000  -0.00000000  1
