# generated using pymatgen
data_Bi12Br5O16
_symmetry_space_group_name_H-M   'P 1'
_cell_length_a   3.99652157
_cell_length_b   10.23275285
_cell_length_c   15.81103234
_cell_angle_alpha   90.48985878
_cell_angle_beta   97.26068191
_cell_angle_gamma   90.00000000
_symmetry_Int_Tables_number   1
_chemical_formula_structural   Bi12Br5O16
_chemical_formula_sum   'Bi12 Br5 O16'
_cell_volume   641.39013141
_cell_formula_units_Z   1
loop_
 _symmetry_equiv_pos_site_id
 _symmetry_equiv_pos_as_xyz
  1  'x, y, z'
loop_
 _atom_site_type_symbol
 _atom_site_label
 _atom_site_symmetry_multiplicity
 _atom_site_fract_x
 _atom_site_fract_y
 _atom_site_fract_z
 _atom_site_occupancy
  Bi  Bi0  1  0.46871921  0.23165217  0.93743842  1
  Bi  Bi1  1  0.53128079  0.76834783  0.06256158  1
  Bi  Bi2  1  0.17267792  0.23795039  0.34535584  1
  Bi  Bi3  1  0.82732208  0.76204961  0.65464416  1
  Bi  Bi4  1  0.58689836  0.39520571  0.17379672  1
  Bi  Bi5  1  0.41310164  0.60479429  0.82620328  1
  Bi  Bi6  1  0.35132081  0.06746256  0.70264163  1
  Bi  Bi7  1  0.64867919  0.93253744  0.29735837  1
  Bi  Bi8  1  0.29510748  0.44085414  0.59021497  1
  Bi  Bi9  1  0.70489252  0.55914586  0.40978503  1
  Bi  Bi10  1  0.05847342  0.07567023  0.11694683  1
  Bi  Bi11  1  0.94152658  0.92432977  0.88305317  1
  Br  Br12  1  0.77782706  0.18744007  0.55565411  1
  Br  Br13  1  0.22217294  0.81255993  0.44434589  1
  Br  Br14  1  -0.00000000  0.50000000  -0.00000000  1
  Br  Br15  1  0.11254796  0.65349857  0.22509592  1
  Br  Br16  1  0.88745204  0.34650143  0.77490408  1
  O  O17  1  0.42643480  0.05130642  0.85286961  1
  O  O18  1  0.57356520  0.94869358  0.14713039  1
  O  O19  1  0.13275994  0.02877573  0.26551988  1
  O  O20  1  0.86724006  0.97122427  0.73448012  1
  O  O21  1  0.01861451  0.86789918  0.03722902  1
  O  O22  1  0.98138549  0.13210082  0.96277098  1
  O  O23  1  0.54187483  0.21586748  0.08374966  1
  O  O24  1  0.45812517  0.78413252  0.91625034  1
  O  O25  1  0.22282928  0.46239859  0.44565857  1
  O  O26  1  0.77717072  0.53760141  0.55434143  1
  O  O27  1  0.34139208  0.61407197  0.68278417  1
  O  O28  1  0.65860792  0.38592803  0.31721583  1
  O  O29  1  0.67673935  0.12518059  0.35347870  1
  O  O30  1  0.32326065  0.87481941  0.64652130  1
  O  O31  1  0.10294914  0.29485881  0.20589828  1
  O  O32  1  0.89705086  0.70514119  0.79410172  1
