# generated using pymatgen
data_Ca2La3Si3O13
_symmetry_space_group_name_H-M   'P 1'
_cell_length_a   7.13603232
_cell_length_b   9.74793955
_cell_length_c   9.74793954
_cell_angle_alpha   120.00000037
_cell_angle_beta   90.00000000
_cell_angle_gamma   90.00000000
_symmetry_Int_Tables_number   1
_chemical_formula_structural   Ca2La3Si3O13
_chemical_formula_sum   'Ca4 La6 Si6 O26'
_cell_volume   587.23656895
_cell_formula_units_Z   2
loop_
 _symmetry_equiv_pos_site_id
 _symmetry_equiv_pos_as_xyz
  1  'x, y, z'
loop_
 _atom_site_type_symbol
 _atom_site_label
 _atom_site_symmetry_multiplicity
 _atom_site_fract_x
 _atom_site_fract_y
 _atom_site_fract_z
 _atom_site_occupancy
  Ca  Ca0  1  0.00338943  0.66666700  0.33333300  1
  Ca  Ca1  1  0.99661057  0.33333300  0.66666700  1
  Ca  Ca2  1  0.50338943  0.33333300  0.66666700  1
  Ca  Ca3  1  0.49661057  0.66666700  0.33333300  1
  La  La4  1  0.75000000  0.74825411  0.98833441  1
  La  La5  1  0.25000000  0.25174589  0.01166559  1
  La  La6  1  0.75000000  0.24008030  0.25174589  1
  La  La7  1  0.25000000  0.75991970  0.74825411  1
  La  La8  1  0.75000000  0.01166559  0.75991970  1
  La  La9  1  0.25000000  0.98833441  0.24008030  1
  Si  Si10  1  0.75000000  0.96967870  0.37200768  1
  Si  Si11  1  0.25000000  0.03032130  0.62799232  1
  Si  Si12  1  0.75000000  0.40232898  0.03032130  1
  Si  Si13  1  0.25000000  0.59767102  0.96967870  1
  Si  Si14  1  0.75000000  0.62799232  0.59767102  1
  Si  Si15  1  0.25000000  0.37200768  0.40232898  1
  O  O16  1  0.75000000  0.87101474  0.46792284  1
  O  O17  1  0.25000000  0.12898526  0.53207716  1
  O  O18  1  0.75000000  0.59690810  0.12898526  1
  O  O19  1  0.25000000  0.40309190  0.87101474  1
  O  O20  1  0.75000000  0.53207716  0.40309190  1
  O  O21  1  0.25000000  0.46792284  0.59690810  1
  O  O22  1  0.93171629  0.91061212  0.24990067  1
  O  O23  1  0.06828371  0.08938788  0.75009933  1
  O  O24  1  0.93171629  0.33928855  0.08938788  1
  O  O25  1  0.43171629  0.08938788  0.75009933  1
  O  O26  1  0.06828371  0.66071145  0.91061212  1
  O  O27  1  0.56828371  0.91061212  0.24990067  1
  O  O28  1  0.93171629  0.75009933  0.66071145  1
  O  O29  1  0.43171629  0.66071145  0.91061212  1
  O  O30  1  0.06828371  0.24990067  0.33928855  1
  O  O31  1  0.56828371  0.33928855  0.08938788  1
  O  O32  1  0.43171629  0.24990067  0.33928855  1
  O  O33  1  0.56828371  0.75009933  0.66071145  1
  O  O34  1  0.75000000  0.51215550  0.67390346  1
  O  O35  1  0.25000000  0.48784450  0.32609654  1
  O  O36  1  0.75000000  0.16174796  0.48784450  1
  O  O37  1  0.25000000  0.83825204  0.51215550  1
  O  O38  1  0.75000000  0.32609654  0.83825204  1
  O  O39  1  0.25000000  0.67390346  0.16174796  1
  O  O40  1  0.75000000  -0.00000000  -0.00000000  1
  O  O41  1  0.25000000  -0.00000000  -0.00000000  1
