# generated using pymatgen
data_YbGaCoO4
_symmetry_space_group_name_H-M   'P 1'
_cell_length_a   3.47073738
_cell_length_b   3.47073793
_cell_length_c   24.60176217
_cell_angle_alpha   90.00000000
_cell_angle_beta   90.00000000
_cell_angle_gamma   60.00000474
_symmetry_Int_Tables_number   1
_chemical_formula_structural   YbGaCoO4
_chemical_formula_sum   'Yb3 Ga3 Co3 O12'
_cell_volume   256.64951239
_cell_formula_units_Z   3
loop_
 _symmetry_equiv_pos_site_id
 _symmetry_equiv_pos_as_xyz
  1  'x, y, z'
loop_
 _atom_site_type_symbol
 _atom_site_label
 _atom_site_symmetry_multiplicity
 _atom_site_fract_x
 _atom_site_fract_y
 _atom_site_fract_z
 _atom_site_occupancy
  Yb  Yb0  1  0.00000000  0.00000000  0.00123252  1
  Yb  Yb1  1  0.66666700  0.66666700  0.66789952  1
  Yb  Yb2  1  0.33333300  0.33333300  0.33456552  1
  Ga  Ga3  1  -0.00000000  0.00000000  0.21469223  1
  Ga  Ga4  1  0.66666700  0.66666700  0.88135923  1
  Ga  Ga5  1  0.33333300  0.33333300  0.54802523  1
  Co  Co6  1  0.00000000  0.00000000  0.78629990  1
  Co  Co7  1  0.66666700  0.66666700  0.45296690  1
  Co  Co8  1  0.33333300  0.33333300  0.11963290  1
  O  O9  1  0.00000000  -0.00000000  0.28767156  1
  O  O10  1  0.00000000  -0.00000000  0.71516334  1
  O  O11  1  0.66666700  0.66666700  0.95433856  1
  O  O12  1  0.66666700  0.66666700  0.38183034  1
  O  O13  1  0.33333300  0.33333300  0.62100456  1
  O  O14  1  0.33333300  0.33333300  0.04849634  1
  O  O15  1  -0.00000000  -0.00000000  0.13282893  1
  O  O16  1  -0.00000000  0.00000000  0.86691152  1
  O  O17  1  0.66666700  0.66666700  0.79949593  1
  O  O18  1  0.66666700  0.66666700  0.53357852  1
  O  O19  1  0.33333300  0.33333300  0.46616193  1
  O  O20  1  0.33333300  0.33333300  0.20024452  1
