# generated using pymatgen
data_Zn3Cu3(TeO6)2
_symmetry_space_group_name_H-M   'P 1'
_cell_length_a   8.42102315
_cell_length_b   8.42102315
_cell_length_c   8.42102315
_cell_angle_alpha   70.52877937
_cell_angle_beta   70.52877937
_cell_angle_gamma   109.47122063
_symmetry_Int_Tables_number   1
_chemical_formula_structural   Zn3Cu3(TeO6)2
_chemical_formula_sum   'Zn6 Cu6 Te4 O24'
_cell_volume   459.69808266
_cell_formula_units_Z   2
loop_
 _symmetry_equiv_pos_site_id
 _symmetry_equiv_pos_as_xyz
  1  'x, y, z'
loop_
 _atom_site_type_symbol
 _atom_site_label
 _atom_site_symmetry_multiplicity
 _atom_site_fract_x
 _atom_site_fract_y
 _atom_site_fract_z
 _atom_site_occupancy
  Zn  Zn0  1  0.53563714  0.75000000  0.71436286  1
  Zn  Zn1  1  0.96436286  0.25000000  0.78563714  1
  Zn  Zn2  1  0.21436286  0.46436286  0.25000000  1
  Zn  Zn3  1  0.28563714  0.03563714  0.75000000  1
  Zn  Zn4  1  0.25000000  0.78563714  0.46436286  1
  Zn  Zn5  1  0.75000000  0.71436286  0.03563714  1
  Cu  Cu6  1  0.46878615  0.25000000  0.28121385  1
  Cu  Cu7  1  0.03121385  0.75000000  0.21878615  1
  Cu  Cu8  1  0.78121385  0.53121385  0.75000000  1
  Cu  Cu9  1  0.71878615  0.96878615  0.25000000  1
  Cu  Cu10  1  0.75000000  0.21878615  0.53121385  1
  Cu  Cu11  1  0.25000000  0.28121385  0.96878615  1
  Te  Te12  1  0.50000000  0.00734874  -0.00000000  1
  Te  Te13  1  0.99265126  0.49265126  0.00734874  1
  Te  Te14  1  0.50734874  0.50000000  0.50000000  1
  Te  Te15  1  -0.00000000  0.00000000  0.49265126  1
  O  O16  1  0.69773002  0.93813938  0.02394508  1
  O  O17  1  0.03791554  0.56186062  0.74040936  1
  O  O18  1  0.46208446  0.72167510  0.47605492  1
  O  O19  1  0.80226998  0.77832490  0.75959064  1
  O  O20  1  0.24040936  0.30226998  0.72167510  1
  O  O21  1  0.52394508  0.96208446  0.77832490  1
  O  O22  1  0.25959064  0.53791554  0.93813938  1
  O  O23  1  0.97605492  0.19773002  0.56186062  1
  O  O24  1  0.06186062  0.75959064  0.96208446  1
  O  O25  1  0.43813938  0.47605492  0.30226998  1
  O  O26  1  0.27832490  0.74040936  0.19773002  1
  O  O27  1  0.22167510  0.02394508  0.53791554  1
  O  O28  1  0.30045176  0.07019740  0.97827873  1
  O  O29  1  0.95152387  0.42980260  0.26974564  1
  O  O30  1  0.54847613  0.27873049  0.52172127  1
  O  O31  1  0.19954824  0.22126951  0.23025436  1
  O  O32  1  0.76974564  0.69954824  0.27873049  1
  O  O33  1  0.47827873  0.04847613  0.22126951  1
  O  O34  1  0.73025436  0.45152387  0.07019740  1
  O  O35  1  0.02172127  0.80045176  0.42980260  1
  O  O36  1  0.92980260  0.23025436  0.04847613  1
  O  O37  1  0.57019740  0.52172127  0.69954824  1
  O  O38  1  0.72126951  0.26974564  0.80045176  1
  O  O39  1  0.77873049  0.97827873  0.45152387  1
