# generated using pymatgen
data_BaZn2Cu2As3
_symmetry_space_group_name_H-M   'P 1'
_cell_length_a   4.20997843
_cell_length_b   6.71408246
_cell_length_c   12.18305563
_cell_angle_alpha   90.00000000
_cell_angle_beta   90.00000000
_cell_angle_gamma   108.27140574
_symmetry_Int_Tables_number   1
_chemical_formula_structural   BaZn2Cu2As3
_chemical_formula_sum   'Ba2 Zn4 Cu4 As6'
_cell_volume   327.00566071
_cell_formula_units_Z   2
loop_
 _symmetry_equiv_pos_site_id
 _symmetry_equiv_pos_as_xyz
  1  'x, y, z'
loop_
 _atom_site_type_symbol
 _atom_site_label
 _atom_site_symmetry_multiplicity
 _atom_site_fract_x
 _atom_site_fract_y
 _atom_site_fract_z
 _atom_site_occupancy
  Ba  Ba0  1  0.81592365  0.63184730  0.25000000  1
  Ba  Ba1  1  0.18407635  0.36815270  0.75000000  1
  Zn  Zn2  1  0.16735720  0.33471440  0.05837246  1
  Zn  Zn3  1  0.83264280  0.66528560  0.94162754  1
  Zn  Zn4  1  0.83264280  0.66528560  0.55837246  1
  Zn  Zn5  1  0.16735720  0.33471440  0.44162754  1
  Cu  Cu6  1  0.54197357  0.08394713  0.14386425  1
  Cu  Cu7  1  0.45802643  0.91605287  0.85613575  1
  Cu  Cu8  1  0.45802643  0.91605287  0.64386425  1
  Cu  Cu9  1  0.54197357  0.08394713  0.35613575  1
  As  As10  1  0.37475854  0.74951708  0.04560769  1
  As  As11  1  0.62524146  0.25048292  0.95439231  1
  As  As12  1  0.62524146  0.25048292  0.54560769  1
  As  As13  1  0.37475854  0.74951708  0.45439231  1
  As  As14  1  0.08907144  0.17814288  0.25000000  1
  As  As15  1  0.91092856  0.82185712  0.75000000  1
