# generated using pymatgen
data_Y4NiSn8
_symmetry_space_group_name_H-M   'P 1'
_cell_length_a   4.41201507
_cell_length_b   4.40294188
_cell_length_c   16.90872938
_cell_angle_alpha   90.00000000
_cell_angle_beta   90.00000000
_cell_angle_gamma   90.00000000
_symmetry_Int_Tables_number   1
_chemical_formula_structural   Y4NiSn8
_chemical_formula_sum   'Y4 Ni1 Sn8'
_cell_volume   328.46637176
_cell_formula_units_Z   1
loop_
 _symmetry_equiv_pos_site_id
 _symmetry_equiv_pos_as_xyz
  1  'x, y, z'
loop_
 _atom_site_type_symbol
 _atom_site_label
 _atom_site_symmetry_multiplicity
 _atom_site_fract_x
 _atom_site_fract_y
 _atom_site_fract_z
 _atom_site_occupancy
  Y  Y0  1  0.25000000  -0.00000000  0.09840904  1
  Y  Y1  1  0.25000000  0.50000000  0.60329846  1
  Y  Y2  1  0.75000000  0.50000000  0.39713530  1
  Y  Y3  1  0.75000000  0.00000000  0.89898146  1
  Ni  Ni4  1  0.25000000  -0.00000000  0.31031721  1
  Sn  Sn5  1  0.25000000  0.00000000  0.45586888  1
  Sn  Sn6  1  0.25000000  0.50000000  0.93643717  1
  Sn  Sn7  1  0.75000000  0.50000000  0.05774141  1
  Sn  Sn8  1  0.75000000  -0.00000000  0.57088418  1
  Sn  Sn9  1  0.25000000  0.50000000  0.23706953  1
  Sn  Sn10  1  0.25000000  -0.00000000  0.74663807  1
  Sn  Sn11  1  0.75000000  -0.00000000  0.23794255  1
  Sn  Sn12  1  0.75000000  0.50000000  0.75437674  1
