# generated using pymatgen
data_Y2Co17C
_symmetry_space_group_name_H-M   'P 1'
_cell_length_a   6.33219181
_cell_length_b   6.27876104
_cell_length_c   6.33219181
_cell_angle_alpha   83.43587445
_cell_angle_beta   83.44971026
_cell_angle_gamma   83.43587445
_symmetry_Int_Tables_number   1
_chemical_formula_structural   Y2Co17C
_chemical_formula_sum   'Y2 Co17 C1'
_cell_volume   247.16264650
_cell_formula_units_Z   1
loop_
 _symmetry_equiv_pos_site_id
 _symmetry_equiv_pos_as_xyz
  1  'x, y, z'
loop_
 _atom_site_type_symbol
 _atom_site_label
 _atom_site_symmetry_multiplicity
 _atom_site_fract_x
 _atom_site_fract_y
 _atom_site_fract_z
 _atom_site_occupancy
  Y  Y0  1  0.66005415  0.64569288  0.66005415  1
  Y  Y1  1  0.33994585  0.35430712  0.33994585  1
  Co  Co2  1  0.90434612  0.90211471  0.90434612  1
  Co  Co3  1  0.09565388  0.09788529  0.09565388  1
  Co  Co4  1  0.34581245  0.85326860  0.34581245  1
  Co  Co5  1  0.85765695  0.34955190  0.34494001  1
  Co  Co6  1  0.34494001  0.34955190  0.85765695  1
  Co  Co7  1  0.65418755  0.14673140  0.65418755  1
  Co  Co8  1  0.14234305  0.65044810  0.65505999  1
  Co  Co9  1  0.65505999  0.65044810  0.14234305  1
  Co  Co10  1  0.71824843  -0.00000000  0.28175157  1
  Co  Co11  1  0.99887842  0.28708594  0.71450191  1
  Co  Co12  1  0.28549809  0.71291406  0.00112158  1
  Co  Co13  1  0.00112158  0.71291406  0.28549809  1
  Co  Co14  1  0.71450191  0.28708594  0.99887842  1
  Co  Co15  1  0.28175157  -0.00000000  0.71824843  1
  Co  Co16  1  -0.00000000  0.50000000  -0.00000000  1
  Co  Co17  1  0.50000000  -0.00000000  -0.00000000  1
  Co  Co18  1  -0.00000000  -0.00000000  0.50000000  1
  C  C19  1  0.50000000  -0.00000000  0.50000000  1
