# generated using pymatgen
data_Y4Co3
_symmetry_space_group_name_H-M   'P 1'
_cell_length_a   4.09641392
_cell_length_b   11.34096573
_cell_length_c   11.34339524
_cell_angle_alpha   59.93168385
_cell_angle_beta   89.98799212
_cell_angle_gamma   90.00224449
_symmetry_Int_Tables_number   1
_chemical_formula_structural   Y4Co3
_chemical_formula_sum   'Y12 Co9'
_cell_volume   456.06649954
_cell_formula_units_Z   3
loop_
 _symmetry_equiv_pos_site_id
 _symmetry_equiv_pos_as_xyz
  1  'x, y, z'
loop_
 _atom_site_type_symbol
 _atom_site_label
 _atom_site_symmetry_multiplicity
 _atom_site_fract_x
 _atom_site_fract_y
 _atom_site_fract_z
 _atom_site_occupancy
  Y  Y0  1  0.74840687  0.77709047  0.24945046  1
  Y  Y1  1  0.74824142  0.97334988  0.77691342  1
  Y  Y2  1  0.74829471  0.24981448  0.97337014  1
  Y  Y3  1  0.25159313  0.22290953  0.75054954  1
  Y  Y4  1  0.25175858  0.02665012  0.22308658  1
  Y  Y5  1  0.25170529  0.75018552  0.02662986  1
  Y  Y6  1  0.74954799  0.62028198  0.86362210  1
  Y  Y7  1  0.74948529  0.51597633  0.62039551  1
  Y  Y8  1  0.74953026  0.86378910  0.51586658  1
  Y  Y9  1  0.25045201  0.37971802  0.13637790  1
  Y  Y10  1  0.25051471  0.48402367  0.37960449  1
  Y  Y11  1  0.25046974  0.13621090  0.48413342  1
  Co  Co12  1  0.74871297  0.33342566  0.33327743  1
  Co  Co13  1  0.25128703  0.66657434  0.66672257  1
  Co  Co14  1  0.74874608  0.28350041  0.55818521  1
  Co  Co15  1  0.74881563  0.15818680  0.28356952  1
  Co  Co16  1  0.74885351  0.55843768  0.15793621  1
  Co  Co17  1  0.25125392  0.71649959  0.44181479  1
  Co  Co18  1  0.25118437  0.84181320  0.71643048  1
  Co  Co19  1  0.25114649  0.44156232  0.84206379  1
  Co  Co20  1  0.50000000  -0.00000000  0.00000000  1
