# generated using pymatgen
data_Zr(U5Ti2)2
_symmetry_space_group_name_H-M   'P 1'
_cell_length_a   2.82637385
_cell_length_b   4.82957770
_cell_length_c   21.10924846
_cell_angle_alpha   96.52864506
_cell_angle_beta   90.00381093
_cell_angle_gamma   90.00244273
_symmetry_Int_Tables_number   1
_chemical_formula_structural   Zr(U5Ti2)2
_chemical_formula_sum   'Zr1 U10 Ti4'
_cell_volume   286.27671308
_cell_formula_units_Z   1
loop_
 _symmetry_equiv_pos_site_id
 _symmetry_equiv_pos_as_xyz
  1  'x, y, z'
loop_
 _atom_site_type_symbol
 _atom_site_label
 _atom_site_symmetry_multiplicity
 _atom_site_fract_x
 _atom_site_fract_y
 _atom_site_fract_z
 _atom_site_occupancy
  Zr  Zr0  1  -0.00000072  0.99994483  0.99998841  1
  U  U1  1  0.50002012  0.07009925  0.13989564  1
  U  U2  1  0.50002092  0.66736217  0.33524961  1
  U  U3  1  0.49999116  0.26660571  0.53276705  1
  U  U4  1  0.49995541  0.86484818  0.72963558  1
  U  U5  1  0.49998483  0.46220936  0.92548029  1
  U  U6  1  0.50000606  0.53781352  0.07461720  1
  U  U7  1  0.50004502  0.13500251  0.27018826  1
  U  U8  1  0.50001054  0.73342275  0.46740792  1
  U  U9  1  0.49998045  0.33248041  0.66456815  1
  U  U10  1  0.49998249  0.92980638  0.86020374  1
  Ti  Ti11  1  0.00002202  0.60237920  0.20427276  1
  Ti  Ti12  1  0.00000924  0.20035383  0.40158882  1
  Ti  Ti13  1  0.99999447  0.79960081  0.59840997  1
  Ti  Ti14  1  0.99997797  0.39757110  0.79572661  1
