# generated using pymatgen
data_Y16Se16F15
_symmetry_space_group_name_H-M   'P 1'
_cell_length_a   4.13585833
_cell_length_b   10.02284793
_cell_length_c   25.68284807
_cell_angle_alpha   97.65173551
_cell_angle_beta   90.00000000
_cell_angle_gamma   90.00000000
_symmetry_Int_Tables_number   1
_chemical_formula_structural   Y16Se16F15
_chemical_formula_sum   'Y16 Se16 F15'
_cell_volume   1055.15333532
_cell_formula_units_Z   1
loop_
 _symmetry_equiv_pos_site_id
 _symmetry_equiv_pos_as_xyz
  1  'x, y, z'
loop_
 _atom_site_type_symbol
 _atom_site_label
 _atom_site_symmetry_multiplicity
 _atom_site_fract_x
 _atom_site_fract_y
 _atom_site_fract_z
 _atom_site_occupancy
  Y  Y0  1  0.25000000  0.59989972  0.55889965  1
  Y  Y1  1  0.75000000  0.40023155  0.44132536  1
  Y  Y2  1  0.25000000  0.68346758  0.80761201  1
  Y  Y3  1  0.75000000  0.31604335  0.19207609  1
  Y  Y4  1  0.25000000  0.93735105  0.06216877  1
  Y  Y5  1  0.75000000  0.05694205  0.93947328  1
  Y  Y6  1  0.25000000  0.01566546  0.31627350  1
  Y  Y7  1  0.75000000  0.98479178  0.68401993  1
  Y  Y8  1  0.25000000  0.10150333  0.56602199  1
  Y  Y9  1  0.75000000  0.89857533  0.43420341  1
  Y  Y10  1  0.25000000  0.18054977  0.81924252  1
  Y  Y11  1  0.75000000  0.81914823  0.18161410  1
  Y  Y12  1  0.25000000  0.43220712  0.06248496  1
  Y  Y13  1  0.75000000  0.56914879  0.93782346  1
  Y  Y14  1  0.25000000  0.51757204  0.30892996  1
  Y  Y15  1  0.75000000  0.48180842  0.69111711  1
  Se  Se16  1  0.25000000  0.45984183  0.86658470  1
  Se  Se17  1  0.75000000  0.54119637  0.13398475  1
  Se  Se18  1  0.25000000  0.37388807  0.61580798  1
  Se  Se19  1  0.75000000  0.62613267  0.38407508  1
  Se  Se20  1  0.25000000  0.66756402  0.00983227  1
  Se  Se21  1  0.75000000  0.32889063  0.99091916  1
  Se  Se22  1  0.25000000  0.20308439  0.11757714  1
  Se  Se23  1  0.75000000  0.79649447  0.88185086  1
  Se  Se24  1  0.25000000  0.83810525  0.50870844  1
  Se  Se25  1  0.75000000  0.16192816  0.49120904  1
  Se  Se26  1  0.25000000  0.29065750  0.36562020  1
  Se  Se27  1  0.75000000  0.70927851  0.63428320  1
  Se  Se28  1  0.25000000  0.75398435  0.25651742  1
  Se  Se29  1  0.75000000  0.24612836  0.74334432  1
  Se  Se30  1  0.25000000  0.92135645  0.75823397  1
  Se  Se31  1  0.75000000  0.07824802  0.24169900  1
  F  F32  1  0.25000000  0.84954979  0.14546175  1
  F  F33  1  0.75000000  0.15035860  0.85407597  1
  F  F34  1  0.25000000  0.01806346  0.64801419  1
  F  F35  1  0.75000000  0.98188995  0.35189244  1
  F  F36  1  0.25000000  0.54176177  0.72665135  1
  F  F37  1  0.75000000  0.45818143  0.27328972  1
  F  F38  1  0.25000000  0.09981823  0.90025668  1
  F  F39  1  0.75000000  0.90220826  0.09866926  1
  F  F40  1  0.25000000  0.37616087  0.22742293  1
  F  F41  1  0.75000000  0.62362312  0.77248103  1
  F  F42  1  0.25000000  0.44837743  0.47968543  1
  F  F43  1  0.75000000  0.55158327  0.52020365  1
  F  F44  1  0.25000000  0.93084492  0.39780393  1
  F  F45  1  0.75000000  0.06914211  0.60208492  1
  F  F46  1  0.25000000  0.01075220  0.98347314  1
