# generated using pymatgen
data_ZnAgPO4
_symmetry_space_group_name_H-M   'P 1'
_cell_length_a   8.39080556
_cell_length_b   10.29904967
_cell_length_c   10.29286587
_cell_angle_alpha   60.13304187
_cell_angle_beta   89.74266183
_cell_angle_gamma   89.45949121
_symmetry_Int_Tables_number   1
_chemical_formula_structural   ZnAgPO4
_chemical_formula_sum   'Zn8 Ag8 P8 O32'
_cell_volume   771.31021139
_cell_formula_units_Z   8
loop_
 _symmetry_equiv_pos_site_id
 _symmetry_equiv_pos_as_xyz
  1  'x, y, z'
loop_
 _atom_site_type_symbol
 _atom_site_label
 _atom_site_symmetry_multiplicity
 _atom_site_fract_x
 _atom_site_fract_y
 _atom_site_fract_z
 _atom_site_occupancy
  Zn  Zn0  1  0.74413389  0.33476729  0.33176364  1
  Zn  Zn1  1  0.24404219  0.66556023  0.66612141  1
  Zn  Zn2  1  0.69478986  0.85256215  0.32833002  1
  Zn  Zn3  1  0.69554167  0.81985734  0.85175396  1
  Zn  Zn4  1  0.69232792  0.32756790  0.81947067  1
  Zn  Zn5  1  0.19514217  0.14747071  0.67143850  1
  Zn  Zn6  1  0.19251623  0.17906206  0.14884490  1
  Zn  Zn7  1  0.19499360  0.67227309  0.18145511  1
  Ag  Ag8  1  0.02340778  0.51637480  0.97461772  1
  Ag  Ag9  1  0.02765377  0.50933224  0.51432901  1
  Ag  Ag10  1  0.02150662  0.97020884  0.50973097  1
  Ag  Ag11  1  0.52478439  0.48346359  0.02534815  1
  Ag  Ag12  1  0.52276777  0.49126874  0.48267556  1
  Ag  Ag13  1  0.52498274  0.02729632  0.48951972  1
  Ag  Ag14  1  0.01745877  0.99980169  0.99937732  1
  Ag  Ag15  1  0.51747985  0.99939492  0.99944999  1
  P  P16  1  0.32587576  0.33557136  0.33212943  1
  P  P17  1  0.82587103  0.66674095  0.66440448  1
  P  P18  1  0.31579994  0.86160822  0.32296696  1
  P  P19  1  0.31217658  0.81431537  0.86037072  1
  P  P20  1  0.31172868  0.32232906  0.81641042  1
  P  P21  1  0.81270190  0.14004603  0.67458070  1
  P  P22  1  0.81245681  0.18380678  0.13884287  1
  P  P23  1  0.81452504  0.67743691  0.18464920  1
  O  O24  1  0.30551539  0.84000427  0.18381888  1
  O  O25  1  0.30276522  0.97400597  0.84114174  1
  O  O26  1  0.30339997  0.18323626  0.97653508  1
  O  O27  1  0.80504161  0.15978651  0.81490007  1
  O  O28  1  0.80428745  0.02349372  0.15982695  1
  O  O29  1  0.80204903  0.81660297  0.02446696  1
  O  O30  1  0.30458757  0.70575648  0.46681881  1
  O  O31  1  0.29018251  0.82770618  0.70437152  1
  O  O32  1  0.29366163  0.46592481  0.82932741  1
  O  O33  1  0.79065532  0.29620585  0.53244859  1
  O  O34  1  0.79541955  0.17144379  0.29508430  1
  O  O35  1  0.80263675  0.53345682  0.17274684  1
  O  O36  1  0.28522211  0.18855112  0.47949525  1
  O  O37  1  0.25633132  0.33358689  0.19379241  1
  O  O38  1  0.26077181  0.47343937  0.34023955  1
  O  O39  1  0.76095333  0.81226017  0.52690288  1
  O  O40  1  0.78386664  0.66692930  0.81187005  1
  O  O41  1  0.75745936  0.52652619  0.66613603  1
  O  O42  1  0.47716956  0.93867049  0.31698868  1
  O  O43  1  0.47761026  0.74288610  0.92932914  1
  O  O44  1  0.47502202  0.31997987  0.74427085  1
  O  O45  1  0.97759714  0.06940143  0.67203106  1
  O  O46  1  0.97511490  0.25486844  0.06463515  1
  O  O47  1  0.97704115  0.68314450  0.25491955  1
  O  O48  1  0.17953687  0.96962858  0.31642756  1
  O  O49  1  0.18131349  0.71230798  0.97275403  1
  O  O50  1  0.17798305  0.31370554  0.71549606  1
  O  O51  1  0.68087392  0.02902556  0.68446676  1
  O  O52  1  0.67794208  0.28512656  0.02931331  1
  O  O53  1  0.67991261  0.68478798  0.28670235  1
  O  O54  1  0.50941835  0.34926230  0.31416588  1
  O  O55  1  0.00965303  0.66327142  0.65009491  1
