# generated using pymatgen
data_Zr3Ti2(PbO3)5
_symmetry_space_group_name_H-M   'P 1'
_cell_length_a   4.26645210
_cell_length_b   14.91403668
_cell_length_c   5.80145324
_cell_angle_alpha   78.78469120
_cell_angle_beta   90.00000000
_cell_angle_gamma   91.27827852
_symmetry_Int_Tables_number   1
_chemical_formula_structural   Zr3Ti2(PbO3)5
_chemical_formula_sum   'Zr3 Ti2 Pb5 O15'
_cell_volume   362.00343791
_cell_formula_units_Z   1
loop_
 _symmetry_equiv_pos_site_id
 _symmetry_equiv_pos_as_xyz
  1  'x, y, z'
loop_
 _atom_site_type_symbol
 _atom_site_label
 _atom_site_symmetry_multiplicity
 _atom_site_fract_x
 _atom_site_fract_y
 _atom_site_fract_z
 _atom_site_occupancy
  Zr  Zr0  1  0.46274436  0.21848290  0.89075855  1
  Zr  Zr1  1  0.45975512  0.80449351  0.09775325  1
  Zr  Zr2  1  0.46247120  0.01178677  0.49410662  1
  Ti  Ti3  1  0.48193427  0.41299475  0.29350263  1
  Ti  Ti4  1  0.47878770  0.60557588  0.69721206  1
  Pb  Pb5  1  0.01360844  0.99176145  0.00411928  1
  Pb  Pb6  1  0.01544888  0.19988024  0.40005988  1
  Pb  Pb7  1  0.02728250  0.40824557  0.79587722  1
  Pb  Pb8  1  0.02373017  0.59272650  0.20363675  1
  Pb  Pb9  1  0.01389355  0.78597487  0.60701257  1
  O  O10  1  0.94019727  0.23363295  0.88318353  1
  O  O11  1  0.90336411  0.42662630  0.28668685  1
  O  O12  1  0.89846987  0.61657443  0.69171278  1
  O  O13  1  0.93535503  0.82030835  0.08984583  1
  O  O14  1  0.93874955  0.02725410  0.48637295  1
  O  O15  1  0.41114136  0.12423719  0.19636505  1
  O  O16  1  0.41122477  0.32993297  0.57964494  1
  O  O17  1  0.40117158  0.52064777  0.99132635  1
  O  O18  1  0.40070836  0.71133954  0.41220490  1
  O  O19  1  0.40785793  0.91748326  0.80255445  1
  O  O20  1  0.41114136  0.12423719  0.67939775  1
  O  O21  1  0.41122477  0.32993297  0.09042209  1
  O  O22  1  0.40117158  0.52064777  0.48802588  1
  O  O23  1  0.40070836  0.71133954  0.87645556  1
  O  O24  1  0.40785793  0.91748326  0.27996229  1
