# generated using pymatgen
data_TmCuTe2
_symmetry_space_group_name_H-M   'P 1'
_cell_length_a   4.33103060
_cell_length_b   4.33103075
_cell_length_c   6.84027736
_cell_angle_alpha   89.99808920
_cell_angle_beta   89.99808922
_cell_angle_gamma   60.00193717
_symmetry_Int_Tables_number   1
_chemical_formula_structural   TmCuTe2
_chemical_formula_sum   'Tm1 Cu1 Te2'
_cell_volume   111.12079505
_cell_formula_units_Z   1
loop_
 _symmetry_equiv_pos_site_id
 _symmetry_equiv_pos_as_xyz
  1  'x, y, z'
loop_
 _atom_site_type_symbol
 _atom_site_label
 _atom_site_symmetry_multiplicity
 _atom_site_fract_x
 _atom_site_fract_y
 _atom_site_fract_z
 _atom_site_occupancy
  Tm  Tm0  1  0.00000131  0.00000131  0.98922520  1
  Cu  Cu1  1  0.66668016  0.66668016  0.36126587  1
  Te  Te2  1  0.66668199  0.66668199  0.74578943  1
  Te  Te3  1  0.33333654  0.33333654  0.26171950  1
