# generated using pymatgen
data_Ca3NdF9
_symmetry_space_group_name_H-M   'P 1'
_cell_length_a   3.93033853
_cell_length_b   3.94271201
_cell_length_c   32.36076740
_cell_angle_alpha   60.82055271
_cell_angle_beta   61.05836794
_cell_angle_gamma   59.70593463
_symmetry_Int_Tables_number   1
_chemical_formula_structural   Ca3NdF9
_chemical_formula_sum   'Ca6 Nd2 F18'
_cell_volume   358.71330734
_cell_formula_units_Z   2
loop_
 _symmetry_equiv_pos_site_id
 _symmetry_equiv_pos_as_xyz
  1  'x, y, z'
loop_
 _atom_site_type_symbol
 _atom_site_label
 _atom_site_symmetry_multiplicity
 _atom_site_fract_x
 _atom_site_fract_y
 _atom_site_fract_z
 _atom_site_occupancy
  Ca  Ca0  1  0.90408097  0.98026658  0.01578784  1
  Ca  Ca1  1  0.90315114  0.97385244  0.13895106  1
  Ca  Ca2  1  0.94723575  0.98280305  0.25677753  1
  Ca  Ca3  1  0.98523182  0.99575771  0.37685618  1
  Ca  Ca4  1  0.02336735  0.00539225  0.49690913  1
  Ca  Ca5  1  0.92514327  0.99604127  0.89192658  1
  Nd  Nd6  1  0.02915439  0.98834230  0.62629435  1
  Nd  Nd7  1  0.94123391  0.98490652  0.76882469  1
  F  F8  1  0.65105654  0.72131224  0.10884130  1
  F  F9  1  0.16207890  0.22134605  0.16934817  1
  F  F10  1  0.68969662  0.73224992  0.22600143  1
  F  F11  1  0.39408803  0.40756714  0.34761622  1
  F  F12  1  0.20938727  0.24049323  0.28561996  1
  F  F13  1  0.27322425  0.24999809  0.52996201  1
  F  F14  1  0.57897748  0.58704660  0.40529982  1
  F  F15  1  0.76179560  0.75108071  0.46770502  1
  F  F16  1  0.35776144  0.31865479  0.62756523  1
  F  F17  1  0.81318155  0.77926848  0.58031352  1
  F  F18  1  0.24551088  0.28916503  0.77951986  1
  F  F19  1  0.57040813  0.52917415  0.67272501  1
  F  F20  1  0.16763924  0.24178278  0.92322116  1
  F  F21  1  0.76105614  0.75090222  0.72058123  1
  F  F22  1  0.48352740  0.53518541  0.81353609  1
  F  F23  1  0.68021862  0.74400313  0.86089499  1
  F  F24  1  0.31603721  0.39665273  0.98599609  1
  F  F25  1  0.49375612  0.56875519  0.04442552  1
