# generated using pymatgen
data_Ti2VTe4
_symmetry_space_group_name_H-M   'P 1'
_cell_length_a   3.88121193
_cell_length_b   6.98979846
_cell_length_c   7.39650798
_cell_angle_alpha   117.49736382
_cell_angle_beta   74.78939100
_cell_angle_gamma   90.00000000
_symmetry_Int_Tables_number   1
_chemical_formula_structural   Ti2VTe4
_chemical_formula_sum   'Ti2 V1 Te4'
_cell_volume   170.02690167
_cell_formula_units_Z   1
loop_
 _symmetry_equiv_pos_site_id
 _symmetry_equiv_pos_as_xyz
  1  'x, y, z'
loop_
 _atom_site_type_symbol
 _atom_site_label
 _atom_site_symmetry_multiplicity
 _atom_site_fract_x
 _atom_site_fract_y
 _atom_site_fract_z
 _atom_site_occupancy
  Ti  Ti0  1  0.00199714  0.99694284  0.99600572  1
  Ti  Ti1  1  0.24937859  0.70636470  0.50124281  1
  V  V2  1  0.74914126  0.29482408  0.50171747  1
  Te  Te3  1  0.10978944  0.54545319  0.78042111  1
  Te  Te4  1  0.89128584  0.44852122  0.21742831  1
  Te  Te5  1  0.36254831  0.97066981  0.27490338  1
  Te  Te6  1  0.63585940  0.03722415  0.72828120  1
