# generated using pymatgen
data_Ti2Al2CrCuS8
_symmetry_space_group_name_H-M   'P 1'
_cell_length_a   7.00601199
_cell_length_b   7.17713928
_cell_length_c   6.98569980
_cell_angle_alpha   90.00000000
_cell_angle_beta   60.09586019
_cell_angle_gamma   119.41517060
_symmetry_Int_Tables_number   1
_chemical_formula_structural   Ti2Al2CrCuS8
_chemical_formula_sum   'Ti2 Al2 Cr1 Cu1 S8'
_cell_volume   250.90948786
_cell_formula_units_Z   1
loop_
 _symmetry_equiv_pos_site_id
 _symmetry_equiv_pos_as_xyz
  1  'x, y, z'
loop_
 _atom_site_type_symbol
 _atom_site_label
 _atom_site_symmetry_multiplicity
 _atom_site_fract_x
 _atom_site_fract_y
 _atom_site_fract_z
 _atom_site_occupancy
  Ti  Ti0  1  0.02057122  0.00681477  0.46530591  1
  Ti  Ti1  1  0.02057122  0.00681477  0.01412287  1
  Al  Al2  1  0.23747543  0.61358674  0.63126228  1
  Al  Al3  1  0.49245888  0.49047837  0.00377056  1
  Cr  Cr4  1  0.48188768  0.00382302  0.00905616  1
  Cu  Cu5  1  0.75396034  0.38202107  0.37301983  1
  S  S6  1  0.01228400  0.75745911  0.24385800  1
  S  S7  1  0.01255101  0.25036879  0.24372450  1
  S  S8  1  0.49549750  0.24874928  0.76861925  1
  S  S9  1  0.49549750  0.24874928  0.23588325  1
  S  S10  1  0.97777521  0.22576299  0.76111239  1
  S  S11  1  0.98294354  0.75490365  0.75852823  1
  S  S12  1  0.50826323  0.75523408  0.22973696  1
  S  S13  1  0.50826323  0.75523408  0.76199981  1
