# generated using pymatgen
data_Ti5S8
_symmetry_space_group_name_H-M   'P 1'
_cell_length_a   3.41980626
_cell_length_b   12.25628666
_cell_length_c   5.94890532
_cell_angle_alpha   75.07201028
_cell_angle_beta   90.01711956
_cell_angle_gamma   98.02102642
_symmetry_Int_Tables_number   1
_chemical_formula_structural   Ti5S8
_chemical_formula_sum   'Ti5 S8'
_cell_volume   238.40527918
_cell_formula_units_Z   1
loop_
 _symmetry_equiv_pos_site_id
 _symmetry_equiv_pos_as_xyz
  1  'x, y, z'
loop_
 _atom_site_type_symbol
 _atom_site_label
 _atom_site_symmetry_multiplicity
 _atom_site_fract_x
 _atom_site_fract_y
 _atom_site_fract_z
 _atom_site_occupancy
  Ti  Ti0  1  0.24296144  0.48516793  0.42643279  1
  Ti  Ti1  1  0.37587523  0.75095439  0.28335826  1
  Ti  Ti2  1  0.87562968  0.75080960  0.80220681  1
  Ti  Ti3  1  0.62547589  0.25100329  0.70484461  1
  Ti  Ti4  1  0.12316320  0.24614173  0.20402911  1
  S  S5  1  0.68825118  0.37635504  0.29821149  1
  S  S6  1  0.18765840  0.37545659  0.81818360  1
  S  S7  1  0.93632392  0.87343155  0.06100683  1
  S  S8  1  0.43258399  0.86622121  0.56522800  1
  S  S9  1  0.56323461  0.12657917  0.10515085  1
  S  S10  1  0.06520707  0.13065266  0.60461084  1
  S  S11  1  0.31144625  0.62305901  0.02807495  1
  S  S12  1  0.81013914  0.62016782  0.52731185  1
