# generated using pymatgen
data_Ti5(CuS5)2
_symmetry_space_group_name_H-M   'P 1'
_cell_length_a   5.89017901
_cell_length_b   6.81301185
_cell_length_c   8.33799254
_cell_angle_alpha   72.23872384
_cell_angle_beta   110.76555390
_cell_angle_gamma   90.19715347
_symmetry_Int_Tables_number   1
_chemical_formula_structural   Ti5(CuS5)2
_chemical_formula_sum   'Ti5 Cu2 S10'
_cell_volume   295.88656926
_cell_formula_units_Z   1
loop_
 _symmetry_equiv_pos_site_id
 _symmetry_equiv_pos_as_xyz
  1  'x, y, z'
loop_
 _atom_site_type_symbol
 _atom_site_label
 _atom_site_symmetry_multiplicity
 _atom_site_fract_x
 _atom_site_fract_y
 _atom_site_fract_z
 _atom_site_occupancy
  Ti  Ti0  1  0.79588561  0.40038961  0.59952540  1
  Ti  Ti1  1  0.40252512  0.20106715  0.80325571  1
  Ti  Ti2  1  0.60411439  0.79961039  0.20047460  1
  Ti  Ti3  1  0.99747488  0.99893285  0.99674429  1
  Ti  Ti4  1  0.20000000  0.60000000  0.40000000  1
  Cu  Cu5  1  0.09621267  0.30774826  0.19119915  1
  Cu  Cu6  1  0.30378733  0.89225174  0.60880085  1
  S  S7  1  0.71746819  0.14757507  0.09997913  1
  S  S8  1  0.91628023  0.74635659  0.49942834  1
  S  S9  1  0.11525957  0.34813010  0.89671121  1
  S  S10  1  0.31889175  0.94933110  0.29844423  1
  S  S11  1  0.51729270  0.54788670  0.70030430  1
  S  S12  1  0.88270730  0.65211330  0.09969570  1
  S  S13  1  0.08110825  0.25066890  0.50155577  1
  S  S14  1  0.28474043  0.85186990  0.90328879  1
  S  S15  1  0.48371977  0.45364341  0.30057166  1
  S  S16  1  0.68253181  0.05242493  0.70002087  1
