# generated using pymatgen
data_TeW2Se3
_symmetry_space_group_name_H-M   'P 1'
_cell_length_a   3.37769713
_cell_length_b   3.37777545
_cell_length_c   14.75865712
_cell_angle_alpha   90.00004345
_cell_angle_beta   90.00078821
_cell_angle_gamma   59.99922927
_symmetry_Int_Tables_number   1
_chemical_formula_structural   TeW2Se3
_chemical_formula_sum   'Te1 W2 Se3'
_cell_volume   145.82284999
_cell_formula_units_Z   1
loop_
 _symmetry_equiv_pos_site_id
 _symmetry_equiv_pos_as_xyz
  1  'x, y, z'
loop_
 _atom_site_type_symbol
 _atom_site_label
 _atom_site_symmetry_multiplicity
 _atom_site_fract_x
 _atom_site_fract_y
 _atom_site_fract_z
 _atom_site_occupancy
  Te  Te0  1  0.33338526  0.33330740  0.62838705  1
  W  W1  1  0.66673482  0.66663248  0.75699677  1
  W  W2  1  0.33325748  0.33337135  0.24864942  1
  Se  Se3  1  0.66662319  0.66668826  0.36144228  1
  Se  Se4  1  0.66656947  0.66671517  0.13595526  1
  Se  Se5  1  0.33342978  0.33328535  0.86856922  1
