# generated using pymatgen
data_Ce8U2O21
_symmetry_space_group_name_H-M   'P 1'
_cell_length_a   7.69547912
_cell_length_b   21.42502808
_cell_length_c   17.63290260
_cell_angle_alpha   11.52810989
_cell_angle_beta   56.92952159
_cell_angle_gamma   51.04168265
_symmetry_Int_Tables_number   1
_chemical_formula_structural   Ce8U2O21
_chemical_formula_sum   'Ce8 U2 O21'
_cell_volume   402.77460255
_cell_formula_units_Z   1
loop_
 _symmetry_equiv_pos_site_id
 _symmetry_equiv_pos_as_xyz
  1  'x, y, z'
loop_
 _atom_site_type_symbol
 _atom_site_label
 _atom_site_symmetry_multiplicity
 _atom_site_fract_x
 _atom_site_fract_y
 _atom_site_fract_z
 _atom_site_occupancy
  Ce  Ce0  1  0.40335640  0.21006919  0.98321802  1
  Ce  Ce1  1  0.30000884  0.40002653  -0.00004421  1
  Ce  Ce2  1  0.20001893  0.60005679  -0.00009466  1
  Ce  Ce3  1  0.89717071  0.19151212  0.01414647  1
  Ce  Ce4  1  0.10282929  0.80848788  0.98585353  1
  Ce  Ce5  1  0.79998107  0.39994321  0.00009466  1
  Ce  Ce6  1  0.69999116  0.59997347  0.00004421  1
  Ce  Ce7  1  0.59664360  0.78993081  0.01678198  1
  U  U8  1  0.00000000  0.00000000  0.00000000  1
  U  U9  1  0.50000000  0.00000000  0.00000000  1
  O  O10  1  0.10263534  0.05147252  0.24755564  1
  O  O11  1  0.00000000  0.25026931  0.24973069  1
  O  O12  1  0.59833650  0.05144300  0.24758516  1
  O  O13  1  0.50000000  0.24973069  0.25026931  1
  O  O14  1  0.28485930  0.17379757  0.72875478  1
  O  O15  1  0.40166350  0.44422864  0.25674319  1
  O  O16  1  0.18741165  0.35393149  0.74351617  1
  O  O17  1  0.28485930  0.64627444  0.25627791  1
  O  O18  1  0.89736466  0.45285584  0.24811600  1
  O  O19  1  0.81258835  0.11854538  0.78400697  1
  O  O20  1  0.50000000  0.50000000  0.50000000  1
  O  O21  1  0.10263534  0.54714416  0.75188400  1
  O  O22  1  0.18741165  0.88145462  0.21599303  1
  O  O23  1  0.81258835  0.64606851  0.25648383  1
  O  O24  1  0.71514070  0.35372556  0.74372209  1
  O  O25  1  0.71514070  0.82620243  0.27124522  1
  O  O26  1  0.59833650  0.55577136  0.74325681  1
  O  O27  1  0.50000000  0.75026931  0.74973069  1
  O  O28  1  0.40166350  0.94855700  0.75241484  1
  O  O29  1  0.00000000  0.74973069  0.75026931  1
  O  O30  1  0.89736466  0.94852748  0.75244436  1
