# generated using pymatgen
data_TlCu7Se4
_symmetry_space_group_name_H-M   'P 1'
_cell_length_a   3.93377602
_cell_length_b   7.69957287
_cell_length_c   7.67469743
_cell_angle_alpha   94.30442420
_cell_angle_beta   104.84957225
_cell_angle_gamma   75.19950137
_symmetry_Int_Tables_number   1
_chemical_formula_structural   TlCu7Se4
_chemical_formula_sum   'Tl1 Cu7 Se4'
_cell_volume   217.22435422
_cell_formula_units_Z   1
loop_
 _symmetry_equiv_pos_site_id
 _symmetry_equiv_pos_as_xyz
  1  'x, y, z'
loop_
 _atom_site_type_symbol
 _atom_site_label
 _atom_site_symmetry_multiplicity
 _atom_site_fract_x
 _atom_site_fract_y
 _atom_site_fract_z
 _atom_site_occupancy
  Tl  Tl0  1  0.99705404  0.00194978  0.99605786  1
  Cu  Cu1  1  0.97619172  0.39811022  0.35049365  1
  Cu  Cu2  1  0.02301893  0.60212026  0.64815813  1
  Cu  Cu3  1  0.63187732  0.34859183  0.61234647  1
  Cu  Cu4  1  0.37351960  0.65078125  0.39782044  1
  Cu  Cu5  1  0.31991237  0.46678025  0.10660499  1
  Cu  Cu6  1  0.78685842  0.88381979  0.45753663  1
  Cu  Cu7  1  0.21848849  0.10583991  0.54281689  1
  Se  Se8  1  0.75151300  0.67489301  0.17791902  1
  Se  Se9  1  0.24049718  0.32957071  0.81056507  1
  Se  Se10  1  0.56579400  0.18574059  0.31732860  1
  Se  Se11  1  0.43657492  0.81180241  0.68495226  1
