# generated using pymatgen
data_ThV2PbO8
_symmetry_space_group_name_H-M   'P 1'
_cell_length_a   6.88764015
_cell_length_b   7.09782461
_cell_length_c   7.38643915
_cell_angle_alpha   91.23925397
_cell_angle_beta   87.49814120
_cell_angle_gamma   104.20632819
_symmetry_Int_Tables_number   1
_chemical_formula_structural   ThV2PbO8
_chemical_formula_sum   'Th2 V4 Pb2 O16'
_cell_volume   349.70374542
_cell_formula_units_Z   2
loop_
 _symmetry_equiv_pos_site_id
 _symmetry_equiv_pos_as_xyz
  1  'x, y, z'
loop_
 _atom_site_type_symbol
 _atom_site_label
 _atom_site_symmetry_multiplicity
 _atom_site_fract_x
 _atom_site_fract_y
 _atom_site_fract_z
 _atom_site_occupancy
  Th  Th0  1  0.91467619  0.72606843  0.85589434  1
  Th  Th1  1  0.08532381  0.27393157  0.14410566  1
  V  V2  1  0.88532263  0.20351555  0.65989818  1
  V  V3  1  0.39186023  0.69853029  0.83912447  1
  V  V4  1  0.11467737  0.79648445  0.34010182  1
  V  V5  1  0.60813977  0.30146971  0.16087553  1
  Pb  Pb6  1  0.39770755  0.21258193  0.64520892  1
  Pb  Pb7  1  0.60229245  0.78741807  0.35479108  1
  O  O8  1  0.40221527  0.24272246  0.01819370  1
  O  O9  1  0.94654467  0.76712218  0.52910498  1
  O  O10  1  0.59778473  0.75727754  0.98180630  1
  O  O11  1  0.05345533  0.23287782  0.47089502  1
  O  O12  1  0.98502584  0.10954776  0.84792894  1
  O  O13  1  0.49307211  0.61997914  0.64796814  1
  O  O14  1  0.01497416  0.89045224  0.15207106  1
  O  O15  1  0.50692789  0.38002086  0.35203186  1
  O  O16  1  0.66880211  0.03420289  0.61073445  1
  O  O17  1  0.17767939  0.51800320  0.90904420  1
  O  O18  1  0.33119789  0.96579711  0.38926555  1
  O  O19  1  0.82232061  0.48199680  0.09095580  1
  O  O20  1  0.80466810  0.40954428  0.72046076  1
  O  O21  1  0.26088537  0.87427582  0.79687030  1
  O  O22  1  0.19533190  0.59045572  0.27953924  1
  O  O23  1  0.73911463  0.12572418  0.20312970  1
