# generated using pymatgen
data_SrLaMn2O5
_symmetry_space_group_name_H-M   'P 1'
_cell_length_a   5.51859102
_cell_length_b   5.67424435
_cell_length_c   9.07485256
_cell_angle_alpha   71.82853304
_cell_angle_beta   72.34624748
_cell_angle_gamma   90.14580621
_symmetry_Int_Tables_number   1
_chemical_formula_structural   SrLaMn2O5
_chemical_formula_sum   'Sr2 La2 Mn4 O10'
_cell_volume   255.79662537
_cell_formula_units_Z   2
loop_
 _symmetry_equiv_pos_site_id
 _symmetry_equiv_pos_as_xyz
  1  'x, y, z'
loop_
 _atom_site_type_symbol
 _atom_site_label
 _atom_site_symmetry_multiplicity
 _atom_site_fract_x
 _atom_site_fract_y
 _atom_site_fract_z
 _atom_site_occupancy
  Sr  Sr0  1  0.88945585  0.37660974  0.22323351  1
  Sr  Sr1  1  0.61268936  0.09984325  0.77676649  1
  La  La2  1  0.10860835  0.63213964  0.78056880  1
  La  La3  1  0.38917715  0.91270844  0.21943120  1
  Mn  Mn4  1  0.50693082  0.50334233  0.99879212  1
  Mn  Mn5  1  0.00572293  0.00213445  0.00120788  1
  Mn  Mn6  1  0.71647341  0.69187449  0.50000000  1
  Mn  Mn7  1  0.20749697  0.30489004  0.50000000  1
  O  O8  1  0.38253708  0.30073032  0.26667183  1
  O  O9  1  0.65575528  0.66986612  0.73600489  1
  O  O10  1  0.14920890  0.06740215  0.73332817  1
  O  O11  1  0.89176017  0.90587101  0.26399511  1
  O  O12  1  0.76481832  0.25951939  0.98286016  1
  O  O13  1  0.74157200  0.74649345  0.01994925  1
  O  O14  1  0.24767849  0.74237955  0.01713984  1
  O  O15  1  0.26152125  0.26644270  0.98005075  1
  O  O16  1  0.32453310  0.66594878  0.50000000  1
  O  O17  1  0.83606056  0.35180415  0.50000000  1
