# generated using pymatgen
data_V17Fe7(PbO11)4
_symmetry_space_group_name_H-M   'P 1'
_cell_length_a   5.92130967
_cell_length_b   14.95739562
_cell_length_c   10.22788043
_cell_angle_alpha   69.73119837
_cell_angle_beta   89.82166017
_cell_angle_gamma   101.52809010
_symmetry_Int_Tables_number   1
_chemical_formula_structural   V17Fe7(PbO11)4
_chemical_formula_sum   'V17 Fe7 Pb4 O44'
_cell_volume   830.03830331
_cell_formula_units_Z   1
loop_
 _symmetry_equiv_pos_site_id
 _symmetry_equiv_pos_as_xyz
  1  'x, y, z'
loop_
 _atom_site_type_symbol
 _atom_site_label
 _atom_site_symmetry_multiplicity
 _atom_site_fract_x
 _atom_site_fract_y
 _atom_site_fract_z
 _atom_site_occupancy
  V  V0  1  0.00466517  0.50155662  0.00251256  1
  V  V1  1  0.50922382  0.50287980  0.49859055  1
  V  V2  1  0.49709485  0.49976150  0.00030860  1
  V  V3  1  0.99694561  0.50003151  0.50157742  1
  V  V4  1  0.25577646  0.49989528  0.24242267  1
  V  V5  1  0.75299006  0.50258955  0.74627470  1
  V  V6  1  0.74865731  0.00084766  0.24603766  1
  V  V7  1  0.24201011  -0.00120797  0.74929351  1
  V  V8  1  0.25571379  0.00065288  0.24553152  1
  V  V9  1  0.75716764  0.00146114  0.75005185  1
  V  V10  1  0.49910748  0.99774948  0.00702874  1
  V  V11  1  0.00472346  0.00267571  0.50218696  1
  V  V12  1  0.67678964  0.35174902  0.32306214  1
  V  V13  1  0.92306163  0.84406765  0.07744533  1
  V  V14  1  0.07418278  0.15089680  0.92580286  1
  V  V15  1  0.57645603  0.14822081  0.42308379  1
  V  V16  1  0.32731783  0.64856758  0.67738655  1
  Fe  Fe17  1  0.11822004  0.23428206  0.21607571  1
  Fe  Fe18  1  0.61539280  0.22983393  0.71836491  1
  Fe  Fe19  1  0.86695352  0.73130933  0.79927014  1
  Fe  Fe20  1  0.36687248  0.73030872  0.30202517  1
  Fe  Fe21  1  0.18049727  0.35609951  0.82337965  1
  Fe  Fe22  1  0.42854473  0.85337630  0.57389097  1
  Fe  Fe23  1  0.82448058  0.64582600  0.17649940  1
  Pb  Pb24  1  0.63994521  0.27666527  0.02877963  1
  Pb  Pb25  1  0.13960462  0.27831467  0.52731833  1
  Pb  Pb26  1  0.39206657  0.77336564  0.94204211  1
  Pb  Pb27  1  0.89087845  0.77459260  0.44703836  1
  O  O28  1  0.48276855  0.41914216  0.87419938  1
  O  O29  1  0.98020943  0.42280162  0.37403527  1
  O  O30  1  0.94867819  0.42044802  0.88069037  1
  O  O31  1  0.44550695  0.42066149  0.37815641  1
  O  O32  1  0.70896917  0.41878237  0.11322455  1
  O  O33  1  0.21741613  0.42015688  0.61402442  1
  O  O34  1  0.69612697  0.91748724  0.95592681  1
  O  O35  1  0.19741852  0.91987147  0.44782022  1
  O  O36  1  0.20651977  0.91748094  0.96021289  1
  O  O37  1  0.73021868  0.92183991  0.44844134  1
  O  O38  1  0.46300933  0.91925632  0.71879764  1
  O  O39  1  0.96055453  0.91905409  0.21282127  1
  O  O40  1  0.04210994  0.08017932  0.29185363  1
  O  O41  1  0.54280875  0.08005301  0.79428334  1
  O  O42  1  0.79883724  0.58278590  0.87420831  1
  O  O43  1  0.29817882  0.58272118  0.37085120  1
  O  O44  1  0.60184359  0.75118796  0.70013697  1
  O  O45  1  0.10778654  0.75414719  0.20033724  1
  O  O46  1  0.15258668  0.75088896  0.69860528  1
  O  O47  1  0.65557222  0.75999048  0.19595239  1
  O  O48  1  0.87591512  0.75501405  0.96871814  1
  O  O49  1  0.37524570  0.74763780  0.47668580  1
  O  O50  1  0.40012253  0.25001063  0.29912945  1
  O  O51  1  0.89935307  0.24887714  0.80135204  1
  O  O52  1  0.85179671  0.24922303  0.30094477  1
  O  O53  1  0.34691297  0.24663334  0.80086926  1
  O  O54  1  0.12618923  0.25212097  0.02489838  1
  O  O55  1  0.62479403  0.24866115  0.52490563  1
  O  O56  1  0.28932381  0.07670755  0.05407742  1
  O  O57  1  0.79295992  0.07243607  0.54847941  1
  O  O58  1  0.78757891  0.07588424  0.05463229  1
  O  O59  1  0.27365616  0.07466558  0.54067781  1
  O  O60  1  0.53891476  0.07402599  0.29031552  1
  O  O61  1  0.02197463  0.07433114  0.79019927  1
  O  O62  1  0.51451004  0.57702489  0.12857556  1
  O  O63  1  0.02174007  0.57519345  0.63267979  1
  O  O64  1  0.04669678  0.57404812  0.11699811  1
  O  O65  1  0.54276086  0.57473634  0.62831674  1
  O  O66  1  0.28480978  0.57434851  0.88149504  1
  O  O67  1  0.77514179  0.57698222  0.39002814  1
  O  O68  1  0.19852817  0.41905418  0.12412884  1
  O  O69  1  0.69812725  0.42192133  0.62767018  1
  O  O70  1  0.94690620  0.92120915  0.70021420  1
  O  O71  1  0.46178162  0.92034758  0.21794751  1
