# generated using pymatgen
data_SrLaScO4
_symmetry_space_group_name_H-M   'P 1'
_cell_length_a   5.74932103
_cell_length_b   5.89051447
_cell_length_c   6.87002075
_cell_angle_alpha   90.00000000
_cell_angle_beta   65.26415142
_cell_angle_gamma   90.00000000
_symmetry_Int_Tables_number   1
_chemical_formula_structural   SrLaScO4
_chemical_formula_sum   'Sr2 La2 Sc2 O8'
_cell_volume   211.31561606
_cell_formula_units_Z   2
loop_
 _symmetry_equiv_pos_site_id
 _symmetry_equiv_pos_as_xyz
  1  'x, y, z'
loop_
 _atom_site_type_symbol
 _atom_site_label
 _atom_site_symmetry_multiplicity
 _atom_site_fract_x
 _atom_site_fract_y
 _atom_site_fract_z
 _atom_site_occupancy
  Sr  Sr0  1  0.14503441  0.51322340  0.70993118  1
  Sr  Sr1  1  0.35496559  0.01322340  0.29006882  1
  La  La2  1  0.85850911  0.48188057  0.28298178  1
  La  La3  1  0.64149089  0.98188057  0.71701822  1
  Sc  Sc4  1  0.49552883  0.49589820  0.00894234  1
  Sc  Sc5  1  0.00447117  0.99589820  0.99105766  1
  O  O6  1  0.22517736  0.74341884  0.04116086  1
  O  O7  1  0.27482264  0.24341884  0.95883914  1
  O  O8  1  0.76633822  0.24341884  0.95883914  1
  O  O9  1  0.73366178  0.74341884  0.04116086  1
  O  O10  1  0.16705596  0.93846224  0.66588808  1
  O  O11  1  0.82048158  0.08369790  0.35903684  1
  O  O12  1  0.33294404  0.43846224  0.33411192  1
  O  O13  1  0.67951842  0.58369790  0.64096316  1
