# generated using pymatgen
data_TbNd3Fe34
_symmetry_space_group_name_H-M   'P 1'
_cell_length_a   6.46395388
_cell_length_b   6.46395388
_cell_length_c   12.91718425
_cell_angle_alpha   83.08014923
_cell_angle_beta   83.08014923
_cell_angle_gamma   83.08936803
_symmetry_Int_Tables_number   1
_chemical_formula_structural   TbNd3Fe34
_chemical_formula_sum   'Tb1 Nd3 Fe34'
_cell_volume   528.80615614
_cell_formula_units_Z   1
loop_
 _symmetry_equiv_pos_site_id
 _symmetry_equiv_pos_as_xyz
  1  'x, y, z'
loop_
 _atom_site_type_symbol
 _atom_site_label
 _atom_site_symmetry_multiplicity
 _atom_site_fract_x
 _atom_site_fract_y
 _atom_site_fract_z
 _atom_site_occupancy
  Tb  Tb0  1  0.65879650  0.65879650  0.32930557  1
  Nd  Nd1  1  0.65818196  0.65818196  0.82921316  1
  Nd  Nd2  1  0.34257213  0.34257213  0.17139149  1
  Nd  Nd3  1  0.34175350  0.34175350  0.67077825  1
  Fe  Fe4  1  0.84559859  0.34320589  0.17190791  1
  Fe  Fe5  1  0.84629730  0.34218740  0.67094020  1
  Fe  Fe6  1  0.34346872  0.34346872  0.42264944  1
  Fe  Fe7  1  0.34210089  0.34210089  0.92325417  1
  Fe  Fe8  1  0.34320589  0.84559859  0.17190791  1
  Fe  Fe9  1  0.34218740  0.84629730  0.67094020  1
  Fe  Fe10  1  0.15358777  0.65777243  0.32870476  1
  Fe  Fe11  1  0.15360681  0.65777933  0.82898415  1
  Fe  Fe12  1  0.65784351  0.65784351  0.07787196  1
  Fe  Fe13  1  0.65751707  0.65751707  0.57577857  1
  Fe  Fe14  1  0.65777243  0.15358777  0.32870476  1
  Fe  Fe15  1  0.65777933  0.15360681  0.82898415  1
  Fe  Fe16  1  0.99934238  0.99934238  0.25028401  1
  Fe  Fe17  1  0.99992270  0.99992270  0.74994019  1
  Fe  Fe18  1  0.99949236  0.50044885  0.49931744  1
  Fe  Fe19  1  0.99983814  0.49995918  0.00026259  1
  Fe  Fe20  1  0.49995918  0.99983814  0.00026259  1
  Fe  Fe21  1  0.50044885  0.99949236  0.49931744  1
  Fe  Fe22  1  0.90223997  0.90223997  0.45091947  1
  Fe  Fe23  1  0.90288173  0.90288173  0.95164878  1
  Fe  Fe24  1  0.09687217  0.09687217  0.04872506  1
  Fe  Fe25  1  0.09698089  0.09698089  0.54816310  1
  Fe  Fe26  1  0.28977739  0.71024681  0.00026320  1
  Fe  Fe27  1  0.29163278  0.70924439  0.49916342  1
  Fe  Fe28  1  0.70954408  0.99876906  0.14600049  1
  Fe  Fe29  1  0.71013699  0.00018798  0.64476754  1
  Fe  Fe30  1  0.99896012  0.29144305  0.35459787  1
  Fe  Fe31  1  -0.00003260  0.28984175  0.85512882  1
  Fe  Fe32  1  0.29144305  0.99896012  0.35459787  1
  Fe  Fe33  1  0.28984175  -0.00003260  0.85512882  1
  Fe  Fe34  1  0.99876906  0.70954408  0.14600049  1
  Fe  Fe35  1  0.00018798  0.71013699  0.64476754  1
  Fe  Fe36  1  0.71024681  0.28977739  0.00026320  1
  Fe  Fe37  1  0.70924439  0.29163278  0.49916342  1
