# generated using pymatgen
data_Li19Mn5N9
_symmetry_space_group_name_H-M   'P 1'
_cell_length_a   6.40113415
_cell_length_b   19.21267328
_cell_length_c   7.44415627
_cell_angle_alpha   30.54942133
_cell_angle_beta   115.46398052
_cell_angle_gamma   119.98404146
_symmetry_Int_Tables_number   1
_chemical_formula_structural   Li19Mn5N9
_chemical_formula_sum   'Li19 Mn5 N9'
_cell_volume   403.05530252
_cell_formula_units_Z   1
loop_
 _symmetry_equiv_pos_site_id
 _symmetry_equiv_pos_as_xyz
  1  'x, y, z'
loop_
 _atom_site_type_symbol
 _atom_site_label
 _atom_site_symmetry_multiplicity
 _atom_site_fract_x
 _atom_site_fract_y
 _atom_site_fract_z
 _atom_site_occupancy
  Li  Li0  1  -0.00004640  0.92170709  0.49961397  1
  Li  Li1  1  0.00473428  0.87769593  0.00059758  1
  Li  Li2  1  0.26570559  0.82923513  0.51658450  1
  Li  Li3  1  0.98753508  0.57961560  0.51185699  1
  Li  Li4  1  0.66519288  0.94212387  0.50528110  1
  Li  Li5  1  0.33170569  0.72156685  0.50890913  1
  Li  Li6  1  0.28594437  0.50000000  0.50000000  1
  Li  Li7  1  0.73910071  0.74288056  0.51178839  1
  Li  Li8  1  0.99867063  0.25711944  0.48821161  1
  Li  Li9  1  0.67200248  0.60850703  0.50298618  1
  Li  Li10  1  0.34349421  0.39149297  0.49701382  1
  Li  Li11  1  0.62510858  0.66493676  0.99786801  1
  Li  Li12  1  0.26141470  0.17076487  0.48341550  1
  Li  Li13  1  0.73683028  0.42038440  0.48814301  1
  Li  Li14  1  0.65809602  0.27843315  0.49109087  1
  Li  Li15  1  0.33353818  0.05787613  0.49471890  1
  Li  Li16  1  0.63243129  0.33506324  0.00213199  1
  Li  Li17  1  0.37104790  0.12230407  0.99940242  1
  Li  Li18  1  0.73521938  0.07829291  0.50038603  1
  Mn  Mn19  1  0.37216317  0.79199449  0.00681421  1
  Mn  Mn20  1  0.99624574  0.54039002  0.00560065  1
  Mn  Mn21  1  0.36947504  0.45960998  0.99439935  1
  Mn  Mn22  1  0.98936449  0.20800551  0.99318579  1
  Mn  Mn23  1  0.63084053  1.00000000  0.00000000  1
  N  N24  1  0.00035311  0.70457506  0.52719934  1
  N  N25  1  0.36420881  0.94619205  0.52722299  1
  N  N26  1  0.63766429  0.83797077  0.48648356  1
  N  N27  1  0.99751231  0.37679737  0.50039129  1
  N  N28  1  0.36672892  0.62320263  0.49960871  1
  N  N29  1  0.63261406  0.50000000  0.50000000  1
  N  N30  1  0.99840867  0.05380795  0.47277701  1
  N  N31  1  0.35942761  0.29542494  0.47280066  1
  N  N32  1  0.63726742  0.16202923  0.51351644  1
