# generated using pymatgen
data_Ta2GaNi3
_symmetry_space_group_name_H-M   'P 1'
_cell_length_a   4.90842829
_cell_length_b   4.90909090
_cell_length_c   7.77330161
_cell_angle_alpha   90.00000000
_cell_angle_beta   90.00000000
_cell_angle_gamma   59.99553429
_symmetry_Int_Tables_number   1
_chemical_formula_structural   Ta2GaNi3
_chemical_formula_sum   'Ta4 Ga2 Ni6'
_cell_volume   162.20346592
_cell_formula_units_Z   2
loop_
 _symmetry_equiv_pos_site_id
 _symmetry_equiv_pos_as_xyz
  1  'x, y, z'
loop_
 _atom_site_type_symbol
 _atom_site_label
 _atom_site_symmetry_multiplicity
 _atom_site_fract_x
 _atom_site_fract_y
 _atom_site_fract_z
 _atom_site_occupancy
  Ta  Ta0  1  0.33333449  0.33333276  0.55974674  1
  Ta  Ta1  1  0.66666551  0.66666724  0.44025326  1
  Ta  Ta2  1  0.66666551  0.66666724  0.05974674  1
  Ta  Ta3  1  0.33333449  0.33333276  0.94025326  1
  Ga  Ga4  1  0.00000000  0.00000000  0.50000000  1
  Ga  Ga5  1  0.00000000  0.00000000  -0.00000000  1
  Ni  Ni6  1  0.82810789  0.34375568  0.75000000  1
  Ni  Ni7  1  0.34373653  0.82813173  0.75000000  1
  Ni  Ni8  1  0.82810789  0.82813643  0.75000000  1
  Ni  Ni9  1  0.17189211  0.65624432  0.25000000  1
  Ni  Ni10  1  0.65626347  0.17186827  0.25000000  1
  Ni  Ni11  1  0.17189211  0.17186357  0.25000000  1
