# generated using pymatgen
data_TaMn2FeO6
_symmetry_space_group_name_H-M   'P 1'
_cell_length_a   5.33228043
_cell_length_b   5.33228043
_cell_length_c   5.60916232
_cell_angle_alpha   89.99999607
_cell_angle_beta   118.38011033
_cell_angle_gamma   60.00000720
_symmetry_Int_Tables_number   1
_chemical_formula_structural   TaMn2FeO6
_chemical_formula_sum   'Ta1 Mn2 Fe1 O6'
_cell_volume   115.45679277
_cell_formula_units_Z   1
loop_
 _symmetry_equiv_pos_site_id
 _symmetry_equiv_pos_as_xyz
  1  'x, y, z'
loop_
 _atom_site_type_symbol
 _atom_site_label
 _atom_site_symmetry_multiplicity
 _atom_site_fract_x
 _atom_site_fract_y
 _atom_site_fract_z
 _atom_site_occupancy
  Ta  Ta0  1  0.43755522  0.78122239  0.65633283  1
  Mn  Mn1  1  0.99065270  0.50467365  0.48597905  1
  Mn  Mn2  1  0.00784166  0.99607917  0.01176249  1
  Fe  Fe3  1  0.43883022  0.28058489  0.15824533  1
  O  O4  1  0.52303339  0.05188246  0.86476550  1
  O  O5  1  0.91664796  0.42508415  0.86476550  1
  O  O6  1  0.28984965  0.65826789  0.86476550  1
  O  O7  1  0.51903512  0.92068975  0.36899460  1
  O  O8  1  0.28968435  0.56027513  0.36899460  1
  O  O9  1  0.92926974  0.15004052  0.36899460  1
