# generated using pymatgen
data_SrLaGaCuO5
_symmetry_space_group_name_H-M   'P 1'
_cell_length_a   5.35338308
_cell_length_b   5.60215421
_cell_length_c   9.19227894
_cell_angle_alpha   72.27799762
_cell_angle_beta   73.09100226
_cell_angle_gamma   90.06331189
_symmetry_Int_Tables_number   1
_chemical_formula_structural   SrLaGaCuO5
_chemical_formula_sum   'Sr2 La2 Ga2 Cu2 O10'
_cell_volume   250.02736475
_cell_formula_units_Z   2
loop_
 _symmetry_equiv_pos_site_id
 _symmetry_equiv_pos_as_xyz
  1  'x, y, z'
loop_
 _atom_site_type_symbol
 _atom_site_label
 _atom_site_symmetry_multiplicity
 _atom_site_fract_x
 _atom_site_fract_y
 _atom_site_fract_z
 _atom_site_occupancy
  Sr  Sr0  1  0.10852890  0.59849252  0.77862842  1
  Sr  Sr1  1  0.38715732  0.87712094  0.22137158  1
  La  La2  1  0.89495774  0.42576948  0.20496752  1
  La  La3  1  0.59992526  0.13073700  0.79503248  1
  Ga  Ga4  1  0.70452609  0.81564621  0.50000000  1
  Ga  Ga5  1  0.21059171  0.18212241  0.50000000  1
  Cu  Cu6  1  0.49947059  0.50270750  0.00093211  1
  Cu  Cu7  1  0.00040269  0.00363961  0.99906789  1
  O  O8  1  0.84844585  0.13089128  0.50000000  1
  O  O9  1  0.35341733  0.87098823  0.50000000  1
  O  O10  1  0.67641748  0.57949476  0.69483937  1
  O  O11  1  0.37851421  0.39954847  0.29868631  1
  O  O12  1  0.87125685  0.77433414  0.30516063  1
  O  O13  1  0.17720052  0.19823478  0.70131369  1
  O  O14  1  0.74360359  0.24643721  0.00870350  1
  O  O15  1  0.75381235  0.75952133  0.98965207  1
  O  O16  1  0.25230709  0.75514071  0.99129650  1
  O  O17  1  0.24346442  0.24917339  0.01034793  1
