# generated using pymatgen
data_Bi3O7
_symmetry_space_group_name_H-M   'P 1'
_cell_length_a   6.90934815
_cell_length_b   12.08179178
_cell_length_c   7.93915337
_cell_angle_alpha   90.00000000
_cell_angle_beta   90.00000000
_cell_angle_gamma   90.00000000
_symmetry_Int_Tables_number   1
_chemical_formula_structural   Bi3O7
_chemical_formula_sum   'Bi12 O28'
_cell_volume   662.73913274
_cell_formula_units_Z   4
loop_
 _symmetry_equiv_pos_site_id
 _symmetry_equiv_pos_as_xyz
  1  'x, y, z'
loop_
 _atom_site_type_symbol
 _atom_site_label
 _atom_site_symmetry_multiplicity
 _atom_site_fract_x
 _atom_site_fract_y
 _atom_site_fract_z
 _atom_site_occupancy
  Bi  Bi0  1  0.25814530  0.03714621  0.25531440  1
  Bi  Bi1  1  0.75814530  0.96285379  0.24468560  1
  Bi  Bi2  1  0.74185470  0.53714621  0.74468560  1
  Bi  Bi3  1  0.24185470  0.46285379  0.75531440  1
  Bi  Bi4  1  0.25688925  0.75000000  0.23448550  1
  Bi  Bi5  1  0.75688925  0.25000000  0.26551450  1
  Bi  Bi6  1  0.74311075  0.25000000  0.76551450  1
  Bi  Bi7  1  0.24311075  0.75000000  0.73448550  1
  Bi  Bi8  1  0.75814530  0.53714621  0.24468560  1
  Bi  Bi9  1  0.25814530  0.46285379  0.25531440  1
  Bi  Bi10  1  0.24185470  0.03714621  0.75531440  1
  Bi  Bi11  1  0.74185470  0.96285379  0.74468560  1
  O  O12  1  0.93823043  0.10834982  0.71546217  1
  O  O13  1  0.43823043  0.89165018  0.78453783  1
  O  O14  1  0.06176957  0.60834982  0.28453783  1
  O  O15  1  0.56176957  0.39165018  0.21546217  1
  O  O16  1  0.06176957  0.89165018  0.28453783  1
  O  O17  1  0.56176957  0.10834982  0.21546217  1
  O  O18  1  0.93823043  0.39165018  0.71546217  1
  O  O19  1  0.43823043  0.60834982  0.78453783  1
  O  O20  1  0.55066339  0.10704969  0.79884052  1
  O  O21  1  0.05066339  0.89295031  0.70115948  1
  O  O22  1  0.44933661  0.60704969  0.20115948  1
  O  O23  1  0.94933661  0.39295031  0.29884052  1
  O  O24  1  0.44933661  0.89295031  0.20115948  1
  O  O25  1  0.94933661  0.10704969  0.29884052  1
  O  O26  1  0.55066339  0.39295031  0.79884052  1
  O  O27  1  0.05066339  0.60704969  0.70115948  1
  O  O28  1  0.34778033  0.75000000  0.48743015  1
  O  O29  1  0.84778033  0.25000000  0.01256985  1
  O  O30  1  0.65221967  0.25000000  0.51256985  1
  O  O31  1  0.15221967  0.75000000  0.98743015  1
  O  O32  1  0.18343183  0.41662033  0.00699055  1
  O  O33  1  0.68343183  0.58337967  0.49300945  1
  O  O34  1  0.81656817  0.91662033  0.99300945  1
  O  O35  1  0.31656817  0.08337967  0.50699055  1
  O  O36  1  0.81656817  0.58337967  0.99300945  1
  O  O37  1  0.31656817  0.41662033  0.50699055  1
  O  O38  1  0.18343183  0.08337967  0.00699055  1
  O  O39  1  0.68343183  0.91662033  0.49300945  1
