# generated using pymatgen
data_Sr4Ti3Nb2O15
_symmetry_space_group_name_H-M   'P 1'
_cell_length_a   5.61836535
_cell_length_b   5.61836535
_cell_length_c   11.95525749
_cell_angle_alpha   76.40987034
_cell_angle_beta   90.00000000
_cell_angle_gamma   120.00000000
_symmetry_Int_Tables_number   1
_chemical_formula_structural   Sr4Ti3Nb2O15
_chemical_formula_sum   'Sr4 Ti3 Nb2 O15'
_cell_volume   314.56087249
_cell_formula_units_Z   1
loop_
 _symmetry_equiv_pos_site_id
 _symmetry_equiv_pos_as_xyz
  1  'x, y, z'
loop_
 _atom_site_type_symbol
 _atom_site_label
 _atom_site_symmetry_multiplicity
 _atom_site_fract_x
 _atom_site_fract_y
 _atom_site_fract_z
 _atom_site_occupancy
  Sr  Sr0  1  0.69904839  0.39809677  0.90285484  1
  Sr  Sr1  1  0.29869217  0.59738433  0.10392350  1
  Sr  Sr2  1  0.90130783  0.80261567  0.29607650  1
  Sr  Sr3  1  0.50095161  0.00190323  0.49714516  1
  Ti  Ti4  1  0.99965448  0.99930895  0.00103657  1
  Ti  Ti5  1  0.60000000  0.20000000  0.20000000  1
  Ti  Ti6  1  0.20034552  0.40069105  0.39896343  1
  Nb  Nb7  1  0.80034945  0.60069889  0.59895166  1
  Nb  Nb8  1  0.39965055  0.79930111  0.80104834  1
  O  O9  1  0.69134101  0.89159039  0.90816022  1
  O  O10  1  0.50865899  0.50840961  0.49183978  1
  O  O11  1  0.10000000  0.70000000  0.70000000  1
  O  O12  1  0.30017732  0.09975103  0.10067526  1
  O  O13  1  0.89982268  0.30024897  0.29932474  1
  O  O14  1  0.60000000  0.20000000  0.70000000  1
  O  O15  1  0.40042629  0.80085258  0.29932474  1
  O  O16  1  0.99975061  0.99950123  0.49183978  1
  O  O17  1  0.20024939  0.40049877  0.90816022  1
  O  O18  1  0.79957371  0.59914742  0.10067526  1
  O  O19  1  0.60000000  0.70000000  0.70000000  1
  O  O20  1  0.40042629  0.30024897  0.29932474  1
  O  O21  1  0.99975061  0.50840961  0.49183978  1
  O  O22  1  0.20024939  0.89159039  0.90816022  1
  O  O23  1  0.79957371  0.09975103  0.10067526  1
