# generated using pymatgen
data_Sr2LaGaO5
_symmetry_space_group_name_H-M   'P 1'
_cell_length_a   6.87879526
_cell_length_b   6.87879526
_cell_length_c   7.52525027
_cell_angle_alpha   62.59429891
_cell_angle_beta   62.59429891
_cell_angle_gamma   89.59375557
_symmetry_Int_Tables_number   1
_chemical_formula_structural   Sr2LaGaO5
_chemical_formula_sum   'Sr4 La2 Ga2 O10'
_cell_volume   270.99975682
_cell_formula_units_Z   2
loop_
 _symmetry_equiv_pos_site_id
 _symmetry_equiv_pos_as_xyz
  1  'x, y, z'
loop_
 _atom_site_type_symbol
 _atom_site_label
 _atom_site_symmetry_multiplicity
 _atom_site_fract_x
 _atom_site_fract_y
 _atom_site_fract_z
 _atom_site_occupancy
  Sr  Sr0  1  0.25000000  0.25000000  0.50000000  1
  Sr  Sr1  1  0.75000000  0.75000000  0.50000000  1
  Sr  Sr2  1  0.82415412  0.67584588  -0.00000000  1
  Sr  Sr3  1  0.17584588  0.32415412  0.00000000  1
  La  La4  1  0.68081930  0.18081930  0.00000000  1
  La  La5  1  0.31918070  0.81918070  1.00000000  1
  Ga  Ga6  1  0.75174690  0.25174690  0.49650621  1
  Ga  Ga7  1  0.24825310  0.74825310  0.50349379  1
  O  O8  1  0.21385976  0.99840632  0.28773393  1
  O  O9  1  0.49840632  0.71385976  0.28773393  1
  O  O10  1  0.00287724  0.50287724  0.29034471  1
  O  O11  1  0.70677805  0.20677805  0.29034471  1
  O  O12  1  0.78614024  0.00159368  0.71226607  1
  O  O13  1  0.50159368  0.28614024  0.71226607  1
  O  O14  1  0.99712276  0.49712276  0.70965529  1
  O  O15  1  0.29322195  0.79322195  0.70965529  1
  O  O16  1  0.50000000  0.50000000  0.00000000  1
  O  O17  1  -0.00000000  0.00000000  -0.00000000  1
