# generated using pymatgen
data_Bi14SO24
_symmetry_space_group_name_H-M   'P 1'
_cell_length_a   8.85749606
_cell_length_b   8.82577599
_cell_length_c   10.60323214
_cell_angle_alpha   114.52354353
_cell_angle_beta   114.61780136
_cell_angle_gamma   90.14340482
_symmetry_Int_Tables_number   1
_chemical_formula_structural   Bi14SO24
_chemical_formula_sum   'Bi14 S1 O24'
_cell_volume   669.98636683
_cell_formula_units_Z   1
loop_
 _symmetry_equiv_pos_site_id
 _symmetry_equiv_pos_as_xyz
  1  'x, y, z'
loop_
 _atom_site_type_symbol
 _atom_site_label
 _atom_site_symmetry_multiplicity
 _atom_site_fract_x
 _atom_site_fract_y
 _atom_site_fract_z
 _atom_site_occupancy
  Bi  Bi0  1  0.13088309  0.94283427  0.66658947  1
  Bi  Bi1  1  0.06213460  0.47040470  0.33996478  1
  Bi  Bi2  1  0.34249904  0.34042504  0.68203054  1
  Bi  Bi3  1  0.27895569  0.87531136  0.33830039  1
  Bi  Bi4  1  0.21703435  0.44264950  -0.00089443  1
  Bi  Bi5  1  0.53832569  0.72603163  0.66757903  1
  Bi  Bi6  1  0.46167431  0.27396837  0.33242097  1
  Bi  Bi7  1  0.43907624  0.79025335  0.99874444  1
  Bi  Bi8  1  0.72104431  0.12468864  0.66169961  1
  Bi  Bi9  1  0.65750096  0.65957496  0.31796946  1
  Bi  Bi10  1  0.56092376  0.20974665  0.00125556  1
  Bi  Bi11  1  0.93786540  0.52959530  0.66003522  1
  Bi  Bi12  1  0.86911691  0.05716573  0.33341053  1
  Bi  Bi13  1  0.78296565  0.55735050  0.00089443  1
  S  S14  1  0.00000000  0.00000000  0.00000000  1
  O  O15  1  0.00168798  0.33209281  0.50212390  1
  O  O16  1  0.23666047  0.54304568  0.84215487  1
  O  O17  1  0.29990947  0.23930472  0.84189552  1
  O  O18  1  0.17532486  0.00621915  0.50574008  1
  O  O19  1  0.08213363  0.06546800  0.18436140  1
  O  O20  1  0.11176925  0.62177131  0.23291581  1
  O  O21  1  0.38589355  0.88455243  0.76852071  1
  O  O22  1  0.33335785  0.50591062  0.50680790  1
  O  O23  1  0.18294216  0.98559776  0.00805711  1
  O  O24  1  0.54045709  0.60381015  0.84081006  1
  O  O25  1  0.60241301  0.30028801  0.84315961  1
  O  O26  1  0.50194351  0.82708360  0.49534581  1
  O  O27  1  0.49805649  0.17291640  0.50465419  1
  O  O28  1  0.39758699  0.69971199  0.15684039  1
  O  O29  1  0.45954291  0.39618985  0.15918994  1
  O  O30  1  0.66664215  0.49408938  0.49319210  1
  O  O31  1  0.61410645  0.11544757  0.23147929  1
  O  O32  1  0.88823075  0.37822869  0.76708419  1
  O  O33  1  0.91786637  0.93453200  0.81563860  1
  O  O34  1  0.82467514  0.99378085  0.49425992  1
  O  O35  1  0.70009053  0.76069528  0.15810448  1
  O  O36  1  0.76333953  0.45695432  0.15784513  1
  O  O37  1  -0.00168798  0.66790719  0.49787610  1
  O  O38  1  0.81705784  0.01440224  0.99194289  1
