# generated using pymatgen
data_Sr36Al9Sn23
_symmetry_space_group_name_H-M   'P 1'
_cell_length_a   12.53231728
_cell_length_b   13.46432159
_cell_length_c   13.46432159
_cell_angle_alpha   90.01270537
_cell_angle_beta   90.00000000
_cell_angle_gamma   90.00000000
_symmetry_Int_Tables_number   1
_chemical_formula_structural   Sr36Al9Sn23
_chemical_formula_sum   'Sr36 Al9 Sn23'
_cell_volume   2271.95812719
_cell_formula_units_Z   1
loop_
 _symmetry_equiv_pos_site_id
 _symmetry_equiv_pos_as_xyz
  1  'x, y, z'
loop_
 _atom_site_type_symbol
 _atom_site_label
 _atom_site_symmetry_multiplicity
 _atom_site_fract_x
 _atom_site_fract_y
 _atom_site_fract_z
 _atom_site_occupancy
  Sr  Sr0  1  0.00000000  0.60720681  0.70208484  1
  Sr  Sr1  1  0.00000000  0.39354372  0.29758304  1
  Sr  Sr2  1  0.00000000  0.89428606  0.20301489  1
  Sr  Sr3  1  0.00000000  0.10503777  0.79733756  1
  Sr  Sr4  1  0.00000000  0.70266244  0.39496223  1
  Sr  Sr5  1  0.00000000  0.29698511  0.60571394  1
  Sr  Sr6  1  0.00000000  0.20241696  0.10645628  1
  Sr  Sr7  1  0.00000000  0.79791516  0.89279319  1
  Sr  Sr8  1  0.74834859  0.72403181  0.57315039  1
  Sr  Sr9  1  0.74819672  0.27598497  0.42695134  1
  Sr  Sr10  1  0.74753247  0.77665461  0.07369670  1
  Sr  Sr11  1  0.74740377  0.22339041  0.92613636  1
  Sr  Sr12  1  0.74740377  0.57386364  0.27660959  1
  Sr  Sr13  1  0.74753247  0.42630330  0.72334539  1
  Sr  Sr14  1  0.74819672  0.07304866  0.22401503  1
  Sr  Sr15  1  0.74834859  0.92684961  0.77596819  1
  Sr  Sr16  1  0.25180328  0.27598497  0.42695134  1
  Sr  Sr17  1  0.25165141  0.72403181  0.57315039  1
  Sr  Sr18  1  0.25259623  0.22339041  0.92613636  1
  Sr  Sr19  1  0.25246753  0.77665461  0.07369670  1
  Sr  Sr20  1  0.25246753  0.42630330  0.72334539  1
  Sr  Sr21  1  0.25259623  0.57386364  0.27660959  1
  Sr  Sr22  1  0.25165141  0.92684961  0.77596819  1
  Sr  Sr23  1  0.25180328  0.07304866  0.22401503  1
  Sr  Sr24  1  0.64896258  0.99965433  0.50034567  1
  Sr  Sr25  1  0.64816510  0.50011079  0.99988921  1
  Sr  Sr26  1  0.35103742  0.99965433  0.50034567  1
  Sr  Sr27  1  0.35183490  0.50011079  0.99988921  1
  Sr  Sr28  1  0.50000000  0.59213054  0.71330737  1
  Sr  Sr29  1  0.50000000  0.40829015  0.28652365  1
  Sr  Sr30  1  0.50000000  0.90814133  0.21374508  1
  Sr  Sr31  1  0.50000000  0.09162412  0.78626015  1
  Sr  Sr32  1  0.50000000  0.71373985  0.40837588  1
  Sr  Sr33  1  0.50000000  0.28625492  0.59185867  1
  Sr  Sr34  1  0.50000000  0.21347635  0.09170985  1
  Sr  Sr35  1  0.50000000  0.78669263  0.90786946  1
  Al  Al36  1  0.89549007  0.06559640  0.57152811  1
  Al  Al37  1  0.89549007  0.92847189  0.43440360  1
  Al  Al38  1  0.89476229  0.43144199  0.06855801  1
  Al  Al39  1  0.89490282  0.56863412  0.93136588  1
  Al  Al40  1  0.10450993  0.92847189  0.43440360  1
  Al  Al41  1  0.10450993  0.06559640  0.57152811  1
  Al  Al42  1  0.10509718  0.56863412  0.93136588  1
  Al  Al43  1  0.10523771  0.43144199  0.06855801  1
  Al  Al44  1  0.00000000  0.87713873  0.62286127  1
  Sn  Sn45  1  0.74817105  0.17323324  0.67246058  1
  Sn  Sn46  1  0.74817105  0.82753942  0.32676676  1
  Sn  Sn47  1  0.74781277  0.32695745  0.17304255  1
  Sn  Sn48  1  0.74812619  0.67316093  0.82683907  1
  Sn  Sn49  1  0.25182895  0.82753942  0.32676676  1
  Sn  Sn50  1  0.25182895  0.17323324  0.67246058  1
  Sn  Sn51  1  0.25187381  0.67316093  0.82683907  1
  Sn  Sn52  1  0.25218723  0.32695745  0.17304255  1
  Sn  Sn53  1  0.87373814  0.49986950  0.50008512  1
  Sn  Sn54  1  0.87373814  -0.00008512  0.00013050  1
  Sn  Sn55  1  0.12626186  0.49986950  0.50008512  1
  Sn  Sn56  1  0.12626186  -0.00008512  0.00013050  1
  Sn  Sn57  1  0.62542492  0.50006723  0.49986111  1
  Sn  Sn58  1  0.62542492  0.00013889  0.99993277  1
  Sn  Sn59  1  0.37457508  0.50006723  0.49986111  1
  Sn  Sn60  1  0.37457508  0.00013889  0.99993277  1
  Sn  Sn61  1  0.50000000  0.65002894  0.15018075  1
  Sn  Sn62  1  0.50000000  0.34981925  0.84997106  1
  Sn  Sn63  1  0.50000000  0.84953099  0.65046901  1
  Sn  Sn64  1  0.50000000  0.15029577  0.34970423  1
  Sn  Sn65  1  0.00000000  0.13245208  0.36754792  1
  Sn  Sn66  1  0.00000000  0.63203275  0.13153852  1
  Sn  Sn67  1  0.00000000  0.36846148  0.86796725  1
