# generated using pymatgen
data_Sr3Li4Nb6O20
_symmetry_space_group_name_H-M   'P 1'
_cell_length_a   5.65827200
_cell_length_b   5.65871504
_cell_length_c   13.61707264
_cell_angle_alpha   90.00000000
_cell_angle_beta   78.00866032
_cell_angle_gamma   90.00000000
_symmetry_Int_Tables_number   1
_chemical_formula_structural   Sr3Li4Nb6O20
_chemical_formula_sum   'Sr3 Li4 Nb6 O20'
_cell_volume   426.48498057
_cell_formula_units_Z   1
loop_
 _symmetry_equiv_pos_site_id
 _symmetry_equiv_pos_as_xyz
  1  'x, y, z'
loop_
 _atom_site_type_symbol
 _atom_site_label
 _atom_site_symmetry_multiplicity
 _atom_site_fract_x
 _atom_site_fract_y
 _atom_site_fract_z
 _atom_site_occupancy
  Sr  Sr0  1  0.08416724  0.50000000  0.83166552  1
  Sr  Sr1  1  0.92258402  0.50000000  0.15483196  1
  Sr  Sr2  1  0.42298524  -0.00000000  0.15402952  1
  Li  Li3  1  0.99876649  0.25044379  0.50340961  1
  Li  Li4  1  0.49782390  0.74955621  0.50340961  1
  Li  Li5  1  0.49782390  0.25044379  0.50340961  1
  Li  Li6  1  0.99876649  0.74955621  0.50340961  1
  Nb  Nb7  1  0.15753756  -0.00000000  0.68492487  1
  Nb  Nb8  1  0.65753782  0.50000000  0.68492436  1
  Nb  Nb9  1  0.34328882  0.50000000  0.31342237  1
  Nb  Nb10  1  0.84323057  0.00000000  0.31353886  1
  Nb  Nb11  1  0.50326191  0.50000000  0.99347618  1
  Nb  Nb12  1  0.00325844  -0.00000000  0.99348312  1
  O  O13  1  0.07428230  0.00000000  0.85143541  1
  O  O14  1  0.57428278  0.50000000  0.85143444  1
  O  O15  1  0.42384709  0.50000000  0.15230582  1
  O  O16  1  0.92382871  -0.00000000  0.15234258  1
  O  O17  1  0.39327832  0.25713231  0.69918310  1
  O  O18  1  0.90753857  0.74286769  0.69918310  1
  O  O19  1  0.90753857  0.25713231  0.69918310  1
  O  O20  1  0.39327832  0.74286769  0.69918310  1
  O  O21  1  0.10127662  0.24975700  0.29789211  1
  O  O22  1  0.60083126  0.75024300  0.29789211  1
  O  O23  1  0.60083126  0.24975700  0.29789211  1
  O  O24  1  0.10127662  0.75024300  0.29789211  1
  O  O25  1  0.24008309  0.25628998  0.00726233  1
  O  O26  1  0.75265457  0.74371002  0.00726233  1
  O  O27  1  0.75265457  0.25628998  0.00726233  1
  O  O28  1  0.24008309  0.74371002  0.00726233  1
  O  O29  1  0.22863697  -0.00000000  0.54272606  1
  O  O30  1  0.72863929  0.50000000  0.54272141  1
  O  O31  1  0.27203208  0.50000000  0.45593584  1
  O  O32  1  0.77195348  -0.00000000  0.45609305  1
