# generated using pymatgen
data_Sr2LaAlO5
_symmetry_space_group_name_H-M   'P 1'
_cell_length_a   6.87477039
_cell_length_b   6.87477039
_cell_length_c   7.41835558
_cell_angle_alpha   62.35657134
_cell_angle_beta   62.35657134
_cell_angle_gamma   89.92513229
_symmetry_Int_Tables_number   1
_chemical_formula_structural   Sr2LaAlO5
_chemical_formula_sum   'Sr4 La2 Al2 O10'
_cell_volume   264.71131223
_cell_formula_units_Z   2
loop_
 _symmetry_equiv_pos_site_id
 _symmetry_equiv_pos_as_xyz
  1  'x, y, z'
loop_
 _atom_site_type_symbol
 _atom_site_label
 _atom_site_symmetry_multiplicity
 _atom_site_fract_x
 _atom_site_fract_y
 _atom_site_fract_z
 _atom_site_occupancy
  Sr  Sr0  1  0.25000000  0.25000000  0.50000000  1
  Sr  Sr1  1  0.75000000  0.75000000  0.50000000  1
  Sr  Sr2  1  0.67705382  0.82294618  0.00000000  1
  Sr  Sr3  1  0.32294618  0.17705382  0.00000000  1
  La  La4  1  0.81824796  0.31824796  0.00000000  1
  La  La5  1  0.18175204  0.68175204  0.00000000  1
  Al  Al6  1  0.74861321  0.24861321  0.50277358  1
  Al  Al7  1  0.25138679  0.75138679  0.49722642  1
  O  O8  1  0.71439313  0.48981138  0.29579549  1
  O  O9  1  0.98981138  0.21439313  0.29579549  1
  O  O10  1  0.49406981  0.99406981  0.29785870  1
  O  O11  1  0.20807150  0.70807150  0.29785870  1
  O  O12  1  0.28560687  0.51018862  0.70420451  1
  O  O13  1  0.01018862  0.78560687  0.70420451  1
  O  O14  1  0.50593019  0.00593019  0.70214130  1
  O  O15  1  0.79192850  0.29192850  0.70214130  1
  O  O16  1  0.50000000  0.50000000  0.00000000  1
  O  O17  1  -0.00000000  -0.00000000  0.00000000  1
