# generated using pymatgen
data_Sr6CaMn4O13
_symmetry_space_group_name_H-M   'P 1'
_cell_length_a   6.90218798
_cell_length_b   9.91167822
_cell_length_c   10.19780358
_cell_angle_alpha   90.00000000
_cell_angle_beta   94.02581280
_cell_angle_gamma   90.00000000
_symmetry_Int_Tables_number   1
_chemical_formula_structural   Sr6CaMn4O13
_chemical_formula_sum   'Sr12 Ca2 Mn8 O26'
_cell_volume   695.93340625
_cell_formula_units_Z   2
loop_
 _symmetry_equiv_pos_site_id
 _symmetry_equiv_pos_as_xyz
  1  'x, y, z'
loop_
 _atom_site_type_symbol
 _atom_site_label
 _atom_site_symmetry_multiplicity
 _atom_site_fract_x
 _atom_site_fract_y
 _atom_site_fract_z
 _atom_site_occupancy
  Sr  Sr0  1  0.33589715  0.35853971  0.69570193  1
  Sr  Sr1  1  0.66410285  0.85853971  0.80429807  1
  Sr  Sr2  1  0.66316372  0.64028024  0.30075853  1
  Sr  Sr3  1  0.33683628  0.14028024  0.19924147  1
  Sr  Sr4  1  0.16217388  0.48730262  0.33916654  1
  Sr  Sr5  1  0.83782612  0.98730262  0.16083346  1
  Sr  Sr6  1  0.83643545  0.51065147  0.65981207  1
  Sr  Sr7  1  0.16356455  0.01065147  0.84018793  1
  Sr  Sr8  1  0.50085874  0.50062069  0.99981542  1
  Sr  Sr9  1  0.49914126  0.00062069  0.50018458  1
  Sr  Sr10  1  0.00684130  0.32469705  0.96298703  1
  Sr  Sr11  1  0.99315870  0.82469705  0.53701297  1
  Ca  Ca12  1  0.99384120  0.67750693  0.03927886  1
  Ca  Ca13  1  0.00615880  0.17750693  0.46072114  1
  Mn  Mn14  1  0.77510731  0.32476129  0.22097774  1
  Mn  Mn15  1  0.22489269  0.82476129  0.27902226  1
  Mn  Mn16  1  0.22572343  0.67736952  0.78292955  1
  Mn  Mn17  1  0.77427657  0.17736952  0.71707045  1
  Mn  Mn18  1  0.57260431  0.33174620  0.42406262  1
  Mn  Mn19  1  0.42739569  0.83174620  0.07593738  1
  Mn  Mn20  1  0.42559310  0.66546333  0.57731789  1
  Mn  Mn21  1  0.57440690  0.16546333  0.92268211  1
  O  O22  1  0.85203262  0.47694173  0.12106549  1
  O  O23  1  0.14796738  0.97694173  0.37893451  1
  O  O24  1  0.14805009  0.53252140  0.88735577  1
  O  O25  1  0.85194991  0.03252140  0.61264423  1
  O  O26  1  0.50728560  0.39309795  0.22555695  1
  O  O27  1  0.49271440  0.89309795  0.27444305  1
  O  O28  1  0.49283058  0.60593597  0.77547454  1
  O  O29  1  0.50716942  0.10593597  0.72452546  1
  O  O30  1  0.84246843  0.40285577  0.42044697  1
  O  O31  1  0.15753157  0.90285577  0.07955303  1
  O  O32  1  0.15924580  0.59132185  0.58286349  1
  O  O33  1  0.84075420  0.09132185  0.91713651  1
  O  O34  1  0.67519170  0.32793656  0.83056418  1
  O  O35  1  0.32480830  0.82793656  0.66943582  1
  O  O36  1  0.32121769  0.67150760  0.16595531  1
  O  O37  1  0.67878231  0.17150760  0.33404469  1
  O  O38  1  0.32832797  0.25182150  0.45647961  1
  O  O39  1  0.67167203  0.75182150  0.04352039  1
  O  O40  1  0.66287250  0.74735085  0.54250415  1
  O  O41  1  0.33712750  0.24735085  0.95749585  1
  O  O42  1  0.00839269  0.22837189  0.20097645  1
  O  O43  1  0.99160731  0.72837189  0.29902355  1
  O  O44  1  0.99205161  0.77223987  0.80632328  1
  O  O45  1  0.00794839  0.27223987  0.69367672  1
  O  O46  1  0.50095871  0.49915801  0.49997137  1
  O  O47  1  0.49904129  0.99915801  0.00002863  1
