# generated using pymatgen
data_SrCu4Ag
_symmetry_space_group_name_H-M   'P 1'
_cell_length_a   4.17832305
_cell_length_b   5.02229480
_cell_length_c   5.54458124
_cell_angle_alpha   116.92997092
_cell_angle_beta   90.00000000
_cell_angle_gamma   90.00000000
_symmetry_Int_Tables_number   1
_chemical_formula_structural   SrCu4Ag
_chemical_formula_sum   'Sr1 Cu4 Ag1'
_cell_volume   103.73466399
_cell_formula_units_Z   1
loop_
 _symmetry_equiv_pos_site_id
 _symmetry_equiv_pos_as_xyz
  1  'x, y, z'
loop_
 _atom_site_type_symbol
 _atom_site_label
 _atom_site_symmetry_multiplicity
 _atom_site_fract_x
 _atom_site_fract_y
 _atom_site_fract_z
 _atom_site_occupancy
  Sr  Sr0  1  0.00000000  0.99998001  0.00000000  1
  Cu  Cu1  1  0.00000000  0.30784696  0.61573807  1
  Cu  Cu2  1  0.00000000  0.69210889  0.38426193  1
  Cu  Cu3  1  0.50000000  0.49997995  0.49999958  1
  Cu  Cu4  1  0.50000000  0.99998038  0.50000042  1
  Ag  Ag5  1  0.50000000  0.50000381  0.00000000  1
