# generated using pymatgen
data_Sr2La2FeCoO8
_symmetry_space_group_name_H-M   'P 1'
_cell_length_a   5.50193526
_cell_length_b   5.47162696
_cell_length_c   6.96456049
_cell_angle_alpha   90.00000000
_cell_angle_beta   66.73433457
_cell_angle_gamma   90.00000000
_symmetry_Int_Tables_number   1
_chemical_formula_structural   Sr2La2FeCoO8
_chemical_formula_sum   'Sr2 La2 Fe1 Co1 O8'
_cell_volume   192.61560470
_cell_formula_units_Z   1
loop_
 _symmetry_equiv_pos_site_id
 _symmetry_equiv_pos_as_xyz
  1  'x, y, z'
loop_
 _atom_site_type_symbol
 _atom_site_label
 _atom_site_symmetry_multiplicity
 _atom_site_fract_x
 _atom_site_fract_y
 _atom_site_fract_z
 _atom_site_occupancy
  Sr  Sr0  1  0.85633961  0.50000000  0.28732078  1
  Sr  Sr1  1  0.64424729  0.00000000  0.71150542  1
  La  La2  1  0.35925999  -0.00000000  0.28148003  1
  La  La3  1  0.13990476  0.50000000  0.72019048  1
  Fe  Fe4  1  0.50395196  0.50000000  0.99209608  1
  Co  Co5  1  0.99645537  -0.00000000  0.00708927  1
  O  O6  1  0.75014856  0.24875146  0.00017396  1
  O  O7  1  0.24967748  0.75124854  0.00017396  1
  O  O8  1  0.24967748  0.24875146  0.00017396  1
  O  O9  1  0.75014856  0.75124854  0.00017396  1
  O  O10  1  0.17713133  0.00000000  0.64573733  1
  O  O11  1  0.66416550  0.50000000  0.67166899  1
  O  O12  1  0.32462380  0.50000000  0.35075239  1
  O  O13  1  0.83426831  0.00000000  0.33146338  1
