# generated using pymatgen
data_Sr5ZrTi4O15
_symmetry_space_group_name_H-M   'P 1'
_cell_length_a   4.01378016
_cell_length_b   4.01416333
_cell_length_c   19.93764033
_cell_angle_alpha   90.00000000
_cell_angle_beta   90.00000000
_cell_angle_gamma   90.00000000
_symmetry_Int_Tables_number   1
_chemical_formula_structural   Sr5ZrTi4O15
_chemical_formula_sum   'Sr5 Zr1 Ti4 O15'
_cell_volume   321.23464546
_cell_formula_units_Z   1
loop_
 _symmetry_equiv_pos_site_id
 _symmetry_equiv_pos_as_xyz
  1  'x, y, z'
loop_
 _atom_site_type_symbol
 _atom_site_label
 _atom_site_symmetry_multiplicity
 _atom_site_fract_x
 _atom_site_fract_y
 _atom_site_fract_z
 _atom_site_occupancy
  Sr  Sr0  1  0.50000000  0.50000000  0.10943096  1
  Sr  Sr1  1  0.50000000  0.50000000  0.30317072  1
  Sr  Sr2  1  0.50000000  0.50000000  0.50000000  1
  Sr  Sr3  1  0.50000000  0.50000000  0.69682928  1
  Sr  Sr4  1  0.50000000  0.50000000  0.89056904  1
  Zr  Zr5  1  0.00000000  -0.00000000  -0.00000000  1
  Ti  Ti6  1  -0.00000000  0.00000000  0.20422849  1
  Ti  Ti7  1  0.00000000  0.00000000  0.40105965  1
  Ti  Ti8  1  -0.00000000  -0.00000000  0.59894035  1
  Ti  Ti9  1  0.00000000  -0.00000000  0.79577151  1
  O  O10  1  0.00000000  -0.00000000  0.10772637  1
  O  O11  1  0.00000000  0.00000000  0.30309788  1
  O  O12  1  0.00000000  -0.00000000  0.50000000  1
  O  O13  1  -0.00000000  0.00000000  0.69690212  1
  O  O14  1  -0.00000000  -0.00000000  0.89227363  1
  O  O15  1  -0.00000000  0.50000000  -0.00000000  1
  O  O16  1  0.00000000  0.50000000  0.20444385  1
  O  O17  1  0.00000000  0.50000000  0.40087468  1
  O  O18  1  -0.00000000  0.50000000  0.59912532  1
  O  O19  1  -0.00000000  0.50000000  0.79555615  1
  O  O20  1  0.50000000  -0.00000000  -0.00000000  1
  O  O21  1  0.50000000  -0.00000000  0.20444576  1
  O  O22  1  0.50000000  0.00000000  0.40087897  1
  O  O23  1  0.50000000  0.00000000  0.59912103  1
  O  O24  1  0.50000000  0.00000000  0.79555424  1
