# generated using pymatgen
data_SnPbS2
_symmetry_space_group_name_H-M   'P 1'
_cell_length_a   4.09993627
_cell_length_b   4.42535124
_cell_length_c   11.70174335
_cell_angle_alpha   90.00000000
_cell_angle_beta   90.00000000
_cell_angle_gamma   90.00000000
_symmetry_Int_Tables_number   1
_chemical_formula_structural   SnPbS2
_chemical_formula_sum   'Sn2 Pb2 S4'
_cell_volume   212.31243001
_cell_formula_units_Z   2
loop_
 _symmetry_equiv_pos_site_id
 _symmetry_equiv_pos_as_xyz
  1  'x, y, z'
loop_
 _atom_site_type_symbol
 _atom_site_label
 _atom_site_symmetry_multiplicity
 _atom_site_fract_x
 _atom_site_fract_y
 _atom_site_fract_z
 _atom_site_occupancy
  Sn  Sn0  1  0.75000000  0.62014038  0.37296707  1
  Sn  Sn1  1  0.75000000  0.87985962  0.87296707  1
  Pb  Pb2  1  0.25000000  0.38994124  0.61751655  1
  Pb  Pb3  1  0.25000000  0.11005876  0.11751655  1
  S  S4  1  0.25000000  0.49198755  0.85543556  1
  S  S5  1  0.25000000  0.00801245  0.35543556  1
  S  S6  1  0.75000000  0.53633490  0.15408082  1
  S  S7  1  0.75000000  0.96366510  0.65408082  1
