# generated using pymatgen
data_Sm4Fe31Si3
_symmetry_space_group_name_H-M   'P 1'
_cell_length_a   6.38263617
_cell_length_b   6.40076963
_cell_length_c   12.77283861
_cell_angle_alpha   82.82685474
_cell_angle_beta   82.86783099
_cell_angle_gamma   82.87752010
_symmetry_Int_Tables_number   1
_chemical_formula_structural   Sm4Fe31Si3
_chemical_formula_sum   'Sm4 Fe31 Si3'
_cell_volume   510.59999514
_cell_formula_units_Z   1
loop_
 _symmetry_equiv_pos_site_id
 _symmetry_equiv_pos_as_xyz
  1  'x, y, z'
loop_
 _atom_site_type_symbol
 _atom_site_label
 _atom_site_symmetry_multiplicity
 _atom_site_fract_x
 _atom_site_fract_y
 _atom_site_fract_z
 _atom_site_occupancy
  Sm  Sm0  1  0.66001739  0.66150316  0.33015155  1
  Sm  Sm1  1  0.65850026  0.65999551  0.83009571  1
  Sm  Sm2  1  0.34244336  0.34182903  0.17125160  1
  Sm  Sm3  1  0.34292718  0.34270112  0.67137249  1
  Fe  Fe4  1  0.29403910  0.70608062  0.49975759  1
  Fe  Fe5  1  0.29266361  0.70715724  0.00083694  1
  Fe  Fe6  1  0.70739977  0.00070196  0.14667529  1
  Fe  Fe7  1  0.70687344  0.00012168  0.64553102  1
  Fe  Fe8  1  0.99924909  0.29251279  0.35290622  1
  Fe  Fe9  1  0.99888080  0.29306567  0.85291682  1
  Fe  Fe10  1  0.29287658  0.00124764  0.35356960  1
  Fe  Fe11  1  0.29258459  0.00137073  0.85345244  1
  Fe  Fe12  1  0.99869955  0.70562876  0.14747923  1
  Fe  Fe13  1  0.99960711  0.70644900  0.64617575  1
  Fe  Fe14  1  0.70761453  0.29172845  0.00020856  1
  Fe  Fe15  1  0.70544705  0.29290478  0.49915464  1
  Fe  Fe16  1  0.00055289  0.00207742  0.24916897  1
  Fe  Fe17  1  0.00069734  0.00189036  0.74782237  1
  Fe  Fe18  1  0.00177385  0.49617854  0.50053266  1
  Fe  Fe19  1  0.00050511  0.49771544  0.00112540  1
  Fe  Fe20  1  0.49899274  0.99987562  0.00026328  1
  Fe  Fe21  1  0.49626799  0.00258020  0.50011715  1
  Fe  Fe22  1  0.90379568  0.90409051  0.45194986  1
  Fe  Fe23  1  0.90417838  0.90385952  0.95175924  1
  Fe  Fe24  1  0.09405688  0.09615562  0.04844394  1
  Fe  Fe25  1  0.09415116  0.09685118  0.54656421  1
  Fe  Fe26  1  0.34127641  0.34248111  0.92227683  1
  Fe  Fe27  1  0.34013453  0.84469690  0.17201996  1
  Fe  Fe28  1  0.34192012  0.84366389  0.66983061  1
  Fe  Fe29  1  0.15781558  0.65845282  0.33010496  1
  Fe  Fe30  1  0.15743549  0.65900554  0.82934538  1
  Fe  Fe31  1  0.65774494  0.65754878  0.07847947  1
  Fe  Fe32  1  0.66077531  0.65870525  0.57833624  1
  Fe  Fe33  1  0.65969960  0.15493031  0.33000768  1
  Fe  Fe34  1  0.65767051  0.15602132  0.82844218  1
  Si  Si35  1  0.84530430  0.33943738  0.17050000  1
  Si  Si36  1  0.84647153  0.33940233  0.66850534  1
  Si  Si37  1  0.33895625  0.33938180  0.42286880  1
