# generated using pymatgen
data_Sr2Eu2TlNi2O9
_symmetry_space_group_name_H-M   'P 1'
_cell_length_a   3.81686678
_cell_length_b   3.81686678
_cell_length_c   15.24082293
_cell_angle_alpha   82.73343314
_cell_angle_beta   82.73343314
_cell_angle_gamma   89.42011518
_symmetry_Int_Tables_number   1
_chemical_formula_structural   Sr2Eu2TlNi2O9
_chemical_formula_sum   'Sr2 Eu2 Tl1 Ni2 O9'
_cell_volume   218.47933457
_cell_formula_units_Z   1
loop_
 _symmetry_equiv_pos_site_id
 _symmetry_equiv_pos_as_xyz
  1  'x, y, z'
loop_
 _atom_site_type_symbol
 _atom_site_label
 _atom_site_symmetry_multiplicity
 _atom_site_fract_x
 _atom_site_fract_y
 _atom_site_fract_z
 _atom_site_occupancy
  Sr  Sr0  1  0.59179952  0.59179952  0.83062161  1
  Sr  Sr1  1  0.42242113  0.42242113  0.16937839  1
  Eu  Eu2  1  0.70473235  0.70473235  0.59174653  1
  Eu  Eu3  1  0.29647888  0.29647888  0.40825347  1
  Tl  Tl4  1  0.04439163  0.04439163  1.00000000  1
  Ni  Ni5  1  0.14983915  0.14983915  0.70430063  1
  Ni  Ni6  1  0.85413978  0.85413978  0.29569937  1
  O  O7  1  0.21913284  0.21913284  0.56257903  1
  O  O8  1  0.78171187  0.78171187  0.43742097  1
  O  O9  1  0.47888428  0.47888428  1.00000000  1
  O  O10  1  0.15077478  0.65110346  0.70144047  1
  O  O11  1  0.65110346  0.15077478  0.70144047  1
  O  O12  1  0.85221525  0.35254393  0.29855953  1
  O  O13  1  0.35254393  0.85221525  0.29855953  1
  O  O14  1  0.07154779  0.07154779  0.85873556  1
  O  O15  1  0.93028335  0.93028335  0.14126444  1
