# generated using pymatgen
data_Sm2CuTe4
_symmetry_space_group_name_H-M   'P 1'
_cell_length_a   6.50372858
_cell_length_b   7.63123743
_cell_length_c   8.27884541
_cell_angle_alpha   90.00000000
_cell_angle_beta   90.00000000
_cell_angle_gamma   89.89649756
_symmetry_Int_Tables_number   1
_chemical_formula_structural   Sm2CuTe4
_chemical_formula_sum   'Sm4 Cu2 Te8'
_cell_volume   410.89082042
_cell_formula_units_Z   2
loop_
 _symmetry_equiv_pos_site_id
 _symmetry_equiv_pos_as_xyz
  1  'x, y, z'
loop_
 _atom_site_type_symbol
 _atom_site_label
 _atom_site_symmetry_multiplicity
 _atom_site_fract_x
 _atom_site_fract_y
 _atom_site_fract_z
 _atom_site_occupancy
  Sm  Sm0  1  0.74953168  0.22670637  0.05409899  1
  Sm  Sm1  1  0.24343864  0.76281346  0.94304169  1
  Sm  Sm2  1  0.25656136  0.23718654  0.44304169  1
  Sm  Sm3  1  0.75046832  0.77329363  0.55409899  1
  Cu  Cu4  1  0.56404821  0.58814651  0.20141930  1
  Cu  Cu5  1  0.93595179  0.41185349  0.70141930  1
  Te  Te6  1  0.73158209  0.38190244  0.41337875  1
  Te  Te7  1  0.22985328  0.61602416  0.59106500  1
  Te  Te8  1  0.27014672  0.38397584  0.09106500  1
  Te  Te9  1  0.76841791  0.61809756  0.91337875  1
  Te  Te10  1  0.50113157  0.92080560  0.24931450  1
  Te  Te11  1  0.99886843  0.07919440  0.74931450  1
  Te  Te12  1  0.49640643  0.06980641  0.74968176  1
  Te  Te13  1  0.00359357  0.93019359  0.24968176  1
