# generated using pymatgen
data_SmB8
_symmetry_space_group_name_H-M   'P 1'
_cell_length_a   4.13916390
_cell_length_b   4.13916390
_cell_length_c   16.58308122
_cell_angle_alpha   90.00000000
_cell_angle_beta   90.00000000
_cell_angle_gamma   90.00000000
_symmetry_Int_Tables_number   1
_chemical_formula_structural   SmB8
_chemical_formula_sum   'Sm3 B24'
_cell_volume   284.11258733
_cell_formula_units_Z   3
loop_
 _symmetry_equiv_pos_site_id
 _symmetry_equiv_pos_as_xyz
  1  'x, y, z'
loop_
 _atom_site_type_symbol
 _atom_site_label
 _atom_site_symmetry_multiplicity
 _atom_site_fract_x
 _atom_site_fract_y
 _atom_site_fract_z
 _atom_site_occupancy
  Sm  Sm0  1  0.00000000  0.00000000  0.22961514  1
  Sm  Sm1  1  0.00000000  0.00000000  0.50000000  1
  Sm  Sm2  1  0.00000000  0.00000000  0.77038486  1
  B  B3  1  0.50000000  0.50000000  0.20224204  1
  B  B4  1  0.50000000  0.50000000  0.45043850  1
  B  B5  1  0.50000000  0.50000000  0.69813031  1
  B  B6  1  0.50000000  0.50000000  0.94935510  1
  B  B7  1  0.50000000  0.20272696  0.12641537  1
  B  B8  1  0.50000000  0.20031851  0.37604602  1
  B  B9  1  0.50000000  0.20031851  0.62395398  1
  B  B10  1  0.50000000  0.20272696  0.87358463  1
  B  B11  1  0.20272696  0.50000000  0.12641537  1
  B  B12  1  0.20031851  0.50000000  0.37604602  1
  B  B13  1  0.20031851  0.50000000  0.62395398  1
  B  B14  1  0.20272696  0.50000000  0.87358463  1
  B  B15  1  0.50000000  0.50000000  0.05064490  1
  B  B16  1  0.50000000  0.50000000  0.30186969  1
  B  B17  1  0.50000000  0.50000000  0.54956150  1
  B  B18  1  0.50000000  0.50000000  0.79775796  1
  B  B19  1  0.50000000  0.79727304  0.12641537  1
  B  B20  1  0.50000000  0.79968149  0.37604602  1
  B  B21  1  0.50000000  0.79968149  0.62395398  1
  B  B22  1  0.50000000  0.79727304  0.87358463  1
  B  B23  1  0.79727304  0.50000000  0.12641537  1
  B  B24  1  0.79968149  0.50000000  0.37604602  1
  B  B25  1  0.79968149  0.50000000  0.62395398  1
  B  B26  1  0.79727304  0.50000000  0.87358463  1
