# generated using pymatgen
data_Sm(VFe5)2
_symmetry_space_group_name_H-M   'P 1'
_cell_length_a   4.68069096
_cell_length_b   6.46073843
_cell_length_c   6.46073843
_cell_angle_alpha   97.17421844
_cell_angle_beta   111.23789820
_cell_angle_gamma   68.76210180
_symmetry_Int_Tables_number   1
_chemical_formula_structural   Sm(VFe5)2
_chemical_formula_sum   'Sm1 V2 Fe10'
_cell_volume   169.73571346
_cell_formula_units_Z   1
loop_
 _symmetry_equiv_pos_site_id
 _symmetry_equiv_pos_as_xyz
  1  'x, y, z'
loop_
 _atom_site_type_symbol
 _atom_site_label
 _atom_site_symmetry_multiplicity
 _atom_site_fract_x
 _atom_site_fract_y
 _atom_site_fract_z
 _atom_site_occupancy
  Sm  Sm0  1  -0.00000000  -0.00000000  -0.00000000  1
  V  V1  1  0.00000000  0.35945048  0.35945048  1
  V  V2  1  -0.00000000  0.64054952  0.64054952  1
  Fe  Fe3  1  0.72816339  0.77183661  0.22816339  1
  Fe  Fe4  1  0.27183661  0.22816339  0.77183661  1
  Fe  Fe5  1  0.50000000  0.76882670  0.76882670  1
  Fe  Fe6  1  0.50000000  0.23117330  0.23117330  1
  Fe  Fe7  1  0.50000000  -0.00000000  0.50000000  1
  Fe  Fe8  1  -0.00000000  -0.00000000  0.50000000  1
  Fe  Fe9  1  0.50000000  0.50000000  -0.00000000  1
  Fe  Fe10  1  -0.00000000  0.50000000  -0.00000000  1
  Fe  Fe11  1  0.64004405  0.35995595  0.64004405  1
  Fe  Fe12  1  0.35995595  0.64004405  0.35995595  1
