# generated using pymatgen
data_Li19(Mn3As4)3
_symmetry_space_group_name_H-M   'P 1'
_cell_length_a   4.23203690
_cell_length_b   4.22963219
_cell_length_c   36.97714490
_cell_angle_alpha   90.00000000
_cell_angle_beta   90.00000000
_cell_angle_gamma   90.01163859
_symmetry_Int_Tables_number   1
_chemical_formula_structural   Li19(Mn3As4)3
_chemical_formula_sum   'Li19 Mn9 As12'
_cell_volume   661.88938316
_cell_formula_units_Z   1
loop_
 _symmetry_equiv_pos_site_id
 _symmetry_equiv_pos_as_xyz
  1  'x, y, z'
loop_
 _atom_site_type_symbol
 _atom_site_label
 _atom_site_symmetry_multiplicity
 _atom_site_fract_x
 _atom_site_fract_y
 _atom_site_fract_z
 _atom_site_occupancy
  Li  Li0  1  0.25000000  0.25000000  0.08226578  1
  Li  Li1  1  0.25000000  0.25000000  0.25468794  1
  Li  Li2  1  0.25000000  0.25000000  0.41553049  1
  Li  Li3  1  0.25000000  0.25000000  0.58993895  1
  Li  Li4  1  0.25000000  0.25000000  0.75123183  1
  Li  Li5  1  0.25000000  0.25000000  0.92086803  1
  Li  Li6  1  0.25000000  0.25000000  0.66233545  1
  Li  Li7  1  0.75000000  0.75000000  0.66232998  1
  Li  Li8  1  0.75000000  0.75000000  0.82966835  1
  Li  Li9  1  0.75000000  0.75000000  0.08217890  1
  Li  Li10  1  0.75000000  0.75000000  0.41555718  1
  Li  Li11  1  0.75000000  0.75000000  0.25469642  1
  Li  Li12  1  0.75000000  0.75000000  0.58998197  1
  Li  Li13  1  0.75000000  0.75000000  0.75262205  1
  Li  Li14  1  0.75000000  0.75000000  0.92081291  1
  Li  Li15  1  0.75000000  0.25000000  0.20958768  1
  Li  Li16  1  0.75000000  0.25000000  0.54676516  1
  Li  Li17  1  0.75000000  0.25000000  0.70604861  1
  Li  Li18  1  0.75000000  0.25000000  0.87458761  1
  Mn  Mn19  1  0.25000000  0.25000000  0.00023468  1
  Mn  Mn20  1  0.25000000  0.25000000  0.16397184  1
  Mn  Mn21  1  0.25000000  0.25000000  0.33312158  1
  Mn  Mn22  1  0.25000000  0.25000000  0.49704898  1
  Mn  Mn23  1  0.25000000  0.25000000  0.83012909  1
  Mn  Mn24  1  0.75000000  0.75000000  0.00017029  1
  Mn  Mn25  1  0.75000000  0.75000000  0.16394212  1
  Mn  Mn26  1  0.75000000  0.75000000  0.33312758  1
  Mn  Mn27  1  0.75000000  0.75000000  0.49704802  1
  As  As28  1  0.25000000  0.75000000  0.03780647  1
  As  As29  1  0.25000000  0.75000000  0.20577930  1
  As  As30  1  0.25000000  0.75000000  0.37110279  1
  As  As31  1  0.25000000  0.75000000  0.53608814  1
  As  As32  1  0.25000000  0.75000000  0.70875534  1
  As  As33  1  0.25000000  0.75000000  0.87457941  1
  As  As34  1  0.75000000  0.25000000  0.12631528  1
  As  As35  1  0.75000000  0.25000000  0.29429552  1
  As  As36  1  0.75000000  0.25000000  0.45993587  1
  As  As37  1  0.75000000  0.25000000  0.62285763  1
  As  As38  1  0.75000000  0.25000000  0.79314591  1
  As  As39  1  0.75000000  0.25000000  0.96218188  1
