# generated using pymatgen
data_Pr5SiGe2
_symmetry_space_group_name_H-M   'P 1'
_cell_length_a   6.75538848
_cell_length_b   8.91285642
_cell_length_c   8.89827821
_cell_angle_alpha   119.99074752
_cell_angle_beta   90.00105186
_cell_angle_gamma   89.99930729
_symmetry_Int_Tables_number   1
_chemical_formula_structural   Pr5SiGe2
_chemical_formula_sum   'Pr10 Si2 Ge4'
_cell_volume   464.02815774
_cell_formula_units_Z   2
loop_
 _symmetry_equiv_pos_site_id
 _symmetry_equiv_pos_as_xyz
  1  'x, y, z'
loop_
 _atom_site_type_symbol
 _atom_site_label
 _atom_site_symmetry_multiplicity
 _atom_site_fract_x
 _atom_site_fract_y
 _atom_site_fract_z
 _atom_site_occupancy
  Pr  Pr0  1  0.50211502  0.33498284  0.66694037  1
  Pr  Pr1  1  0.50212033  0.66499139  0.33199702  1
  Pr  Pr2  1  0.99788748  0.66501100  0.33198423  1
  Pr  Pr3  1  0.99791464  0.33501369  0.66695243  1
  Pr  Pr4  1  0.75001316  0.24693599  0.00178986  1
  Pr  Pr5  1  0.74999323  0.75297773  0.75479247  1
  Pr  Pr6  1  0.74998721  0.99997594  0.24369749  1
  Pr  Pr7  1  0.25000856  0.75378684  0.00025566  1
  Pr  Pr8  1  0.24999156  0.24628779  0.24654402  1
  Pr  Pr9  1  0.24999317  0.00002270  0.75446059  1
  Si  Si10  1  0.74998928  0.60782110  0.00030731  1
  Si  Si11  1  0.75000596  0.39225402  0.39232905  1
  Ge  Ge12  1  0.74999836  0.00025640  0.60848567  1
  Ge  Ge13  1  0.24998020  0.39188448  0.99963172  1
  Ge  Ge14  1  0.25000992  0.60802826  0.60787486  1
  Ge  Ge15  1  0.24999192  0.99976982  0.39195724  1
