# generated using pymatgen
data_Nd2TiFe16
_symmetry_space_group_name_H-M   'P 1'
_cell_length_a   6.47623101
_cell_length_b   6.47623174
_cell_length_c   6.47623101
_cell_angle_alpha   82.91705794
_cell_angle_beta   82.91705378
_cell_angle_gamma   82.91705794
_symmetry_Int_Tables_number   1
_chemical_formula_structural   Nd2TiFe16
_chemical_formula_sum   'Nd2 Ti1 Fe16'
_cell_volume   265.87697064
_cell_formula_units_Z   1
loop_
 _symmetry_equiv_pos_site_id
 _symmetry_equiv_pos_as_xyz
  1  'x, y, z'
loop_
 _atom_site_type_symbol
 _atom_site_label
 _atom_site_symmetry_multiplicity
 _atom_site_fract_x
 _atom_site_fract_y
 _atom_site_fract_z
 _atom_site_occupancy
  Nd  Nd0  1  0.65808286  0.65808286  0.65808286  1
  Nd  Nd1  1  0.34680815  0.34680815  0.34680815  1
  Ti  Ti2  1  0.09324192  0.09324192  0.09324192  1
  Fe  Fe3  1  0.34139064  0.34139064  0.84226026  1
  Fe  Fe4  1  0.34139064  0.84226026  0.34139064  1
  Fe  Fe5  1  0.84226026  0.34139064  0.34139064  1
  Fe  Fe6  1  0.66021652  0.66021652  0.15506755  1
  Fe  Fe7  1  0.66021652  0.15506755  0.66021652  1
  Fe  Fe8  1  0.15506755  0.66021652  0.66021652  1
  Fe  Fe9  1  0.70657580  0.99947158  0.29281088  1
  Fe  Fe10  1  0.99947158  0.29281088  0.70657580  1
  Fe  Fe11  1  0.29281088  0.70657580  0.99947158  1
  Fe  Fe12  1  0.99947158  0.70657580  0.29281088  1
  Fe  Fe13  1  0.70657580  0.29281088  0.99947158  1
  Fe  Fe14  1  0.29281088  0.99947158  0.70657580  1
  Fe  Fe15  1  0.99940103  0.50272548  0.99940103  1
  Fe  Fe16  1  0.50272548  0.99940103  0.99940103  1
  Fe  Fe17  1  0.99940103  0.99940103  0.50272548  1
  Fe  Fe18  1  0.90208086  0.90208086  0.90208086  1
