# generated using pymatgen
data_Sm4Cr3Fe31
_symmetry_space_group_name_H-M   'P 1'
_cell_length_a   6.39432015
_cell_length_b   6.39432015
_cell_length_c   12.83213379
_cell_angle_alpha   82.48568481
_cell_angle_beta   82.48568481
_cell_angle_gamma   82.47096148
_symmetry_Int_Tables_number   1
_chemical_formula_structural   Sm4Cr3Fe31
_chemical_formula_sum   'Sm4 Cr3 Fe31'
_cell_volume   512.22295338
_cell_formula_units_Z   1
loop_
 _symmetry_equiv_pos_site_id
 _symmetry_equiv_pos_as_xyz
  1  'x, y, z'
loop_
 _atom_site_type_symbol
 _atom_site_label
 _atom_site_symmetry_multiplicity
 _atom_site_fract_x
 _atom_site_fract_y
 _atom_site_fract_z
 _atom_site_occupancy
  Sm  Sm0  1  0.65954006  0.65954006  0.32855829  1
  Sm  Sm1  1  0.65575869  0.65575869  0.82882072  1
  Sm  Sm2  1  0.34367525  0.34367525  0.17086260  1
  Sm  Sm3  1  0.34532320  0.34532320  0.67405001  1
  Cr  Cr4  1  0.91226237  0.91226237  0.95539327  1
  Cr  Cr5  1  0.08822817  0.08822817  0.04523971  1
  Cr  Cr6  1  0.09225872  0.09225872  0.54641233  1
  Fe  Fe7  1  0.00110050  0.00110050  0.24801511  1
  Fe  Fe8  1  0.99952773  0.99952773  0.75101142  1
  Fe  Fe9  1  0.00084808  0.49875998  0.50105804  1
  Fe  Fe10  1  0.99976437  0.50050115  0.99940214  1
  Fe  Fe11  1  0.50050115  0.99976437  0.99940214  1
  Fe  Fe12  1  0.49875998  0.00084808  0.50105804  1
  Fe  Fe13  1  0.84533194  0.34105485  0.16883891  1
  Fe  Fe14  1  0.84458966  0.33864829  0.67066764  1
  Fe  Fe15  1  0.33927393  0.33927393  0.42254499  1
  Fe  Fe16  1  0.33826366  0.33826366  0.92345310  1
  Fe  Fe17  1  0.34105485  0.84533194  0.16883891  1
  Fe  Fe18  1  0.33864829  0.84458966  0.67066764  1
  Fe  Fe19  1  0.15614173  0.65911561  0.32957577  1
  Fe  Fe20  1  0.15515382  0.66037032  0.83008152  1
  Fe  Fe21  1  0.66167361  0.66167361  0.07649418  1
  Fe  Fe22  1  0.65999785  0.65999785  0.57856357  1
  Fe  Fe23  1  0.65911561  0.15614173  0.32957577  1
  Fe  Fe24  1  0.66037032  0.15515382  0.83008152  1
  Fe  Fe25  1  0.29639619  0.70222303  0.50008833  1
  Fe  Fe26  1  0.29416717  0.70579641  0.99971336  1
  Fe  Fe27  1  0.70565237  0.99975768  0.14602391  1
  Fe  Fe28  1  0.70429632  0.99892153  0.64711795  1
  Fe  Fe29  1  0.99888314  0.29392171  0.35229005  1
  Fe  Fe30  1  0.00071819  0.29347971  0.85391090  1
  Fe  Fe31  1  0.29392171  0.99888314  0.35229005  1
  Fe  Fe32  1  0.29347971  0.00071819  0.85391090  1
  Fe  Fe33  1  0.99975768  0.70565237  0.14602391  1
  Fe  Fe34  1  0.99892153  0.70429632  0.64711795  1
  Fe  Fe35  1  0.70222303  0.29639619  0.50008833  1
  Fe  Fe36  1  0.70579641  0.29416717  0.99971336  1
  Fe  Fe37  1  0.90862301  0.90862301  0.45304364  1
