# generated using pymatgen
data_Nd2Tm
_symmetry_space_group_name_H-M   'P 1'
_cell_length_a   3.60820754
_cell_length_b   3.60820638
_cell_length_c   9.15636475
_cell_angle_alpha   78.63650400
_cell_angle_beta   101.36349588
_cell_angle_gamma   119.99999954
_symmetry_Int_Tables_number   1
_chemical_formula_structural   Nd2Tm
_chemical_formula_sum   'Nd2 Tm1'
_cell_volume   100.52987725
_cell_formula_units_Z   1
loop_
 _symmetry_equiv_pos_site_id
 _symmetry_equiv_pos_as_xyz
  1  'x, y, z'
loop_
 _atom_site_type_symbol
 _atom_site_label
 _atom_site_symmetry_multiplicity
 _atom_site_fract_x
 _atom_site_fract_y
 _atom_site_fract_z
 _atom_site_occupancy
  Nd  Nd0  1  0.77461251  0.22538749  0.32383753  1
  Nd  Nd1  1  0.22538749  0.77461251  0.67616247  1
  Tm  Tm2  1  -0.00000000  0.00000000  -0.00000000  1
