# generated using pymatgen
data_PrZnAgAs2
_symmetry_space_group_name_H-M   'P 1'
_cell_length_a   4.34980065
_cell_length_b   4.34988315
_cell_length_c   6.98600656
_cell_angle_alpha   90.00023662
_cell_angle_beta   90.00088305
_cell_angle_gamma   120.00053793
_symmetry_Int_Tables_number   1
_chemical_formula_structural   PrZnAgAs2
_chemical_formula_sum   'Pr1 Zn1 Ag1 As2'
_cell_volume   114.47330210
_cell_formula_units_Z   1
loop_
 _symmetry_equiv_pos_site_id
 _symmetry_equiv_pos_as_xyz
  1  'x, y, z'
loop_
 _atom_site_type_symbol
 _atom_site_label
 _atom_site_symmetry_multiplicity
 _atom_site_fract_x
 _atom_site_fract_y
 _atom_site_fract_z
 _atom_site_occupancy
  Pr  Pr0  1  0.00000379  0.00000240  0.98583057  1
  Zn  Zn1  1  0.66665065  0.33332451  0.37430454  1
  Ag  Ag2  1  0.33334306  0.66667117  0.63792067  1
  As  As3  1  0.33334599  0.66667304  0.24937964  1
  As  As4  1  0.66665650  0.33332888  0.75256458  1
