# generated using pymatgen
data_PuZr4C5
_symmetry_space_group_name_H-M   'P 1'
_cell_length_a   3.36554095
_cell_length_b   3.36554095
_cell_length_c   13.96943294
_cell_angle_alpha   83.08129679
_cell_angle_beta   90.00000000
_cell_angle_gamma   120.00000000
_symmetry_Int_Tables_number   1
_chemical_formula_structural   PuZr4C5
_chemical_formula_sum   'Pu1 Zr4 C5'
_cell_volume   135.69900954
_cell_formula_units_Z   1
loop_
 _symmetry_equiv_pos_site_id
 _symmetry_equiv_pos_as_xyz
  1  'x, y, z'
loop_
 _atom_site_type_symbol
 _atom_site_label
 _atom_site_symmetry_multiplicity
 _atom_site_fract_x
 _atom_site_fract_y
 _atom_site_fract_z
 _atom_site_occupancy
  Pu  Pu0  1  -0.00000000  -0.00000000  0.00000000  1
  Zr  Zr1  1  0.59717369  0.19434738  0.20847893  1
  Zr  Zr2  1  0.19906812  0.39813625  0.40279563  1
  Zr  Zr3  1  0.80093188  0.60186375  0.59720437  1
  Zr  Zr4  1  0.40282631  0.80565262  0.79152107  1
  C  C5  1  0.70089476  0.40178952  0.89731572  1
  C  C6  1  0.50000000  -0.00000000  0.50000000  1
  C  C7  1  0.10060938  0.20121876  0.69817187  1
  C  C8  1  0.29910524  0.59821048  0.10268428  1
  C  C9  1  0.89939062  0.79878124  0.30182813  1
