# generated using pymatgen
data_PrU2S5
_symmetry_space_group_name_H-M   'P 1'
_cell_length_a   7.45256194
_cell_length_b   8.03171813
_cell_length_c   11.81657532
_cell_angle_alpha   90.00000000
_cell_angle_beta   90.00000000
_cell_angle_gamma   90.00000000
_symmetry_Int_Tables_number   1
_chemical_formula_structural   PrU2S5
_chemical_formula_sum   'Pr4 U8 S20'
_cell_volume   707.30329370
_cell_formula_units_Z   4
loop_
 _symmetry_equiv_pos_site_id
 _symmetry_equiv_pos_as_xyz
  1  'x, y, z'
loop_
 _atom_site_type_symbol
 _atom_site_label
 _atom_site_symmetry_multiplicity
 _atom_site_fract_x
 _atom_site_fract_y
 _atom_site_fract_z
 _atom_site_occupancy
  Pr  Pr0  1  0.97502575  0.99952958  0.17705571  1
  Pr  Pr1  1  0.02497425  0.49952958  0.82294429  1
  Pr  Pr2  1  0.47502575  0.49952958  0.32294429  1
  Pr  Pr3  1  0.52497425  0.99952958  0.67705571  1
  U  U4  1  0.42537130  0.74977818  0.00773228  1
  U  U5  1  0.07462870  0.74977818  0.50773228  1
  U  U6  1  0.57462870  0.24977818  0.99226772  1
  U  U7  1  0.92537130  0.24977818  0.49226772  1
  U  U8  1  0.51977991  0.50146299  0.68018679  1
  U  U9  1  0.48022009  0.00146299  0.31981321  1
  U  U10  1  0.01977991  0.00146299  0.81981321  1
  U  U11  1  0.98022009  0.50146299  0.18018679  1
  S  S12  1  0.65511643  0.54217771  0.90070171  1
  S  S13  1  0.82891482  0.95490439  0.40636406  1
  S  S14  1  0.34488357  0.04217771  0.09929829  1
  S  S15  1  0.17108518  0.45490439  0.59363594  1
  S  S16  1  0.32891482  0.45490439  0.09363594  1
  S  S17  1  0.15511643  0.04217771  0.59929829  1
  S  S18  1  0.67108518  0.95490439  0.90636406  1
  S  S19  1  0.84488357  0.54217771  0.40070171  1
  S  S20  1  0.30088084  0.75094339  0.78444350  1
  S  S21  1  0.19911916  0.75094339  0.28444350  1
  S  S22  1  0.69911916  0.25094339  0.21555650  1
  S  S23  1  0.80088084  0.25094339  0.71555650  1
  S  S24  1  0.66966423  0.74960163  0.18705982  1
  S  S25  1  0.83033577  0.74960163  0.68705982  1
  S  S26  1  0.33033577  0.24960163  0.81294018  1
  S  S27  1  0.16966423  0.24960163  0.31294018  1
  S  S28  1  0.04138985  0.75160214  0.00115263  1
  S  S29  1  0.45861015  0.75160214  0.50115263  1
  S  S30  1  0.95861015  0.25160214  0.99884737  1
  S  S31  1  0.54138985  0.25160214  0.49884737  1
