# generated using pymatgen
data_Nd2ScNbO7
_symmetry_space_group_name_H-M   'P 1'
_cell_length_a   7.52957785
_cell_length_b   7.47134388
_cell_length_c   7.57992270
_cell_angle_alpha   90.00000000
_cell_angle_beta   59.77857213
_cell_angle_gamma   119.74448847
_symmetry_Int_Tables_number   1
_chemical_formula_structural   Nd2ScNbO7
_chemical_formula_sum   'Nd4 Sc2 Nb2 O14'
_cell_volume   301.67213216
_cell_formula_units_Z   2
loop_
 _symmetry_equiv_pos_site_id
 _symmetry_equiv_pos_as_xyz
  1  'x, y, z'
loop_
 _atom_site_type_symbol
 _atom_site_label
 _atom_site_symmetry_multiplicity
 _atom_site_fract_x
 _atom_site_fract_y
 _atom_site_fract_z
 _atom_site_occupancy
  Nd  Nd0  1  0.50000000  -0.00000000  0.50000000  1
  Nd  Nd1  1  0.50000000  0.50000000  0.50000000  1
  Nd  Nd2  1  -0.00000000  0.50000000  0.00000000  1
  Nd  Nd3  1  -0.00000000  0.50000000  0.50000000  1
  Sc  Sc4  1  0.50000000  0.50000000  0.00000000  1
  Sc  Sc5  1  0.50000000  -0.00000000  0.00000000  1
  Nb  Nb6  1  -0.00000000  -0.00000000  0.50000000  1
  Nb  Nb7  1  -0.00000000  -0.00000000  0.00000000  1
  O  O8  1  0.74524766  0.37262383  0.37737617  1
  O  O9  1  0.25475234  0.62737617  0.62262383  1
  O  O10  1  0.85820747  0.92910374  0.32089626  1
  O  O11  1  0.68652103  0.34326052  0.90673948  1
  O  O12  1  0.24876846  0.92668309  0.91145300  1
  O  O13  1  0.24876846  0.32208538  0.33977854  1
  O  O14  1  0.24876846  0.32208538  0.91145300  1
  O  O15  1  0.24876846  0.92668309  0.33977854  1
  O  O16  1  0.14179253  0.07089626  0.67910374  1
  O  O17  1  0.31347897  0.65673948  0.09326052  1
  O  O18  1  0.75123154  0.07331691  0.08854700  1
  O  O19  1  0.75123154  0.67791462  0.66022146  1
  O  O20  1  0.75123154  0.67791462  0.08854700  1
  O  O21  1  0.75123154  0.07331691  0.66022146  1
