# generated using pymatgen
data_Na(Nb3Te4)2
_symmetry_space_group_name_H-M   'P 1'
_cell_length_a   3.70617342
_cell_length_b   10.74780954
_cell_length_c   10.75171123
_cell_angle_alpha   59.97834364
_cell_angle_beta   89.99758024
_cell_angle_gamma   90.00099855
_symmetry_Int_Tables_number   1
_chemical_formula_structural   Na(Nb3Te4)2
_chemical_formula_sum   'Na1 Nb6 Te8'
_cell_volume   370.81654807
_cell_formula_units_Z   1
loop_
 _symmetry_equiv_pos_site_id
 _symmetry_equiv_pos_as_xyz
  1  'x, y, z'
loop_
 _atom_site_type_symbol
 _atom_site_label
 _atom_site_symmetry_multiplicity
 _atom_site_fract_x
 _atom_site_fract_y
 _atom_site_fract_z
 _atom_site_occupancy
  Na  Na0  1  0.50000000  0.00000000  -0.00000000  1
  Nb  Nb1  1  0.74906400  0.38808223  0.51060318  1
  Nb  Nb2  1  0.74908673  0.10134635  0.38805038  1
  Nb  Nb3  1  0.74907223  0.51055063  0.10134394  1
  Nb  Nb4  1  0.25093600  0.61191777  0.48939682  1
  Nb  Nb5  1  0.25091327  0.89865365  0.61194962  1
  Nb  Nb6  1  0.25092777  0.48944937  0.89865606  1
  Te  Te7  1  0.75180369  0.06146182  0.66725501  1
  Te  Te8  1  0.75182792  0.27119132  0.06141998  1
  Te  Te9  1  0.75183131  0.66742949  0.27121206  1
  Te  Te10  1  0.24819631  0.93853818  0.33274499  1
  Te  Te11  1  0.24817208  0.72880868  0.93858002  1
  Te  Te12  1  0.24816869  0.33257051  0.72878794  1
  Te  Te13  1  0.75032749  0.66663365  0.66664992  1
  Te  Te14  1  0.24967251  0.33336635  0.33335008  1
