# generated using pymatgen
data_NiMo8P3
_symmetry_space_group_name_H-M   'P 1'
_cell_length_a   4.80387911
_cell_length_b   7.36205600
_cell_length_c   20.90092281
_cell_angle_alpha   92.97587940
_cell_angle_beta   82.96514757
_cell_angle_gamma   109.17885962
_symmetry_Int_Tables_number   1
_chemical_formula_structural   NiMo8P3
_chemical_formula_sum   'Ni4 Mo32 P12'
_cell_volume   692.85443090
_cell_formula_units_Z   4
loop_
 _symmetry_equiv_pos_site_id
 _symmetry_equiv_pos_as_xyz
  1  'x, y, z'
loop_
 _atom_site_type_symbol
 _atom_site_label
 _atom_site_symmetry_multiplicity
 _atom_site_fract_x
 _atom_site_fract_y
 _atom_site_fract_z
 _atom_site_occupancy
  Ni  Ni0  1  0.49293779  0.09700234  0.16256275  1
  Ni  Ni1  1  0.82423935  0.10607241  0.49468537  1
  Ni  Ni2  1  0.15679556  0.10698186  0.82790787  1
  Ni  Ni3  1  0.89253647  0.90642017  0.17025201  1
  Mo  Mo4  1  0.09777239  0.31176641  0.16482185  1
  Mo  Mo5  1  0.43204219  0.31679664  0.49795886  1
  Mo  Mo6  1  0.76477022  0.31639143  0.83135980  1
  Mo  Mo7  1  0.28337870  0.68887691  0.16860698  1
  Mo  Mo8  1  0.60660695  0.69162184  0.50190791  1
  Mo  Mo9  1  0.94141256  0.69059132  0.83576450  1
  Mo  Mo10  1  0.67895859  0.50538520  0.10588958  1
  Mo  Mo11  1  0.01626304  0.50332892  0.43807121  1
  Mo  Mo12  1  0.34770359  0.50396663  0.77151553  1
  Mo  Mo13  1  0.61291100  0.49468227  0.22785166  1
  Mo  Mo14  1  0.94919977  0.49510118  0.56173204  1
  Mo  Mo15  1  0.28516481  0.49420305  0.89481495  1
  Mo  Mo16  1  0.17788740  0.13962161  0.28091837  1
  Mo  Mo17  1  0.51568684  0.14086864  0.61611724  1
  Mo  Mo18  1  0.85118113  0.14085886  0.95005298  1
  Mo  Mo19  1  0.65600198  0.86278737  0.05311013  1
  Mo  Mo20  1  0.99161792  0.85684359  0.38245193  1
  Mo  Mo21  1  0.32597689  0.85922304  0.71754050  1
  Mo  Mo22  1  0.29806745  0.15144728  0.04889626  1
  Mo  Mo23  1  0.62876984  0.14742134  0.38049548  1
  Mo  Mo24  1  0.96221215  0.14805495  0.71416954  1
  Mo  Mo25  1  0.52961744  0.84852642  0.28435386  1
  Mo  Mo26  1  0.86655341  0.84598126  0.62197059  1
  Mo  Mo27  1  0.19807992  0.84488253  0.95681516  1
  Mo  Mo28  1  0.22093826  0.91375084  0.50418689  1
  Mo  Mo29  1  0.55358754  0.91414573  0.83860264  1
  Mo  Mo30  1  0.22618500  0.51025979  0.03103574  1
  Mo  Mo31  1  0.55817292  0.50500841  0.36601571  1
  Mo  Mo32  1  0.88827259  0.50529401  0.69855729  1
  Mo  Mo33  1  0.08085499  0.49135764  0.30128020  1
  Mo  Mo34  1  0.41280913  0.48742395  0.63335385  1
  Mo  Mo35  1  0.74853991  0.48542163  0.96681462  1
  P  P36  1  0.71207336  0.19831706  0.25841895  1
  P  P37  1  0.04542781  0.19073602  0.58933367  1
  P  P38  1  0.37927842  0.18790910  0.92294504  1
  P  P39  1  0.10609754  0.80297785  0.07656937  1
  P  P40  1  0.44697837  0.79815461  0.40471464  1
  P  P41  1  0.78074269  0.79795719  0.73999787  1
  P  P42  1  0.81485090  0.21843339  0.06871946  1
  P  P43  1  0.14359560  0.21174549  0.40184105  1
  P  P44  1  0.47800530  0.21384669  0.73559346  1
  P  P45  1  0.00018201  0.78453239  0.26418659  1
  P  P46  1  0.34276181  0.78357546  0.60039736  1
  P  P47  1  0.67630048  0.78344728  0.93484070  1
