# generated using pymatgen
data_Na8ThU(MoO4)8
_symmetry_space_group_name_H-M   'P 1'
_cell_length_a   10.15674010
_cell_length_b   10.15674010
_cell_length_c   10.15674010
_cell_angle_alpha   68.68975729
_cell_angle_beta   68.68975729
_cell_angle_gamma   105.85265633
_symmetry_Int_Tables_number   1
_chemical_formula_structural   Na8ThU(MoO4)8
_chemical_formula_sum   'Na8 Th1 U1 Mo8 O32'
_cell_volume   804.17506596
_cell_formula_units_Z   1
loop_
 _symmetry_equiv_pos_site_id
 _symmetry_equiv_pos_as_xyz
  1  'x, y, z'
loop_
 _atom_site_type_symbol
 _atom_site_label
 _atom_site_symmetry_multiplicity
 _atom_site_fract_x
 _atom_site_fract_y
 _atom_site_fract_z
 _atom_site_occupancy
  Na  Na0  1  0.82015183  0.96001445  0.89998589  1
  Na  Na1  1  0.36000035  0.72013773  0.60001411  1
  Na  Na2  1  0.72107223  0.82109973  0.63815734  1
  Na  Na3  1  0.95925707  0.35922957  0.86184266  1
  Na  Na4  1  0.17890027  0.04074293  0.10002750  1
  Na  Na5  1  0.64077043  0.27892777  0.39997250  1
  Na  Na6  1  0.27986227  0.17984817  0.36013738  1
  Na  Na7  1  0.03998555  0.63999965  0.13986262  1
  Th  Th8  1  0.62500000  0.37500000  0.75000000  1
  U  U9  1  0.37500000  0.62500000  0.25000000  1
  Mo  Mo10  1  0.71388639  0.70313547  0.33779421  1
  Mo  Mo11  1  0.54092968  0.05168060  0.16220579  1
  Mo  Mo12  1  0.05718759  0.71453725  0.48722837  1
  Mo  Mo13  1  0.70176562  0.54441596  0.01277163  1
  Mo  Mo14  1  0.28546275  0.29823438  0.65734966  1
  Mo  Mo15  1  0.45558404  0.94281241  0.84265034  1
  Mo  Mo16  1  0.94831940  0.28611361  0.51075092  1
  Mo  Mo17  1  0.29686453  0.45907032  0.98924908  1
  O  O18  1  0.64193303  0.72251911  0.19420279  1
  O  O19  1  0.41672190  0.83613582  0.30579721  1
  O  O20  1  0.84205505  0.64488035  0.57573716  1
  O  O21  1  0.72061750  0.41779221  0.92426284  1
  O  O22  1  0.35511965  0.27938250  0.80282529  1
  O  O23  1  0.58220779  0.15794495  0.69717471  1
  O  O24  1  0.16386418  0.35806697  0.41941392  1
  O  O25  1  0.27748089  0.58327810  0.08058608  1
  O  O26  1  0.92519939  0.81128110  0.21507623  1
  O  O27  1  0.52635733  0.14027562  0.28492377  1
  O  O28  1  0.14611484  0.92561077  0.38332532  1
  O  O29  1  0.80893609  0.52944016  0.11667468  1
  O  O30  1  0.07438923  0.19106391  0.77949593  1
  O  O31  1  0.47055984  0.85388516  0.72050407  1
  O  O32  1  0.85972438  0.07480061  0.61391829  1
  O  O33  1  0.18871890  0.47364267  0.88608171  1
  O  O34  1  0.64929524  0.49174510  0.48173072  1
  O  O35  1  0.47347582  0.13102596  0.01826928  1
  O  O36  1  0.13904172  0.64995583  0.34038119  1
  O  O37  1  0.49033703  0.47942291  0.15961881  1
  O  O38  1  0.35004417  0.50966297  0.51091411  1
  O  O39  1  0.52057709  0.86095828  0.98908589  1
  O  O40  1  0.86897404  0.35070476  0.65755014  1
  O  O41  1  0.50825490  0.52652418  0.84244986  1
  O  O42  1  0.64211359  0.78994745  0.45194431  1
  O  O43  1  0.74189176  0.09405790  0.04805569  1
  O  O44  1  0.09510080  0.64352672  0.64869359  1
  O  O45  1  0.79222031  0.74379439  0.85130641  1
  O  O46  1  0.35647328  0.20777969  0.54842591  1
  O  O47  1  0.25620561  0.90489920  0.95157409  1
  O  O48  1  0.90594210  0.35788641  0.35216614  1
  O  O49  1  0.21005255  0.25810824  0.14783386  1
