# generated using pymatgen
data_MnNiTe2
_symmetry_space_group_name_H-M   'P 1'
_cell_length_a   4.02396867
_cell_length_b   4.01818570
_cell_length_c   11.53189056
_cell_angle_alpha   90.00000000
_cell_angle_beta   89.95561450
_cell_angle_gamma   60.04753879
_symmetry_Int_Tables_number   1
_chemical_formula_structural   MnNiTe2
_chemical_formula_sum   'Mn2 Ni2 Te4'
_cell_volume   161.55611720
_cell_formula_units_Z   2
loop_
 _symmetry_equiv_pos_site_id
 _symmetry_equiv_pos_as_xyz
  1  'x, y, z'
loop_
 _atom_site_type_symbol
 _atom_site_label
 _atom_site_symmetry_multiplicity
 _atom_site_fract_x
 _atom_site_fract_y
 _atom_site_fract_z
 _atom_site_occupancy
  Mn  Mn0  1  -0.00000000  0.00000000  0.25000000  1
  Mn  Mn1  1  -0.00000000  0.00000000  0.75000000  1
  Ni  Ni2  1  -0.00000000  0.00000000  0.00000000  1
  Ni  Ni3  1  -0.00000000  0.00000000  0.50000000  1
  Te  Te4  1  0.33356999  0.33321500  0.38379424  1
  Te  Te5  1  0.33356999  0.33321500  0.88379424  1
  Te  Te6  1  0.66643001  0.66678500  0.11620576  1
  Te  Te7  1  0.66643001  0.66678500  0.61620576  1
