# generated using pymatgen
data_Sr2LaF7
_symmetry_space_group_name_H-M   'P 1'
_cell_length_a   4.15040044
_cell_length_b   4.15040095
_cell_length_c   25.84033410
_cell_angle_alpha   59.84255529
_cell_angle_beta   59.84255093
_cell_angle_gamma   59.29863209
_symmetry_Int_Tables_number   1
_chemical_formula_structural   Sr2LaF7
_chemical_formula_sum   'Sr4 La2 F14'
_cell_volume   312.30676887
_cell_formula_units_Z   2
loop_
 _symmetry_equiv_pos_site_id
 _symmetry_equiv_pos_as_xyz
  1  'x, y, z'
loop_
 _atom_site_type_symbol
 _atom_site_label
 _atom_site_symmetry_multiplicity
 _atom_site_fract_x
 _atom_site_fract_y
 _atom_site_fract_z
 _atom_site_occupancy
  Sr  Sr0  1  0.01137812  0.01137812  0.00508640  1
  Sr  Sr1  1  0.01074808  0.01074808  0.17089104  1
  Sr  Sr2  1  0.00246366  0.00246366  0.33334342  1
  Sr  Sr3  1  0.00446544  0.00446544  0.49717040  1
  La  La4  1  0.99649595  0.99649595  0.67061220  1
  La  La5  1  0.98412041  0.98412041  0.84381198  1
  F  F6  1  0.25220727  0.25220727  0.21476089  1
  F  F7  1  0.58849171  0.58849171  0.06345757  1
  F  F8  1  0.24893278  0.24893278  0.37521795  1
  F  F9  1  0.76745110  0.76745110  0.13026873  1
  F  F10  1  0.24286418  0.24286418  0.54463603  1
  F  F11  1  0.75453246  0.75453246  0.29255848  1
  F  F12  1  0.30410892  0.30410892  0.68183303  1
  F  F13  1  0.75426061  0.75426061  0.45685037  1
  F  F14  1  0.53153244  0.53153244  0.73190915  1
  F  F15  1  0.27441343  0.27441343  0.86213926  1
  F  F16  1  0.77305285  0.77305285  0.61320869  1
  F  F17  1  0.49867505  0.49867505  0.91104427  1
  F  F18  1  0.75226225  0.75226225  0.78846654  1
  F  F19  1  0.74054331  0.74054331  0.95356659  1
