# generated using pymatgen
data_Nd2Co19Si3
_symmetry_space_group_name_H-M   'P 1'
_cell_length_a   6.27623686
_cell_length_b   7.54519768
_cell_length_c   7.57480165
_cell_angle_alpha   100.34555173
_cell_angle_beta   114.77093913
_cell_angle_gamma   65.72080682
_symmetry_Int_Tables_number   1
_chemical_formula_structural   Nd2Co19Si3
_chemical_formula_sum   'Nd2 Co19 Si3'
_cell_volume   296.88427230
_cell_formula_units_Z   1
loop_
 _symmetry_equiv_pos_site_id
 _symmetry_equiv_pos_as_xyz
  1  'x, y, z'
loop_
 _atom_site_type_symbol
 _atom_site_label
 _atom_site_symmetry_multiplicity
 _atom_site_fract_x
 _atom_site_fract_y
 _atom_site_fract_z
 _atom_site_occupancy
  Nd  Nd0  1  0.37475078  0.74807374  0.24807374  1
  Nd  Nd1  1  0.62524922  0.25192626  0.75192626  1
  Co  Co2  1  0.12678700  0.25238441  0.75238441  1
  Co  Co3  1  0.87321300  0.74761559  0.24761559  1
  Co  Co4  1  0.18923935  0.16860006  0.41980804  1
  Co  Co5  1  0.43803137  0.91980804  0.66860006  1
  Co  Co6  1  0.85678404  0.83256664  0.91944246  1
  Co  Co7  1  0.26990823  0.41944246  0.33256664  1
  Co  Co8  1  0.18734089  0.58150604  0.82946018  1
  Co  Co9  1  0.43938676  0.32946018  0.08150604  1
  Co  Co10  1  0.85927833  0.07896189  0.16980468  1
  Co  Co11  1  0.26843555  0.66980468  0.57896189  1
  Co  Co12  1  0.81076065  0.83139994  0.58019196  1
  Co  Co13  1  0.56196863  0.08019196  0.33139994  1
  Co  Co14  1  0.14321596  0.16743336  0.08055754  1
  Co  Co15  1  0.73009177  0.58055754  0.66743336  1
  Co  Co16  1  0.81265911  0.41849396  0.17053982  1
  Co  Co17  1  0.56061324  0.67053982  0.91849396  1
  Co  Co18  1  0.14072167  0.92103811  0.83019532  1
  Co  Co19  1  0.73156445  0.33019532  0.42103811  1
  Co  Co20  1  0.00000000  0.50000000  -0.00000000  1
  Si  Si21  1  0.00000000  0.50000000  0.50000000  1
  Si  Si22  1  0.50000000  -0.00000000  -0.00000000  1
  Si  Si23  1  0.00000000  -0.00000000  0.50000000  1
