# generated using pymatgen
data_Na2Fe7(PO4)6
_symmetry_space_group_name_H-M   'P 1'
_cell_length_a   6.56557856
_cell_length_b   8.77107762
_cell_length_c   8.52478606
_cell_angle_alpha   92.87332970
_cell_angle_beta   106.07950209
_cell_angle_gamma   107.35730368
_symmetry_Int_Tables_number   1
_chemical_formula_structural   Na2Fe7(PO4)6
_chemical_formula_sum   'Na2 Fe7 P6 O24'
_cell_volume   445.49058830
_cell_formula_units_Z   1
loop_
 _symmetry_equiv_pos_site_id
 _symmetry_equiv_pos_as_xyz
  1  'x, y, z'
loop_
 _atom_site_type_symbol
 _atom_site_label
 _atom_site_symmetry_multiplicity
 _atom_site_fract_x
 _atom_site_fract_y
 _atom_site_fract_z
 _atom_site_occupancy
  Na  Na0  1  0.75121573  0.97827682  0.02021866  1
  Na  Na1  1  0.24878427  0.02172318  0.97978134  1
  Fe  Fe2  1  0.37007725  0.61522922  0.94123426  1
  Fe  Fe3  1  0.12863415  0.05676600  0.37999816  1
  Fe  Fe4  1  0.62992275  0.38477078  0.05876574  1
  Fe  Fe5  1  0.87136585  0.94323400  0.62000184  1
  Fe  Fe6  1  0.25160303  0.72766350  0.27146470  1
  Fe  Fe7  1  0.74839697  0.27233650  0.72853530  1
  Fe  Fe8  1  -0.00000000  0.50000000  0.50000000  1
  P  P9  1  0.88396057  0.65899797  0.87141167  1
  P  P10  1  0.63110247  0.12799042  0.34124317  1
  P  P11  1  0.11603943  0.34100203  0.12858833  1
  P  P12  1  0.36889753  0.87200958  0.65875683  1
  P  P13  1  0.75396699  0.70778741  0.29765037  1
  P  P14  1  0.24603301  0.29221259  0.70234963  1
  O  O15  1  0.38771877  0.82636762  0.83411309  1
  O  O16  1  0.10700700  0.16859725  0.16924697  1
  O  O17  1  0.61228123  0.17363238  0.16588691  1
  O  O18  1  0.89299300  0.83140275  0.83075303  1
  O  O19  1  0.31168668  0.40164231  0.05146572  1
  O  O20  1  0.19237719  0.96043048  0.61046647  1
  O  O21  1  0.68831332  0.59835769  0.94853428  1
  O  O22  1  0.80762281  0.03956952  0.38953353  1
  O  O23  1  0.53897761  0.72883489  0.17903387  1
  O  O24  1  0.96439055  0.82243500  0.26039930  1
  O  O25  1  0.46102239  0.27116511  0.82096613  1
  O  O26  1  0.03560945  0.17756500  0.73960070  1
  O  O27  1  0.29028430  0.71993283  0.52641715  1
  O  O28  1  0.14833376  0.46384322  0.27559774  1
  O  O29  1  0.70971570  0.28006717  0.47358285  1
  O  O30  1  0.85166624  0.53615678  0.72440226  1
  O  O31  1  0.23285834  0.46617922  0.72497376  1
  O  O32  1  0.24571722  0.26308833  0.52466177  1
  O  O33  1  0.76714166  0.53382078  0.27502624  1
  O  O34  1  0.75428278  0.73691167  0.47533823  1
  O  O35  1  0.11079775  0.67825180  0.00903923  1
  O  O36  1  0.39917120  0.00591622  0.33294833  1
  O  O37  1  0.88920225  0.32174820  0.99096077  1
  O  O38  1  0.60082880  0.99408378  0.66705167  1
