# generated using pymatgen
data_MnCd2S3
_symmetry_space_group_name_H-M   'P 1'
_cell_length_a   4.13360169
_cell_length_b   7.86915273
_cell_length_c   9.80618888
_cell_angle_alpha   75.42666468
_cell_angle_beta   90.00391764
_cell_angle_gamma   105.22875678
_symmetry_Int_Tables_number   1
_chemical_formula_structural   MnCd2S3
_chemical_formula_sum   'Mn2 Cd4 S6'
_cell_volume   297.12660747
_cell_formula_units_Z   2
loop_
 _symmetry_equiv_pos_site_id
 _symmetry_equiv_pos_as_xyz
  1  'x, y, z'
loop_
 _atom_site_type_symbol
 _atom_site_label
 _atom_site_symmetry_multiplicity
 _atom_site_fract_x
 _atom_site_fract_y
 _atom_site_fract_z
 _atom_site_occupancy
  Mn  Mn0  1  0.09547839  0.19100472  0.43187188  1
  Mn  Mn1  1  0.43139317  0.86272589  0.76047998  1
  Cd  Cd2  1  0.15205460  0.30409463  0.81780947  1
  Cd  Cd3  1  0.48792981  0.97579223  0.15266842  1
  Cd  Cd4  1  0.82002969  0.64018608  0.48958586  1
  Cd  Cd5  1  0.76221079  0.52438394  0.09727392  1
  S  S6  1  0.28415209  0.56826789  0.93552529  1
  S  S7  1  0.61032604  0.22074601  0.29102804  1
  S  S8  1  0.94927230  0.89855049  0.61676791  1
  S  S9  1  0.88952745  0.77896789  0.22332821  1
  S  S10  1  0.21719062  0.43443821  0.54956637  1
  S  S11  1  0.55043504  0.10084203  0.88409466  1
