# generated using pymatgen
data_Y3TaO7
_symmetry_space_group_name_H-M   'P 1'
_cell_length_a   7.59055846
_cell_length_b   17.46316828
_cell_length_c   9.44233811
_cell_angle_alpha   26.23484919
_cell_angle_beta   36.05574612
_cell_angle_gamma   49.84668197
_symmetry_Int_Tables_number   1
_chemical_formula_structural   Y3TaO7
_chemical_formula_sum   'Y6 Ta2 O14'
_cell_volume   309.73778372
_cell_formula_units_Z   2
loop_
 _symmetry_equiv_pos_site_id
 _symmetry_equiv_pos_as_xyz
  1  'x, y, z'
loop_
 _atom_site_type_symbol
 _atom_site_label
 _atom_site_symmetry_multiplicity
 _atom_site_fract_x
 _atom_site_fract_y
 _atom_site_fract_z
 _atom_site_occupancy
  Y  Y0  1  0.08014518  0.00253704  0.96487518  1
  Y  Y1  1  0.51131828  0.00006958  0.03557468  1
  Y  Y2  1  0.35831151  0.24309125  0.02077431  1
  Y  Y3  1  0.19255059  0.46499813  0.04789814  1
  Y  Y4  1  0.87282394  0.24144878  0.00939733  1
  Y  Y5  1  0.65127354  0.45903662  0.09490127  1
  Ta  Ta6  1  0.16386384  0.75258118  0.98807241  1
  Ta  Ta7  1  0.64298779  0.74619749  0.01546716  1
  O  O8  1  0.92412479  0.95373887  0.39263915  1
  O  O9  1  0.73008314  0.12125047  0.92265811  1
  O  O10  1  0.01932678  0.95734963  0.78570722  1
  O  O11  1  0.40612777  0.24059104  0.23175051  1
  O  O12  1  0.57323378  0.13469204  0.56796632  1
  O  O13  1  0.18825225  0.40126945  0.37902260  1
  O  O14  1  0.33629126  0.24405107  0.79813571  1
  O  O15  1  0.28139394  0.78591822  0.09108987  1
  O  O16  1  0.08169769  0.42219268  0.95969642  1
  O  O17  1  0.71828321  0.53510887  0.24800925  1
  O  O18  1  0.10973631  0.77838049  0.77836914  1
  O  O19  1  0.49165278  0.74405828  0.30700694  1
  O  O20  1  0.85563778  0.53736624  0.60117010  1
  O  O21  1  0.58387583  0.73709057  0.72907119  1
