# generated using pymatgen
data_Mg(AlB14)2
_symmetry_space_group_name_H-M   'P 1'
_cell_length_a   5.88898737
_cell_length_b   7.10921881
_cell_length_c   7.10921881
_cell_angle_alpha   88.53844256
_cell_angle_beta   114.22397260
_cell_angle_gamma   65.77602740
_symmetry_Int_Tables_number   1
_chemical_formula_structural   Mg(AlB14)2
_chemical_formula_sum   'Mg1 Al2 B28'
_cell_volume   240.70978789
_cell_formula_units_Z   1
loop_
 _symmetry_equiv_pos_site_id
 _symmetry_equiv_pos_as_xyz
  1  'x, y, z'
loop_
 _atom_site_type_symbol
 _atom_site_label
 _atom_site_symmetry_multiplicity
 _atom_site_fract_x
 _atom_site_fract_y
 _atom_site_fract_z
 _atom_site_occupancy
  Mg  Mg0  1  0.36467696  0.88740874  0.61259126  1
  Al  Al1  1  0.50090080  0.50169983  0.99830017  1
  Al  Al2  1  0.61266072  0.13268885  0.36731115  1
  B  B3  1  0.17308766  0.40952066  0.76526860  1
  B  B4  1  0.82677009  0.59050442  0.23626578  1
  B  B5  1  0.82677009  0.26373422  0.90949558  1
  B  B6  1  0.17308766  0.73473140  0.09047934  1
  B  B7  1  0.97554625  0.68864454  0.64571272  1
  B  B8  1  0.02681270  0.30971027  0.35778769  1
  B  B9  1  0.02681270  0.14221231  0.19028973  1
  B  B10  1  0.97554625  0.85428728  0.81135546  1
  B  B11  1  0.29412666  0.53484392  0.62645478  1
  B  B12  1  0.20082195  0.46690444  0.37247093  1
  B  B13  1  0.20082195  0.12752907  0.03309556  1
  B  B14  1  0.29412666  0.87354522  0.96515608  1
  B  B15  1  0.70982817  0.46467231  0.37703303  1
  B  B16  1  0.79830945  0.53357717  0.63105559  1
  B  B17  1  0.79830945  0.86894441  0.96642283  1
  B  B18  1  0.70982817  0.12296697  0.03532769  1
  B  B19  1  0.99042954  0.73019396  0.40247114  1
  B  B20  1  0.31999843  0.27383734  0.59995896  1
  B  B21  1  0.31999843  0.90004104  0.22616266  1
  B  B22  1  0.99042954  0.09752886  0.76980604  1
  B  B23  1  0.00719131  0.27223262  0.59940722  1
  B  B24  1  0.68107472  0.72875990  0.40175173  1
  B  B25  1  0.68107472  0.09824827  0.77124010  1
  B  B26  1  0.00719131  0.90059278  0.22776738  1
  B  B27  1  0.38171338  0.26813188  0.03444880  1
  B  B28  1  0.62517046  0.72538553  0.96862942  1
  B  B29  1  0.62517046  0.53137058  0.77461447  1
  B  B30  1  0.38171338  0.46555120  0.23186812  1
