# generated using pymatgen
data_Mn3B4W
_symmetry_space_group_name_H-M   'P 1'
_cell_length_a   3.01065389
_cell_length_b   4.27837065
_cell_length_c   5.62850103
_cell_angle_alpha   89.40416394
_cell_angle_beta   90.00000000
_cell_angle_gamma   90.00000000
_symmetry_Int_Tables_number   1
_chemical_formula_structural   Mn3B4W
_chemical_formula_sum   'Mn3 B4 W1'
_cell_volume   72.49507491
_cell_formula_units_Z   1
loop_
 _symmetry_equiv_pos_site_id
 _symmetry_equiv_pos_as_xyz
  1  'x, y, z'
loop_
 _atom_site_type_symbol
 _atom_site_label
 _atom_site_symmetry_multiplicity
 _atom_site_fract_x
 _atom_site_fract_y
 _atom_site_fract_z
 _atom_site_occupancy
  Mn  Mn0  1  0.25000000  0.12322266  0.17333005  1
  Mn  Mn1  1  0.75000000  0.62583243  0.32171235  1
  Mn  Mn2  1  0.75000000  0.87987252  0.82774130  1
  B  B3  1  0.25000000  0.88174351  0.52570161  1
  B  B4  1  0.25000000  0.61832347  0.04176156  1
  B  B5  1  0.75000000  0.09732280  0.45483055  1
  B  B6  1  0.75000000  0.39739102  0.97984922  1
  W  W7  1  0.25000000  0.37629159  0.67507335  1
