# generated using pymatgen
data_MnCo5(BO5)2
_symmetry_space_group_name_H-M   'P 1'
_cell_length_a   3.05988767
_cell_length_b   9.31318239
_cell_length_c   12.52744381
_cell_angle_alpha   90.00000000
_cell_angle_beta   90.00000000
_cell_angle_gamma   90.00000000
_symmetry_Int_Tables_number   1
_chemical_formula_structural   MnCo5(BO5)2
_chemical_formula_sum   'Mn2 Co10 B4 O20'
_cell_volume   356.99822381
_cell_formula_units_Z   2
loop_
 _symmetry_equiv_pos_site_id
 _symmetry_equiv_pos_as_xyz
  1  'x, y, z'
loop_
 _atom_site_type_symbol
 _atom_site_label
 _atom_site_symmetry_multiplicity
 _atom_site_fract_x
 _atom_site_fract_y
 _atom_site_fract_z
 _atom_site_occupancy
  Mn  Mn0  1  -0.00000000  0.25677388  0.61420634  1
  Mn  Mn1  1  0.00000000  0.24322612  0.11420634  1
  Co  Co2  1  0.50000000  0.50601488  0.22190675  1
  Co  Co3  1  0.50000000  0.49756797  0.78035273  1
  Co  Co4  1  0.50000000  0.00243203  0.28035273  1
  Co  Co5  1  0.50000000  0.99398512  0.72190675  1
  Co  Co6  1  0.50000000  0.50242380  0.49807823  1
  Co  Co7  1  0.50000000  0.99757620  0.99807823  1
  Co  Co8  1  0.00000000  0.99467763  0.49829118  1
  Co  Co9  1  -0.00000000  0.50532237  0.99829118  1
  Co  Co10  1  0.00000000  0.74312369  0.38607195  1
  Co  Co11  1  -0.00000000  0.75687631  0.88607195  1
  B  B12  1  -0.00000000  0.77576070  0.13925532  1
  B  B13  1  -0.00000000  0.22307747  0.86067163  1
  B  B14  1  0.00000000  0.27692253  0.36067163  1
  B  B15  1  0.00000000  0.72423930  0.63925532  1
  O  O16  1  0.50000000  0.88687665  0.42167363  1
  O  O17  1  0.50000000  0.11831167  0.57947236  1
  O  O18  1  0.50000000  0.38168833  0.07947236  1
  O  O19  1  0.50000000  0.61312335  0.92167363  1
  O  O20  1  0.50000000  0.61538097  0.35739194  1
  O  O21  1  0.50000000  0.38690870  0.64311082  1
  O  O22  1  0.50000000  0.11309130  0.14311082  1
  O  O23  1  0.50000000  0.88461903  0.85739194  1
  O  O24  1  -0.00000000  0.85033186  0.23549985  1
  O  O25  1  0.00000000  0.14618884  0.76581397  1
  O  O26  1  -0.00000000  0.35381116  0.26581397  1
  O  O27  1  -0.00000000  0.64966814  0.73549985  1
  O  O28  1  -0.00000000  0.62649733  0.13927928  1
  O  O29  1  0.00000000  0.37227359  0.85954814  1
  O  O30  1  -0.00000000  0.12772641  0.35954814  1
  O  O31  1  0.00000000  0.87350267  0.63927928  1
  O  O32  1  0.00000000  0.64904718  0.54315245  1
  O  O33  1  -0.00000000  0.35260107  0.45622344  1
  O  O34  1  -0.00000000  0.14739893  0.95622344  1
  O  O35  1  -0.00000000  0.85095282  0.04315245  1
