# generated using pymatgen
data_MnFe3(BiO3)4
_symmetry_space_group_name_H-M   'P 1'
_cell_length_a   5.69438553
_cell_length_b   5.68261203
_cell_length_c   9.69291493
_cell_angle_alpha   106.67556774
_cell_angle_beta   88.67507788
_cell_angle_gamma   119.03128362
_symmetry_Int_Tables_number   1
_chemical_formula_structural   MnFe3(BiO3)4
_chemical_formula_sum   'Mn1 Fe3 Bi4 O12'
_cell_volume   260.17313095
_cell_formula_units_Z   1
loop_
 _symmetry_equiv_pos_site_id
 _symmetry_equiv_pos_as_xyz
  1  'x, y, z'
loop_
 _atom_site_type_symbol
 _atom_site_label
 _atom_site_symmetry_multiplicity
 _atom_site_fract_x
 _atom_site_fract_y
 _atom_site_fract_z
 _atom_site_occupancy
  Mn  Mn0  1  0.83098374  0.65669961  0.60863692  1
  Fe  Fe1  1  0.07754473  0.16420508  0.36191336  1
  Fe  Fe2  1  0.58788051  0.16433129  0.86125258  1
  Fe  Fe3  1  0.33623853  0.66625582  0.11139635  1
  Bi  Bi4  1  0.25465274  0.50233315  0.74880466  1
  Bi  Bi5  1  0.75175743  0.50320502  0.24874774  1
  Bi  Bi6  1  0.00800439  0.00378932  0.00004563  1
  Bi  Bi7  1  0.49374289  0.99772801  0.50275288  1
  O  O8  1  0.76076751  0.36635298  0.71463250  1
  O  O9  1  0.24883585  0.35805044  0.21643958  1
  O  O10  1  0.38190662  0.34872277  0.51851997  1
  O  O11  1  0.90539924  0.36166182  0.01690125  1
  O  O12  1  0.38286888  0.36252743  0.94417269  1
  O  O13  1  0.88692504  0.38119441  0.44567833  1
  O  O14  1  0.26048592  0.87144142  0.69608869  1
  O  O15  1  0.72787253  0.86564583  0.19590827  1
  O  O16  1  0.71632681  0.86093451  0.76791783  1
  O  O17  1  0.19172095  0.85339512  0.26800362  1
  O  O18  1  0.36264864  0.86824540  0.97063568  1
  O  O19  1  0.84343704  0.86328059  0.47155148  1
