# generated using pymatgen
data_MgU2O6
_symmetry_space_group_name_H-M   'P 1'
_cell_length_a   3.76170066
_cell_length_b   5.22969204
_cell_length_c   6.40306632
_cell_angle_alpha   65.89727191
_cell_angle_beta   72.91786539
_cell_angle_gamma   90.00000000
_symmetry_Int_Tables_number   1
_chemical_formula_structural   MgU2O6
_chemical_formula_sum   'Mg1 U2 O6'
_cell_volume   108.86618695
_cell_formula_units_Z   1
loop_
 _symmetry_equiv_pos_site_id
 _symmetry_equiv_pos_as_xyz
  1  'x, y, z'
loop_
 _atom_site_type_symbol
 _atom_site_label
 _atom_site_symmetry_multiplicity
 _atom_site_fract_x
 _atom_site_fract_y
 _atom_site_fract_z
 _atom_site_occupancy
  Mg  Mg0  1  0.00000000  -0.00000000  -0.00000000  1
  U  U1  1  0.33745356  0.33745356  0.32509187  1
  U  U2  1  0.66254644  0.66254644  0.67490813  1
  O  O3  1  0.50000000  0.25534776  0.00000000  1
  O  O4  1  0.83141810  0.58069509  0.33716279  1
  O  O5  1  0.16858190  0.91785889  0.66283721  1
  O  O6  1  0.50000000  0.74465224  1.00000000  1
  O  O7  1  0.83141810  0.08214111  0.33716279  1
  O  O8  1  0.16858190  0.41930491  0.66283721  1
