# generated using pymatgen
data_MgZnO2
_symmetry_space_group_name_H-M   'P 1'
_cell_length_a   3.30570172
_cell_length_b   3.30588879
_cell_length_c   5.20910020
_cell_angle_alpha   90.00000000
_cell_angle_beta   89.99985861
_cell_angle_gamma   59.99811715
_symmetry_Int_Tables_number   1
_chemical_formula_structural   MgZnO2
_chemical_formula_sum   'Mg1 Zn1 O2'
_cell_volume   49.29887476
_cell_formula_units_Z   1
loop_
 _symmetry_equiv_pos_site_id
 _symmetry_equiv_pos_as_xyz
  1  'x, y, z'
loop_
 _atom_site_type_symbol
 _atom_site_label
 _atom_site_symmetry_multiplicity
 _atom_site_fract_x
 _atom_site_fract_y
 _atom_site_fract_z
 _atom_site_occupancy
  Mg  Mg0  1  0.66665876  0.66667062  0.50326029  1
  Zn  Zn1  1  0.33335060  0.33332470  0.99681588  1
  O  O2  1  0.66664423  0.66667789  0.11726794  1
  O  O3  1  0.33334642  0.33332679  0.61065589  1
