# generated using pymatgen
data_MnFe4(BiO3)5
_symmetry_space_group_name_H-M   'P 1'
_cell_length_a   5.74543431
_cell_length_b   9.88438960
_cell_length_c   12.51967229
_cell_angle_alpha   75.27839048
_cell_angle_beta   101.83543452
_cell_angle_gamma   107.89582566
_symmetry_Int_Tables_number   1
_chemical_formula_structural   MnFe4(BiO3)5
_chemical_formula_sum   'Mn2 Fe8 Bi10 O30'
_cell_volume   648.12116231
_cell_formula_units_Z   2
loop_
 _symmetry_equiv_pos_site_id
 _symmetry_equiv_pos_as_xyz
  1  'x, y, z'
loop_
 _atom_site_type_symbol
 _atom_site_label
 _atom_site_symmetry_multiplicity
 _atom_site_fract_x
 _atom_site_fract_y
 _atom_site_fract_z
 _atom_site_occupancy
  Mn  Mn0  1  0.33048131  0.94329605  0.83283834  1
  Mn  Mn1  1  0.33225345  0.44428566  0.33223733  1
  Fe  Fe2  1  0.13821702  0.34369538  0.03595120  1
  Fe  Fe3  1  0.93572578  0.74456818  0.23442967  1
  Fe  Fe4  1  0.74082877  0.14434529  0.43480303  1
  Fe  Fe5  1  0.53814364  0.54387920  0.63461625  1
  Fe  Fe6  1  0.54033184  0.04285849  0.13469975  1
  Fe  Fe7  1  0.13841281  0.84363694  0.53491056  1
  Fe  Fe8  1  0.93518760  0.24639031  0.73358089  1
  Fe  Fe9  1  0.74178357  0.64397442  0.93497545  1
  Bi  Bi10  1  0.40643808  0.69993295  0.09894055  1
  Bi  Bi11  1  0.21246024  0.09980477  0.30200528  1
  Bi  Bi12  1  0.00474082  0.50158802  0.50149055  1
  Bi  Bi13  1  0.80629570  0.90432975  0.69977616  1
  Bi  Bi14  1  0.60751088  0.29906700  0.90198956  1
  Bi  Bi15  1  0.00707693  0.00081854  0.00170033  1
  Bi  Bi16  1  0.80163945  0.40101719  0.20371860  1
  Bi  Bi17  1  0.60681151  0.79992995  0.40165229  1
  Bi  Bi18  1  0.40460935  0.20109364  0.60052252  1
  Bi  Bi19  1  0.21392272  0.59892994  0.80483653  1
  O  O20  1  0.86772104  0.96823314  0.50678005  1
  O  O21  1  0.66267674  0.36819305  0.70332936  1
  O  O22  1  0.47751355  0.75811203  0.90858049  1
  O  O23  1  0.26457802  0.16729917  0.10304763  1
  O  O24  1  0.04950917  0.56965921  0.30500622  1
  O  O25  1  0.61191667  0.63888726  0.76409876  1
  O  O26  1  0.40876781  0.04002662  0.96216334  1
  O  O27  1  0.22039242  0.43880107  0.16822606  1
  O  O28  1  0.00494710  0.84044171  0.36388011  1
  O  O29  1  0.80164196  0.23960382  0.56348458  1
  O  O30  1  0.60846724  0.06888605  0.75448669  1
  O  O31  1  0.41685422  0.46465948  0.95330157  1
  O  O32  1  0.21267312  0.87090037  0.15085911  1
  O  O33  1  0.02696223  0.27126712  0.35397917  1
  O  O34  1  0.81707540  0.66964754  0.55266071  1
  O  O35  1  0.17741093  0.85046685  0.69648658  1
  O  O36  1  0.97198178  0.24794974  0.89465341  1
  O  O37  1  0.77132446  0.64722240  0.09574207  1
  O  O38  1  0.57669985  0.04338795  0.29583414  1
  O  O39  1  0.37573040  0.45021596  0.49166035  1
  O  O40  1  -0.00080408  0.82934475  0.88610417  1
  O  O41  1  0.78863719  0.22896569  0.08546384  1
  O  O42  1  0.58151354  0.62972704  0.28591850  1
  O  O43  1  0.38657760  0.02743765  0.48528870  1
  O  O44  1  0.18825403  0.43004662  0.68370462  1
  O  O45  1  0.11277960  0.10357166  0.73841881  1
  O  O46  1  0.93172074  0.49877188  0.94688415  1
  O  O47  1  0.72440138  0.89759881  0.14240390  1
  O  O48  1  0.54105664  0.29025587  0.34126253  1
  O  O49  1  0.32534775  0.69857781  0.54341552  1
