# generated using pymatgen
data_Li6Ni2N3
_symmetry_space_group_name_H-M   'P 1'
_cell_length_a   3.52330701
_cell_length_b   6.46141527
_cell_length_c   6.48078273
_cell_angle_alpha   119.90119297
_cell_angle_beta   90.00000000
_cell_angle_gamma   90.00000000
_symmetry_Int_Tables_number   1
_chemical_formula_structural   Li6Ni2N3
_chemical_formula_sum   'Li6 Ni2 N3'
_cell_volume   127.89918536
_cell_formula_units_Z   1
loop_
 _symmetry_equiv_pos_site_id
 _symmetry_equiv_pos_as_xyz
  1  'x, y, z'
loop_
 _atom_site_type_symbol
 _atom_site_label
 _atom_site_symmetry_multiplicity
 _atom_site_fract_x
 _atom_site_fract_y
 _atom_site_fract_z
 _atom_site_occupancy
  Li  Li0  1  0.50000000  0.34215509  0.67643706  1
  Li  Li1  1  0.50000000  0.66571803  0.32356294  1
  Li  Li2  1  0.50000000  0.98987868  0.25162314  1
  Li  Li3  1  0.50000000  0.27479562  0.00000000  1
  Li  Li4  1  0.50000000  0.73825554  0.74837686  1
  Li  Li5  1  0.00000000  0.63154804  1.00000000  1
  Ni  Ni6  1  0.00000000  0.36378079  0.36606756  1
  Ni  Ni7  1  -0.00000000  0.99771323  0.63393244  1
  N  N8  1  0.50000000  0.63489790  1.00000000  1
  N  N9  1  0.50000000  0.36266682  0.36417655  1
  N  N10  1  0.50000000  0.99849027  0.63582345  1
