# generated using pymatgen
data_KV4O10
_symmetry_space_group_name_H-M   'P 1'
_cell_length_a   3.71312470
_cell_length_b   6.16313999
_cell_length_c   9.80801861
_cell_angle_alpha   92.18423794
_cell_angle_beta   90.00000000
_cell_angle_gamma   72.46812228
_symmetry_Int_Tables_number   1
_chemical_formula_structural   KV4O10
_chemical_formula_sum   'K1 V4 O10'
_cell_volume   213.85475310
_cell_formula_units_Z   1
loop_
 _symmetry_equiv_pos_site_id
 _symmetry_equiv_pos_as_xyz
  1  'x, y, z'
loop_
 _atom_site_type_symbol
 _atom_site_label
 _atom_site_symmetry_multiplicity
 _atom_site_fract_x
 _atom_site_fract_y
 _atom_site_fract_z
 _atom_site_occupancy
  K  K0  1  0.40580567  0.18838866  0.47583517  1
  V  V1  1  0.05994145  0.88011710  0.15402303  1
  V  V2  1  0.93924415  0.12151170  0.84610743  1
  V  V3  1  0.76271532  0.47456937  0.15661007  1
  V  V4  1  0.23591310  0.52817380  0.84451028  1
  O  O5  1  0.59550806  0.80898387  0.12617035  1
  O  O6  1  0.40421013  0.19157974  0.87425746  1
  O  O7  1  0.77680888  0.44638224  0.32180228  1
  O  O8  1  0.22855132  0.54289735  0.67977433  1
  O  O9  1  0.91811491  0.16377018  0.09426129  1
  O  O10  1  0.08376221  0.83247557  0.90399498  1
  O  O11  1  0.04051709  0.91896582  0.32021618  1
  O  O12  1  0.95543546  0.08912908  0.67950542  1
  O  O13  1  0.23550557  0.52898886  0.11068765  1
  O  O14  1  0.76446667  0.47106666  0.88854406  1
