# generated using pymatgen
data_LaEuS2
_symmetry_space_group_name_H-M   'P 1'
_cell_length_a   4.15410376
_cell_length_b   4.15410376
_cell_length_c   7.18012216
_cell_angle_alpha   106.81474014
_cell_angle_beta   73.18525986
_cell_angle_gamma   120.00000000
_symmetry_Int_Tables_number   1
_chemical_formula_structural   LaEuS2
_chemical_formula_sum   'La1 Eu1 S2'
_cell_volume   101.14102502
_cell_formula_units_Z   1
loop_
 _symmetry_equiv_pos_site_id
 _symmetry_equiv_pos_as_xyz
  1  'x, y, z'
loop_
 _atom_site_type_symbol
 _atom_site_label
 _atom_site_symmetry_multiplicity
 _atom_site_fract_x
 _atom_site_fract_y
 _atom_site_fract_z
 _atom_site_occupancy
  La  La0  1  0.50000000  0.50000000  0.50000000  1
  Eu  Eu1  1  0.00000000  -0.00000000  -0.00000000  1
  S  S2  1  0.25087320  0.74912680  0.24738040  1
  S  S3  1  0.74912680  0.25087320  0.75261960  1
