# generated using pymatgen
data_KFeSeS
_symmetry_space_group_name_H-M   'P 1'
_cell_length_a   5.48436554
_cell_length_b   6.86252377
_cell_length_c   6.86252377
_cell_angle_alpha   116.89061246
_cell_angle_beta   101.74392011
_cell_angle_gamma   101.74392011
_symmetry_Int_Tables_number   1
_chemical_formula_structural   KFeSeS
_chemical_formula_sum   'K2 Fe2 Se2 S2'
_cell_volume   212.21683950
_cell_formula_units_Z   2
loop_
 _symmetry_equiv_pos_site_id
 _symmetry_equiv_pos_as_xyz
  1  'x, y, z'
loop_
 _atom_site_type_symbol
 _atom_site_label
 _atom_site_symmetry_multiplicity
 _atom_site_fract_x
 _atom_site_fract_y
 _atom_site_fract_z
 _atom_site_occupancy
  K  K0  1  0.25000000  0.35807177  0.64192823  1
  K  K1  1  0.75000000  0.63871778  0.36128222  1
  Fe  Fe2  1  0.25000000  0.00328123  0.99671877  1
  Fe  Fe3  1  0.75000000  0.00554107  0.99445893  1
  Se  Se4  1  0.60292364  0.08863570  0.31106992  1
  Se  Se5  1  0.89707636  0.68893008  0.91136430  1
  S  S6  1  0.40684495  0.92783764  0.71101527  1
  S  S7  1  0.09315505  0.28898473  0.07216236  1
