# generated using pymatgen
data_LaCoSbPbO6
_symmetry_space_group_name_H-M   'P 1'
_cell_length_a   5.70885208
_cell_length_b   5.77928178
_cell_length_c   8.09459626
_cell_angle_alpha   90.00000000
_cell_angle_beta   89.95764422
_cell_angle_gamma   90.00000000
_symmetry_Int_Tables_number   1
_chemical_formula_structural   LaCoSbPbO6
_chemical_formula_sum   'La2 Co2 Sb2 Pb2 O12'
_cell_volume   267.06546612
_cell_formula_units_Z   2
loop_
 _symmetry_equiv_pos_site_id
 _symmetry_equiv_pos_as_xyz
  1  'x, y, z'
loop_
 _atom_site_type_symbol
 _atom_site_label
 _atom_site_symmetry_multiplicity
 _atom_site_fract_x
 _atom_site_fract_y
 _atom_site_fract_z
 _atom_site_occupancy
  La  La0  1  0.50786269  0.45589601  0.75229319  1
  La  La1  1  0.00786269  0.04410399  0.25229319  1
  Co  Co2  1  0.00058336  0.51054196  0.50246999  1
  Co  Co3  1  0.50058336  0.98945804  0.00246999  1
  Sb  Sb4  1  0.00049254  0.50612643  0.99948827  1
  Sb  Sb5  1  0.50049254  0.99387357  0.49948827  1
  Pb  Pb6  1  0.49817421  0.51173967  0.25320936  1
  Pb  Pb7  1  0.99817421  0.98826033  0.75320936  1
  O  O8  1  0.58530391  0.98900152  0.25648358  1
  O  O9  1  0.08530391  0.51099848  0.75648358  1
  O  O10  1  0.43937760  0.02901469  0.74392658  1
  O  O11  1  0.93937760  0.47098531  0.24392658  1
  O  O12  1  0.20980128  0.80509304  0.45698040  1
  O  O13  1  0.70980128  0.69490696  0.95698040  1
  O  O14  1  0.77889497  0.20546494  0.52969026  1
  O  O15  1  0.27889497  0.29453506  0.02969026  1
  O  O16  1  0.29130112  0.27365299  0.46318280  1
  O  O17  1  0.79130112  0.22634701  0.96318280  1
  O  O18  1  0.68820833  0.70500894  0.54227556  1
  O  O19  1  0.18820833  0.79499106  0.04227556  1
