# generated using pymatgen
data_La6MnSb15
_symmetry_space_group_name_H-M   'P 1'
_cell_length_a   4.49019966
_cell_length_b   12.57556411
_cell_length_c   12.57556411
_cell_angle_alpha   78.20152981
_cell_angle_beta   100.31926024
_cell_angle_gamma   79.68073976
_symmetry_Int_Tables_number   1
_chemical_formula_structural   La6MnSb15
_chemical_formula_sum   'La6 Mn1 Sb15'
_cell_volume   666.47223987
_cell_formula_units_Z   1
loop_
 _symmetry_equiv_pos_site_id
 _symmetry_equiv_pos_as_xyz
  1  'x, y, z'
loop_
 _atom_site_type_symbol
 _atom_site_label
 _atom_site_symmetry_multiplicity
 _atom_site_fract_x
 _atom_site_fract_y
 _atom_site_fract_z
 _atom_site_occupancy
  La  La0  1  0.04892676  0.72832126  0.00032791  1
  La  La1  1  0.77841909  0.27431587  0.99727637  1
  La  La2  1  0.77841909  0.00272363  0.72568413  1
  La  La3  1  0.04892676  0.99967209  0.27167874  1
  La  La4  1  0.91338226  0.67392743  0.67670239  1
  La  La5  1  0.91338226  0.32329761  0.32607257  1
  Mn  Mn6  1  0.19212573  0.72102927  0.27897073  1
  Sb  Sb7  1  0.80512858  0.60858245  0.39141755  1
  Sb  Sb8  1  0.00623243  0.40456823  0.59543177  1
  Sb  Sb9  1  0.12518440  0.48610538  0.91314173  1
  Sb  Sb10  1  0.69322373  0.51288552  0.07748086  1
  Sb  Sb11  1  0.69322373  0.92251914  0.48711448  1
  Sb  Sb12  1  0.12518440  0.08685827  0.51389462  1
  Sb  Sb13  1  0.26542908  0.52509872  0.23457584  1
  Sb  Sb14  1  0.55932514  0.45698169  0.75229270  1
  Sb  Sb15  1  0.55932514  0.24770730  0.54301831  1
  Sb  Sb16  1  0.26542908  0.76542416  0.47490128  1
  Sb  Sb17  1  0.58275674  0.82727986  0.17272014  1
  Sb  Sb18  1  0.28729175  0.14476569  0.85523431  1
  Sb  Sb19  1  0.41420269  0.79976928  0.80027723  1
  Sb  Sb20  1  0.41420269  0.19972277  0.20023072  1
  Sb  Sb21  1  0.93007844  0.01124437  0.98875563  1
