# generated using pymatgen
data_Cd3(BiO2)10
_symmetry_space_group_name_H-M   'P 1'
_cell_length_a   8.92502380
_cell_length_b   8.92502383
_cell_length_c   8.83868160
_cell_angle_alpha   108.88742490
_cell_angle_beta   108.63421548
_cell_angle_gamma   111.28380429
_symmetry_Int_Tables_number   1
_chemical_formula_structural   Cd3(BiO2)10
_chemical_formula_sum   'Cd3 Bi10 O20'
_cell_volume   539.08014642
_cell_formula_units_Z   1
loop_
 _symmetry_equiv_pos_site_id
 _symmetry_equiv_pos_as_xyz
  1  'x, y, z'
loop_
 _atom_site_type_symbol
 _atom_site_label
 _atom_site_symmetry_multiplicity
 _atom_site_fract_x
 _atom_site_fract_y
 _atom_site_fract_z
 _atom_site_occupancy
  Cd  Cd0  1  0.99969722  0.99969722  0.00000000  1
  Cd  Cd1  1  0.32055661  0.18949655  0.49664895  1
  Cd  Cd2  1  0.69284760  0.82390766  0.50335105  1
  Bi  Bi3  1  0.18082709  0.86217102  0.68850614  1
  Bi  Bi4  1  0.13310270  0.32259164  0.82380601  1
  Bi  Bi5  1  0.17366488  0.49232095  0.31149386  1
  Bi  Bi6  1  0.33926359  0.84015194  0.16962545  1
  Bi  Bi7  1  0.50260574  0.67872731  0.81365322  1
  Bi  Bi8  1  0.49878562  0.30929669  0.17619399  1
  Bi  Bi9  1  0.67052649  0.16963814  0.83037455  1
  Bi  Bi10  1  0.81435259  0.51717760  0.67479941  1
  Bi  Bi11  1  0.86507409  0.68895252  0.18634678  1
  Bi  Bi12  1  0.84237819  0.13955318  0.32520059  1
  O  O13  1  0.00208651  0.01246537  0.74685823  1
  O  O14  1  0.25597466  0.63176700  0.90597123  1
  O  O15  1  0.98251977  0.73793539  0.00060504  1
  O  O16  1  0.11725601  0.72994705  0.35664131  1
  O  O17  1  0.00182369  0.35129973  0.00137365  1
  O  O18  1  0.37330573  0.76061470  0.64335869  1
  O  O19  1  0.24797142  0.38825272  0.63000680  1
  O  O20  1  0.36703504  0.10944103  0.72268219  1
  O  O21  1  0.26560714  0.25522829  0.25314177  1
  O  O22  1  0.38675884  0.64435284  0.27731781  1
  O  O23  1  0.64462496  0.64892716  0.65038167  1
  O  O24  1  0.62313524  0.88888851  0.25472803  1
  O  O25  1  0.63416048  0.36840721  0.74527197  1
  O  O26  1  0.34992608  0.00045004  0.99862635  1
  O  O27  1  0.61905980  0.25675783  0.38160318  1
  O  O28  1  0.75824592  0.61796462  0.36999320  1
  O  O29  1  0.72579577  0.35000344  0.09402877  1
  O  O30  1  0.87515465  0.23745662  0.61839682  1
  O  O31  1  0.73733034  0.98191473  0.99939496  1
  O  O32  1  0.99854550  0.99424329  0.34961833  1
