# generated using pymatgen
data_La2SbAu3
_symmetry_space_group_name_H-M   'P 1'
_cell_length_a   3.98289337
_cell_length_b   4.66031071
_cell_length_c   8.46835447
_cell_angle_alpha   90.01306173
_cell_angle_beta   90.00000000
_cell_angle_gamma   90.00000000
_symmetry_Int_Tables_number   1
_chemical_formula_structural   La2SbAu3
_chemical_formula_sum   'La2 Sb1 Au3'
_cell_volume   157.18553217
_cell_formula_units_Z   1
loop_
 _symmetry_equiv_pos_site_id
 _symmetry_equiv_pos_as_xyz
  1  'x, y, z'
loop_
 _atom_site_type_symbol
 _atom_site_label
 _atom_site_symmetry_multiplicity
 _atom_site_fract_x
 _atom_site_fract_y
 _atom_site_fract_z
 _atom_site_occupancy
  La  La0  1  0.00000000  0.99994530  0.99135208  1
  La  La1  1  -0.00000000  0.49999021  0.50954852  1
  Sb  Sb2  1  0.50000000  0.00000756  0.33593908  1
  Au  Au3  1  0.50000000  0.50004858  0.83622180  1
  Au  Au4  1  0.50000000  0.49989345  0.16067025  1
  Au  Au5  1  0.50000000  0.99991488  0.66626827  1
