# generated using pymatgen
data_InGa4Sb5
_symmetry_space_group_name_H-M   'P 1'
_cell_length_a   4.47751273
_cell_length_b   4.47751274
_cell_length_c   18.36346523
_cell_angle_alpha   90.00000000
_cell_angle_beta   97.00255719
_cell_angle_gamma   119.99999995
_symmetry_Int_Tables_number   1
_chemical_formula_structural   InGa4Sb5
_chemical_formula_sum   'In1 Ga4 Sb5'
_cell_volume   315.65484250
_cell_formula_units_Z   1
loop_
 _symmetry_equiv_pos_site_id
 _symmetry_equiv_pos_as_xyz
  1  'x, y, z'
loop_
 _atom_site_type_symbol
 _atom_site_label
 _atom_site_symmetry_multiplicity
 _atom_site_fract_x
 _atom_site_fract_y
 _atom_site_fract_z
 _atom_site_occupancy
  In  In0  1  0.20092669  0.60046334  0.80139003  1
  Ga  Ga1  1  0.00237828  0.00118914  0.00356741  1
  Ga  Ga2  1  0.80033628  0.40016814  0.20050442  1
  Ga  Ga3  1  0.59948889  0.79974444  0.39923333  1
  Ga  Ga4  1  0.39701441  0.19850720  0.59552161  1
  Sb  Sb5  1  0.10121876  0.05060938  0.15182813  1
  Sb  Sb6  1  0.90002151  0.45001075  0.35003226  1
  Sb  Sb7  1  0.69865107  0.84932553  0.54797660  1
  Sb  Sb8  1  0.49499917  0.24749958  0.74249875  1
  Sb  Sb9  1  0.30496496  0.65248248  0.95744744  1
