# generated using pymatgen
data_Ho6Ag(GeS7)2
_symmetry_space_group_name_H-M   'P 1'
_cell_length_a   5.83463588
_cell_length_b   9.80897369
_cell_length_c   9.79535406
_cell_angle_alpha   119.97194514
_cell_angle_beta   90.00491432
_cell_angle_gamma   89.95970613
_symmetry_Int_Tables_number   1
_chemical_formula_structural   Ho6Ag(GeS7)2
_chemical_formula_sum   'Ho6 Ag1 Ge2 S14'
_cell_volume   485.63577900
_cell_formula_units_Z   1
loop_
 _symmetry_equiv_pos_site_id
 _symmetry_equiv_pos_as_xyz
  1  'x, y, z'
loop_
 _atom_site_type_symbol
 _atom_site_label
 _atom_site_symmetry_multiplicity
 _atom_site_fract_x
 _atom_site_fract_y
 _atom_site_fract_z
 _atom_site_occupancy
  Ho  Ho0  1  0.25641307  0.78056895  0.64276064  1
  Ho  Ho1  1  0.25592431  0.35758929  0.13817100  1
  Ho  Ho2  1  0.25653890  0.86199618  0.21916831  1
  Ho  Ho3  1  0.75603116  0.21974601  0.35706992  1
  Ho  Ho4  1  0.75573582  0.64263550  0.86239911  1
  Ho  Ho5  1  0.75608584  0.13777370  0.78050064  1
  Ag  Ag6  1  0.53488591  0.99988678  0.99984037  1
  Ge  Ge7  1  0.17937381  0.33339695  0.66660763  1
  Ge  Ge8  1  0.67602006  0.66656807  0.33331983  1
  S  S9  1  0.80020078  0.84231229  0.74055321  1
  S  S10  1  0.80149955  0.26021861  0.10217878  1
  S  S11  1  0.79990784  0.89836128  0.15764905  1
  S  S12  1  0.30462631  0.15723133  0.26298828  1
  S  S13  1  0.30400662  0.73622412  0.89395483  1
  S  S14  1  0.30483445  0.10576820  0.84299625  1
  S  S15  1  0.51355729  0.90384077  0.47927261  1
  S  S16  1  0.51333113  0.52082121  0.42484423  1
  S  S17  1  0.51340231  0.57541703  0.09598065  1
  S  S18  1  0.01721353  0.09586295  0.52035796  1
  S  S19  1  0.01665718  0.47949345  0.57523313  1
  S  S20  1  0.01681438  0.42417758  0.90408261  1
  S  S21  1  0.55927129  0.33318109  0.66666358  1
  S  S22  1  0.05576845  0.66692865  0.33340737  1
