# generated using pymatgen
data_K2Fe9H18S6O43
_symmetry_space_group_name_H-M   'P 1'
_cell_length_a   7.41528718
_cell_length_b   10.40844300
_cell_length_c   12.57593072
_cell_angle_alpha   113.17959537
_cell_angle_beta   72.85321921
_cell_angle_gamma   90.00000000
_symmetry_Int_Tables_number   1
_chemical_formula_structural   K2Fe9H18S6O43
_chemical_formula_sum   'K2 Fe9 H18 S6 O43'
_cell_volume   845.14453545
_cell_formula_units_Z   1
loop_
 _symmetry_equiv_pos_site_id
 _symmetry_equiv_pos_as_xyz
  1  'x, y, z'
loop_
 _atom_site_type_symbol
 _atom_site_label
 _atom_site_symmetry_multiplicity
 _atom_site_fract_x
 _atom_site_fract_y
 _atom_site_fract_z
 _atom_site_occupancy
  K  K0  1  0.66684951  0.33234405  0.66630198  1
  K  K1  1  0.33315049  0.66765595  0.33369802  1
  Fe  Fe2  1  0.66796393  0.83393652  0.16530893  1
  Fe  Fe3  1  -0.00000000  0.50000000  0.50000000  1
  Fe  Fe4  1  0.33203507  0.16606348  0.83469107  1
  Fe  Fe5  1  0.50000000  0.50000000  -0.00000000  1
  Fe  Fe6  1  0.83431631  0.16631038  0.33136738  1
  Fe  Fe7  1  0.16568369  0.83368962  0.66863362  1
  Fe  Fe8  1  0.83327287  0.16606348  0.83469107  1
  Fe  Fe9  1  0.16672713  0.83393652  0.16530893  1
  Fe  Fe10  1  0.50000000  0.50000000  0.50000000  1
  H  H11  1  0.14625487  0.57391868  0.12416811  1
  H  H12  1  0.48071938  0.23949755  0.45712633  1
  H  H13  1  0.81575913  0.90815106  0.79817967  1
  H  H14  1  0.00619743  0.28633129  0.98760513  1
  H  H15  1  0.34137864  0.96130213  0.31724171  1
  H  H16  1  0.67379885  0.62889601  0.65240329  1
  H  H17  1  0.72957602  0.57391868  0.12416811  1
  H  H18  1  0.06215529  0.23949755  0.45712633  1
  H  H19  1  0.38606121  0.90815106  0.79817967  1
  H  H20  1  0.85374513  0.42608132  0.87583189  1
  H  H21  1  0.18424087  0.09184894  0.20182033  1
  H  H22  1  0.51928062  0.76050245  0.54287367  1
  H  H23  1  0.99380257  0.71366871  0.01239487  1
  H  H24  1  0.32620115  0.37110399  0.34759671  1
  H  H25  1  0.65862136  0.03869787  0.68275829  1
  H  H26  1  0.27042398  0.42608132  0.87583189  1
  H  H27  1  0.61393879  0.09184894  0.20182033  1
  H  H28  1  0.93784471  0.76050245  0.54287367  1
  S  S29  1  0.86878929  0.43576338  0.26242242  1
  S  S30  1  0.20254922  0.10137416  0.59490156  1
  S  S31  1  0.53593514  0.76690977  0.92812872  1
  S  S32  1  0.13121071  0.56423662  0.73757758  1
  S  S33  1  0.46406486  0.23309023  0.07187128  1
  S  S34  1  0.79745078  0.89862584  0.40509844  1
  O  O35  1  0.99620682  0.50020328  0.33696323  1
  O  O36  1  0.32993812  0.16489604  0.66953419  1
  O  O37  1  0.66316126  0.82976307  0.00267515  1
  O  O38  1  0.88560904  0.28093588  0.22878292  1
  O  O39  1  0.22002413  0.94558836  0.55995175  1
  O  O40  1  0.55393359  0.61060413  0.89213182  1
  O  O41  1  0.66682995  0.50020328  0.33696323  1
  O  O42  1  0.00052669  0.16489604  0.66953419  1
  O  O43  1  0.33416459  0.82976307  0.00267515  1
  O  O44  1  0.00379318  0.49979672  0.66303677  1
  O  O45  1  0.33683874  0.17023693  0.99732485  1
  O  O46  1  0.67006188  0.83510396  0.33046581  1
  O  O47  1  0.11439096  0.71906412  0.77121708  1
  O  O48  1  0.44606641  0.38939587  0.10786818  1
  O  O49  1  0.77997587  0.05441164  0.44004825  1
  O  O50  1  0.33317005  0.49979672  0.66303677  1
  O  O51  1  0.66583541  0.17023693  0.99732485  1
  O  O52  1  0.99947331  0.83510396  0.33046581  1
  O  O53  1  0.25414365  0.62679316  0.11005244  1
  O  O54  1  0.58721577  0.29371310  0.44348237  1
  O  O55  1  0.91877878  0.95985186  0.77275146  1
  O  O56  1  0.04948940  0.22041621  0.90102019  1
  O  O57  1  0.38159395  0.88097357  0.23681310  1
  O  O58  1  0.71421143  0.54913264  0.57157713  1
  O  O59  1  0.63580491  0.62679316  0.11005244  1
  O  O60  1  0.96930186  0.29371310  0.44348237  1
  O  O61  1  0.30846876  0.95985186  0.77275146  1
  O  O62  1  0.74585635  0.37320684  0.88994756  1
  O  O63  1  0.08122122  0.04014814  0.22724854  1
  O  O64  1  0.41278423  0.70628690  0.55651763  1
  O  O65  1  0.95051060  0.77958379  0.09897981  1
  O  O66  1  0.28578857  0.45086736  0.42842287  1
  O  O67  1  0.61840605  0.11902643  0.76318690  1
  O  O68  1  0.36419509  0.37320684  0.88994756  1
  O  O69  1  0.69153124  0.04014814  0.22724854  1
  O  O70  1  0.03069814  0.70628690  0.55651763  1
  O  O71  1  0.92425952  0.46256900  0.15148095  1
  O  O72  1  0.25778382  0.12905251  0.48443137  1
  O  O73  1  0.59098766  0.79498887  0.81802568  1
  O  O74  1  0.07574048  0.53743100  0.84851905  1
  O  O75  1  0.40901234  0.20501113  0.18197432  1
  O  O76  1  0.74221618  0.87094749  0.51556863  1
  O  O77  1  -0.00000000  -0.00000000  -0.00000000  1
