# generated using pymatgen
data_Fe23(BC)3
_symmetry_space_group_name_H-M   'P 1'
_cell_length_a   7.44783292
_cell_length_b   7.44783292
_cell_length_c   7.44630229
_cell_angle_alpha   90.00000000
_cell_angle_beta   59.99320007
_cell_angle_gamma   120.00000000
_symmetry_Int_Tables_number   1
_chemical_formula_structural   Fe23(BC)3
_chemical_formula_sum   'Fe23 B3 C3'
_cell_volume   292.03901208
_cell_formula_units_Z   1
loop_
 _symmetry_equiv_pos_site_id
 _symmetry_equiv_pos_as_xyz
  1  'x, y, z'
loop_
 _atom_site_type_symbol
 _atom_site_label
 _atom_site_symmetry_multiplicity
 _atom_site_fract_x
 _atom_site_fract_y
 _atom_site_fract_z
 _atom_site_occupancy
  Fe  Fe0  1  0.00079099  0.00039549  0.65440164  1
  Fe  Fe1  1  0.34520287  0.34480737  0.65440164  1
  Fe  Fe2  1  0.34520287  0.00039549  0.65440164  1
  Fe  Fe3  1  0.00054191  0.34103866  0.00315889  1
  Fe  Fe4  1  0.65580245  0.99629921  0.00315889  1
  Fe  Fe5  1  0.66351618  0.00020786  0.33627596  1
  Fe  Fe6  1  0.00054191  0.65950325  0.00315889  1
  Fe  Fe7  1  0.66351618  0.66330832  0.33627596  1
  Fe  Fe8  1  0.65580245  0.65950325  0.00315889  1
  Fe  Fe9  1  0.00041572  0.00020786  0.33627596  1
  Fe  Fe10  1  0.33733787  0.99629921  0.00315889  1
  Fe  Fe11  1  0.33733787  0.34103866  0.00315889  1
  Fe  Fe12  1  0.76089226  0.38044613  0.85866161  1
  Fe  Fe13  1  0.23523751  0.38460537  0.38015713  1
  Fe  Fe14  1  0.23523751  0.85063214  0.38015713  1
  Fe  Fe15  1  0.76921073  0.38460537  0.38015713  1
  Fe  Fe16  1  0.23171168  0.61585584  0.15243248  1
  Fe  Fe17  1  0.76544538  0.61987414  0.61468048  1
  Fe  Fe18  1  0.76544538  0.14557124  0.61468048  1
  Fe  Fe19  1  0.23974828  0.61987414  0.61468048  1
  Fe  Fe20  1  0.00818043  0.00409022  0.98772935  1
  Fe  Fe21  1  0.49785778  0.24892889  0.25321332  1
  Fe  Fe22  1  0.49833876  0.74916938  0.75249186  1
  B  B23  1  0.55025360  0.27512680  0.72624385  1
  B  B24  1  0.99862935  0.72350256  0.72624385  1
  B  B25  1  0.99862935  0.27512680  0.72624385  1
  C  C26  1  0.44244558  0.72122279  0.28041364  1
  C  C27  1  0.99836357  0.27714078  0.28041364  1
  C  C28  1  0.99836357  0.72122279  0.28041364  1
