# generated using pymatgen
data_K2Bi8Se13
_symmetry_space_group_name_H-M   'P 1'
_cell_length_a   4.24684683
_cell_length_b   17.78375051
_cell_length_c   18.83415319
_cell_angle_alpha   92.61949731
_cell_angle_beta   90.00000000
_cell_angle_gamma   90.00000000
_symmetry_Int_Tables_number   1
_chemical_formula_structural   K2Bi8Se13
_chemical_formula_sum   'K4 Bi16 Se26'
_cell_volume   1420.96051758
_cell_formula_units_Z   2
loop_
 _symmetry_equiv_pos_site_id
 _symmetry_equiv_pos_as_xyz
  1  'x, y, z'
loop_
 _atom_site_type_symbol
 _atom_site_label
 _atom_site_symmetry_multiplicity
 _atom_site_fract_x
 _atom_site_fract_y
 _atom_site_fract_z
 _atom_site_occupancy
  K  K0  1  0.75000000  0.48956754  0.14811492  1
  K  K1  1  0.25000000  0.51043246  0.85188508  1
  K  K2  1  0.75000000  0.75078789  0.22952285  1
  K  K3  1  0.25000000  0.24921211  0.77047715  1
  Bi  Bi4  1  0.25000000  0.66759001  0.03285388  1
  Bi  Bi5  1  0.75000000  0.33240999  0.96714612  1
  Bi  Bi6  1  0.25000000  0.98498698  0.74572647  1
  Bi  Bi7  1  0.75000000  0.01501302  0.25427353  1
  Bi  Bi8  1  0.75000000  0.10666860  0.51735956  1
  Bi  Bi9  1  0.25000000  0.89333140  0.48264044  1
  Bi  Bi10  1  0.75000000  0.07942746  0.92954038  1
  Bi  Bi11  1  0.25000000  0.92057254  0.07045962  1
  Bi  Bi12  1  0.75000000  0.50825556  0.60026614  1
  Bi  Bi13  1  0.25000000  0.49174444  0.39973386  1
  Bi  Bi14  1  0.25000000  0.30699351  0.54919487  1
  Bi  Bi15  1  0.75000000  0.69300649  0.45080513  1
  Bi  Bi16  1  0.75000000  0.82610738  0.87057340  1
  Bi  Bi17  1  0.25000000  0.17389262  0.12942660  1
  Bi  Bi18  1  0.25000000  0.72247770  0.67980145  1
  Bi  Bi19  1  0.75000000  0.27752230  0.32019855  1
  Se  Se20  1  0.25000000  0.63124091  0.16637355  1
  Se  Se21  1  0.75000000  0.36875909  0.83362645  1
  Se  Se22  1  0.75000000  0.09451409  0.78037067  1
  Se  Se23  1  0.25000000  0.90548591  0.21962933  1
  Se  Se24  1  0.75000000  0.04809106  0.09771866  1
  Se  Se25  1  0.25000000  0.95190894  0.90228134  1
  Se  Se26  1  0.75000000  0.22932794  0.62218857  1
  Se  Se27  1  0.25000000  0.77067206  0.37781143  1
  Se  Se28  1  0.75000000  0.86329846  0.72818867  1
  Se  Se29  1  0.25000000  0.13670154  0.27181133  1
  Se  Se30  1  0.25000000  0.43459448  0.66983678  1
  Se  Se31  1  0.75000000  0.56540552  0.33016322  1
  Se  Se32  1  0.75000000  0.57501031  0.98632589  1
  Se  Se33  1  0.25000000  0.42498969  0.01367411  1
  Se  Se34  1  0.25000000  0.02799796  0.59445982  1
  Se  Se35  1  0.75000000  0.97200204  0.40554018  1
  Se  Se36  1  0.75000000  0.62175491  0.71334289  1
  Se  Se37  1  0.25000000  0.37824509  0.28665711  1
  Se  Se38  1  0.25000000  0.72176268  0.83442093  1
  Se  Se39  1  0.75000000  0.27823732  0.16557907  1
  Se  Se40  1  0.75000000  0.38719554  0.46633180  1
  Se  Se41  1  0.25000000  0.61280446  0.53366820  1
  Se  Se42  1  0.25000000  0.19103505  0.43988359  1
  Se  Se43  1  0.75000000  0.80896495  0.56011641  1
  Se  Se44  1  0.25000000  0.18550937  0.95457711  1
  Se  Se45  1  0.75000000  0.81449063  0.04542289  1
