# generated using pymatgen
data_HfAlCo
_symmetry_space_group_name_H-M   'P 1'
_cell_length_a   5.09011323
_cell_length_b   5.09004628
_cell_length_c   8.09300757
_cell_angle_alpha   90.00000000
_cell_angle_beta   90.00000000
_cell_angle_gamma   60.84669974
_symmetry_Int_Tables_number   1
_chemical_formula_structural   HfAlCo
_chemical_formula_sum   'Hf4 Al4 Co4'
_cell_volume   183.11850782
_cell_formula_units_Z   4
loop_
 _symmetry_equiv_pos_site_id
 _symmetry_equiv_pos_as_xyz
  1  'x, y, z'
loop_
 _atom_site_type_symbol
 _atom_site_label
 _atom_site_symmetry_multiplicity
 _atom_site_fract_x
 _atom_site_fract_y
 _atom_site_fract_z
 _atom_site_occupancy
  Hf  Hf0  1  0.33396421  0.33396691  0.54347906  1
  Hf  Hf1  1  0.67010030  0.67009809  0.42444020  1
  Hf  Hf2  1  0.67010030  0.67009809  0.07555980  1
  Hf  Hf3  1  0.33396421  0.33396691  0.95652094  1
  Al  Al4  1  0.99417732  0.99411642  0.48466500  1
  Al  Al5  1  0.99417732  0.99411642  0.01533500  1
  Al  Al6  1  0.83171417  0.34364944  0.75000000  1
  Al  Al7  1  0.34364674  0.83169136  0.75000000  1
  Co  Co8  1  0.83157777  0.83160040  0.75000000  1
  Co  Co9  1  0.17335761  0.65277822  0.25000000  1
  Co  Co10  1  0.65271175  0.17338828  0.25000000  1
  Co  Co11  1  0.17050829  0.17052946  0.25000000  1
