# generated using pymatgen
data_K4V4As6H12O31
_symmetry_space_group_name_H-M   'P 1'
_cell_length_a   6.69193538
_cell_length_b   9.28934372
_cell_length_c   13.02720654
_cell_angle_alpha   106.72907251
_cell_angle_beta   99.25598182
_cell_angle_gamma   102.78929605
_symmetry_Int_Tables_number   1
_chemical_formula_structural   K4V4As6H12O31
_chemical_formula_sum   'K4 V4 As6 H12 O31'
_cell_volume   734.11440798
_cell_formula_units_Z   1
loop_
 _symmetry_equiv_pos_site_id
 _symmetry_equiv_pos_as_xyz
  1  'x, y, z'
loop_
 _atom_site_type_symbol
 _atom_site_label
 _atom_site_symmetry_multiplicity
 _atom_site_fract_x
 _atom_site_fract_y
 _atom_site_fract_z
 _atom_site_occupancy
  K  K0  1  0.24504245  0.21757966  0.91624781  1
  K  K1  1  0.75514518  0.78571183  0.08571948  1
  K  K2  1  0.07284677  0.79757163  0.66214204  1
  K  K3  1  0.91018437  0.21396258  0.35336400  1
  V  V4  1  0.83464865  0.12339879  0.64203086  1
  V  V5  1  0.16086730  0.87587099  0.35734857  1
  V  V6  1  0.50327541  0.44453883  0.22518238  1
  V  V7  1  0.49666759  0.55303965  0.77653502  1
  As  As8  1  0.68678570  0.96148504  0.85647501  1
  As  As9  1  0.31087805  0.03843586  0.14483756  1
  As  As10  1  0.32913391  0.17458028  0.60252519  1
  As  As11  1  0.66971070  0.82387769  0.39789417  1
  As  As12  1  0.98980819  0.50856471  0.79409401  1
  As  As13  1  0.00963798  0.49146788  0.20320634  1
  H  H14  1  0.56097322  0.75918937  0.58766503  1
  H  H15  1  0.42769325  0.23078384  0.40159117  1
  H  H16  1  0.48691641  0.06190067  0.75131892  1
  H  H17  1  0.51179230  0.93781955  0.24886179  1
  H  H18  1  0.86640746  0.43802682  0.01558221  1
  H  H19  1  0.13485352  0.56208078  0.98135777  1
  H  H20  1  0.15858838  0.80989786  0.98855188  1
  H  H21  1  0.83912764  0.18893672  0.01254603  1
  H  H22  1  0.56800540  0.59252535  0.58457118  1
  H  H23  1  0.44887239  0.40473833  0.41823144  1
  H  H24  1  0.19238503  0.55631687  0.52528860  1
  H  H25  1  0.99795239  0.56335891  0.44623939  1
  O  O26  1  0.95454842  0.38946361  0.05465997  1
  O  O27  1  0.04235719  0.60875033  0.94317047  1
  O  O28  1  0.38095620  0.21552990  0.12836488  1
  O  O29  1  0.61617516  0.78303640  0.87056295  1
  O  O30  1  0.19917478  0.92550788  0.00423743  1
  O  O31  1  0.79881731  0.07331624  0.99702302  1
  O  O32  1  0.15719279  0.78782022  0.45002055  1
  O  O33  1  0.82837647  0.20731577  0.54802617  1
  O  O34  1  0.78948536  0.57177742  0.74283606  1
  O  O35  1  0.21145666  0.43242862  0.25693828  1
  O  O36  1  0.13279462  0.10165550  0.65983741  1
  O  O37  1  0.86415517  0.89954016  0.34047362  1
  O  O38  1  0.94627715  0.31788427  0.78631837  1
  O  O39  1  0.05068842  0.68252255  0.21160557  1
  O  O40  1  0.61945000  0.62499369  0.36513473  1
  O  O41  1  0.38731416  0.37375329  0.63659458  1
  O  O42  1  0.20962453  0.59283511  0.75936473  1
  O  O43  1  0.79478785  0.40978919  0.24286382  1
  O  O44  1  0.50588806  0.47717244  0.87617176  1
  O  O45  1  0.49667121  0.52118134  0.12571494  1
  O  O46  1  0.72536023  0.89134410  0.54031385  1
  O  O47  1  0.27206549  0.10549719  0.46034238  1
  O  O48  1  0.48930087  0.66801358  0.60765938  1
  O  O49  1  0.49872075  0.31887781  0.37895381  1
  O  O50  1  0.85282323  0.99682655  0.77544260  1
  O  O51  1  0.14577825  0.00201160  0.22606646  1
  O  O52  1  0.46129183  0.01802472  0.81633477  1
  O  O53  1  0.53774640  0.98327214  0.18537515  1
  O  O54  1  0.53206030  0.11315314  0.66132651  1
  O  O55  1  0.46351939  0.88213993  0.33923586  1
  O  O56  1  0.03844209  0.51100480  0.49832208  1
