# generated using pymatgen
data_Ho6Pb2Se11
_symmetry_space_group_name_H-M   'P 1'
_cell_length_a   4.07892431
_cell_length_b   7.06230038
_cell_length_c   38.19957387
_cell_angle_alpha   90.00000000
_cell_angle_beta   90.00000000
_cell_angle_gamma   73.21498005
_symmetry_Int_Tables_number   1
_chemical_formula_structural   Ho6Pb2Se11
_chemical_formula_sum   'Ho12 Pb4 Se22'
_cell_volume   1053.51693164
_cell_formula_units_Z   2
loop_
 _symmetry_equiv_pos_site_id
 _symmetry_equiv_pos_as_xyz
  1  'x, y, z'
loop_
 _atom_site_type_symbol
 _atom_site_label
 _atom_site_symmetry_multiplicity
 _atom_site_fract_x
 _atom_site_fract_y
 _atom_site_fract_z
 _atom_site_occupancy
  Ho  Ho0  1  0.75234224  0.49531552  0.31895369  1
  Ho  Ho1  1  0.24463030  0.51073940  0.68123358  1
  Ho  Ho2  1  0.75536970  0.48926060  0.18123358  1
  Ho  Ho3  1  0.24765776  0.50468448  0.81895369  1
  Ho  Ho4  1  0.97380670  0.05238659  0.86584817  1
  Ho  Ho5  1  0.02589604  0.94820793  0.13273805  1
  Ho  Ho6  1  0.97410396  0.05179207  0.63273805  1
  Ho  Ho7  1  0.02619330  0.94761341  0.36584817  1
  Ho  Ho8  1  0.99881491  0.00237019  0.50088677  1
  Ho  Ho9  1  0.00118509  0.99762981  0.00088677  1
  Ho  Ho10  1  0.26884025  0.46231951  0.05677073  1
  Ho  Ho11  1  0.73115975  0.53768049  0.55677073  1
  Pb  Pb12  1  0.48437799  0.03124402  0.25121337  1
  Pb  Pb13  1  0.51562201  0.96875598  0.75121337  1
  Pb  Pb14  1  0.72654178  0.54691643  0.94243698  1
  Pb  Pb15  1  0.27345822  0.45308357  0.44243698  1
  Se  Se16  1  0.87927523  0.24144954  0.79911158  1
  Se  Se17  1  0.12197270  0.75605460  0.19817841  1
  Se  Se18  1  0.87802730  0.24394540  0.69817841  1
  Se  Se19  1  0.12072477  0.75855046  0.29911158  1
  Se  Se20  1  0.92826087  0.14347827  0.43202942  1
  Se  Se21  1  0.08783665  0.82432671  0.56974481  1
  Se  Se22  1  0.91216335  0.17567329  0.06974481  1
  Se  Se23  1  0.07173913  0.85652173  0.93202942  1
  Se  Se24  1  0.83076662  0.33846676  0.24949466  1
  Se  Se25  1  0.16923338  0.66153324  0.74949466  1
  Se  Se26  1  0.39571163  0.20857675  0.33672842  1
  Se  Se27  1  0.60269754  0.79460491  0.66086174  1
  Se  Se28  1  0.39730246  0.20539509  0.16086174  1
  Se  Se29  1  0.60428837  0.79142325  0.83672842  1
  Se  Se30  1  0.63772306  0.72455387  0.48911592  1
  Se  Se31  1  0.35243207  0.29513585  0.51832602  1
  Se  Se32  1  0.64756793  0.70486415  0.01832602  1
  Se  Se33  1  0.36227694  0.27544613  0.98911592  1
  Se  Se34  1  0.65767046  0.68465908  0.38575345  1
  Se  Se35  1  0.33678949  0.32642102  0.61057423  1
  Se  Se36  1  0.66321051  0.67357898  0.11057423  1
  Se  Se37  1  0.34232954  0.31534092  0.88575345  1
