# generated using pymatgen
data_K2InMo15Se19
_symmetry_space_group_name_H-M   'P 1'
_cell_length_a   9.94705960
_cell_length_b   10.03860547
_cell_length_c   19.90958290
_cell_angle_alpha   90.00000000
_cell_angle_beta   90.00000000
_cell_angle_gamma   59.79349628
_symmetry_Int_Tables_number   1
_chemical_formula_structural   K2InMo15Se19
_chemical_formula_sum   'K4 In2 Mo30 Se38'
_cell_volume   1718.11972627
_cell_formula_units_Z   2
loop_
 _symmetry_equiv_pos_site_id
 _symmetry_equiv_pos_as_xyz
  1  'x, y, z'
loop_
 _atom_site_type_symbol
 _atom_site_label
 _atom_site_symmetry_multiplicity
 _atom_site_fract_x
 _atom_site_fract_y
 _atom_site_fract_z
 _atom_site_occupancy
  K  K0  1  0.33523590  0.33026876  0.63002199  1
  K  K1  1  0.66476410  0.66973124  0.13002199  1
  K  K2  1  0.66476410  0.66973124  0.36997801  1
  K  K3  1  0.33523590  0.33026876  0.86997801  1
  In  In4  1  0.03506280  0.78867081  0.75000000  1
  In  In5  1  0.96493720  0.21132919  0.25000000  1
  Mo  Mo6  1  0.51402173  0.82699737  0.75000000  1
  Mo  Mo7  1  0.65934284  0.51141541  0.75000000  1
  Mo  Mo8  1  0.83207664  0.65865254  0.75000000  1
  Mo  Mo9  1  0.48597827  0.17300263  0.25000000  1
  Mo  Mo10  1  0.34065716  0.48858459  0.25000000  1
  Mo  Mo11  1  0.16792336  0.34134746  0.25000000  1
  Mo  Mo12  1  0.50587035  0.68146336  0.63462715  1
  Mo  Mo13  1  0.81060663  0.50658157  0.63656131  1
  Mo  Mo14  1  0.68041770  0.81181254  0.63505120  1
  Mo  Mo15  1  0.49412965  0.31853664  0.13462715  1
  Mo  Mo16  1  0.18939337  0.49341843  0.13656131  1
  Mo  Mo17  1  0.31958230  0.18818746  0.13505120  1
  Mo  Mo18  1  0.49412965  0.31853664  0.36537285  1
  Mo  Mo19  1  0.18939337  0.49341843  0.36343869  1
  Mo  Mo20  1  0.31958230  0.18818746  0.36494880  1
  Mo  Mo21  1  0.50587035  0.68146336  0.86537285  1
  Mo  Mo22  1  0.81060663  0.50658157  0.86343869  1
  Mo  Mo23  1  0.68041770  0.81181254  0.86494880  1
  Mo  Mo24  1  0.16319997  0.98402301  0.55498059  1
  Mo  Mo25  1  0.84954633  0.16242109  0.55498188  1
  Mo  Mo26  1  0.98496050  0.85184880  0.55638252  1
  Mo  Mo27  1  0.83680003  0.01597699  0.05498059  1
  Mo  Mo28  1  0.15045367  0.83757891  0.05498188  1
  Mo  Mo29  1  0.01503950  0.14815120  0.05638252  1
  Mo  Mo30  1  0.83680003  0.01597699  0.44501941  1
  Mo  Mo31  1  0.15045367  0.83757891  0.44501812  1
  Mo  Mo32  1  0.01503950  0.14815120  0.44361748  1
  Mo  Mo33  1  0.16319997  0.98402301  0.94501941  1
  Mo  Mo34  1  0.84954633  0.16242109  0.94501812  1
  Mo  Mo35  1  0.98496050  0.85184880  0.94361748  1
  Se  Se36  1  0.35701001  0.68385191  0.75000000  1
  Se  Se37  1  0.95968990  0.35896849  0.75000000  1
  Se  Se38  1  0.67944236  0.96155171  0.75000000  1
  Se  Se39  1  0.64298999  0.31614809  0.25000000  1
  Se  Se40  1  0.04031010  0.64103151  0.25000000  1
  Se  Se41  1  0.32055764  0.03844829  0.25000000  1
  Se  Se42  1  0.00095447  0.00644360  0.65795618  1
  Se  Se43  1  0.99904553  0.99355640  0.15795618  1
  Se  Se44  1  0.99904553  0.99355640  0.34204382  1
  Se  Se45  1  0.00095447  0.00644360  0.84204382  1
  Se  Se46  1  0.28530971  0.68123269  0.55133152  1
  Se  Se47  1  0.02848278  0.28647370  0.55016916  1
  Se  Se48  1  0.68261293  0.02911584  0.55235169  1
  Se  Se49  1  0.71469029  0.31876731  0.05133152  1
  Se  Se50  1  0.97151722  0.71352630  0.05016916  1
  Se  Se51  1  0.31738707  0.97088416  0.05235169  1
  Se  Se52  1  0.71469029  0.31876731  0.44866848  1
  Se  Se53  1  0.97151722  0.71352630  0.44983084  1
  Se  Se54  1  0.31738707  0.97088416  0.44764831  1
  Se  Se55  1  0.28530971  0.68123269  0.94866848  1
  Se  Se56  1  0.02848278  0.28647370  0.94983084  1
  Se  Se57  1  0.68261293  0.02911584  0.94764831  1
  Se  Se58  1  0.37803283  0.98261589  0.64188531  1
  Se  Se59  1  0.63693383  0.37953047  0.64191371  1
  Se  Se60  1  0.98485976  0.63135810  0.63584345  1
  Se  Se61  1  0.62196717  0.01738411  0.14188531  1
  Se  Se62  1  0.36306617  0.62046953  0.14191371  1
  Se  Se63  1  0.01514024  0.36864190  0.13584345  1
  Se  Se64  1  0.62196717  0.01738411  0.35811469  1
  Se  Se65  1  0.36306617  0.62046953  0.35808629  1
  Se  Se66  1  0.01514024  0.36864190  0.36415655  1
  Se  Se67  1  0.37803283  0.98261589  0.85811469  1
  Se  Se68  1  0.63693383  0.37953047  0.85808629  1
  Se  Se69  1  0.98485976  0.63135810  0.86415655  1
  Se  Se70  1  0.33441320  0.33262874  0.03367245  1
  Se  Se71  1  0.66558680  0.66737126  0.53367245  1
  Se  Se72  1  0.66558680  0.66737126  0.96632755  1
  Se  Se73  1  0.33441320  0.33262874  0.46632755  1
