# generated using pymatgen
data_Gd(SiNi5)2
_symmetry_space_group_name_H-M   'P 1'
_cell_length_a   4.73865183
_cell_length_b   6.18274024
_cell_length_c   6.18274024
_cell_angle_alpha   100.03692481
_cell_angle_beta   112.53304123
_cell_angle_gamma   67.46695877
_symmetry_Int_Tables_number   1
_chemical_formula_structural   Gd(SiNi5)2
_chemical_formula_sum   'Gd1 Si2 Ni10'
_cell_volume   154.45973600
_cell_formula_units_Z   1
loop_
 _symmetry_equiv_pos_site_id
 _symmetry_equiv_pos_as_xyz
  1  'x, y, z'
loop_
 _atom_site_type_symbol
 _atom_site_label
 _atom_site_symmetry_multiplicity
 _atom_site_fract_x
 _atom_site_fract_y
 _atom_site_fract_z
 _atom_site_occupancy
  Gd  Gd0  1  -0.00000000  0.00000000  0.00000000  1
  Si  Si1  1  0.74726024  0.75273976  0.24726024  1
  Si  Si2  1  0.25273976  0.24726024  0.75273976  1
  Ni  Ni3  1  0.64368722  0.35631278  0.64368722  1
  Ni  Ni4  1  0.35631278  0.64368722  0.35631278  1
  Ni  Ni5  1  0.00000000  0.34784947  0.34784947  1
  Ni  Ni6  1  -0.00000000  0.65215053  0.65215053  1
  Ni  Ni7  1  0.50000000  0.80450385  0.80450385  1
  Ni  Ni8  1  0.50000000  0.19549615  0.19549615  1
  Ni  Ni9  1  0.50000000  0.00000000  0.50000000  1
  Ni  Ni10  1  -0.00000000  0.00000000  0.50000000  1
  Ni  Ni11  1  0.50000000  0.50000000  0.00000000  1
  Ni  Ni12  1  -0.00000000  0.50000000  0.00000000  1
