# generated using pymatgen
data_CsScAgF6
_symmetry_space_group_name_H-M   'P 1'
_cell_length_a   7.98180433
_cell_length_b   7.74602778
_cell_length_c   7.88113167
_cell_angle_alpha   90.00000000
_cell_angle_beta   60.41635729
_cell_angle_gamma   119.02756692
_symmetry_Int_Tables_number   1
_chemical_formula_structural   CsScAgF6
_chemical_formula_sum   'Cs2 Sc2 Ag2 F12'
_cell_volume   351.65090916
_cell_formula_units_Z   2
loop_
 _symmetry_equiv_pos_site_id
 _symmetry_equiv_pos_as_xyz
  1  'x, y, z'
loop_
 _atom_site_type_symbol
 _atom_site_label
 _atom_site_symmetry_multiplicity
 _atom_site_fract_x
 _atom_site_fract_y
 _atom_site_fract_z
 _atom_site_occupancy
  Cs  Cs0  1  0.75340175  0.37670087  0.37329913  1
  Cs  Cs1  1  0.24659825  0.62329913  0.62670087  1
  Sc  Sc2  1  -0.00000000  -0.00000000  0.50000000  1
  Sc  Sc3  1  -0.00000000  -0.00000000  0.00000000  1
  Ag  Ag4  1  0.50000000  0.50000000  0.00000000  1
  Ag  Ag5  1  0.50000000  -0.00000000  0.00000000  1
  F  F6  1  0.90063666  0.95031833  0.29968167  1
  F  F7  1  0.62572408  0.31286204  0.93713796  1
  F  F8  1  0.23370135  0.92638989  0.92064338  1
  F  F9  1  0.23370135  0.30731146  0.34565527  1
  F  F10  1  0.23370135  0.30731146  0.92064338  1
  F  F11  1  0.23370135  0.92638989  0.34565527  1
  F  F12  1  0.09936334  0.04968167  0.70031833  1
  F  F13  1  0.37427592  0.68713796  0.06286204  1
  F  F14  1  0.76629865  0.07361011  0.07935662  1
  F  F15  1  0.76629865  0.69268854  0.65434473  1
  F  F16  1  0.76629865  0.69268854  0.07935662  1
  F  F17  1  0.76629865  0.07361011  0.65434473  1
