# generated using pymatgen
data_GdFe11W
_symmetry_space_group_name_H-M   'P 1'
_cell_length_a   4.71303837
_cell_length_b   6.47023044
_cell_length_c   6.47023044
_cell_angle_alpha   98.13078718
_cell_angle_beta   111.35894005
_cell_angle_gamma   68.64105995
_symmetry_Int_Tables_number   1
_chemical_formula_structural   GdFe11W
_chemical_formula_sum   'Gd1 Fe11 W1'
_cell_volume   171.12494149
_cell_formula_units_Z   1
loop_
 _symmetry_equiv_pos_site_id
 _symmetry_equiv_pos_as_xyz
  1  'x, y, z'
loop_
 _atom_site_type_symbol
 _atom_site_label
 _atom_site_symmetry_multiplicity
 _atom_site_fract_x
 _atom_site_fract_y
 _atom_site_fract_z
 _atom_site_occupancy
  Gd  Gd0  1  0.00607703  0.99392297  0.00607703  1
  Fe  Fe1  1  0.72960760  0.77039240  0.22960760  1
  Fe  Fe2  1  0.27207611  0.22792389  0.77207611  1
  Fe  Fe3  1  0.49866764  0.77862708  0.77596235  1
  Fe  Fe4  1  0.49866764  0.22403765  0.22137292  1
  Fe  Fe5  1  0.50093875  0.99836143  0.50093157  1
  Fe  Fe6  1  0.00163139  0.99836143  0.50093157  1
  Fe  Fe7  1  0.50093875  0.49906843  0.00163857  1
  Fe  Fe8  1  0.00163139  0.49906843  0.00163857  1
  Fe  Fe9  1  0.35726583  0.64273417  0.35726583  1
  Fe  Fe10  1  0.99976571  0.35909547  0.35862689  1
  Fe  Fe11  1  0.99976571  0.64137311  0.64090453  1
  W  W12  1  0.63296644  0.36703356  0.63296644  1
