# generated using pymatgen
data_Er2US3O2
_symmetry_space_group_name_H-M   'P 1'
_cell_length_a   3.77338288
_cell_length_b   3.77338288
_cell_length_c   10.88911893
_cell_angle_alpha   80.02235516
_cell_angle_beta   80.02235516
_cell_angle_gamma   90.00000000
_symmetry_Int_Tables_number   1
_chemical_formula_structural   Er2US3O2
_chemical_formula_sum   'Er2 U1 S3 O2'
_cell_volume   150.31731103
_cell_formula_units_Z   1
loop_
 _symmetry_equiv_pos_site_id
 _symmetry_equiv_pos_as_xyz
  1  'x, y, z'
loop_
 _atom_site_type_symbol
 _atom_site_label
 _atom_site_symmetry_multiplicity
 _atom_site_fract_x
 _atom_site_fract_y
 _atom_site_fract_z
 _atom_site_occupancy
  Er  Er0  1  0.50299319  0.50299319  0.99401362  1
  Er  Er1  1  0.18781156  0.18781156  0.62437687  1
  U  U2  1  0.80989326  0.80989326  0.38021348  1
  S  S3  1  0.37200685  0.37200685  0.25598630  1
  S  S4  1  0.62868264  0.62868264  0.74263471  1
  S  S5  1  0.99748527  0.99748527  0.00502946  1
  O  O6  1  0.75056361  0.25056361  0.49887277  1
  O  O7  1  0.25056361  0.75056361  0.49887277  1
