# generated using pymatgen
data_CrRe5B2
_symmetry_space_group_name_H-M   'P 1'
_cell_length_a   2.90939590
_cell_length_b   4.88769767
_cell_length_c   7.21217234
_cell_angle_alpha   90.00000000
_cell_angle_beta   90.00000000
_cell_angle_gamma   72.68502687
_symmetry_Int_Tables_number   1
_chemical_formula_structural   CrRe5B2
_chemical_formula_sum   'Cr1 Re5 B2'
_cell_volume   97.91122111
_cell_formula_units_Z   1
loop_
 _symmetry_equiv_pos_site_id
 _symmetry_equiv_pos_as_xyz
  1  'x, y, z'
loop_
 _atom_site_type_symbol
 _atom_site_label
 _atom_site_symmetry_multiplicity
 _atom_site_fract_x
 _atom_site_fract_y
 _atom_site_fract_z
 _atom_site_occupancy
  Cr  Cr0  1  0.57486923  0.85026154  0.25000000  1
  Re  Re1  1  0.86806198  0.26387604  0.43211817  1
  Re  Re2  1  0.13691452  0.72617096  0.55429292  1
  Re  Re3  1  0.86806198  0.26387604  0.06788183  1
  Re  Re4  1  0.13691452  0.72617096  0.94570708  1
  Re  Re5  1  0.42719701  0.14560597  0.75000000  1
  B  B6  1  0.24477654  0.51044692  0.25000000  1
  B  B7  1  0.74320421  0.51359158  0.75000000  1
