# generated using pymatgen
data_Na2Sr3P4
_symmetry_space_group_name_H-M   'P 1'
_cell_length_a   9.06772622
_cell_length_b   9.47236732
_cell_length_c   11.29014672
_cell_angle_alpha   99.38593714
_cell_angle_beta   90.00000000
_cell_angle_gamma   90.00000000
_symmetry_Int_Tables_number   1
_chemical_formula_structural   Na2Sr3P4
_chemical_formula_sum   'Na8 Sr12 P16'
_cell_volume   956.75998988
_cell_formula_units_Z   4
loop_
 _symmetry_equiv_pos_site_id
 _symmetry_equiv_pos_as_xyz
  1  'x, y, z'
loop_
 _atom_site_type_symbol
 _atom_site_label
 _atom_site_symmetry_multiplicity
 _atom_site_fract_x
 _atom_site_fract_y
 _atom_site_fract_z
 _atom_site_occupancy
  Na  Na0  1  0.03740228  0.53538161  0.81424901  1
  Na  Na1  1  0.29043321  0.28614566  0.13718079  1
  Na  Na2  1  0.20956679  0.78614566  0.63718079  1
  Na  Na3  1  0.46259772  0.03538161  0.31424901  1
  Na  Na4  1  0.53740228  0.96461839  0.68575099  1
  Na  Na5  1  0.79043321  0.21385434  0.36281921  1
  Na  Na6  1  0.70956679  0.71385434  0.86281921  1
  Na  Na7  1  0.96259772  0.46461839  0.18575099  1
  Sr  Sr8  1  0.95257285  0.81466859  0.06602791  1
  Sr  Sr9  1  0.04626374  0.92839751  0.35531943  1
  Sr  Sr10  1  0.16490458  0.32923123  0.43517888  1
  Sr  Sr11  1  0.33509542  0.82923123  0.93517888  1
  Sr  Sr12  1  0.54742715  0.31466859  0.56602791  1
  Sr  Sr13  1  0.45373626  0.42839751  0.85531943  1
  Sr  Sr14  1  0.54626374  0.57160249  0.14468057  1
  Sr  Sr15  1  0.45257285  0.68533141  0.43397209  1
  Sr  Sr16  1  0.66490458  0.17076877  0.06482112  1
  Sr  Sr17  1  0.83509542  0.67076877  0.56482112  1
  Sr  Sr18  1  0.95373626  0.07160249  0.64468057  1
  Sr  Sr19  1  0.04742715  0.18533141  0.93397209  1
  P  P20  1  0.98299865  0.84653017  0.80736658  1
  P  P21  1  0.12118261  0.62846089  0.38779579  1
  P  P22  1  0.22497156  0.56009365  0.04310429  1
  P  P23  1  0.27044963  0.20090853  0.72301786  1
  P  P24  1  0.22955037  0.70090853  0.22301786  1
  P  P25  1  0.27502844  0.06009365  0.54310429  1
  P  P26  1  0.37881739  0.12846089  0.88779579  1
  P  P27  1  0.51700135  0.34653017  0.30736658  1
  P  P28  1  0.48299865  0.65346983  0.69263342  1
  P  P29  1  0.62118261  0.87153911  0.11220421  1
  P  P30  1  0.72497156  0.93990635  0.45689571  1
  P  P31  1  0.77044963  0.29909147  0.77698214  1
  P  P32  1  0.72955037  0.79909147  0.27698214  1
  P  P33  1  0.87881739  0.37153911  0.61220421  1
  P  P34  1  0.77502844  0.43990635  0.95689571  1
  P  P35  1  0.01700135  0.15346983  0.19263342  1
