# generated using pymatgen
data_Ce3PrO8
_symmetry_space_group_name_H-M   'P 1'
_cell_length_a   5.51956082
_cell_length_b   5.51956082
_cell_length_c   6.76700395
_cell_angle_alpha   65.93147167
_cell_angle_beta   65.93147167
_cell_angle_gamma   90.00000000
_symmetry_Int_Tables_number   1
_chemical_formula_structural   Ce3PrO8
_chemical_formula_sum   'Ce3 Pr1 O8'
_cell_volume   168.41572615
_cell_formula_units_Z   1
loop_
 _symmetry_equiv_pos_site_id
 _symmetry_equiv_pos_as_xyz
  1  'x, y, z'
loop_
 _atom_site_type_symbol
 _atom_site_label
 _atom_site_symmetry_multiplicity
 _atom_site_fract_x
 _atom_site_fract_y
 _atom_site_fract_z
 _atom_site_occupancy
  Ce  Ce0  1  0.25000000  0.75000000  0.50000000  1
  Ce  Ce1  1  0.50000000  0.50000000  0.00000000  1
  Ce  Ce2  1  0.75000000  0.25000000  0.50000000  1
  Pr  Pr3  1  -0.00000000  -0.00000000  0.00000000  1
  O  O4  1  0.38447449  0.38447449  0.74386078  1
  O  O5  1  0.61552551  0.12833527  0.25613922  1
  O  O6  1  0.87166473  0.87166473  0.74386078  1
  O  O7  1  0.12833527  0.61552551  0.25613922  1
  O  O8  1  0.61552551  0.61552551  0.25613922  1
  O  O9  1  0.87166473  0.38447449  0.74386078  1
  O  O10  1  0.12833527  0.12833527  0.25613922  1
  O  O11  1  0.38447449  0.87166473  0.74386078  1
