# generated using pymatgen
data_CeSiGe
_symmetry_space_group_name_H-M   'P 1'
_cell_length_a   4.15712091
_cell_length_b   4.09912014
_cell_length_c   8.00995342
_cell_angle_alpha   75.17446286
_cell_angle_beta   74.95977039
_cell_angle_gamma   90.00000000
_symmetry_Int_Tables_number   1
_chemical_formula_structural   CeSiGe
_chemical_formula_sum   'Ce2 Si2 Ge2'
_cell_volume   127.10715846
_cell_formula_units_Z   2
loop_
 _symmetry_equiv_pos_site_id
 _symmetry_equiv_pos_as_xyz
  1  'x, y, z'
loop_
 _atom_site_type_symbol
 _atom_site_label
 _atom_site_symmetry_multiplicity
 _atom_site_fract_x
 _atom_site_fract_y
 _atom_site_fract_z
 _atom_site_occupancy
  Ce  Ce0  1  0.75525710  0.25525710  0.48948580  1
  Ce  Ce1  1  0.99474290  0.99474290  0.01051420  1
  Si  Si2  1  0.33648848  0.83648848  0.32702304  1
  Si  Si3  1  0.41351152  0.41351152  0.17297696  1
  Ge  Ge4  1  0.17181667  0.67181667  0.65636667  1
  Ge  Ge5  1  0.57818333  0.57818333  0.84363333  1
