# generated using pymatgen
data_Cr11NiS16
_symmetry_space_group_name_H-M   'P 1'
_cell_length_a   3.45774151
_cell_length_b   21.54469286
_cell_length_c   6.51802521
_cell_angle_alpha   86.21129354
_cell_angle_beta   74.61850930
_cell_angle_gamma   90.00000008
_symmetry_Int_Tables_number   1
_chemical_formula_structural   Cr11NiS16
_chemical_formula_sum   'Cr11 Ni1 S16'
_cell_volume   467.07351008
_cell_formula_units_Z   1
loop_
 _symmetry_equiv_pos_site_id
 _symmetry_equiv_pos_as_xyz
  1  'x, y, z'
loop_
 _atom_site_type_symbol
 _atom_site_label
 _atom_site_symmetry_multiplicity
 _atom_site_fract_x
 _atom_site_fract_y
 _atom_site_fract_z
 _atom_site_occupancy
  Cr  Cr0  1  0.44490892  0.17597717  0.11018216  1
  Cr  Cr1  1  0.69356447  0.42981136  0.61287106  1
  Cr  Cr2  1  0.94465949  0.67969601  0.11068102  1
  Cr  Cr3  1  0.19237991  0.93372988  0.61524018  1
  Cr  Cr4  1  0.80762009  0.06627012  0.38475982  1
  Cr  Cr5  1  0.05534051  0.32030399  0.88931898  1
  Cr  Cr6  1  0.30643553  0.57018864  0.38712894  1
  Cr  Cr7  1  0.55509108  0.82402283  0.88981784  1
  Cr  Cr8  1  0.25073417  0.24888646  0.49853167  1
  Cr  Cr9  1  0.50000000  0.50000000  -0.00000000  1
  Cr  Cr10  1  0.74926583  0.75111354  0.50146833  1
  Ni  Ni11  1  0.00000000  0.00000000  -0.00000000  1
  S  S12  1  0.98810931  0.11008574  0.02378138  1
  S  S13  1  0.23745011  0.36199512  0.52509977  1
  S  S14  1  0.48857195  0.61184205  0.02285609  1
  S  S15  1  0.73617088  0.86346640  0.52765823  1
  S  S16  1  0.26382912  0.13653360  0.47234177  1
  S  S17  1  0.51142805  0.38815795  0.97714391  1
  S  S18  1  0.76254989  0.63800488  0.47490023  1
  S  S19  1  0.01189069  0.88991426  0.97621862  1
  S  S20  1  0.61070741  0.24434799  0.77858519  1
  S  S21  1  0.86133412  0.49449416  0.27733176  1
  S  S22  1  0.11127784  0.74540990  0.77744432  1
  S  S23  1  0.36158128  0.99421771  0.27683744  1
  S  S24  1  0.63841872  0.00578229  0.72316256  1
  S  S25  1  0.88872216  0.25459010  0.22255568  1
  S  S26  1  0.13866588  0.50550584  0.72266824  1
  S  S27  1  0.38929259  0.75565201  0.22141481  1
