# generated using pymatgen
data_CdFeCu4(SnSe4)2
_symmetry_space_group_name_H-M   'P 1'
_cell_length_a   5.83788976
_cell_length_b   5.83788976
_cell_length_c   11.50281598
_cell_angle_alpha   90.00000000
_cell_angle_beta   90.00000000
_cell_angle_gamma   90.00000000
_symmetry_Int_Tables_number   1
_chemical_formula_structural   CdFeCu4(SnSe4)2
_chemical_formula_sum   'Cd1 Fe1 Cu4 Sn2 Se8'
_cell_volume   392.02697507
_cell_formula_units_Z   1
loop_
 _symmetry_equiv_pos_site_id
 _symmetry_equiv_pos_as_xyz
  1  'x, y, z'
loop_
 _atom_site_type_symbol
 _atom_site_label
 _atom_site_symmetry_multiplicity
 _atom_site_fract_x
 _atom_site_fract_y
 _atom_site_fract_z
 _atom_site_occupancy
  Cd  Cd0  1  -0.00000000  -0.00000000  0.00000000  1
  Fe  Fe1  1  0.50000000  0.50000000  0.50000000  1
  Cu  Cu2  1  0.50000000  -0.00000000  0.25414871  1
  Cu  Cu3  1  -0.00000000  0.50000000  0.74585129  1
  Cu  Cu4  1  -0.00000000  0.50000000  0.25414871  1
  Cu  Cu5  1  0.50000000  -0.00000000  0.74585129  1
  Sn  Sn6  1  0.50000000  0.50000000  0.00000000  1
  Sn  Sn7  1  -0.00000000  -0.00000000  0.50000000  1
  Se  Se8  1  0.74723969  0.74723969  0.14336234  1
  Se  Se9  1  0.26574857  0.26574857  0.63096457  1
  Se  Se10  1  0.25276031  0.25276031  0.14336234  1
  Se  Se11  1  0.73425143  0.73425143  0.63096457  1
  Se  Se12  1  0.73425143  0.26574857  0.36903543  1
  Se  Se13  1  0.25276031  0.74723969  0.85663766  1
  Se  Se14  1  0.26574857  0.73425143  0.36903543  1
  Se  Se15  1  0.74723969  0.25276031  0.85663766  1
