# generated using pymatgen
data_Ca4Zn3Fe(SiO3)8
_symmetry_space_group_name_H-M   'P 1'
_cell_length_a   5.31873209
_cell_length_b   6.75535673
_cell_length_c   13.47387492
_cell_angle_alpha   89.44229521
_cell_angle_beta   101.14699503
_cell_angle_gamma   78.38030521
_symmetry_Int_Tables_number   1
_chemical_formula_structural   Ca4Zn3Fe(SiO3)8
_chemical_formula_sum   'Ca4 Zn3 Fe1 Si8 O24'
_cell_volume   464.65097394
_cell_formula_units_Z   1
loop_
 _symmetry_equiv_pos_site_id
 _symmetry_equiv_pos_as_xyz
  1  'x, y, z'
loop_
 _atom_site_type_symbol
 _atom_site_label
 _atom_site_symmetry_multiplicity
 _atom_site_fract_x
 _atom_site_fract_y
 _atom_site_fract_z
 _atom_site_occupancy
  Ca  Ca0  1  0.89927063  0.70146512  0.14931761  1
  Ca  Ca1  1  0.39932510  0.70110331  0.64930747  1
  Ca  Ca2  1  0.60020326  0.29846706  0.35099949  1
  Ca  Ca3  1  0.10071534  0.29850419  0.85071874  1
  Zn  Zn4  1  0.70262283  0.09468089  0.95264107  1
  Zn  Zn5  1  0.29744334  0.90526673  0.04736930  1
  Zn  Zn6  1  0.79744945  0.90536290  0.54713569  1
  Fe  Fe7  1  0.20292252  0.09371427  0.45286603  1
  Si  Si8  1  0.13263478  0.62147350  0.40300762  1
  Si  Si9  1  0.63269798  0.62115582  0.90304774  1
  Si  Si10  1  0.95953698  0.19420841  0.18906535  1
  Si  Si11  1  0.45993741  0.19408008  0.68958307  1
  Si  Si12  1  0.36725947  0.37885440  0.09694107  1
  Si  Si13  1  0.86672794  0.37935824  0.59711208  1
  Si  Si14  1  0.54085427  0.80546036  0.31045065  1
  Si  Si15  1  0.04018895  0.80606869  0.81057428  1
  O  O16  1  0.13155019  0.79262464  0.48663998  1
  O  O17  1  0.63124210  0.79378389  0.98620296  1
  O  O18  1  0.95807151  0.02746621  0.10304757  1
  O  O19  1  0.45754115  0.02749975  0.60343248  1
  O  O20  1  0.36877106  0.20624767  0.01380775  1
  O  O21  1  0.86662855  0.20700935  0.51432452  1
  O  O22  1  0.54435964  0.97165040  0.39619582  1
  O  O23  1  0.04189125  0.97241239  0.89690557  1
  O  O24  1  0.26532245  0.39283325  0.44243821  1
  O  O25  1  0.76557653  0.39181993  0.94279040  1
  O  O26  1  0.98208844  0.11507019  0.30388414  1
  O  O27  1  0.48136640  0.11436169  0.80424774  1
  O  O28  1  0.23441487  0.60816238  0.05721682  1
  O  O29  1  0.73418707  0.60862959  0.55728619  1
  O  O30  1  0.51865932  0.88559464  0.19569189  1
  O  O31  1  0.01864160  0.88561073  0.69586727  1
  O  O32  1  0.82856893  0.63169268  0.33433469  1
  O  O33  1  0.32830326  0.63203112  0.83444903  1
  O  O34  1  0.19011650  0.33108182  0.18396629  1
  O  O35  1  0.68995907  0.33115238  0.68416266  1
  O  O36  1  0.67161667  0.36798103  0.16553964  1
  O  O37  1  0.17166198  0.36794021  0.66553325  1
  O  O38  1  0.30977398  0.66919448  0.31588865  1
  O  O39  1  0.80989724  0.66892561  0.81600922  1
