# generated using pymatgen
data_Ce2Ti2Fe22H
_symmetry_space_group_name_H-M   'P 1'
_cell_length_a   4.73194167
_cell_length_b   6.49671938
_cell_length_c   11.99202890
_cell_angle_alpha   90.35023431
_cell_angle_beta   89.99999992
_cell_angle_gamma   111.35708924
_symmetry_Int_Tables_number   1
_chemical_formula_structural   Ce2Ti2Fe22H
_chemical_formula_sum   'Ce2 Ti2 Fe22 H1'
_cell_volume   343.33639784
_cell_formula_units_Z   1
loop_
 _symmetry_equiv_pos_site_id
 _symmetry_equiv_pos_as_xyz
  1  'x, y, z'
loop_
 _atom_site_type_symbol
 _atom_site_label
 _atom_site_symmetry_multiplicity
 _atom_site_fract_x
 _atom_site_fract_y
 _atom_site_fract_z
 _atom_site_occupancy
  Ce  Ce0  1  0.00378601  0.00757202  0.00384106  1
  Ce  Ce1  1  0.50377634  0.00755267  0.50347138  1
  Ti  Ti2  1  0.31574777  0.63149553  0.31551701  1
  Ti  Ti3  1  0.81615896  0.63231792  0.81606068  1
  Fe  Fe4  1  0.38777260  0.77554521  0.11063181  1
  Fe  Fe5  1  0.88765634  0.77531267  0.61097379  1
  Fe  Fe6  1  0.11154804  0.22309608  0.38770891  1
  Fe  Fe7  1  0.61077020  0.22154039  0.88759669  1
  Fe  Fe8  1  0.88654765  0.77309530  0.38698747  1
  Fe  Fe9  1  0.38700706  0.77401411  0.88716815  1
  Fe  Fe10  1  0.61452267  0.22904534  0.11452920  1
  Fe  Fe11  1  0.11554387  0.23108774  0.61519330  1
  Fe  Fe12  1  0.25047477  0.00209668  0.25026685  1
  Fe  Fe13  1  0.75109253  0.00222391  0.74952306  1
  Fe  Fe14  1  0.75162192  0.00209668  0.25026685  1
  Fe  Fe15  1  0.25113137  0.00222391  0.74952306  1
  Fe  Fe16  1  0.00004750  0.49944769  0.00118174  1
  Fe  Fe17  1  0.50019260  0.49956099  0.50114066  1
  Fe  Fe18  1  0.49940019  0.49944769  0.00118174  1
  Fe  Fe19  1  0.99936839  0.49956099  0.50114066  1
  Fe  Fe20  1  0.67873548  0.35747096  0.32100479  1
  Fe  Fe21  1  0.17866119  0.35732237  0.82169823  1
  Fe  Fe22  1  0.82158664  0.64317329  0.17858278  1
  Fe  Fe23  1  0.32171437  0.64342875  0.67904624  1
  Fe  Fe24  1  0.17716858  0.35433715  0.17731708  1
  Fe  Fe25  1  0.67729816  0.35459633  0.67784741  1
  H  H26  1  0.50066880  0.00133761  0.00059939  1
