# generated using pymatgen
data_Ca10Si3S3(ClO12)2
_symmetry_space_group_name_H-M   'P 1'
_cell_length_a   6.82185273
_cell_length_b   9.84056212
_cell_length_c   9.84063805
_cell_angle_alpha   59.99946015
_cell_angle_beta   90.00000000
_cell_angle_gamma   90.00000000
_symmetry_Int_Tables_number   1
_chemical_formula_structural   Ca10Si3S3(ClO12)2
_chemical_formula_sum   'Ca10 Si3 S3 Cl2 O24'
_cell_volume   572.10240603
_cell_formula_units_Z   1
loop_
 _symmetry_equiv_pos_site_id
 _symmetry_equiv_pos_as_xyz
  1  'x, y, z'
loop_
 _atom_site_type_symbol
 _atom_site_label
 _atom_site_symmetry_multiplicity
 _atom_site_fract_x
 _atom_site_fract_y
 _atom_site_fract_z
 _atom_site_occupancy
  Ca  Ca0  1  0.52616640  0.66666352  0.66666753  1
  Ca  Ca1  1  0.98065364  0.33334418  0.33332698  1
  Ca  Ca2  1  0.51934636  0.33334418  0.33332698  1
  Ca  Ca3  1  0.97383360  0.66666352  0.66666753  1
  Ca  Ca4  1  0.75000000  0.24176126  0.73034343  1
  Ca  Ca5  1  0.75000000  0.02789024  0.24177507  1
  Ca  Ca6  1  0.75000000  0.73034719  0.02788696  1
  Ca  Ca7  1  0.25000000  0.74643020  0.24741225  1
  Ca  Ca8  1  0.25000000  0.00616297  0.74642564  1
  Ca  Ca9  1  0.25000000  0.24740601  0.00616775  1
  Si  Si10  1  0.75000000  0.02941374  0.59709719  1
  Si  Si11  1  0.75000000  0.37348856  0.02941280  1
  Si  Si12  1  0.75000000  0.59709720  0.37348913  1
  S  S13  1  0.25000000  0.96656196  0.41145335  1
  S  S14  1  0.25000000  0.62198639  0.96655905  1
  S  S15  1  0.25000000  0.41145375  0.62198670  1
  Cl  Cl16  1  0.49547034  0.99999855  0.00000110  1
  Cl  Cl17  1  0.00452966  0.99999855  0.00000110  1
  O  O18  1  0.75000000  0.12816539  0.40275949  1
  O  O19  1  0.75000000  0.46908913  0.12814960  1
  O  O20  1  0.75000000  0.40275652  0.46908295  1
  O  O21  1  0.25000000  0.87661467  0.58841972  1
  O  O22  1  0.25000000  0.53496052  0.87661993  1
  O  O23  1  0.25000000  0.58842116  0.53496306  1
  O  O24  1  0.55513851  0.09243689  0.64937910  1
  O  O25  1  0.55513890  0.25818149  0.09244709  1
  O  O26  1  0.55513715  0.64937068  0.25818383  1
  O  O27  1  0.07487273  0.91666212  0.35705241  1
  O  O28  1  0.07487239  0.72628582  0.91665891  1
  O  O29  1  0.07487164  0.35705341  0.72628541  1
  O  O30  1  0.42512727  0.91666212  0.35705241  1
  O  O31  1  0.42512761  0.72628582  0.91665891  1
  O  O32  1  0.42512836  0.35705341  0.72628541  1
  O  O33  1  0.94486149  0.09243689  0.64937910  1
  O  O34  1  0.94486110  0.25818149  0.09244709  1
  O  O35  1  0.94486285  0.64937068  0.25818383  1
  O  O36  1  0.75000000  0.83849120  0.67287731  1
  O  O37  1  0.75000000  0.48862099  0.83848993  1
  O  O38  1  0.75000000  0.67288693  0.48862131  1
  O  O39  1  0.25000000  0.13785239  0.35250938  1
  O  O40  1  0.25000000  0.50964018  0.13785097  1
  O  O41  1  0.25000000  0.35250813  0.50964228  1
