# generated using pymatgen
data_CaY3Ti4O12
_symmetry_space_group_name_H-M   'P 1'
_cell_length_a   5.35155311
_cell_length_b   5.64787857
_cell_length_c   7.72033856
_cell_angle_alpha   90.00000000
_cell_angle_beta   90.00000000
_cell_angle_gamma   89.90890353
_symmetry_Int_Tables_number   1
_chemical_formula_structural   CaY3Ti4O12
_chemical_formula_sum   'Ca1 Y3 Ti4 O12'
_cell_volume   233.34633699
_cell_formula_units_Z   1
loop_
 _symmetry_equiv_pos_site_id
 _symmetry_equiv_pos_as_xyz
  1  'x, y, z'
loop_
 _atom_site_type_symbol
 _atom_site_label
 _atom_site_symmetry_multiplicity
 _atom_site_fract_x
 _atom_site_fract_y
 _atom_site_fract_z
 _atom_site_occupancy
  Ca  Ca0  1  0.98401999  0.06131159  0.25000000  1
  Y  Y1  1  0.52020384  0.56802990  0.25000000  1
  Y  Y2  1  0.01802742  0.93135227  0.75000000  1
  Y  Y3  1  0.48198759  0.43023412  0.75000000  1
  Ti  Ti4  1  0.99815009  0.49851223  0.00225192  1
  Ti  Ti5  1  0.50197819  0.00008010  0.49728267  1
  Ti  Ti6  1  0.99815009  0.49851223  0.49774808  1
  Ti  Ti7  1  0.50197819  0.00008010  0.00271733  1
  O  O8  1  0.40742259  0.96490725  0.25000000  1
  O  O9  1  0.10732222  0.46954012  0.25000000  1
  O  O10  1  0.61164160  0.03780098  0.75000000  1
  O  O11  1  0.89252404  0.53714289  0.75000000  1
  O  O12  1  0.19669723  0.19978663  0.56077253  1
  O  O13  1  0.30430995  0.70008341  0.94313034  1
  O  O14  1  0.80052423  0.79480854  0.04993462  1
  O  O15  1  0.68676566  0.30656955  0.44993533  1
  O  O16  1  0.80052423  0.79480854  0.45006538  1
  O  O17  1  0.68676566  0.30656955  0.05006467  1
  O  O18  1  0.19669723  0.19978663  0.93922747  1
  O  O19  1  0.30430995  0.70008341  0.55686966  1
