# generated using pymatgen
data_Ce10Si5Ni
_symmetry_space_group_name_H-M   'P 1'
_cell_length_a   7.67900226
_cell_length_b   7.67900226
_cell_length_c   8.40442354
_cell_angle_alpha   62.78597533
_cell_angle_beta   62.78597533
_cell_angle_gamma   89.94071131
_symmetry_Int_Tables_number   1
_chemical_formula_structural   Ce10Si5Ni
_chemical_formula_sum   'Ce10 Si5 Ni1'
_cell_volume   378.12677710
_cell_formula_units_Z   1
loop_
 _symmetry_equiv_pos_site_id
 _symmetry_equiv_pos_as_xyz
  1  'x, y, z'
loop_
 _atom_site_type_symbol
 _atom_site_label
 _atom_site_symmetry_multiplicity
 _atom_site_fract_x
 _atom_site_fract_y
 _atom_site_fract_z
 _atom_site_occupancy
  Ce  Ce0  1  0.50101172  0.49908899  -0.00000000  1
  Ce  Ce1  1  0.00091101  -0.00101172  0.00000000  1
  Ce  Ce2  1  0.66571311  0.52198668  0.31230021  1
  Ce  Ce3  1  0.02201305  0.16572507  0.31226188  1
  Ce  Ce4  1  0.52255458  0.02358794  0.30859723  1
  Ce  Ce5  1  0.16781484  0.66884819  0.30859723  1
  Ce  Ce6  1  0.33427493  0.47798695  0.68773812  1
  Ce  Ce7  1  0.97801332  0.83428689  0.68769979  1
  Ce  Ce8  1  0.47641206  0.97744542  0.69140277  1
  Ce  Ce9  1  0.83115181  0.33218516  0.69140277  1
  Si  Si10  1  0.25079451  0.24920549  0.50000000  1
  Si  Si11  1  0.75079451  0.74920549  0.50000000  1
  Si  Si12  1  0.38457654  0.11542346  0.00000000  1
  Si  Si13  1  0.88584341  0.38425565  0.00000000  1
  Si  Si14  1  0.11574435  0.61415659  0.00000000  1
  Ni  Ni15  1  0.61237624  0.88762376  0.00000000  1
