# generated using pymatgen
data_Ca2In3Cu
_symmetry_space_group_name_H-M   'P 1'
_cell_length_a   4.77104083
_cell_length_b   6.17682576
_cell_length_c   6.11748894
_cell_angle_alpha   93.51540744
_cell_angle_beta   112.95144534
_cell_angle_gamma   67.28143722
_symmetry_Int_Tables_number   1
_chemical_formula_structural   Ca2In3Cu
_chemical_formula_sum   'Ca2 In3 Cu1'
_cell_volume   152.28129261
_cell_formula_units_Z   1
loop_
 _symmetry_equiv_pos_site_id
 _symmetry_equiv_pos_as_xyz
  1  'x, y, z'
loop_
 _atom_site_type_symbol
 _atom_site_label
 _atom_site_symmetry_multiplicity
 _atom_site_fract_x
 _atom_site_fract_y
 _atom_site_fract_z
 _atom_site_occupancy
  Ca  Ca0  1  0.74997377  0.70902996  0.20897749  1
  Ca  Ca1  1  0.24966789  0.29507245  0.79440822  1
  In  In2  1  0.46100046  0.68134887  0.60334979  1
  In  In3  1  0.05170354  0.13077898  0.23418606  1
  In  In4  1  0.93726848  0.90362908  0.77816604  1
  Cu  Cu5  1  0.55038587  0.28014066  0.38091241  1
