# generated using pymatgen
data_YZr5O12
_symmetry_space_group_name_H-M   'P 1'
_cell_length_a   11.00201674
_cell_length_b   5.16995456
_cell_length_c   6.41527676
_cell_angle_alpha   66.23785954
_cell_angle_beta   55.12398237
_cell_angle_gamma   45.18140137
_symmetry_Int_Tables_number   1
_chemical_formula_structural   YZr5O12
_chemical_formula_sum   'Y1 Zr5 O12'
_cell_volume   212.34943699
_cell_formula_units_Z   1
loop_
 _symmetry_equiv_pos_site_id
 _symmetry_equiv_pos_as_xyz
  1  'x, y, z'
loop_
 _atom_site_type_symbol
 _atom_site_label
 _atom_site_symmetry_multiplicity
 _atom_site_fract_x
 _atom_site_fract_y
 _atom_site_fract_z
 _atom_site_occupancy
  Y  Y0  1  0.50000000  0.50016156  0.50000000  1
  Zr  Zr1  1  0.00000000  0.99429491  1.00000000  1
  Zr  Zr2  1  0.33373007  0.00188674  0.00087836  1
  Zr  Zr3  1  0.16566646  0.50087555  0.50127224  1
  Zr  Zr4  1  0.66626993  0.00395532  0.99912164  1
  Zr  Zr5  1  0.83433354  0.49914718  0.49872776  1
  O  O6  1  0.07162200  0.00004657  0.28712826  1
  O  O7  1  0.09384818  0.50165769  0.22003731  1
  O  O8  1  0.40200930  0.02400947  0.27027248  1
  O  O9  1  0.23327279  0.00563355  0.79006808  1
  O  O10  1  0.42350645  0.50316102  0.21677064  1
  O  O11  1  0.24899985  0.49725748  0.73209771  1
  O  O12  1  0.75100015  0.97635273  0.26790229  1
  O  O13  1  0.57649355  0.99045000  0.78322936  1
  O  O14  1  0.59799070  0.50030885  0.72972752  1
  O  O15  1  0.76672721  0.49551800  0.20993192  1
  O  O16  1  0.90615182  0.00324054  0.77996269  1
  O  O17  1  0.92837800  0.50204284  0.71287174  1
