# generated using pymatgen
data_Ce3Y(InAu2)4
_symmetry_space_group_name_H-M   'P 1'
_cell_length_a   5.08331414
_cell_length_b   5.08331414
_cell_length_c   16.20585398
_cell_angle_alpha   90.00000000
_cell_angle_beta   80.97672141
_cell_angle_gamma   120.00000000
_symmetry_Int_Tables_number   1
_chemical_formula_structural   Ce3Y(InAu2)4
_chemical_formula_sum   'Ce3 Y1 In4 Au8'
_cell_volume   356.66078353
_cell_formula_units_Z   1
loop_
 _symmetry_equiv_pos_site_id
 _symmetry_equiv_pos_as_xyz
  1  'x, y, z'
loop_
 _atom_site_type_symbol
 _atom_site_label
 _atom_site_symmetry_multiplicity
 _atom_site_fract_x
 _atom_site_fract_y
 _atom_site_fract_z
 _atom_site_occupancy
  Ce  Ce0  1  0.75068005  0.87534002  0.37397993  1
  Ce  Ce1  1  0.25000000  0.12500000  0.62500000  1
  Ce  Ce2  1  0.74931995  0.37465998  0.87602007  1
  Y  Y3  1  0.25000000  0.62500000  0.12500000  1
  In  In4  1  0.00098153  0.50049076  0.49852771  1
  In  In5  1  0.49901847  0.74950924  0.75147229  1
  In  In6  1  0.00016315  0.00008157  0.99975528  1
  In  In7  1  0.49983685  0.24991843  0.25024472  1
  Au  Au8  1  0.62260623  0.81130312  0.56609065  1
  Au  Au9  1  0.12150173  0.06075086  0.81774741  1
  Au  Au10  1  0.61927724  0.30963862  0.07108414  1
  Au  Au11  1  0.12333006  0.56166503  0.31500492  1
  Au  Au12  1  0.87739377  0.43869688  0.68390935  1
  Au  Au13  1  0.37666994  0.68833497  0.93499508  1
  Au  Au14  1  0.88072276  0.94036138  0.17891586  1
  Au  Au15  1  0.37849827  0.18924914  0.43225259  1
