# generated using pymatgen
data_Sr2Cu2NiO7
_symmetry_space_group_name_H-M   'P 1'
_cell_length_a   5.12997602
_cell_length_b   5.19554199
_cell_length_c   13.07007064
_cell_angle_alpha   101.44050152
_cell_angle_beta   101.10290136
_cell_angle_gamma   90.17226717
_symmetry_Int_Tables_number   1
_chemical_formula_structural   Sr2Cu2NiO7
_chemical_formula_sum   'Sr4 Cu4 Ni2 O14'
_cell_volume   334.73697637
_cell_formula_units_Z   2
loop_
 _symmetry_equiv_pos_site_id
 _symmetry_equiv_pos_as_xyz
  1  'x, y, z'
loop_
 _atom_site_type_symbol
 _atom_site_label
 _atom_site_symmetry_multiplicity
 _atom_site_fract_x
 _atom_site_fract_y
 _atom_site_fract_z
 _atom_site_occupancy
  Sr  Sr0  1  0.32661926  0.34502380  0.69799812  1
  Sr  Sr1  1  0.63251874  0.65391889  0.30260591  1
  Sr  Sr2  1  0.82735533  0.85189265  0.69802208  1
  Sr  Sr3  1  0.13180414  0.14742379  0.30260090  1
  Cu  Cu4  1  0.91906592  0.44169834  0.88067536  1
  Cu  Cu5  1  0.04454655  0.55884306  0.12074438  1
  Cu  Cu6  1  0.41862809  0.93901830  0.87995530  1
  Cu  Cu7  1  0.54427118  0.06088021  0.12002189  1
  Ni  Ni8  1  0.28190222  0.67831496  0.50027899  1
  Ni  Ni9  1  0.78480406  0.32068200  0.50024758  1
  O  O10  1  0.14785272  0.33755491  0.50022613  1
  O  O11  1  0.65085319  0.65120617  0.50024123  1
  O  O12  1  0.15329324  0.17517582  0.84884300  1
  O  O13  1  0.31071143  0.82577863  0.15208049  1
  O  O14  1  0.65391015  0.17418231  0.84857392  1
  O  O15  1  0.80963915  0.82628942  0.15165767  1
  O  O16  1  0.65180706  0.67288993  0.84686573  1
  O  O17  1  0.80995387  0.32674224  0.15393457  1
  O  O18  1  0.15144523  0.67373539  0.84670539  1
  O  O19  1  0.31056510  0.32592835  0.15362417  1
  O  O20  1  0.28705458  0.83706876  0.63795411  1
  O  O21  1  0.65600842  0.16896300  0.36445410  1
  O  O22  1  0.78963347  0.30490220  0.63605876  1
  O  O23  1  0.15145991  0.69912686  0.36253724  1
