# generated using pymatgen
data_Ba3TiMoO8
_symmetry_space_group_name_H-M   'P 1'
_cell_length_a   6.04878682
_cell_length_b   6.04878682
_cell_length_c   8.00745161
_cell_angle_alpha   89.99999943
_cell_angle_beta   112.19112549
_cell_angle_gamma   60.00000135
_symmetry_Int_Tables_number   1
_chemical_formula_structural   Ba3TiMoO8
_chemical_formula_sum   'Ba3 Ti1 Mo1 O8'
_cell_volume   228.32239249
_cell_formula_units_Z   1
loop_
 _symmetry_equiv_pos_site_id
 _symmetry_equiv_pos_as_xyz
  1  'x, y, z'
loop_
 _atom_site_type_symbol
 _atom_site_label
 _atom_site_symmetry_multiplicity
 _atom_site_fract_x
 _atom_site_fract_y
 _atom_site_fract_z
 _atom_site_occupancy
  Ba  Ba0  1  0.97761770  0.01119115  0.96642655  1
  Ba  Ba1  1  0.60335001  0.19832499  0.40502502  1
  Ba  Ba2  1  0.41207790  0.79396105  0.61811685  1
  Ti  Ti3  1  0.18832250  0.40583875  0.78248375  1
  Mo  Mo4  1  0.81685286  0.59157357  0.22527930  1
  O  O5  1  0.45696937  0.27151532  0.69211118  1
  O  O6  1  0.96362649  0.27151532  0.69211118  1
  O  O7  1  0.96362649  0.76485819  0.69211118  1
  O  O8  1  0.54340659  0.72829671  0.30448023  1
  O  O9  1  0.03277694  0.72829671  0.30448023  1
  O  O10  1  0.03277694  0.23892635  0.30448023  1
  O  O11  1  0.35655864  0.32172068  0.03483796  1
  O  O12  1  0.65203755  0.67398122  0.97805633  1
