# generated using pymatgen
data_Ba2Si3Au
_symmetry_space_group_name_H-M   'P 1'
_cell_length_a   4.32365262
_cell_length_b   4.32392493
_cell_length_c   10.03955686
_cell_angle_alpha   90.00000000
_cell_angle_beta   90.00000000
_cell_angle_gamma   60.02745088
_symmetry_Int_Tables_number   1
_chemical_formula_structural   Ba2Si3Au
_chemical_formula_sum   'Ba2 Si3 Au1'
_cell_volume   162.59013070
_cell_formula_units_Z   1
loop_
 _symmetry_equiv_pos_site_id
 _symmetry_equiv_pos_as_xyz
  1  'x, y, z'
loop_
 _atom_site_type_symbol
 _atom_site_label
 _atom_site_symmetry_multiplicity
 _atom_site_fract_x
 _atom_site_fract_y
 _atom_site_fract_z
 _atom_site_occupancy
  Ba  Ba0  1  0.99996018  0.99998901  0.00320249  1
  Ba  Ba1  1  0.99996018  0.99998901  0.49679751  1
  Si  Si2  1  0.66680880  0.66670310  0.75000000  1
  Si  Si3  1  0.33317806  0.33332211  0.25000000  1
  Si  Si4  1  0.33314544  0.33329695  0.75000000  1
  Au  Au5  1  0.66674734  0.66669982  0.25000000  1
