# generated using pymatgen
data_Ca2Eu(CuO3)2
_symmetry_space_group_name_H-M   'P 1'
_cell_length_a   6.32678967
_cell_length_b   6.17040863
_cell_length_c   8.22387650
_cell_angle_alpha   67.96628466
_cell_angle_beta   105.56477169
_cell_angle_gamma   89.99999985
_symmetry_Int_Tables_number   1
_chemical_formula_structural   Ca2Eu(CuO3)2
_chemical_formula_sum   'Ca4 Eu2 Cu4 O12'
_cell_volume   284.86121730
_cell_formula_units_Z   2
loop_
 _symmetry_equiv_pos_site_id
 _symmetry_equiv_pos_as_xyz
  1  'x, y, z'
loop_
 _atom_site_type_symbol
 _atom_site_label
 _atom_site_symmetry_multiplicity
 _atom_site_fract_x
 _atom_site_fract_y
 _atom_site_fract_z
 _atom_site_occupancy
  Ca  Ca0  1  0.24968684  0.04591105  0.99469562  1
  Ca  Ca1  1  0.74968684  0.95939333  0.99469562  1
  Ca  Ca2  1  0.27654006  0.01098662  0.59912754  1
  Ca  Ca3  1  0.77654006  0.38988584  0.59912754  1
  Eu  Eu4  1  0.72552471  0.98761902  0.40783602  1
  Eu  Eu5  1  0.22552471  0.60454496  0.40783602  1
  Cu  Cu6  1  0.00665271  0.67454623  0.83337613  1
  Cu  Cu7  1  0.50665271  0.49207764  0.83337613  1
  Cu  Cu8  1  0.99408942  0.32349422  0.16637985  1
  Cu  Cu9  1  0.49408942  0.51012593  0.16637985  1
  O  O10  1  0.02529639  0.68366296  0.60484332  1
  O  O11  1  0.52529639  0.71149372  0.60484332  1
  O  O12  1  0.97509630  0.31033362  0.39634262  1
  O  O13  1  0.47509630  0.29332376  0.39634262  1
  O  O14  1  0.97599802  0.34819624  0.92388682  1
  O  O15  1  0.47599802  0.72791694  0.92388682  1
  O  O16  1  0.02514020  0.65158676  0.07637486  1
  O  O17  1  0.52514020  0.27203838  0.07637486  1
  O  O18  1  0.97515315  0.00479139  0.75176550  1
  O  O19  1  0.47515315  0.24344311  0.75176550  1
  O  O20  1  0.02082220  0.99278576  0.24537173  1
  O  O21  1  0.52082220  0.76184251  0.24537173  1
