# generated using pymatgen
data_CaZr4(PbO4)3
_symmetry_space_group_name_H-M   'P 1'
_cell_length_a   8.35541513
_cell_length_b   8.35178668
_cell_length_c   8.37983365
_cell_angle_alpha   90.73188266
_cell_angle_beta   89.25369593
_cell_angle_gamma   90.78793725
_symmetry_Int_Tables_number   1
_chemical_formula_structural   CaZr4(PbO4)3
_chemical_formula_sum   'Ca2 Zr8 Pb6 O24'
_cell_volume   584.61567163
_cell_formula_units_Z   2
loop_
 _symmetry_equiv_pos_site_id
 _symmetry_equiv_pos_as_xyz
  1  'x, y, z'
loop_
 _atom_site_type_symbol
 _atom_site_label
 _atom_site_symmetry_multiplicity
 _atom_site_fract_x
 _atom_site_fract_y
 _atom_site_fract_z
 _atom_site_occupancy
  Ca  Ca0  1  0.53011104  0.47211538  0.02387488  1
  Ca  Ca1  1  0.02915591  0.47183666  0.52580545  1
  Zr  Zr2  1  0.75153872  0.25228822  0.75041508  1
  Zr  Zr3  1  0.24913813  0.74731203  0.24745971  1
  Zr  Zr4  1  0.74474096  0.74860261  0.24699798  1
  Zr  Zr5  1  0.25027836  0.25493912  0.25143348  1
  Zr  Zr6  1  0.24624819  0.74963762  0.74795152  1
  Zr  Zr7  1  0.74942872  0.25273865  0.25303602  1
  Zr  Zr8  1  0.25008973  0.25372075  0.75456826  1
  Zr  Zr9  1  0.75070511  0.74721850  0.74680792  1
  Pb  Pb10  1  0.51311555  0.98282814  0.52513429  1
  Pb  Pb11  1  0.51844401  0.98508520  0.01793181  1
  Pb  Pb12  1  0.01312867  0.48539059  0.01888930  1
  Pb  Pb13  1  0.02210547  0.98272828  0.51359011  1
  Pb  Pb14  1  0.51604251  0.48328608  0.52082946  1
  Pb  Pb15  1  0.01362150  0.98154163  0.02304002  1
  O  O16  1  0.70333881  0.73366831  0.48954938  1
  O  O17  1  0.49368429  0.30355363  0.26293073  1
  O  O18  1  0.26416975  0.50781522  0.69905139  1
  O  O19  1  0.99267332  0.23672257  0.20030697  1
  O  O20  1  0.20115220  0.00863498  0.76078082  1
  O  O21  1  0.76460694  0.79655568  0.98870594  1
  O  O22  1  0.20193365  0.24002769  0.49388159  1
  O  O23  1  0.49074564  0.79794775  0.75683186  1
  O  O24  1  0.76246855  0.50660462  0.19572959  1
  O  O25  1  0.99100604  0.71768248  0.68937016  1
  O  O26  1  0.69693742  0.00735779  0.25820274  1
  O  O27  1  0.27902386  0.31470116  0.99435672  1
  O  O28  1  0.76539847  0.00793623  0.70284164  1
  O  O29  1  0.70122508  0.23781520  0.99235001  1
  O  O30  1  0.99423739  0.30382801  0.76394216  1
  O  O31  1  0.18527069  0.50948201  0.27975589  1
  O  O32  1  0.26165329  0.79958990  0.48962937  1
  O  O33  1  0.48894515  0.71776655  0.18797878  1
  O  O34  1  0.26401922  0.00951911  0.20571397  1
  O  O35  1  0.19941311  0.73798574  0.99071477  1
  O  O36  1  0.98913532  0.79895185  0.25769495  1
  O  O37  1  0.68742832  0.50791492  0.77776321  1
  O  O38  1  0.77810804  0.31320173  0.49325230  1
  O  O39  1  0.49353289  0.23546740  0.69889978  1
