# generated using pymatgen
data_BaLa4Ti4O15
_symmetry_space_group_name_H-M   'P 1'
_cell_length_a   5.62698556
_cell_length_b   5.62698532
_cell_length_c   22.74947488
_cell_angle_alpha   89.99898676
_cell_angle_beta   89.99898675
_cell_angle_gamma   60.00005532
_symmetry_Int_Tables_number   1
_chemical_formula_structural   BaLa4Ti4O15
_chemical_formula_sum   'Ba2 La8 Ti8 O30'
_cell_volume   623.81215490
_cell_formula_units_Z   2
loop_
 _symmetry_equiv_pos_site_id
 _symmetry_equiv_pos_as_xyz
  1  'x, y, z'
loop_
 _atom_site_type_symbol
 _atom_site_label
 _atom_site_symmetry_multiplicity
 _atom_site_fract_x
 _atom_site_fract_y
 _atom_site_fract_z
 _atom_site_occupancy
  Ba  Ba0  1  0.66665752  0.66665030  0.54053300  1
  Ba  Ba1  1  0.66665030  0.66665752  0.04053300  1
  La  La2  1  0.66667538  0.66665098  0.85822811  1
  La  La3  1  0.66665098  0.66667538  0.35822811  1
  La  La4  1  0.33334801  0.33334657  0.14136742  1
  La  La5  1  0.33334657  0.33334801  0.64136742  1
  La  La6  1  -0.00000939  -0.00000164  0.74932948  1
  La  La7  1  -0.00000164  -0.00000939  0.24932948  1
  La  La8  1  0.33331165  0.33334172  0.46861247  1
  La  La9  1  0.33334172  0.33331165  0.96861247  1
  Ti  Ti10  1  -0.00000112  0.99999528  0.90658014  1
  Ti  Ti11  1  0.99999528  -0.00000112  0.40658014  1
  Ti  Ti12  1  0.00000115  0.00000162  0.09187485  1
  Ti  Ti13  1  0.00000162  0.00000115  0.59187485  1
  Ti  Ti14  1  0.66667001  0.66667065  0.69898413  1
  Ti  Ti15  1  0.66667065  0.66667001  0.19898413  1
  Ti  Ti16  1  0.33332807  0.33333484  0.30225092  1
  Ti  Ti17  1  0.33333484  0.33332807  0.80225092  1
  O  O18  1  0.99985755  0.43839332  0.75032976  1
  O  O19  1  0.56176429  0.99985002  0.75033264  1
  O  O20  1  0.43839005  0.56175513  0.75033055  1
  O  O21  1  0.43839332  0.99985755  0.25032976  1
  O  O22  1  0.56175513  0.43839005  0.25033055  1
  O  O23  1  0.99985002  0.56176429  0.25033264  1
  O  O24  1  0.19185352  0.14735459  0.05566953  1
  O  O25  1  0.66078138  0.19185585  0.05566942  1
  O  O26  1  0.14736109  0.66078280  0.05567189  1
  O  O27  1  0.14735459  0.19185352  0.55566953  1
  O  O28  1  0.66078280  0.14736109  0.55567189  1
  O  O29  1  0.19185585  0.66078138  0.55566942  1
  O  O30  1  0.75311247  0.91408531  0.94114013  1
  O  O31  1  0.33280522  0.75310531  0.94113877  1
  O  O32  1  0.91408155  0.33280960  0.94113914  1
  O  O33  1  0.91408531  0.75311247  0.44114013  1
  O  O34  1  0.33280960  0.91408155  0.44113914  1
  O  O35  1  0.75310531  0.33280522  0.44113877  1
  O  O36  1  0.10231445  0.66873683  0.84511954  1
  O  O37  1  0.22894152  0.10230897  0.84511804  1
  O  O38  1  0.66874988  0.22894400  0.84512055  1
  O  O39  1  0.66873683  0.10231445  0.34511954  1
  O  O40  1  0.22894400  0.66874988  0.34512055  1
  O  O41  1  0.10230897  0.22894152  0.34511804  1
  O  O42  1  0.89074792  0.33069049  0.15515289  1
  O  O43  1  0.77857042  0.89075601  0.15515451  1
  O  O44  1  0.33069250  0.77857635  0.15515213  1
  O  O45  1  0.33069049  0.89074792  0.65515289  1
  O  O46  1  0.77857635  0.33069250  0.65515213  1
  O  O47  1  0.89075601  0.77857042  0.65515451  1
