# generated using pymatgen
data_Cd2Bi6O11
_symmetry_space_group_name_H-M   'P 1'
_cell_length_a   7.66295992
_cell_length_b   7.56195923
_cell_length_c   15.12995820
_cell_angle_alpha   107.97654324
_cell_angle_beta   111.61176435
_cell_angle_gamma   109.67162931
_symmetry_Int_Tables_number   1
_chemical_formula_structural   Cd2Bi6O11
_chemical_formula_sum   'Cd4 Bi12 O22'
_cell_volume   667.26591448
_cell_formula_units_Z   2
loop_
 _symmetry_equiv_pos_site_id
 _symmetry_equiv_pos_as_xyz
  1  'x, y, z'
loop_
 _atom_site_type_symbol
 _atom_site_label
 _atom_site_symmetry_multiplicity
 _atom_site_fract_x
 _atom_site_fract_y
 _atom_site_fract_z
 _atom_site_occupancy
  Cd  Cd0  1  0.00445388  0.01805439  0.00825369  1
  Cd  Cd1  1  0.51207737  0.95978065  0.26268059  1
  Cd  Cd2  1  0.99533634  0.00960810  0.50984141  1
  Cd  Cd3  1  0.02755088  0.49129952  0.25064860  1
  Bi  Bi4  1  0.46734629  0.51680013  0.74187108  1
  Bi  Bi5  1  0.50462219  0.04681529  0.76388674  1
  Bi  Bi6  1  0.57367719  0.62882495  0.52944389  1
  Bi  Bi7  1  0.42434051  0.03436826  0.50341779  1
  Bi  Bi8  1  0.52044826  0.47111389  0.26007149  1
  Bi  Bi9  1  0.09549583  0.62415529  0.81002697  1
  Bi  Bi10  1  0.47684962  0.46563657  0.00486375  1
  Bi  Bi11  1  0.02872920  0.00025954  0.76858697  1
  Bi  Bi12  1  0.99879445  0.43429881  0.46586350  1
  Bi  Bi13  1  0.55630408  0.01425589  0.05492511  1
  Bi  Bi14  1  0.98774520  0.53460332  0.00614184  1
  Bi  Bi15  1  0.01487317  0.94781181  0.23073092  1
  O  O16  1  0.14311209  0.81304133  0.98919808  1
  O  O17  1  0.29130920  0.92969813  0.59195186  1
  O  O18  1  0.18340708  0.55243502  0.68515257  1
  O  O19  1  0.37584205  0.63329549  0.91720740  1
  O  O20  1  0.35674851  0.97824105  0.89439008  1
  O  O21  1  0.31644248  0.22887636  0.77905933  1
  O  O22  1  0.16098681  0.73001087  0.20276656  1
  O  O23  1  0.35602411  0.69039467  0.42490433  1
  O  O24  1  0.09116579  0.89823656  0.37675454  1
  O  O25  1  0.63206317  0.78733869  0.69757150  1
  O  O26  1  0.75689604  0.36391329  0.81306830  1
  O  O27  1  0.33072172  0.30811102  0.57091160  1
  O  O28  1  0.83000607  0.96152385  0.60287723  1
  O  O29  1  0.32734245  0.15353531  0.23375990  1
  O  O30  1  0.56469581  0.72970025  0.15539993  1
  O  O31  1  0.07657879  0.21474200  0.91863812  1
  O  O32  1  0.77344592  0.56864802  0.42003680  1
  O  O33  1  0.63429207  0.36561264  0.15629597  1
  O  O34  1  0.76471767  0.13451376  0.43758766  1
  O  O35  1  0.80025735  0.68949210  0.03124738  1
  O  O36  1  0.92879754  0.24888498  0.30234897  1
  O  O37  1  0.86650281  0.19706818  0.06511754  1
