# generated using pymatgen
data_Ba2Y2Mn4O11
_symmetry_space_group_name_H-M   'P 1'
_cell_length_a   3.85549911
_cell_length_b   8.19348076
_cell_length_c   8.73000345
_cell_angle_alpha   62.78893869
_cell_angle_beta   89.98684836
_cell_angle_gamma   90.07911925
_symmetry_Int_Tables_number   1
_chemical_formula_structural   Ba2Y2Mn4O11
_chemical_formula_sum   'Ba2 Y2 Mn4 O11'
_cell_volume   245.25894970
_cell_formula_units_Z   1
loop_
 _symmetry_equiv_pos_site_id
 _symmetry_equiv_pos_as_xyz
  1  'x, y, z'
loop_
 _atom_site_type_symbol
 _atom_site_label
 _atom_site_symmetry_multiplicity
 _atom_site_fract_x
 _atom_site_fract_y
 _atom_site_fract_z
 _atom_site_occupancy
  Ba  Ba0  1  0.50000000  0.50000000  0.50000000  1
  Ba  Ba1  1  0.50000000  -0.00000000  0.50000000  1
  Y  Y2  1  0.50471044  0.71884266  0.00875084  1
  Y  Y3  1  0.49528956  0.28115734  0.99124916  1
  Mn  Mn4  1  0.00386696  0.88183816  0.22743898  1
  Mn  Mn5  1  0.99613304  0.11816184  0.77256102  1
  Mn  Mn6  1  0.99882472  0.62943257  0.75132838  1
  Mn  Mn7  1  0.00117528  0.37056743  0.24867162  1
  O  O8  1  0.49893984  0.61804138  0.77624372  1
  O  O9  1  0.50106016  0.38195862  0.22375628  1
  O  O10  1  0.00146992  0.65651054  0.20786651  1
  O  O11  1  0.99853008  0.34348946  0.79213349  1
  O  O12  1  0.00799738  0.13368983  0.18848866  1
  O  O13  1  0.99200262  0.86631017  0.81151134  1
  O  O14  1  0.00056089  0.75402112  0.50226423  1
  O  O15  1  0.99943911  0.24597888  0.49773577  1
  O  O16  1  0.00000000  0.50000000  -0.00000000  1
  O  O17  1  0.50400412  0.89714026  0.17769055  1
  O  O18  1  0.49599588  0.10285974  0.82230945  1
