# generated using pymatgen
data_BaLa4Mn5O15
_symmetry_space_group_name_H-M   'P 1'
_cell_length_a   5.59795300
_cell_length_b   6.83023825
_cell_length_c   8.82431211
_cell_angle_alpha   104.90244730
_cell_angle_beta   71.50697548
_cell_angle_gamma   90.00000000
_symmetry_Int_Tables_number   1
_chemical_formula_structural   BaLa4Mn5O15
_chemical_formula_sum   'Ba1 La4 Mn5 O15'
_cell_volume   307.98834125
_cell_formula_units_Z   1
loop_
 _symmetry_equiv_pos_site_id
 _symmetry_equiv_pos_as_xyz
  1  'x, y, z'
loop_
 _atom_site_type_symbol
 _atom_site_label
 _atom_site_symmetry_multiplicity
 _atom_site_fract_x
 _atom_site_fract_y
 _atom_site_fract_z
 _atom_site_occupancy
  Ba  Ba0  1  -0.00000000  0.00000000  0.00000000  1
  La  La1  1  0.40087656  0.40583038  0.19824687  1
  La  La2  1  0.79786636  0.80052593  0.40426728  1
  La  La3  1  0.20213364  0.19947407  0.59573272  1
  La  La4  1  0.59912344  0.59416962  0.80175313  1
  Mn  Mn5  1  0.79981267  0.30004331  0.40037465  1
  Mn  Mn6  1  0.20018733  0.69995669  0.59962535  1
  Mn  Mn7  1  0.60049711  0.09926957  0.79900579  1
  Mn  Mn8  1  -0.00000000  0.50000000  0.00000000  1
  Mn  Mn9  1  0.39950289  0.90073043  0.20099421  1
  O  O10  1  0.50000000  0.50000000  0.50000000  1
  O  O11  1  0.89974024  0.89722087  0.68692331  1
  O  O12  1  0.30994551  0.31093870  0.89603032  1
  O  O13  1  0.69005449  0.68906130  0.10396968  1
  O  O14  1  0.10025976  0.10277913  0.31307669  1
  O  O15  1  0.58666355  0.10277913  0.31307669  1
  O  O16  1  -0.00000000  0.50000000  0.50000000  1
  O  O17  1  0.41333645  0.89722087  0.68692331  1
  O  O18  1  0.79402417  0.31093870  0.89603032  1
  O  O19  1  0.20597583  0.68906130  0.10396968  1
  O  O20  1  0.69973197  0.20382011  0.60053606  1
  O  O21  1  0.10407760  0.58818272  0.79184480  1
  O  O22  1  0.50000000  0.00000000  0.00000000  1
  O  O23  1  0.89592240  0.41181728  0.20815520  1
  O  O24  1  0.30026803  0.79617989  0.39946394  1
