# generated using pymatgen
data_Ba6Nd3TiCu6(MoO12)2
_symmetry_space_group_name_H-M   'P 1'
_cell_length_a   5.62159622
_cell_length_b   8.88461678
_cell_length_c   12.78070257
_cell_angle_alpha   106.14630487
_cell_angle_beta   77.29536245
_cell_angle_gamma   108.44335326
_symmetry_Int_Tables_number   1
_chemical_formula_structural   Ba6Nd3TiCu6(MoO12)2
_chemical_formula_sum   'Ba6 Nd3 Ti1 Cu6 Mo2 O24'
_cell_volume   575.53761850
_cell_formula_units_Z   1
loop_
 _symmetry_equiv_pos_site_id
 _symmetry_equiv_pos_as_xyz
  1  'x, y, z'
loop_
 _atom_site_type_symbol
 _atom_site_label
 _atom_site_symmetry_multiplicity
 _atom_site_fract_x
 _atom_site_fract_y
 _atom_site_fract_z
 _atom_site_occupancy
  Ba  Ba0  1  0.90056283  0.60468909  0.80356343  1
  Ba  Ba1  1  0.23045240  0.26433486  0.80342907  1
  Ba  Ba2  1  0.56560832  0.93434457  0.80312893  1
  Ba  Ba3  1  0.09943717  0.39531091  0.19643657  1
  Ba  Ba4  1  0.43439168  0.06565543  0.19687107  1
  Ba  Ba5  1  0.76954760  0.73566514  0.19657093  1
  Nd  Nd6  1  0.00000000  0.50000000  0.50000000  1
  Nd  Nd7  1  0.33314594  0.16610432  0.49981145  1
  Nd  Nd8  1  0.66685406  0.83389568  0.50018855  1
  Ti  Ti9  1  0.00000000  0.00000000  0.00000000  1
  Cu  Cu10  1  0.12084655  0.87893870  0.63724559  1
  Cu  Cu11  1  0.45529470  0.54394144  0.63335104  1
  Cu  Cu12  1  0.78910798  0.21172009  0.63350513  1
  Cu  Cu13  1  0.21089202  0.78827991  0.36649487  1
  Cu  Cu14  1  0.54470530  0.45605856  0.36664896  1
  Cu  Cu15  1  0.87915345  0.12106130  0.36275441  1
  Mo  Mo16  1  0.66417356  0.32833860  0.99999249  1
  Mo  Mo17  1  0.33582644  0.67166140  0.00000751  1
  O  O18  1  0.29223499  0.70851093  0.62632922  1
  O  O19  1  0.62453325  0.37500384  0.62527978  1
  O  O20  1  0.95730033  0.04241424  0.62627415  1
  O  O21  1  0.78994673  0.70851093  0.62632922  1
  O  O22  1  0.12518981  0.37500384  0.62527978  1
  O  O23  1  0.45884076  0.04241424  0.62627415  1
  O  O24  1  0.37546675  0.62499616  0.37472022  1
  O  O25  1  0.70776501  0.29148907  0.37367078  1
  O  O26  1  0.04269967  0.95758576  0.37372585  1
  O  O27  1  0.87481019  0.62499616  0.37472022  1
  O  O28  1  0.21005327  0.29148907  0.37367078  1
  O  O29  1  0.54115924  0.95758576  0.37372585  1
  O  O30  1  0.50000000  0.50000000  0.00000000  1
  O  O31  1  0.83020329  0.17007056  0.99999668  1
  O  O32  1  0.16979671  0.82992944  0.00000332  1
  O  O33  1  0.00000000  0.50000000  0.00000000  1
  O  O34  1  0.33986959  0.17007056  0.99999668  1
  O  O35  1  0.66013041  0.82992944  0.00000332  1
  O  O36  1  0.05226735  0.94769349  0.84315979  1
  O  O37  1  0.38295295  0.60788843  0.84198253  1
  O  O38  1  0.72240477  0.28675922  0.84194868  1
  O  O39  1  0.27759523  0.71324078  0.15805132  1
  O  O40  1  0.61704705  0.39211157  0.15801747  1
  O  O41  1  0.94773265  0.05230651  0.15684021  1
