# generated using pymatgen
data_Al5AgS8
_symmetry_space_group_name_H-M   'P 1'
_cell_length_a   7.20111209
_cell_length_b   7.20111209
_cell_length_c   7.20111209
_cell_angle_alpha   90.00000000
_cell_angle_beta   60.00000000
_cell_angle_gamma   120.00000000
_symmetry_Int_Tables_number   1
_chemical_formula_structural   Al5AgS8
_chemical_formula_sum   'Al5 Ag1 S8'
_cell_volume   264.04850631
_cell_formula_units_Z   1
loop_
 _symmetry_equiv_pos_site_id
 _symmetry_equiv_pos_as_xyz
  1  'x, y, z'
loop_
 _atom_site_type_symbol
 _atom_site_label
 _atom_site_symmetry_multiplicity
 _atom_site_fract_x
 _atom_site_fract_y
 _atom_site_fract_z
 _atom_site_occupancy
  Al  Al0  1  0.48634612  0.47951917  0.00682694  1
  Al  Al1  1  0.48634612  0.00682694  0.00682694  1
  Al  Al2  1  0.01365388  0.00682694  0.47951917  1
  Al  Al3  1  0.01365388  0.00682694  0.00682694  1
  Al  Al4  1  0.25000000  0.62500000  0.62500000  1
  Ag  Ag5  1  0.75000000  0.37500000  0.37500000  1
  S  S6  1  0.02403692  0.78605538  0.23798154  1
  S  S7  1  0.02403692  0.23798154  0.23798154  1
  S  S8  1  0.47596308  0.23798154  0.78605538  1
  S  S9  1  0.47596308  0.23798154  0.23798154  1
  S  S10  1  0.98306208  0.22459312  0.75846896  1
  S  S11  1  0.98306208  0.75846896  0.75846896  1
  S  S12  1  0.51693792  0.75846896  0.22459312  1
  S  S13  1  0.51693792  0.75846896  0.75846896  1
