# generated using pymatgen
data_AlSiAgO4
_symmetry_space_group_name_H-M   'P 1'
_cell_length_a   9.22555396
_cell_length_b   9.22555396
_cell_length_c   9.22555396
_cell_angle_alpha   90.20423813
_cell_angle_beta   89.79576187
_cell_angle_gamma   89.79576187
_symmetry_Int_Tables_number   1
_chemical_formula_structural   AlSiAgO4
_chemical_formula_sum   'Al6 Si6 Ag6 O24'
_cell_volume   785.17969948
_cell_formula_units_Z   6
loop_
 _symmetry_equiv_pos_site_id
 _symmetry_equiv_pos_as_xyz
  1  'x, y, z'
loop_
 _atom_site_type_symbol
 _atom_site_label
 _atom_site_symmetry_multiplicity
 _atom_site_fract_x
 _atom_site_fract_y
 _atom_site_fract_z
 _atom_site_occupancy
  Al  Al0  1  0.50266262  0.25058068  0.00269241  1
  Al  Al1  1  0.74941932  0.00269241  0.49733738  1
  Al  Al2  1  0.99730759  0.49733738  0.25058068  1
  Al  Al3  1  0.24941932  0.99733738  0.50269241  1
  Al  Al4  1  0.00266262  0.50269241  0.75058068  1
  Al  Al5  1  0.49730759  0.75058068  0.99733738  1
  Si  Si6  1  0.99911012  0.25113881  0.49814273  1
  Si  Si7  1  0.74886119  0.49814273  0.00088988  1
  Si  Si8  1  0.50185727  0.00088988  0.25113881  1
  Si  Si9  1  0.24886119  0.50088988  0.99814273  1
  Si  Si10  1  0.49911012  0.99814273  0.75113881  1
  Si  Si11  1  0.00185727  0.75113881  0.50088988  1
  Ag  Ag12  1  0.25714852  0.25758006  0.74306164  1
  Ag  Ag13  1  0.25693836  0.74285148  0.25758006  1
  Ag  Ag14  1  0.74241994  0.74306164  0.74285148  1
  Ag  Ag15  1  0.75714852  0.24306164  0.75758006  1
  Ag  Ag16  1  0.75693836  0.75758006  0.24285148  1
  Ag  Ag17  1  0.24241994  0.24285148  0.24306164  1
  O  O18  1  0.64984153  0.36028665  0.04020247  1
  O  O19  1  0.63971335  0.04020247  0.35015847  1
  O  O20  1  0.95979753  0.35015847  0.36028665  1
  O  O21  1  0.34999982  0.35833408  0.95649849  1
  O  O22  1  0.36046043  0.04673148  0.64987550  1
  O  O23  1  0.04388970  0.34889821  0.64168953  1
  O  O24  1  0.35012450  0.63953957  0.04673148  1
  O  O25  1  0.35831047  0.95611030  0.34889821  1
  O  O26  1  0.04350151  0.65000018  0.35833408  1
  O  O27  1  0.65110179  0.64168953  0.95611030  1
  O  O28  1  0.64166592  0.95649849  0.65000018  1
  O  O29  1  0.95326852  0.64987550  0.63953957  1
  O  O30  1  0.86046043  0.14987550  0.54673148  1
  O  O31  1  0.54388970  0.14168953  0.84889821  1
  O  O32  1  0.84999982  0.45649849  0.85833408  1
  O  O33  1  0.85831047  0.84889821  0.45611030  1
  O  O34  1  0.54350151  0.85833408  0.15000018  1
  O  O35  1  0.85012450  0.54673148  0.13953957  1
  O  O36  1  0.13971335  0.85015847  0.54020247  1
  O  O37  1  0.45979753  0.86028665  0.85015847  1
  O  O38  1  0.14984153  0.54020247  0.86028665  1
  O  O39  1  0.14166592  0.15000018  0.45649849  1
  O  O40  1  0.45326852  0.13953957  0.14987550  1
  O  O41  1  0.15110179  0.45611030  0.14168953  1
