# generated using pymatgen
data_Ba2Ti5(Bi2O9)2
_symmetry_space_group_name_H-M   'P 1'
_cell_length_a   5.58742693
_cell_length_b   25.38388940
_cell_length_c   5.58124893
_cell_angle_alpha   89.81334196
_cell_angle_beta   88.30376605
_cell_angle_gamma   83.68131154
_symmetry_Int_Tables_number   1
_chemical_formula_structural   Ba2Ti5(Bi2O9)2
_chemical_formula_sum   'Ba4 Ti10 Bi8 O36'
_cell_volume   786.43843965
_cell_formula_units_Z   2
loop_
 _symmetry_equiv_pos_site_id
 _symmetry_equiv_pos_as_xyz
  1  'x, y, z'
loop_
 _atom_site_type_symbol
 _atom_site_label
 _atom_site_symmetry_multiplicity
 _atom_site_fract_x
 _atom_site_fract_y
 _atom_site_fract_z
 _atom_site_occupancy
  Ba  Ba0  1  0.38806823  0.25102274  0.51145619  1
  Ba  Ba1  1  0.13909097  0.74897726  0.01145619  1
  Ba  Ba2  1  0.53907156  0.91808596  0.50321228  1
  Ba  Ba3  1  0.95715752  0.08191404  0.00321228  1
  Ti  Ti4  1  0.08002772  0.83293737  0.51852819  1
  Ti  Ti5  1  0.92915319  0.16847583  0.49945780  1
  Ti  Ti6  1  0.59762901  0.83152417  0.99945780  1
  Ti  Ti7  1  0.41296509  0.16706263  0.01852819  1
  Ti  Ti8  1  0.20044653  0.65651807  0.51238395  1
  Ti  Ti9  1  0.83483825  0.34325012  0.51701935  1
  Ti  Ti10  1  0.67808837  0.65674988  0.01701935  1
  Ti  Ti11  1  0.35696460  0.34348193  0.01238395  1
  Ti  Ti12  1  0.00026708  0.00103687  0.50554647  1
  Ti  Ti13  1  0.50130395  0.99896313  0.00554647  1
  Bi  Bi14  1  0.25486496  0.45042278  0.47188177  1
  Bi  Bi15  1  0.70560425  0.54915944  0.51826638  1
  Bi  Bi16  1  0.75476369  0.45084056  0.01826638  1
  Bi  Bi17  1  0.20528774  0.54957722  0.97188177  1
  Bi  Bi18  1  0.68958849  0.73077201  0.53648856  1
  Bi  Bi19  1  0.92036050  0.26922799  0.03648856  1
  Bi  Bi20  1  0.50058886  0.08894343  0.55886140  1
  Bi  Bi21  1  0.08953229  0.91105657  0.05886140  1
  O  O22  1  0.30652696  0.83906345  0.22769583  1
  O  O23  1  0.16357833  0.15960476  0.72451820  1
  O  O24  1  0.82318308  0.84039524  0.22451820  1
  O  O25  1  0.64559042  0.16093655  0.72769583  1
  O  O26  1  0.22042763  0.00085515  0.22564880  1
  O  O27  1  0.22617521  0.00173796  0.72838536  1
  O  O28  1  0.72791317  0.99826204  0.22838536  1
  O  O29  1  0.72128277  0.99914485  0.72564880  1
  O  O30  1  0.99380426  0.50100433  0.24973254  1
  O  O31  1  0.49790216  0.49777786  0.75687794  1
  O  O32  1  0.49568002  0.50222214  0.25687794  1
  O  O33  1  0.99480859  0.49899567  0.74973254  1
  O  O34  1  0.23574097  0.58655722  0.54732637  1
  O  O35  1  0.81128258  0.41250124  0.48136031  1
  O  O36  1  0.72378382  0.58749876  0.98136031  1
  O  O37  1  0.32229819  0.41344278  0.04732637  1
  O  O38  1  0.07545310  0.75837309  0.50400825  1
  O  O39  1  0.89078030  0.24206365  0.46879178  1
  O  O40  1  0.63284395  0.75793635  0.96879178  1
  O  O41  1  0.33382618  0.24162691  0.00400825  1
  O  O42  1  0.09242577  0.32642847  0.25082873  1
  O  O43  1  0.43428102  0.67371759  0.73542206  1
  O  O44  1  0.60799861  0.32628241  0.23542206  1
  O  O45  1  0.91885424  0.67357153  0.75082873  1
  O  O46  1  0.40718851  0.66857718  0.24299335  1
  O  O47  1  0.06730120  0.32961561  0.77048079  1
  O  O48  1  0.89691681  0.67038439  0.27048079  1
  O  O49  1  0.57576569  0.33142282  0.74299335  1
  O  O50  1  0.03957330  0.91952430  0.45757478  1
  O  O51  1  0.90579795  0.07965753  0.49698943  1
  O  O52  1  0.48545547  0.92034247  0.99698943  1
  O  O53  1  0.45909760  0.08047570  0.95757478  1
  O  O54  1  0.15332185  0.15721318  0.23453887  1
  O  O55  1  0.30693706  0.83706829  0.74372428  1
  O  O56  1  0.64400535  0.16293171  0.24372428  1
  O  O57  1  0.81053504  0.84278682  0.73453887  1
