# generated using pymatgen
data_Al8V5
_symmetry_space_group_name_H-M   'P 1'
_cell_length_a   7.97802629
_cell_length_b   7.97802629
_cell_length_c   7.92634375
_cell_angle_alpha   71.23526558
_cell_angle_beta   71.23526558
_cell_angle_gamma   110.18135799
_symmetry_Int_Tables_number   1
_chemical_formula_structural   Al8V5
_chemical_formula_sum   'Al16 V10'
_cell_volume   391.63883319
_cell_formula_units_Z   2
loop_
 _symmetry_equiv_pos_site_id
 _symmetry_equiv_pos_as_xyz
  1  'x, y, z'
loop_
 _atom_site_type_symbol
 _atom_site_label
 _atom_site_symmetry_multiplicity
 _atom_site_fract_x
 _atom_site_fract_y
 _atom_site_fract_z
 _atom_site_occupancy
  Al  Al0  1  0.38342804  0.64347920  0.35106666  1
  Al  Al1  1  0.65566978  0.65566978  0.59731545  1
  Al  Al2  1  0.64347920  0.38342804  0.35106666  1
  Al  Al3  1  0.61296734  0.25845211  0.73445223  1
  Al  Al4  1  0.34761574  0.75707058  0.98718812  1
  Al  Al5  1  0.35501582  0.00576060  0.26429952  1
  Al  Al6  1  0.00576060  0.35501582  0.26429952  1
  Al  Al7  1  0.75707058  0.34761574  0.98718812  1
  Al  Al8  1  0.25845211  0.61296734  0.73445223  1
  Al  Al9  1  0.00763962  0.73805214  0.64771379  1
  Al  Al10  1  0.24824762  0.24824762  0.41238053  1
  Al  Al11  1  0.73805214  0.00763962  0.64771379  1
  Al  Al12  1  0.00220066  0.64753363  0.35306443  1
  Al  Al13  1  0.64590191  0.64590191  0.99764529  1
  Al  Al14  1  0.64753363  0.00220066  0.35306443  1
  Al  Al15  1  0.35623499  0.35623499  0.99821801  1
  V  V16  1  0.34056157  0.34056157  0.66696185  1
  V  V17  1  0.65870611  0.99099124  0.00708963  1
  V  V18  1  0.99099124  0.65870611  0.00708963  1
  V  V19  1  0.00290571  0.00290571  0.33342388  1
  V  V20  1  0.34580209  0.00419204  0.64522748  1
  V  V21  1  0.00419204  0.34580209  0.64522748  1
  V  V22  1  0.79210183  0.79210183  0.20415352  1
  V  V23  1  0.20224502  0.00406339  0.00287322  1
  V  V24  1  0.00406339  0.20224502  0.00287322  1
  V  V25  1  0.99316122  0.99316122  0.80395127  1
