# generated using pymatgen
data_Gd2Si2O7
_symmetry_space_group_name_H-M   'P 1'
_cell_length_a   6.62296879
_cell_length_b   6.74854081
_cell_length_c   12.38321069
_cell_angle_alpha   90.00000000
_cell_angle_beta   102.38801780
_cell_angle_gamma   90.00000000
_symmetry_Int_Tables_number   1
_chemical_formula_structural   Gd2Si2O7
_chemical_formula_sum   'Gd8 Si8 O28'
_cell_volume   540.58584368
_cell_formula_units_Z   4
loop_
 _symmetry_equiv_pos_site_id
 _symmetry_equiv_pos_as_xyz
  1  'x, y, z'
loop_
 _atom_site_type_symbol
 _atom_site_label
 _atom_site_symmetry_multiplicity
 _atom_site_fract_x
 _atom_site_fract_y
 _atom_site_fract_z
 _atom_site_occupancy
  O  O0  1  0.29372273  0.10502893  0.95735183  1
  O  O1  1  0.20627727  0.60502893  0.54264817  1
  O  O2  1  0.70627727  0.89497107  0.04264817  1
  O  O3  1  0.79372273  0.39497107  0.45735183  1
  O  O4  1  0.36260934  0.83070011  0.14597452  1
  O  O5  1  0.13739066  0.33070011  0.35402548  1
  O  O6  1  0.63739066  0.16929989  0.85402548  1
  O  O7  1  0.86260934  0.66929989  0.64597452  1
  O  O8  1  0.03312164  0.59487812  0.16133072  1
  O  O9  1  0.46687836  0.09487812  0.33866928  1
  O  O10  1  0.96687836  0.40512188  0.83866928  1
  O  O11  1  0.53312164  0.90512188  0.66133072  1
  O  O12  1  0.98616633  0.98131143  0.78761499  1
  O  O13  1  0.51383367  0.48131143  0.71238501  1
  O  O14  1  0.01383367  0.01868857  0.21238501  1
  O  O15  1  0.48616633  0.51868857  0.28761499  1
  O  O16  1  0.56089960  0.72224467  0.46849642  1
  O  O17  1  0.93910040  0.22224467  0.03150358  1
  O  O18  1  0.43910040  0.27775533  0.53150358  1
  O  O19  1  0.06089960  0.77775533  0.96849642  1
  O  O20  1  0.82491652  0.01509630  0.54970659  1
  O  O21  1  0.67508348  0.51509630  0.95029341  1
  O  O22  1  0.17508348  0.98490370  0.45029341  1
  O  O23  1  0.32491652  0.48490370  0.04970659  1
  O  O24  1  0.82962722  0.72365757  0.33176708  1
  O  O25  1  0.67037278  0.22365757  0.16823292  1
  O  O26  1  0.17037278  0.27634243  0.66823292  1
  O  O27  1  0.32962722  0.77634243  0.83176708  1
  Si  Si28  1  0.17710145  0.91830850  0.88859859  1
  Si  Si29  1  0.32289855  0.41830850  0.61140141  1
  Si  Si30  1  0.82289855  0.08169150  0.11140141  1
  Si  Si31  1  0.67710145  0.58169150  0.38859859  1
  Si  Si32  1  0.18893390  0.67134160  0.08546735  1
  Si  Si33  1  0.31106610  0.17134160  0.41453265  1
  Si  Si34  1  0.81106610  0.32865840  0.91453265  1
  Si  Si35  1  0.68893390  0.82865840  0.58546735  1
  Gd  Gd36  1  0.69112687  0.82991930  0.84868364  1
  Gd  Gd37  1  0.80887313  0.32991930  0.65131636  1
  Gd  Gd38  1  0.30887313  0.17008070  0.15131636  1
  Gd  Gd39  1  0.19112687  0.67008070  0.34868364  1
  Gd  Gd40  1  0.66500279  0.61115104  0.13705967  1
  Gd  Gd41  1  0.83499721  0.11115104  0.36294033  1
  Gd  Gd42  1  0.33499721  0.38884896  0.86294033  1
  Gd  Gd43  1  0.16500279  0.88884896  0.63705967  1
