# generated using pymatgen
data_Ca5Al12Si12(AgO24)2
_symmetry_space_group_name_H-M   'P 1'
_cell_length_a   12.92924803
_cell_length_b   12.18118788
_cell_length_c   12.17451976
_cell_angle_alpha   89.80216295
_cell_angle_beta   89.46363154
_cell_angle_gamma   89.52801142
_symmetry_Int_Tables_number   1
_chemical_formula_structural   Ca5Al12Si12(AgO24)2
_chemical_formula_sum   'Ca5 Al12 Si12 Ag2 O48'
_cell_volume   1917.24894054
_cell_formula_units_Z   1
loop_
 _symmetry_equiv_pos_site_id
 _symmetry_equiv_pos_as_xyz
  1  'x, y, z'
loop_
 _atom_site_type_symbol
 _atom_site_label
 _atom_site_symmetry_multiplicity
 _atom_site_fract_x
 _atom_site_fract_y
 _atom_site_fract_z
 _atom_site_occupancy
  Ca  Ca0  1  0.22925962  0.19868573  0.19619616  1
  Ca  Ca1  1  0.78323503  0.18401131  0.81343960  1
  Ca  Ca2  1  0.77758564  0.18619685  0.18399180  1
  Ca  Ca3  1  0.78216790  0.81605049  0.18301079  1
  Ca  Ca4  1  0.78371012  0.82086979  0.81986652  1
  Al  Al5  1  0.17720948  0.36143593  0.00039558  1
  Al  Al6  1  0.17608802  0.00295589  0.36303692  1
  Al  Al7  1  0.37357580  0.00459938  0.80355842  1
  Al  Al8  1  0.37627513  0.80344379  0.99888681  1
  Al  Al9  1  0.61142570  0.99973042  0.19561435  1
  Al  Al10  1  0.61095151  0.19584300  0.00021670  1
  Al  Al11  1  0.61178592  0.00244192  0.80558878  1
  Al  Al12  1  0.61204534  0.80449225  0.00170175  1
  Al  Al13  1  0.83436402  0.99881979  0.63556196  1
  Al  Al14  1  0.83216851  0.36417343  0.99749765  1
  Al  Al15  1  0.83436281  0.63616666  0.99849304  1
  Al  Al16  1  0.83231939  0.99852939  0.36366034  1
  Si  Si17  1  0.00386368  0.18531138  0.63088947  1
  Si  Si18  1  0.00113372  0.62842809  0.18607788  1
  Si  Si19  1  0.00580690  0.81055448  0.36604941  1
  Si  Si20  1  0.00816134  0.62843940  0.81267522  1
  Si  Si21  1  0.00829157  0.81270731  0.62994621  1
  Si  Si22  1  0.17795569  0.00320917  0.62799389  1
  Si  Si23  1  0.17814574  0.62505317  0.00196084  1
  Si  Si24  1  0.37819595  0.99701993  0.18916912  1
  Si  Si25  1  0.37649186  0.18867495  0.99325515  1
  Si  Si26  1  0.99980216  0.18847000  0.36687887  1
  Si  Si27  1  0.00065544  0.36521386  0.18797894  1
  Si  Si28  1  0.00560503  0.36521438  0.81138456  1
  Ag  Ag29  1  0.21543437  0.80951022  0.80327857  1
  Ag  Ag30  1  0.21042532  0.79926764  0.19347599  1
  O  O31  1  0.00022925  0.31059843  0.31081737  1
  O  O32  1  0.01097733  0.30399833  0.69157575  1
  O  O33  1  0.01224708  0.69109963  0.30392678  1
  O  O34  1  0.99928288  0.49823965  0.78545406  1
  O  O35  1  0.00181343  0.78644621  0.49822288  1
  O  O36  1  0.10147704  0.10725534  0.66013704  1
  O  O37  1  0.10199434  0.65800259  0.10986057  1
  O  O38  1  0.10969068  0.65393937  0.88913315  1
  O  O39  1  0.10890206  0.88850573  0.65613321  1
  O  O40  1  0.10465411  0.12442144  0.32338732  1
  O  O41  1  0.10710460  0.32523591  0.12621670  1
  O  O42  1  0.10258954  0.33437993  0.88667314  1
  O  O43  1  0.10810698  0.88116179  0.33017680  1
  O  O44  1  0.20395255  0.00511635  0.49907961  1
  O  O45  1  0.20839455  0.49851739  0.00720353  1
  O  O46  1  0.28049891  0.02689813  0.27368325  1
  O  O47  1  0.28177487  0.27435708  0.02969464  1
  O  O48  1  0.27209266  0.70854090  0.00993047  1
  O  O49  1  0.27587036  0.99912306  0.70355080  1
  O  O50  1  0.36581019  0.10682281  0.10700855  1
  O  O51  1  0.35036471  0.12293485  0.88544646  1
  O  O52  1  0.35353025  0.88384310  0.12430681  1
  O  O53  1  0.34600926  0.88843138  0.88785651  1
  O  O54  1  0.48634495  0.25128236  0.99777145  1
  O  O55  1  0.49494068  0.00423228  0.74321719  1
  O  O56  1  0.49533406  0.74011370  0.00250878  1
  O  O57  1  0.48668589  0.99822902  0.25251987  1
  O  O58  1  0.62915716  0.12352884  0.12416014  1
  O  O59  1  0.63762981  0.12349170  0.88015510  1
  O  O60  1  0.63434573  0.87833595  0.12397619  1
  O  O61  1  0.63731097  0.88403381  0.88439475  1
  O  O62  1  0.73314641  0.00063978  0.26713256  1
  O  O63  1  0.73142192  0.26942921  0.00461658  1
  O  O64  1  0.73838751  0.73689815  0.00052002  1
  O  O65  1  0.73802383  0.99976184  0.73634099  1
  O  O66  1  0.81030933  0.50049149  0.99804673  1
  O  O67  1  0.80978494  0.99571264  0.49999140  1
  O  O68  1  0.89752700  0.12509692  0.67386564  1
  O  O69  1  0.89750676  0.67519602  0.12564689  1
  O  O70  1  0.90462778  0.67712794  0.87527578  1
  O  O71  1  0.90330738  0.87407402  0.67579159  1
  O  O72  1  0.89720621  0.12388180  0.32271693  1
  O  O73  1  0.89895049  0.32181840  0.12205262  1
  O  O74  1  0.89761430  0.32261786  0.87213941  1
  O  O75  1  0.90133569  0.87423747  0.32178489  1
  O  O76  1  0.99872814  0.20726494  0.49839710  1
  O  O77  1  0.99679651  0.49733986  0.20819022  1
  O  O78  1  0.02351021  0.69677458  0.69718047  1
