# generated using pymatgen
data_AlInSb2
_symmetry_space_group_name_H-M   'P 1'
_cell_length_a   4.55247645
_cell_length_b   4.55247645
_cell_length_c   7.85567329
_cell_angle_alpha   73.15657704
_cell_angle_beta   90.00000000
_cell_angle_gamma   120.00000000
_symmetry_Int_Tables_number   1
_chemical_formula_structural   AlInSb2
_chemical_formula_sum   'Al1 In1 Sb2'
_cell_volume   132.87070123
_cell_formula_units_Z   1
loop_
 _symmetry_equiv_pos_site_id
 _symmetry_equiv_pos_as_xyz
  1  'x, y, z'
loop_
 _atom_site_type_symbol
 _atom_site_label
 _atom_site_symmetry_multiplicity
 _atom_site_fract_x
 _atom_site_fract_y
 _atom_site_fract_z
 _atom_site_occupancy
  Al  Al0  1  0.00029377  0.00058755  0.99911868  1
  In  In1  1  0.49967421  0.99934841  0.50097738  1
  Sb  Sb2  1  0.87943508  0.75887017  0.36169475  1
  Sb  Sb3  1  0.37059694  0.74119388  0.88820919  1
