# generated using pymatgen
data_B3H60C16(NO)12
_symmetry_space_group_name_H-M   'P 1'
_cell_length_a   10.81447492
_cell_length_b   10.81447492
_cell_length_c   10.81447492
_cell_angle_alpha   90.00000000
_cell_angle_beta   90.00000000
_cell_angle_gamma   90.00000000
_symmetry_Int_Tables_number   1
_chemical_formula_structural   B3H60C16(NO)12
_chemical_formula_sum   'B3 H60 C16 N12 O12'
_cell_volume   1264.78385559
_cell_formula_units_Z   1
loop_
 _symmetry_equiv_pos_site_id
 _symmetry_equiv_pos_as_xyz
  1  'x, y, z'
loop_
 _atom_site_type_symbol
 _atom_site_label
 _atom_site_symmetry_multiplicity
 _atom_site_fract_x
 _atom_site_fract_y
 _atom_site_fract_z
 _atom_site_occupancy
  B  B0  1  0.50000000  0.00000000  0.00000000  1
  B  B1  1  0.00000000  0.50000000  0.00000000  1
  B  B2  1  0.00000000  0.00000000  0.50000000  1
  H  H3  1  0.20996839  0.61103363  0.20996839  1
  H  H4  1  0.20996839  0.20996839  0.61103363  1
  H  H5  1  0.20996839  0.38896637  0.79003161  1
  H  H6  1  0.23134690  0.47921847  0.11444889  1
  H  H7  1  0.23134690  0.88555111  0.52078153  1
  H  H8  1  0.23134690  0.11444889  0.47921847  1
  H  H9  1  0.23134690  0.52078153  0.88555111  1
  H  H10  1  0.47921847  0.23134690  0.11444889  1
  H  H11  1  0.47921847  0.11444889  0.23134690  1
  H  H12  1  0.47921847  0.88555111  0.76865310  1
  H  H13  1  0.47921847  0.76865310  0.88555111  1
  H  H14  1  0.61103363  0.20996839  0.20996839  1
  H  H15  1  0.61103363  0.79003161  0.79003161  1
  H  H16  1  0.72436500  0.84078539  0.00794459  1
  H  H17  1  0.72436500  0.99205541  0.15921461  1
  H  H18  1  0.72436500  0.00794459  0.84078539  1
  H  H19  1  0.72436500  0.15921461  0.99205541  1
  H  H20  1  0.79003161  0.61103363  0.79003161  1
  H  H21  1  0.79003161  0.20996839  0.38896637  1
  H  H22  1  0.79003161  0.38896637  0.20996839  1
  H  H23  1  0.84078539  0.72436500  0.00794459  1
  H  H24  1  0.84078539  0.00794459  0.72436500  1
  H  H25  1  0.84078539  0.99205541  0.27563500  1
  H  H26  1  0.84078539  0.27563500  0.99205541  1
  H  H27  1  0.88555111  0.47921847  0.76865310  1
  H  H28  1  0.88555111  0.76865310  0.47921847  1
  H  H29  1  0.88555111  0.23134690  0.52078153  1
  H  H30  1  0.88555111  0.52078153  0.23134690  1
  H  H31  1  0.99205541  0.72436500  0.15921461  1
  H  H32  1  0.99205541  0.15921461  0.72436500  1
  H  H33  1  0.99205541  0.84078539  0.27563500  1
  H  H34  1  0.99205541  0.27563500  0.84078539  1
  H  H35  1  0.00794459  0.72436500  0.84078539  1
  H  H36  1  0.00794459  0.84078539  0.72436500  1
  H  H37  1  0.00794459  0.15921461  0.27563500  1
  H  H38  1  0.00794459  0.27563500  0.15921461  1
  H  H39  1  0.11444889  0.23134690  0.47921847  1
  H  H40  1  0.11444889  0.47921847  0.23134690  1
  H  H41  1  0.11444889  0.52078153  0.76865310  1
  H  H42  1  0.11444889  0.76865310  0.52078153  1
  H  H43  1  0.15921461  0.72436500  0.99205541  1
  H  H44  1  0.15921461  0.99205541  0.72436500  1
  H  H45  1  0.15921461  0.00794459  0.27563500  1
  H  H46  1  0.15921461  0.27563500  0.00794459  1
  H  H47  1  0.20996839  0.79003161  0.38896637  1
  H  H48  1  0.27563500  0.84078539  0.99205541  1
  H  H49  1  0.27563500  0.99205541  0.84078539  1
  H  H50  1  0.27563500  0.00794459  0.15921461  1
  H  H51  1  0.27563500  0.15921461  0.00794459  1
  H  H52  1  0.38896637  0.20996839  0.79003161  1
  H  H53  1  0.38896637  0.79003161  0.20996839  1
  H  H54  1  0.52078153  0.23134690  0.88555111  1
  H  H55  1  0.52078153  0.88555111  0.23134690  1
  H  H56  1  0.52078153  0.11444889  0.76865310  1
  H  H57  1  0.52078153  0.76865310  0.11444889  1
  H  H58  1  0.76865310  0.47921847  0.88555111  1
  H  H59  1  0.76865310  0.88555111  0.47921847  1
  H  H60  1  0.76865310  0.11444889  0.52078153  1
  H  H61  1  0.76865310  0.52078153  0.11444889  1
  H  H62  1  0.79003161  0.79003161  0.61103363  1
  C  C63  1  0.16117961  0.53620339  0.16117961  1
  C  C64  1  0.16117961  0.16117961  0.53620339  1
  C  C65  1  0.16117961  0.46379661  0.83882039  1
  C  C66  1  0.53620339  0.16117961  0.16117961  1
  C  C67  1  0.53620339  0.83882039  0.83882039  1
  C  C68  1  0.83882039  0.16117961  0.46379661  1
  C  C69  1  0.83882039  0.46379661  0.16117961  1
  C  C70  1  0.83882039  0.53620339  0.83882039  1
  C  C71  1  0.85209161  0.85209161  0.14790839  1
  C  C72  1  0.85209161  0.14790839  0.85209161  1
  C  C73  1  0.14790839  0.85209161  0.85209161  1
  C  C74  1  0.14790839  0.14790839  0.14790839  1
  C  C75  1  0.16117961  0.83882039  0.46379661  1
  C  C76  1  0.46379661  0.16117961  0.83882039  1
  C  C77  1  0.46379661  0.83882039  0.16117961  1
  C  C78  1  0.83882039  0.83882039  0.53620339  1
  N  N79  1  0.80114034  0.80114034  0.04745803  1
  N  N80  1  0.80114034  0.95254197  0.19885966  1
  N  N81  1  0.80114034  0.04745803  0.80114034  1
  N  N82  1  0.80114034  0.19885966  0.95254197  1
  N  N83  1  0.95254197  0.80114034  0.19885966  1
  N  N84  1  0.95254197  0.19885966  0.80114034  1
  N  N85  1  0.04745803  0.80114034  0.80114034  1
  N  N86  1  0.04745803  0.19885966  0.19885966  1
  N  N87  1  0.19885966  0.80114034  0.95254197  1
  N  N88  1  0.19885966  0.95254197  0.80114034  1
  N  N89  1  0.19885966  0.04745803  0.19885966  1
  N  N90  1  0.19885966  0.19885966  0.04745803  1
  O  O91  1  0.07514757  0.58787226  0.07514757  1
  O  O92  1  0.07514757  0.07514757  0.58787226  1
  O  O93  1  0.07514757  0.41212774  0.92485243  1
  O  O94  1  0.58787226  0.07514757  0.07514757  1
  O  O95  1  0.58787226  0.92485243  0.92485243  1
  O  O96  1  0.92485243  0.07514757  0.41212774  1
  O  O97  1  0.92485243  0.41212774  0.07514757  1
  O  O98  1  0.92485243  0.58787226  0.92485243  1
  O  O99  1  0.07514757  0.92485243  0.41212774  1
  O  O100  1  0.41212774  0.07514757  0.92485243  1
  O  O101  1  0.41212774  0.92485243  0.07514757  1
  O  O102  1  0.92485243  0.92485243  0.58787226  1
