# generated using pymatgen
data_Cr2SiO4
_symmetry_space_group_name_H-M   'P 1'
_cell_length_a   5.77742287
_cell_length_b   5.77742286
_cell_length_c   6.39204896
_cell_angle_alpha   102.92543630
_cell_angle_beta   102.92543618
_cell_angle_gamma   120.33412213
_symmetry_Int_Tables_number   1
_chemical_formula_structural   Cr2SiO4
_chemical_formula_sum   'Cr4 Si2 O8'
_cell_volume   164.48294881
_cell_formula_units_Z   2
loop_
 _symmetry_equiv_pos_site_id
 _symmetry_equiv_pos_as_xyz
  1  'x, y, z'
loop_
 _atom_site_type_symbol
 _atom_site_label
 _atom_site_symmetry_multiplicity
 _atom_site_fract_x
 _atom_site_fract_y
 _atom_site_fract_z
 _atom_site_occupancy
  O  O0  1  0.26688598  0.22040497  0.90194913  1
  O  O1  1  0.31845584  0.86493685  0.59805087  1
  O  O2  1  0.77959503  0.73311402  0.59805087  1
  O  O3  1  0.13506315  0.68154416  0.90194913  1
  O  O4  1  0.73311402  0.77959503  0.09805087  1
  O  O5  1  0.68154416  0.13506315  0.40194913  1
  O  O6  1  0.86493685  0.31845584  0.09805087  1
  O  O7  1  0.22040497  0.26688598  0.40194913  1
  Si  Si8  1  0.12500000  0.87500000  0.75000000  1
  Si  Si9  1  0.87500000  0.12500000  0.25000000  1
  Cr  Cr10  1  0.78153571  0.21846429  0.75000000  1
  Cr  Cr11  1  0.46846429  0.53153571  0.75000000  1
  Cr  Cr12  1  0.21846429  0.78153571  0.25000000  1
  Cr  Cr13  1  0.53153571  0.46846429  0.25000000  1
