# generated using pymatgen
data_BaCr10O15
_symmetry_space_group_name_H-M   'P 1'
_cell_length_a   7.85596606
_cell_length_b   7.85596606
_cell_length_c   9.62839243
_cell_angle_alpha   90.00000000
_cell_angle_beta   90.00000000
_cell_angle_gamma   96.60184395
_symmetry_Int_Tables_number   1
_chemical_formula_structural   BaCr10O15
_chemical_formula_sum   'Ba2 Cr20 O30'
_cell_volume   590.28753432
_cell_formula_units_Z   2
loop_
 _symmetry_equiv_pos_site_id
 _symmetry_equiv_pos_as_xyz
  1  'x, y, z'
loop_
 _atom_site_type_symbol
 _atom_site_label
 _atom_site_symmetry_multiplicity
 _atom_site_fract_x
 _atom_site_fract_y
 _atom_site_fract_z
 _atom_site_occupancy
  O  O0  1  0.50000000  0.50000000  0.50000000  1
  O  O1  1  0.00000000  0.00000000  0.00000000  1
  O  O2  1  0.14490444  0.14490444  0.73979320  1
  O  O3  1  0.35509556  0.35509556  0.23979320  1
  O  O4  1  0.64490444  0.64490444  0.76020680  1
  O  O5  1  0.85509556  0.85509556  0.26020680  1
  O  O6  1  0.95873964  0.22250718  0.24032138  1
  O  O7  1  0.54126036  0.27749282  0.74032138  1
  O  O8  1  0.72250718  0.45873964  0.25967862  1
  O  O9  1  0.77749282  0.04126036  0.75967862  1
  O  O10  1  0.04126036  0.77749282  0.75967862  1
  O  O11  1  0.45873964  0.72250718  0.25967862  1
  O  O12  1  0.27749282  0.54126036  0.74032138  1
  O  O13  1  0.22250718  0.95873964  0.24032138  1
  O  O14  1  0.06468953  0.56468953  0.25000000  1
  O  O15  1  0.43531047  0.93531047  0.75000000  1
  O  O16  1  0.93531047  0.43531047  0.75000000  1
  O  O17  1  0.56468953  0.06468953  0.25000000  1
  O  O18  1  0.10364398  0.36474140  0.99456336  1
  O  O19  1  0.39635602  0.13525860  0.49456336  1
  O  O20  1  0.86474140  0.60364398  0.50543664  1
  O  O21  1  0.63525860  0.89635602  0.00543664  1
  O  O22  1  0.24380206  0.75619794  0.00000000  1
  O  O23  1  0.25619794  0.74380206  0.50000000  1
  O  O24  1  0.75619794  0.24380206  0.00000000  1
  O  O25  1  0.74380206  0.25619794  0.50000000  1
  O  O26  1  0.36474140  0.10364398  0.99456336  1
  O  O27  1  0.13525860  0.39635602  0.49456336  1
  O  O28  1  0.60364398  0.86474140  0.50543664  1
  O  O29  1  0.89635602  0.63525860  0.00543664  1
  Cr  Cr30  1  0.90661725  0.41820693  0.11474369  1
  Cr  Cr31  1  0.59338275  0.08179307  0.61474369  1
  Cr  Cr32  1  0.91820693  0.40661725  0.38525631  1
  Cr  Cr33  1  0.58179307  0.09338275  0.88525631  1
  Cr  Cr34  1  0.09338275  0.58179307  0.88525631  1
  Cr  Cr35  1  0.40661725  0.91820693  0.38525631  1
  Cr  Cr36  1  0.08179307  0.59338275  0.61474369  1
  Cr  Cr37  1  0.41820693  0.90661725  0.11474369  1
  Cr  Cr38  1  0.04288102  0.78849961  0.14329086  1
  Cr  Cr39  1  0.45711898  0.71150039  0.64329086  1
  Cr  Cr40  1  0.28849961  0.54288102  0.35670914  1
  Cr  Cr41  1  0.21150039  0.95711898  0.85670914  1
  Cr  Cr42  1  0.95711898  0.21150039  0.85670914  1
  Cr  Cr43  1  0.54288102  0.28849961  0.35670914  1
  Cr  Cr44  1  0.71150039  0.45711898  0.64329086  1
  Cr  Cr45  1  0.78849961  0.04288102  0.14329086  1
  Cr  Cr46  1  0.81669201  0.81669201  0.86526176  1
  Cr  Cr47  1  0.68330799  0.68330799  0.36526176  1
  Cr  Cr48  1  0.31669201  0.31669201  0.63473824  1
  Cr  Cr49  1  0.18330799  0.18330799  0.13473824  1
  Ba  Ba50  1  0.00000000  0.00000000  0.50000000  1
  Ba  Ba51  1  0.50000000  0.50000000  0.00000000  1
