# generated using pymatgen
data_V2Zn3O8
_symmetry_space_group_name_H-M   'P 1'
_cell_length_a   6.18011258
_cell_length_b   6.64226693
_cell_length_c   8.38138159
_cell_angle_alpha   90.00000000
_cell_angle_beta   90.00000000
_cell_angle_gamma   117.72388477
_symmetry_Int_Tables_number   1
_chemical_formula_structural   V2Zn3O8
_chemical_formula_sum   'V4 Zn6 O16'
_cell_volume   304.55772377
_cell_formula_units_Z   2
loop_
 _symmetry_equiv_pos_site_id
 _symmetry_equiv_pos_as_xyz
  1  'x, y, z'
loop_
 _atom_site_type_symbol
 _atom_site_label
 _atom_site_symmetry_multiplicity
 _atom_site_fract_x
 _atom_site_fract_y
 _atom_site_fract_z
 _atom_site_occupancy
  O  O0  1  0.88975805  0.23518778  0.49967498  1
  O  O1  1  0.65457028  0.76481222  0.50032502  1
  O  O2  1  0.61024195  0.76481222  0.99967498  1
  O  O3  1  0.84542972  0.23518778  0.00032502  1
  O  O4  1  0.11024195  0.76481222  0.50032502  1
  O  O5  1  0.34542972  0.23518778  0.49967498  1
  O  O6  1  0.38975805  0.23518778  0.00032502  1
  O  O7  1  0.15457028  0.76481222  0.99967498  1
  O  O8  1  0.49957254  0.99914507  0.74417476  1
  O  O9  1  0.50042746  0.00085493  0.25582524  1
  O  O10  1  0.24962323  0.49924647  0.77362812  1
  O  O11  1  0.75037677  0.50075353  0.22637188  1
  O  O12  1  0.25037677  0.50075353  0.27362812  1
  O  O13  1  0.74962323  0.49924647  0.72637188  1
  O  O14  1  0.99957254  0.99914507  0.75582524  1
  O  O15  1  0.00042746  0.00085493  0.24417476  1
  V  V16  1  0.87824935  0.75649871  0.62008354  1
  V  V17  1  0.12175065  0.24350129  0.37991646  1
  V  V18  1  0.62175065  0.24350129  0.12008354  1
  V  V19  1  0.37824935  0.75649871  0.87991646  1
  Zn  Zn20  1  0.38679451  0.27358902  0.75000000  1
  Zn  Zn21  1  0.11320549  0.72641098  0.25000000  1
  Zn  Zn22  1  0.61320549  0.72641098  0.25000000  1
  Zn  Zn23  1  0.88679451  0.27358902  0.75000000  1
  Zn  Zn24  1  0.50000000  0.00000000  0.50000000  1
  Zn  Zn25  1  0.00000000  0.00000000  0.00000000  1
