# generated using pymatgen
data_Ba2SmMoO6
_symmetry_space_group_name_H-M   'P 1'
_cell_length_a   6.07571053
_cell_length_b   6.07571053
_cell_length_c   6.09735729
_cell_angle_alpha   119.88263012
_cell_angle_beta   119.88263016
_cell_angle_gamma   89.99999994
_symmetry_Int_Tables_number   1
_chemical_formula_structural   Ba2SmMoO6
_chemical_formula_sum   'Ba2 Sm1 Mo1 O6'
_cell_volume   159.71821798
_cell_formula_units_Z   1
loop_
 _symmetry_equiv_pos_site_id
 _symmetry_equiv_pos_as_xyz
  1  'x, y, z'
loop_
 _atom_site_type_symbol
 _atom_site_label
 _atom_site_symmetry_multiplicity
 _atom_site_fract_x
 _atom_site_fract_y
 _atom_site_fract_z
 _atom_site_occupancy
  O  O0  1  0.76780778  0.76780810  0.00000090  1
  O  O1  1  0.23219376  0.76780810  0.00000056  1
  O  O2  1  0.76780733  0.23219350  0.00000005  1
  O  O3  1  0.23219331  0.23219350  0.00000136  1
  O  O4  1  0.23477993  0.23477933  0.46955977  1
  O  O5  1  0.76521922  0.76521944  0.53043961  1
  Mo  Mo6  1  0.00000000  0.00000000  0.00000000  1
  Ba  Ba7  1  0.24999931  0.74999978  0.49999894  1
  Ba  Ba8  1  0.75000051  0.25000100  0.50000014  1
  Sm  Sm9  1  0.49999959  0.50000080  0.99999983  1
