# generated using pymatgen
data_U(PdS2)2
_symmetry_space_group_name_H-M   'P 1'
_cell_length_a   6.78054807
_cell_length_b   6.78054807
_cell_length_c   7.63180332
_cell_angle_alpha   116.37406849
_cell_angle_beta   116.37406854
_cell_angle_gamma   90.00000000
_symmetry_Int_Tables_number   1
_chemical_formula_structural   U(PdS2)2
_chemical_formula_sum   'U2 Pd4 S8'
_cell_volume   272.99156816
_cell_formula_units_Z   2
loop_
 _symmetry_equiv_pos_site_id
 _symmetry_equiv_pos_as_xyz
  1  'x, y, z'
loop_
 _atom_site_type_symbol
 _atom_site_label
 _atom_site_symmetry_multiplicity
 _atom_site_fract_x
 _atom_site_fract_y
 _atom_site_fract_z
 _atom_site_occupancy
  S  S0  1  0.23393524  0.52753341  0.85542094  1
  S  S1  1  0.32788754  0.73393524  0.35542094  1
  S  S2  1  0.02753341  0.12148571  0.35542094  1
  S  S3  1  0.62148571  0.82788754  0.85542094  1
  S  S4  1  0.76606476  0.47246659  0.14457906  1
  S  S5  1  0.67211246  0.26606476  0.64457906  1
  S  S6  1  0.37851429  0.17211246  0.14457906  1
  S  S7  1  0.97246659  0.87851429  0.64457906  1
  Pd  Pd8  1  0.00000000  0.50000000  0.00000000  1
  Pd  Pd9  1  0.50000000  0.50000000  0.50000000  1
  Pd  Pd10  1  0.00000000  0.50000000  0.50000000  1
  Pd  Pd11  1  0.00000000  0.00000000  0.00000000  1
  U  U12  1  0.37500000  0.12500000  0.75000000  1
  U  U13  1  0.62500000  0.87500000  0.25000000  1
