# generated using pymatgen
data_Sn(PO3)3
_symmetry_space_group_name_H-M   'P 1'
_cell_length_a   10.62727883
_cell_length_b   11.92348739
_cell_length_c   5.55329733
_cell_angle_alpha   90.00000000
_cell_angle_beta   90.00000000
_cell_angle_gamma   90.00000000
_symmetry_Int_Tables_number   1
_chemical_formula_structural   Sn(PO3)3
_chemical_formula_sum   'Sn4 P12 O36'
_cell_volume   703.68176803
_cell_formula_units_Z   4
loop_
 _symmetry_equiv_pos_site_id
 _symmetry_equiv_pos_as_xyz
  1  'x, y, z'
loop_
 _atom_site_type_symbol
 _atom_site_label
 _atom_site_symmetry_multiplicity
 _atom_site_fract_x
 _atom_site_fract_y
 _atom_site_fract_z
 _atom_site_occupancy
  Sn  Sn0  1  0.88683048  0.59867662  0.39028022  1
  Sn  Sn1  1  0.38683048  0.90132338  0.60971978  1
  Sn  Sn2  1  0.11316952  0.09867662  0.10971978  1
  Sn  Sn3  1  0.61316952  0.40132338  0.89028022  1
  P  P4  1  0.28089285  0.18089328  0.59757343  1
  P  P5  1  0.35422472  0.64075385  0.87714039  1
  P  P6  1  0.78089285  0.31910672  0.40242657  1
  P  P7  1  0.64577528  0.14075385  0.62285961  1
  P  P8  1  0.07852076  0.62904313  0.88802856  1
  P  P9  1  0.71910715  0.68089328  0.90242657  1
  P  P10  1  0.85422472  0.85924615  0.12285961  1
  P  P11  1  0.42147924  0.37095687  0.38802856  1
  P  P12  1  0.14577528  0.35924615  0.37714039  1
  P  P13  1  0.92147924  0.12904313  0.61197144  1
  P  P14  1  0.21910715  0.81910672  0.09757343  1
  P  P15  1  0.57852076  0.87095687  0.11197144  1
  O  O16  1  0.00878451  0.05638911  0.46610602  1
  O  O17  1  0.28341405  0.12709471  0.84245054  1
  O  O18  1  0.28224863  0.42349765  0.37157537  1
  O  O19  1  0.53585505  0.83751146  0.36172391  1
  O  O20  1  0.03585505  0.66248854  0.63827609  1
  O  O21  1  0.72627731  0.59972564  0.11472903  1
  O  O22  1  0.36779769  0.71368586  0.65413390  1
  O  O23  1  0.94994252  0.94156292  0.04510184  1
  O  O24  1  0.78341405  0.37290529  0.15754946  1
  O  O25  1  0.21658595  0.87290529  0.34245054  1
  O  O26  1  0.13220231  0.28631414  0.15413390  1
  O  O27  1  0.21775137  0.57650235  0.87157537  1
  O  O28  1  0.71658595  0.62709471  0.65754946  1
  O  O29  1  0.99121549  0.55638911  0.03389398  1
  O  O30  1  0.78224863  0.07650235  0.62842463  1
  O  O31  1  0.55005748  0.05843708  0.54510184  1
  O  O32  1  0.22627731  0.90027436  0.88527097  1
  O  O33  1  0.96414495  0.16248854  0.86172391  1
  O  O34  1  0.71775137  0.92349765  0.12842463  1
  O  O35  1  0.16880185  0.27080728  0.59725986  1
  O  O36  1  0.40056862  0.26110267  0.55713989  1
  O  O37  1  0.05005748  0.44156292  0.45489816  1
  O  O38  1  0.49121549  0.94361089  0.96610602  1
  O  O39  1  0.44994252  0.55843708  0.95489816  1
  O  O40  1  0.46414495  0.33751146  0.13827609  1
  O  O41  1  0.66880185  0.22919272  0.40274014  1
  O  O42  1  0.09943138  0.73889733  0.05713989  1
  O  O43  1  0.83119815  0.77080728  0.90274014  1
  O  O44  1  0.86779769  0.78631414  0.34586610  1
  O  O45  1  0.90056862  0.23889733  0.44286011  1
  O  O46  1  0.27372269  0.09972564  0.38527097  1
  O  O47  1  0.59943138  0.76110267  0.94286011  1
  O  O48  1  0.50878451  0.44361089  0.53389398  1
  O  O49  1  0.77372269  0.40027436  0.61472903  1
  O  O50  1  0.33119815  0.72919272  0.09725986  1
  O  O51  1  0.63220231  0.21368586  0.84586610  1
