# generated using pymatgen
data_BaTa2Bi2O9
_symmetry_space_group_name_H-M   'P 1'
_cell_length_a   3.96873069
_cell_length_b   3.96873069
_cell_length_c   12.93976167
_cell_angle_alpha   98.82135123
_cell_angle_beta   98.82135125
_cell_angle_gamma   89.99999999
_symmetry_Int_Tables_number   1
_chemical_formula_structural   BaTa2Bi2O9
_chemical_formula_sum   'Ba1 Ta2 Bi2 O9'
_cell_volume   198.96103059
_cell_formula_units_Z   1
loop_
 _symmetry_equiv_pos_site_id
 _symmetry_equiv_pos_as_xyz
  1  'x, y, z'
loop_
 _atom_site_type_symbol
 _atom_site_label
 _atom_site_symmetry_multiplicity
 _atom_site_fract_x
 _atom_site_fract_y
 _atom_site_fract_z
 _atom_site_occupancy
  O  O0  1  0.58079353  0.08079353  0.16158706  1
  O  O1  1  0.08079353  0.58079353  0.16158706  1
  O  O2  1  0.41920647  0.91920647  0.83841294  1
  O  O3  1  0.91920647  0.41920647  0.83841294  1
  O  O4  1  0.25000000  0.75000000  0.50000000  1
  O  O5  1  0.50000000  0.50000000  0.00000000  1
  O  O6  1  0.33720437  0.33720437  0.67440875  1
  O  O7  1  0.66279563  0.66279563  0.32559125  1
  O  O8  1  0.75000000  0.25000000  0.50000000  1
  Ba  Ba9  1  0.00000000  0.00000000  0.00000000  1
  Ta  Ta10  1  0.41199725  0.41199725  0.82399450  1
  Ta  Ta11  1  0.58800275  0.58800275  0.17600550  1
  Bi  Bi12  1  0.20134324  0.20134324  0.40268648  1
  Bi  Bi13  1  0.79865676  0.79865676  0.59731352  1
