# generated using pymatgen
data_H4CSN2
_symmetry_space_group_name_H-M   'P 1'
_cell_length_a   4.29975817
_cell_length_b   7.13067846
_cell_length_c   13.36272317
_cell_angle_alpha   90.00000000
_cell_angle_beta   95.50612542
_cell_angle_gamma   90.00000000
_symmetry_Int_Tables_number   1
_chemical_formula_structural   H4CSN2
_chemical_formula_sum   'H16 C4 S4 N8'
_cell_volume   407.81327597
_cell_formula_units_Z   4
loop_
 _symmetry_equiv_pos_site_id
 _symmetry_equiv_pos_as_xyz
  1  'x, y, z'
loop_
 _atom_site_type_symbol
 _atom_site_label
 _atom_site_symmetry_multiplicity
 _atom_site_fract_x
 _atom_site_fract_y
 _atom_site_fract_z
 _atom_site_occupancy
  H  H0  1  0.31744932  0.04070223  0.59019838  1
  H  H1  1  0.68255068  0.54070223  0.90980162  1
  H  H2  1  0.68255068  0.95929777  0.40980162  1
  H  H3  1  0.31744932  0.45929777  0.09019838  1
  H  H4  1  0.31980622  0.26965854  0.62969010  1
  H  H5  1  0.68019378  0.76965854  0.87030990  1
  H  H6  1  0.68019378  0.73034146  0.37030990  1
  H  H7  1  0.31980622  0.23034146  0.12969010  1
  H  H8  1  0.60654829  0.12060961  0.67427311  1
  H  H9  1  0.59019077  0.30830296  0.05226972  1
  H  H10  1  0.39345171  0.87939039  0.32572689  1
  H  H11  1  0.60654829  0.37939039  0.17427311  1
  H  H12  1  0.59019077  0.19169704  0.55226972  1
  H  H13  1  0.40980923  0.69169704  0.94773028  1
  H  H14  1  0.40980923  0.80830296  0.44773028  1
  H  H15  1  0.39345171  0.62060961  0.82572689  1
  C  C16  1  0.89087598  0.17905805  0.88723226  1
  C  C17  1  0.10912402  0.82094195  0.11276774  1
  C  C18  1  0.89087598  0.32094195  0.38723226  1
  C  C19  1  0.10912402  0.67905805  0.61276774  1
  N  N20  1  0.45684329  0.15697870  0.61147303  1
  N  N21  1  0.82952374  0.29716775  0.94502230  1
  N  N22  1  0.82952374  0.20283225  0.44502230  1
  N  N23  1  0.17047626  0.70283225  0.05497770  1
  N  N24  1  0.17047626  0.79716775  0.55497770  1
  N  N25  1  0.45684329  0.34302130  0.11147303  1
  N  N26  1  0.54315671  0.84302130  0.38852697  1
  N  N27  1  0.54315671  0.65697870  0.88852697  1
  S  S28  1  0.02432072  0.51830108  0.69264376  1
  S  S29  1  0.97567928  0.01830108  0.80735624  1
  S  S30  1  0.97567928  0.48169892  0.30735624  1
  S  S31  1  0.02432072  0.98169892  0.19264376  1
