# generated using pymatgen
data_GeBi2O5
_symmetry_space_group_name_H-M   'P 1'
_cell_length_a   3.97117624
_cell_length_b   11.19724865
_cell_length_c   11.08617733
_cell_angle_alpha   90.00000000
_cell_angle_beta   90.00000000
_cell_angle_gamma   90.00000000
_symmetry_Int_Tables_number   1
_chemical_formula_structural   GeBi2O5
_chemical_formula_sum   'Ge4 Bi8 O20'
_cell_volume   492.96070822
_cell_formula_units_Z   4
loop_
 _symmetry_equiv_pos_site_id
 _symmetry_equiv_pos_as_xyz
  1  'x, y, z'
loop_
 _atom_site_type_symbol
 _atom_site_label
 _atom_site_symmetry_multiplicity
 _atom_site_fract_x
 _atom_site_fract_y
 _atom_site_fract_z
 _atom_site_occupancy
  O  O0  1  0.25000000  0.87220776  0.75914107  1
  O  O1  1  0.75000000  0.12779224  0.24085893  1
  O  O2  1  0.75000000  0.37220776  0.74085893  1
  O  O3  1  0.25000000  0.62779224  0.25914107  1
  O  O4  1  0.25000000  0.32146888  0.54994262  1
  O  O5  1  0.75000000  0.67853112  0.45005738  1
  O  O6  1  0.75000000  0.82146888  0.95005738  1
  O  O7  1  0.25000000  0.17853112  0.04994262  1
  O  O8  1  0.25000000  0.52031094  0.74676434  1
  O  O9  1  0.75000000  0.47968906  0.25323566  1
  O  O10  1  0.75000000  0.02031094  0.75323566  1
  O  O11  1  0.25000000  0.97968906  0.24676434  1
  O  O12  1  0.75000000  0.73647301  0.69690265  1
  O  O13  1  0.25000000  0.26352699  0.30309735  1
  O  O14  1  0.25000000  0.23647301  0.80309735  1
  O  O15  1  0.75000000  0.76352699  0.19690265  1
  O  O16  1  0.25000000  0.60094062  0.00364993  1
  O  O17  1  0.75000000  0.39905938  0.99635007  1
  O  O18  1  0.75000000  0.10094062  0.49635007  1
  O  O19  1  0.25000000  0.89905938  0.50364993  1
  Ge  Ge20  1  0.75000000  0.86431504  0.79778839  1
  Ge  Ge21  1  0.25000000  0.13568496  0.20221161  1
  Ge  Ge22  1  0.25000000  0.36431504  0.70221161  1
  Ge  Ge23  1  0.75000000  0.63568496  0.29778839  1
  Bi  Bi24  1  0.25000000  0.04888459  0.64092726  1
  Bi  Bi25  1  0.75000000  0.95111541  0.35907274  1
  Bi  Bi26  1  0.75000000  0.54888459  0.85907274  1
  Bi  Bi27  1  0.25000000  0.45111541  0.14092726  1
  Bi  Bi28  1  0.25000000  0.78052113  0.08211873  1
  Bi  Bi29  1  0.75000000  0.21947887  0.91788127  1
  Bi  Bi30  1  0.75000000  0.28052113  0.41788127  1
  Bi  Bi31  1  0.25000000  0.71947887  0.58211873  1
