# generated using pymatgen
data_Cu(AsO2)2
_symmetry_space_group_name_H-M   'P 1'
_cell_length_a   5.64085794
_cell_length_b   8.88918257
_cell_length_c   8.88918257
_cell_angle_alpha   90.00000000
_cell_angle_beta   90.00000000
_cell_angle_gamma   90.00000000
_symmetry_Int_Tables_number   1
_chemical_formula_structural   Cu(AsO2)2
_chemical_formula_sum   'Cu4 As8 O16'
_cell_volume   445.72686887
_cell_formula_units_Z   4
loop_
 _symmetry_equiv_pos_site_id
 _symmetry_equiv_pos_as_xyz
  1  'x, y, z'
loop_
 _atom_site_type_symbol
 _atom_site_label
 _atom_site_symmetry_multiplicity
 _atom_site_fract_x
 _atom_site_fract_y
 _atom_site_fract_z
 _atom_site_occupancy
  O  O0  1  0.50000000  0.87839707  0.40759987  1
  O  O1  1  0.50000000  0.12160293  0.59240013  1
  O  O2  1  0.00000000  0.40759987  0.12160293  1
  O  O3  1  0.00000000  0.59240013  0.87839707  1
  O  O4  1  0.00000000  0.90759987  0.37839707  1
  O  O5  1  0.50000000  0.62160293  0.90759987  1
  O  O6  1  0.50000000  0.37839707  0.09240013  1
  O  O7  1  0.00000000  0.09240013  0.62160293  1
  O  O8  1  0.75000000  0.70751552  0.20751552  1
  O  O9  1  0.25000000  0.79248448  0.70751552  1
  O  O10  1  0.25000000  0.20751552  0.29248448  1
  O  O11  1  0.75000000  0.29248448  0.79248448  1
  O  O12  1  0.25000000  0.70751552  0.20751552  1
  O  O13  1  0.75000000  0.79248448  0.70751552  1
  O  O14  1  0.75000000  0.20751552  0.29248448  1
  O  O15  1  0.25000000  0.29248448  0.79248448  1
  Cu  Cu16  1  0.25000000  0.00000000  0.50000000  1
  Cu  Cu17  1  0.75000000  0.50000000  0.00000000  1
  Cu  Cu18  1  0.75000000  0.00000000  0.50000000  1
  Cu  Cu19  1  0.25000000  0.50000000  0.00000000  1
  As  As20  1  0.00000000  0.79240060  0.84260590  1
  As  As21  1  0.50000000  0.15739410  0.79240060  1
  As  As22  1  0.50000000  0.84260590  0.20759940  1
  As  As23  1  0.00000000  0.20759940  0.15739410  1
  As  As24  1  0.00000000  0.70759940  0.34260590  1
  As  As25  1  0.00000000  0.29240060  0.65739410  1
  As  As26  1  0.50000000  0.65739410  0.70759940  1
  As  As27  1  0.50000000  0.34260590  0.29240060  1
