# generated using pymatgen
data_BaDy2CuO5
_symmetry_space_group_name_H-M   'P 1'
_cell_length_a   5.70539277
_cell_length_b   7.23371512
_cell_length_c   12.26568817
_cell_angle_alpha   90.00000000
_cell_angle_beta   90.00000000
_cell_angle_gamma   90.00000000
_symmetry_Int_Tables_number   1
_chemical_formula_structural   BaDy2CuO5
_chemical_formula_sum   'Ba4 Dy8 Cu4 O20'
_cell_volume   506.21949722
_cell_formula_units_Z   4
loop_
 _symmetry_equiv_pos_site_id
 _symmetry_equiv_pos_as_xyz
  1  'x, y, z'
loop_
 _atom_site_type_symbol
 _atom_site_label
 _atom_site_symmetry_multiplicity
 _atom_site_fract_x
 _atom_site_fract_y
 _atom_site_fract_z
 _atom_site_occupancy
  O  O0  1  0.25000000  0.41698898  0.59941622  1
  O  O1  1  0.75000000  0.58301102  0.40058378  1
  O  O2  1  0.75000000  0.91698898  0.90058378  1
  O  O3  1  0.25000000  0.08301102  0.09941622  1
  O  O4  1  0.00372209  0.85337505  0.27197739  1
  O  O5  1  0.50372209  0.14662495  0.72802261  1
  O  O6  1  0.99627791  0.35337505  0.22802261  1
  O  O7  1  0.49627791  0.64662495  0.77197739  1
  O  O8  1  0.99627791  0.14662495  0.72802261  1
  O  O9  1  0.49627791  0.85337505  0.27197739  1
  O  O10  1  0.00372209  0.64662495  0.77197739  1
  O  O11  1  0.50372209  0.35337505  0.22802261  1
  O  O12  1  0.49459131  0.66051950  0.06834468  1
  O  O13  1  0.99459131  0.33948050  0.93165532  1
  O  O14  1  0.50540869  0.16051950  0.43165532  1
  O  O15  1  0.00540869  0.83948050  0.56834468  1
  O  O16  1  0.99459131  0.16051950  0.43165532  1
  O  O17  1  0.49459131  0.83948050  0.56834468  1
  O  O18  1  0.00540869  0.66051950  0.06834468  1
  O  O19  1  0.50540869  0.33948050  0.93165532  1
  Cu  Cu20  1  0.25000000  0.78026944  0.16066231  1
  Cu  Cu21  1  0.75000000  0.21973056  0.83933769  1
  Cu  Cu22  1  0.75000000  0.28026944  0.33933769  1
  Cu  Cu23  1  0.25000000  0.71973056  0.66066231  1
  Ba  Ba24  1  0.25000000  0.56654093  0.40392809  1
  Ba  Ba25  1  0.75000000  0.43345907  0.59607191  1
  Ba  Ba26  1  0.75000000  0.06654093  0.09607191  1
  Ba  Ba27  1  0.25000000  0.93345907  0.90392809  1
  Dy  Dy28  1  0.25000000  0.10424940  0.57369396  1
  Dy  Dy29  1  0.75000000  0.89575060  0.42630604  1
  Dy  Dy30  1  0.75000000  0.60424940  0.92630604  1
  Dy  Dy31  1  0.25000000  0.39575060  0.07369396  1
  Dy  Dy32  1  0.25000000  0.38878974  0.78679879  1
  Dy  Dy33  1  0.75000000  0.61121026  0.21320121  1
  Dy  Dy34  1  0.75000000  0.88878974  0.71320121  1
  Dy  Dy35  1  0.25000000  0.11121026  0.28679879  1
