# generated using pymatgen
data_Er(HO)3
_symmetry_space_group_name_H-M   'P 1'
_cell_length_a   6.32688368
_cell_length_b   6.32688368
_cell_length_c   3.48495925
_cell_angle_alpha   90.00000000
_cell_angle_beta   90.00000000
_cell_angle_gamma   119.99999993
_symmetry_Int_Tables_number   1
_chemical_formula_structural   Er(HO)3
_chemical_formula_sum   'Er2 H6 O6'
_cell_volume   120.81143320
_cell_formula_units_Z   2
loop_
 _symmetry_equiv_pos_site_id
 _symmetry_equiv_pos_as_xyz
  1  'x, y, z'
loop_
 _atom_site_type_symbol
 _atom_site_label
 _atom_site_symmetry_multiplicity
 _atom_site_fract_x
 _atom_site_fract_y
 _atom_site_fract_z
 _atom_site_occupancy
  H  H0  1  0.71855305  0.86205233  0.75000000  1
  H  H1  1  0.85650071  0.71855305  0.25000000  1
  H  H2  1  0.14349929  0.28144695  0.75000000  1
  H  H3  1  0.28144695  0.13794767  0.25000000  1
  H  H4  1  0.86205233  0.14349929  0.25000000  1
  H  H5  1  0.13794767  0.85650071  0.75000000  1
  O  O6  1  0.91359755  0.60122281  0.25000000  1
  O  O7  1  0.60122281  0.68762526  0.75000000  1
  O  O8  1  0.08640245  0.39877719  0.75000000  1
  O  O9  1  0.39877719  0.31237474  0.25000000  1
  O  O10  1  0.68762526  0.08640245  0.25000000  1
  O  O11  1  0.31237474  0.91359755  0.75000000  1
  Er  Er12  1  0.66666667  0.33333333  0.75000000  1
  Er  Er13  1  0.33333333  0.66666667  0.25000000  1
