# generated using pymatgen
data_Li6Cu9(PO4)8
_symmetry_space_group_name_H-M   'P 1'
_cell_length_a   9.06986906
_cell_length_b   8.91962047
_cell_length_c   8.72810190
_cell_angle_alpha   104.56944359
_cell_angle_beta   99.19540953
_cell_angle_gamma   111.29392513
_symmetry_Int_Tables_number   1
_chemical_formula_structural   Li6Cu9(PO4)8
_chemical_formula_sum   'Li6 Cu9 P8 O32'
_cell_volume   611.54596720
_cell_formula_units_Z   1
loop_
 _symmetry_equiv_pos_site_id
 _symmetry_equiv_pos_as_xyz
  1  'x, y, z'
loop_
 _atom_site_type_symbol
 _atom_site_label
 _atom_site_symmetry_multiplicity
 _atom_site_fract_x
 _atom_site_fract_y
 _atom_site_fract_z
 _atom_site_occupancy
  Li  Li0  1  0.02442638  0.90933878  0.64646060  1
  Li  Li1  1  0.97557362  0.09066122  0.35353940  1
  Li  Li2  1  0.73398624  0.27568110  0.97456123  1
  Li  Li3  1  0.64337208  0.67113559  0.67940496  1
  Li  Li4  1  0.35662792  0.32886441  0.32059504  1
  Li  Li5  1  0.26601376  0.72431890  0.02543877  1
  O  O6  1  0.92013837  0.78928766  0.79247568  1
  O  O7  1  0.68442738  0.18387531  0.72071018  1
  O  O8  1  0.87758393  0.04519067  0.68116603  1
  O  O9  1  0.59386456  0.82642144  0.84290471  1
  O  O10  1  0.87674056  0.74437658  0.41624963  1
  O  O11  1  0.76262738  0.43469649  0.41218123  1
  O  O12  1  0.66183378  0.06680585  0.10547360  1
  O  O13  1  0.73712446  0.08942045  0.43375336  1
  O  O14  1  0.97971109  0.52296411  0.72028354  1
  O  O15  1  0.12241607  0.95480933  0.31883397  1
  O  O16  1  0.01655828  0.67674954  0.01182330  1
  O  O17  1  0.02028891  0.47703589  0.27971646  1
  O  O18  1  0.26287554  0.91057955  0.56624664  1
  O  O19  1  0.33816622  0.93319415  0.89452640  1
  O  O20  1  0.23737262  0.56530351  0.58781877  1
  O  O21  1  0.12325944  0.25562342  0.58375037  1
  O  O22  1  0.70371063  0.52113294  0.15307581  1
  O  O23  1  0.31557262  0.81612469  0.27928982  1
  O  O24  1  0.29628937  0.47886706  0.84692419  1
  O  O25  1  0.17338081  0.10962698  0.90918501  1
  O  O26  1  0.27679811  0.47577598  0.18383154  1
  O  O27  1  0.07986163  0.21071234  0.20752432  1
  O  O28  1  0.56785594  0.87312908  0.55362705  1
  O  O29  1  0.42954894  0.43011170  0.60725294  1
  O  O30  1  0.46667131  0.25129338  0.90529602  1
  O  O31  1  0.53332869  0.74870662  0.09470398  1
  O  O32  1  0.57045106  0.56988830  0.39274706  1
  O  O33  1  0.43214406  0.12687092  0.44637295  1
  O  O34  1  0.40613544  0.17357856  0.15709529  1
  O  O35  1  0.72320189  0.52422402  0.81616846  1
  O  O36  1  0.82661919  0.89037302  0.09081499  1
  O  O37  1  0.98344172  0.32325046  0.98817670  1
  P  P38  1  0.28064651  0.94740800  0.40481568  1
  P  P39  1  0.09058463  0.37533313  0.16685109  1
  P  P40  1  0.27344702  0.43341302  0.65418746  1
  P  P41  1  0.34867933  0.11596260  0.96585867  1
  P  P42  1  0.65132067  0.88403740  0.03414133  1
  P  P43  1  0.72655298  0.56658698  0.34581254  1
  P  P44  1  0.90941537  0.62466687  0.83314891  1
  P  P45  1  0.71935349  0.05259200  0.59518432  1
  Cu  Cu46  1  0.93764118  0.72698384  0.20416701  1
  Cu  Cu47  1  0.57091017  0.12386225  0.28741520  1
  Cu  Cu48  1  0.55832686  0.30471520  0.65967333  1
  Cu  Cu49  1  0.50000000  0.50000000  0.00000000  1
  Cu  Cu50  1  0.44167314  0.69528480  0.34032667  1
  Cu  Cu51  1  0.00000000  0.00000000  0.00000000  1
  Cu  Cu52  1  0.42908983  0.87613775  0.71258480  1
  Cu  Cu53  1  0.06235882  0.27301616  0.79583299  1
  Cu  Cu54  1  0.00000000  0.50000000  0.50000000  1
