# generated using pymatgen
data_Li2VPCO7
_symmetry_space_group_name_H-M   'P 1'
_cell_length_a   5.02001335
_cell_length_b   6.40459385
_cell_length_c   8.61637108
_cell_angle_alpha   90.00000000
_cell_angle_beta   86.34568170
_cell_angle_gamma   90.00000000
_symmetry_Int_Tables_number   1
_chemical_formula_structural   Li2VPCO7
_chemical_formula_sum   'Li4 V2 P2 C2 O14'
_cell_volume   276.46294748
_cell_formula_units_Z   2
loop_
 _symmetry_equiv_pos_site_id
 _symmetry_equiv_pos_as_xyz
  1  'x, y, z'
loop_
 _atom_site_type_symbol
 _atom_site_label
 _atom_site_symmetry_multiplicity
 _atom_site_fract_x
 _atom_site_fract_y
 _atom_site_fract_z
 _atom_site_occupancy
  Li  Li0  1  0.77123417  0.00270031  0.78288746  1
  Li  Li1  1  0.22876205  0.99729939  0.21711096  1
  Li  Li2  1  0.22876205  0.50270083  0.21711096  1
  Li  Li3  1  0.77123417  0.49729976  0.78288746  1
  C  C4  1  0.73399945  0.75000011  0.05966975  1
  C  C5  1  0.26600098  0.25000004  0.94033066  1
  O  O6  1  0.17342955  0.94237555  0.67549046  1
  O  O7  1  0.97028084  0.75000011  0.11633975  1
  O  O8  1  0.46722510  0.25000004  0.83104078  1
  O  O9  1  0.53277560  0.75000011  0.16895936  1
  O  O10  1  0.17342955  0.55762467  0.67549046  1
  O  O11  1  0.17019915  0.75000011  0.41709665  1
  O  O12  1  0.02971965  0.25000004  0.88366063  1
  O  O13  1  0.82657182  0.44237522  0.32450993  1
  O  O14  1  0.82657182  0.05762486  0.32450993  1
  O  O15  1  0.41095033  0.25000004  0.43586889  1
  O  O16  1  0.69653325  0.75000011  0.91628484  1
  O  O17  1  0.30346770  0.25000004  0.08371514  1
  O  O18  1  0.58905094  0.75000011  0.56413159  1
  O  O19  1  0.82980172  0.25000004  0.58290388  1
  P  P20  1  0.71948032  0.25000004  0.41756298  1
  P  P21  1  0.28052047  0.75000011  0.58243740  1
  V  V22  1  0.79598690  0.75000011  0.34408807  1
  V  V23  1  0.20401182  0.25000004  0.65591104  1
