# generated using pymatgen
data_V6PbO11
_symmetry_space_group_name_H-M   'P 1'
_cell_length_a   5.91500814
_cell_length_b   5.91500814
_cell_length_c   13.44829276
_cell_angle_alpha   90.00000000
_cell_angle_beta   90.00000000
_cell_angle_gamma   120.00000001
_symmetry_Int_Tables_number   1
_chemical_formula_structural   V6PbO11
_chemical_formula_sum   'V12 Pb2 O22'
_cell_volume   407.48204732
_cell_formula_units_Z   2
loop_
 _symmetry_equiv_pos_site_id
 _symmetry_equiv_pos_as_xyz
  1  'x, y, z'
loop_
 _atom_site_type_symbol
 _atom_site_label
 _atom_site_symmetry_multiplicity
 _atom_site_fract_x
 _atom_site_fract_y
 _atom_site_fract_z
 _atom_site_occupancy
  O  O0  1  0.33333318  0.66666636  0.91562204  1
  O  O1  1  0.66666769  0.33333417  0.41562194  1
  O  O2  1  0.66666769  0.33333417  0.08437816  1
  O  O3  1  0.33333318  0.66666636  0.58437826  1
  O  O4  1  0.85241985  0.70483848  0.24999967  1
  O  O5  1  0.14758144  0.85241951  0.74999977  1
  O  O6  1  0.70483806  0.85241951  0.74999977  1
  O  O7  1  0.29516281  0.14758103  0.24999967  1
  O  O8  1  0.85241943  0.14758103  0.24999967  1
  O  O9  1  0.14758103  0.29516205  0.74999977  1
  O  O10  1  0.17508105  0.82491872  0.42126857  1
  O  O11  1  0.17508182  0.35016363  0.42126857  1
  O  O12  1  0.64983766  0.82491872  0.42126857  1
  O  O13  1  0.35016321  0.17508182  0.92126867  1
  O  O14  1  0.17508182  0.35016363  0.07873153  1
  O  O15  1  0.82491811  0.17508182  0.57873087  1
  O  O16  1  0.35016321  0.17508182  0.57873087  1
  O  O17  1  0.64983766  0.82491872  0.07873153  1
  O  O18  1  0.82491906  0.64983690  0.57873087  1
  O  O19  1  0.82491906  0.64983690  0.92126867  1
  O  O20  1  0.82491811  0.17508182  0.92126867  1
  O  O21  1  0.17508105  0.82491872  0.07873153  1
  V  V22  1  0.66666769  0.33333417  0.24999967  1
  V  V23  1  0.33333318  0.66666636  0.74999977  1
  V  V24  1  0.00000000  0.00000000  0.35397310  1
  V  V25  1  0.00000000  0.00000000  0.85397320  1
  V  V26  1  0.00000000  0.00000000  0.64602635  1
  V  V27  1  0.00000000  0.00000000  0.14602701  1
  V  V28  1  0.50000061  0.00000000  0.50000010  1
  V  V29  1  0.50000061  0.00000000  0.00000000  1
  V  V30  1  0.99999934  0.49999928  0.00000000  1
  V  V31  1  0.99999934  0.49999928  0.50000010  1
  V  V32  1  0.49999994  0.49999928  0.50000010  1
  V  V33  1  0.49999994  0.49999928  0.00000000  1
  Pb  Pb34  1  0.66666769  0.33333417  0.74999977  1
  Pb  Pb35  1  0.33333318  0.66666636  0.24999967  1
