# generated using pymatgen
data_LiSb(PO3)4
_symmetry_space_group_name_H-M   'P 1'
_cell_length_a   7.43223301
_cell_length_b   9.01848918
_cell_length_c   15.61077557
_cell_angle_alpha   90.00000000
_cell_angle_beta   96.09460448
_cell_angle_gamma   90.00000000
_symmetry_Int_Tables_number   1
_chemical_formula_structural   LiSb(PO3)4
_chemical_formula_sum   'Li4 Sb4 P16 O48'
_cell_volume   1040.43742730
_cell_formula_units_Z   4
loop_
 _symmetry_equiv_pos_site_id
 _symmetry_equiv_pos_as_xyz
  1  'x, y, z'
loop_
 _atom_site_type_symbol
 _atom_site_label
 _atom_site_symmetry_multiplicity
 _atom_site_fract_x
 _atom_site_fract_y
 _atom_site_fract_z
 _atom_site_occupancy
  Li  Li0  1  0.00108112  0.58651569  0.92772705  1
  Li  Li1  1  0.49891888  0.08651569  0.57227295  1
  Li  Li2  1  0.50108112  0.91348431  0.42772705  1
  Li  Li3  1  0.99891888  0.41348431  0.07227295  1
  O  O4  1  0.07625065  0.37925876  0.95679531  1
  O  O5  1  0.06914276  0.14908532  0.86548287  1
  O  O6  1  0.14333780  0.15806053  0.70814221  1
  O  O7  1  0.05733764  0.04179391  0.23578912  1
  O  O8  1  0.12570664  0.27765700  0.51771124  1
  O  O9  1  0.13719430  0.78613088  0.59861290  1
  O  O10  1  0.09778210  0.40577417  0.36787613  1
  O  O11  1  0.22658774  0.45271298  0.68949932  1
  O  O12  1  0.17026049  0.13179047  0.38648891  1
  O  O13  1  0.12479986  0.62576928  0.23289408  1
  O  O14  1  0.27341226  0.95271298  0.81050068  1
  O  O15  1  0.36280570  0.28613088  0.90138710  1
  O  O16  1  0.37429336  0.77765700  0.98228876  1
  O  O17  1  0.28119570  0.88871329  0.34207266  1
  O  O18  1  0.27557845  0.63758196  0.48136956  1
  O  O19  1  0.35666220  0.65806053  0.79185779  1
  O  O20  1  0.22442155  0.13758196  0.01863044  1
  O  O21  1  0.21880430  0.38871329  0.15792734  1
  O  O22  1  0.43085724  0.64908532  0.63451713  1
  O  O23  1  0.37520014  0.12576928  0.26710592  1
  O  O24  1  0.32973951  0.63179047  0.11351109  1
  O  O25  1  0.42374935  0.87925876  0.54320469  1
  O  O26  1  0.40221790  0.90577417  0.13212387  1
  O  O27  1  0.55733764  0.45820609  0.73578912  1
  O  O28  1  0.44266236  0.54179391  0.26421088  1
  O  O29  1  0.59778210  0.09422583  0.86787613  1
  O  O30  1  0.57625065  0.12074124  0.45679531  1
  O  O31  1  0.67026049  0.36820953  0.88648891  1
  O  O32  1  0.62479986  0.87423072  0.73289408  1
  O  O33  1  0.56914276  0.35091468  0.36548287  1
  O  O34  1  0.78119570  0.61128671  0.84207266  1
  O  O35  1  0.77557845  0.86241804  0.98136956  1
  O  O36  1  0.64333780  0.34193947  0.20814221  1
  O  O37  1  0.72442155  0.36241804  0.51863044  1
  O  O38  1  0.71880430  0.11128671  0.65792734  1
  O  O39  1  0.62570664  0.22234300  0.01771124  1
  O  O40  1  0.63719430  0.71386912  0.09861290  1
  O  O41  1  0.72658774  0.04728702  0.18949932  1
  O  O42  1  0.87520014  0.37423072  0.76710592  1
  O  O43  1  0.82973951  0.86820953  0.61351109  1
  O  O44  1  0.77341226  0.54728702  0.31050068  1
  O  O45  1  0.90221790  0.59422583  0.63212387  1
  O  O46  1  0.86280570  0.21386912  0.40138710  1
  O  O47  1  0.87429336  0.72234300  0.48228876  1
  O  O48  1  0.94266236  0.95820609  0.76421088  1
  O  O49  1  0.85666220  0.84193947  0.29185779  1
  O  O50  1  0.93085724  0.85091468  0.13451713  1
  O  O51  1  0.92374935  0.62074124  0.04320469  1
  P  P52  1  0.12142736  0.05875307  0.78366197  1
  P  P53  1  0.06961889  0.27115467  0.42245940  1
  P  P54  1  0.18052434  0.23941446  0.94375728  1
  P  P55  1  0.23069497  0.03914669  0.30673956  1
  P  P56  1  0.31947566  0.73941446  0.55624272  1
  P  P57  1  0.37857264  0.55875307  0.71633803  1
  P  P58  1  0.26930503  0.53914669  0.19326044  1
  P  P59  1  0.56961889  0.22884533  0.92245940  1
  P  P60  1  0.43038111  0.77115467  0.07754060  1
  P  P61  1  0.73069497  0.46085331  0.80673956  1
  P  P62  1  0.62142736  0.44124693  0.28366197  1
  P  P63  1  0.68052434  0.26058554  0.44375728  1
  P  P64  1  0.76930503  0.96085331  0.69326044  1
  P  P65  1  0.81947566  0.76058554  0.05624272  1
  P  P66  1  0.93038111  0.72884533  0.57754060  1
  P  P67  1  0.87857264  0.94124693  0.21633803  1
  Sb  Sb68  1  0.02646681  0.64816190  0.35888187  1
  Sb  Sb69  1  0.52646681  0.85183810  0.85888187  1
  Sb  Sb70  1  0.47353319  0.14816190  0.14111813  1
  Sb  Sb71  1  0.97353319  0.35183810  0.64111813  1
