# generated using pymatgen
data_Fe4Co3(PO4)6
_symmetry_space_group_name_H-M   'P 1'
_cell_length_a   6.41213940
_cell_length_b   7.95518916
_cell_length_c   9.41112431
_cell_angle_alpha   104.46658347
_cell_angle_beta   108.38712622
_cell_angle_gamma   101.41293028
_symmetry_Int_Tables_number   1
_chemical_formula_structural   Fe4Co3(PO4)6
_chemical_formula_sum   'Fe4 Co3 P6 O24'
_cell_volume   420.63468721
_cell_formula_units_Z   1
loop_
 _symmetry_equiv_pos_site_id
 _symmetry_equiv_pos_as_xyz
  1  'x, y, z'
loop_
 _atom_site_type_symbol
 _atom_site_label
 _atom_site_symmetry_multiplicity
 _atom_site_fract_x
 _atom_site_fract_y
 _atom_site_fract_z
 _atom_site_occupancy
  O  O0  1  0.78951927  0.05001115  0.29430151  1
  O  O1  1  0.21048218  0.94998961  0.70569901  1
  O  O2  1  0.77435380  0.80464788  0.05663879  1
  O  O3  1  0.22564765  0.19535289  0.94336173  1
  O  O4  1  0.62813069  0.22689673  0.49028666  1
  O  O5  1  0.37187077  0.77310404  0.50971386  1
  O  O6  1  0.01716950  0.19179388  0.66328541  1
  O  O7  1  0.98283143  0.80820552  0.33671472  1
  O  O8  1  0.87537522  0.46455282  0.83800251  1
  O  O9  1  0.12462408  0.53544659  0.16199726  1
  O  O10  1  0.89049549  0.21011056  0.08478459  1
  O  O11  1  0.10950545  0.78988885  0.91521554  1
  O  O12  1  0.93757170  0.44974701  0.34599064  1
  O  O13  1  0.27081664  0.03262577  0.23566451  1
  O  O14  1  0.72918319  0.96737500  0.76433567  1
  O  O15  1  0.30798827  0.54155920  0.91611744  1
  O  O16  1  0.69201103  0.45844022  0.08388234  1
  O  O17  1  0.24796409  0.27195163  0.46322788  1
  O  O18  1  0.06242761  0.55025240  0.65400914  1
  O  O19  1  0.44798761  0.36337220  0.28711258  1
  O  O20  1  0.55201221  0.63662858  0.71288760  1
  O  O21  1  0.45469401  0.26856262  0.77567978  1
  O  O22  1  0.54530581  0.73143816  0.22432039  1
  O  O23  1  0.75203522  0.72804778  0.53677190  1
  P  P24  1  0.77383725  0.85162626  0.22917059  1
  P  P25  1  0.22616257  0.14837451  0.77082959  1
  P  P26  1  0.60662537  0.77649837  0.63276626  1
  P  P27  1  0.39337446  0.22350241  0.36723392  1
  P  P28  1  0.08908768  0.59595253  0.83251068  1
  P  P29  1  0.91091162  0.40404688  0.16748910  1
  Fe  Fe30  1  0.61589312  0.54955288  0.88648128  1
  Fe  Fe31  1  0.04615358  0.72416059  0.52663117  1
  Fe  Fe32  1  0.38410833  0.45044789  0.11351925  1
  Fe  Fe33  1  0.95384573  0.27583882  0.47336861  1
  Co  Co34  1  0.29284331  0.80574139  0.29005697  1
  Co  Co35  1  0.70715652  0.19425939  0.70994321  1
  Co  Co36  1  0.00000000  0.00000000  0.00000000  1
