# generated using pymatgen
data_Li5Cu(PO4)2
_symmetry_space_group_name_H-M   'P 1'
_cell_length_a   6.19177366
_cell_length_b   5.36779098
_cell_length_c   9.94605429
_cell_angle_alpha   89.07205851
_cell_angle_beta   89.59999120
_cell_angle_gamma   89.25885013
_symmetry_Int_Tables_number   1
_chemical_formula_structural   Li5Cu(PO4)2
_chemical_formula_sum   'Li10 Cu2 P4 O16'
_cell_volume   330.48993335
_cell_formula_units_Z   2
loop_
 _symmetry_equiv_pos_site_id
 _symmetry_equiv_pos_as_xyz
  1  'x, y, z'
loop_
 _atom_site_type_symbol
 _atom_site_label
 _atom_site_symmetry_multiplicity
 _atom_site_fract_x
 _atom_site_fract_y
 _atom_site_fract_z
 _atom_site_occupancy
  Li  Li0  1  0.00347652  0.16143917  0.24939974  1
  Li  Li1  1  0.99303791  0.14916060  0.74719337  1
  Li  Li2  1  0.75097023  0.32569053  0.49178031  1
  Li  Li3  1  0.24190499  0.32507793  0.49844440  1
  Li  Li4  1  0.25280666  0.33154289  0.00046442  1
  Li  Li5  1  0.24764246  0.66567130  0.75019695  1
  Li  Li6  1  0.26030247  0.67670199  0.25199613  1
  Li  Li7  1  0.49894444  0.85024074  0.00274500  1
  Li  Li8  1  0.50052106  0.84116365  0.49965009  1
  Li  Li9  1  0.75260354  0.67961433  0.24870066  1
  O  O10  1  0.20814471  0.68651852  0.95289092  1
  O  O11  1  0.79625928  0.68857052  0.44796724  1
  O  O12  1  0.00013237  0.10039829  0.44958440  1
  O  O13  1  0.01050762  0.83032559  0.16393537  1
  O  O14  1  0.70975267  0.31819353  0.20873411  1
  O  O15  1  0.01700658  0.10649093  0.95100012  1
  O  O16  1  -0.00074498  0.81934391  0.65764217  1
  O  O17  1  0.20846178  0.68565805  0.44960580  1
  O  O18  1  0.28335434  0.31004694  0.69759497  1
  O  O19  1  0.29618339  0.31933991  0.20037324  1
  O  O20  1  0.48382007  0.89131304  0.69846582  1
  O  O21  1  0.49390577  0.16923810  0.90388305  1
  O  O22  1  0.49501959  0.17799943  0.41164940  1
  O  O23  1  0.50396369  0.90552242  0.20384403  1
  O  O24  1  0.69708995  0.28975295  0.68753454  1
  O  O25  1  0.79165519  0.71843647  0.96237333  1
  P  P26  1  0.01025915  0.83480663  0.00808035  1
  P  P27  1  0.48828672  0.16513971  0.74688455  1
  P  P28  1  0.00030081  0.82376325  0.50046628  1
  P  P29  1  0.50049477  0.17864277  0.25529520  1
  Cu  Cu30  1  0.75345788  0.34615955  -0.00967240  1
  Cu  Cu31  1  0.75047836  0.62803631  0.76285645  1
