# generated using pymatgen
data_SrAl
_symmetry_space_group_name_H-M   'P 1'
_cell_length_a   12.77133376
_cell_length_b   12.77133376
_cell_length_c   12.77133376
_cell_angle_alpha   90.00000000
_cell_angle_beta   90.00000000
_cell_angle_gamma   90.00000000
_symmetry_Int_Tables_number   1
_chemical_formula_structural   SrAl
_chemical_formula_sum   'Sr32 Al32'
_cell_volume   2083.09350149
_cell_formula_units_Z   32
loop_
 _symmetry_equiv_pos_site_id
 _symmetry_equiv_pos_as_xyz
  1  'x, y, z'
loop_
 _atom_site_type_symbol
 _atom_site_label
 _atom_site_symmetry_multiplicity
 _atom_site_fract_x
 _atom_site_fract_y
 _atom_site_fract_z
 _atom_site_occupancy
  Al  Al0  1  0.06420545  0.43579455  0.56420545  1
  Al  Al1  1  0.43579455  0.56420545  0.06420545  1
  Al  Al2  1  0.56420545  0.06420545  0.43579455  1
  Al  Al3  1  0.93579455  0.93579455  0.93579455  1
  Al  Al4  1  0.43644252  0.06355748  0.93644252  1
  Al  Al5  1  0.06355748  0.93644252  0.43644252  1
  Al  Al6  1  0.93644252  0.43644252  0.06355748  1
  Al  Al7  1  0.56355748  0.56355748  0.56355748  1
  Al  Al8  1  0.25854161  0.67828018  0.92349245  1
  Al  Al9  1  0.75854161  0.82171982  0.07650755  1
  Al  Al10  1  0.74145839  0.17828018  0.57650755  1
  Al  Al11  1  0.82171982  0.07650755  0.75854161  1
  Al  Al12  1  0.57650755  0.74145839  0.17828018  1
  Al  Al13  1  0.07650755  0.75854161  0.82171982  1
  Al  Al14  1  0.67828018  0.92349245  0.25854161  1
  Al  Al15  1  0.23620997  0.81263347  0.43349410  1
  Al  Al16  1  0.17828018  0.57650755  0.74145839  1
  Al  Al17  1  0.32171982  0.42349245  0.24145839  1
  Al  Al18  1  0.42349245  0.24145839  0.32171982  1
  Al  Al19  1  0.24145839  0.32171982  0.42349245  1
  Al  Al20  1  0.26379003  0.18736653  0.93349410  1
  Al  Al21  1  0.76379003  0.31263347  0.06650590  1
  Al  Al22  1  0.73620997  0.68736653  0.56650590  1
  Al  Al23  1  0.31263347  0.06650590  0.76379003  1
  Al  Al24  1  0.56650590  0.73620997  0.68736653  1
  Al  Al25  1  0.06650590  0.76379003  0.31263347  1
  Al  Al26  1  0.18736653  0.93349410  0.26379003  1
  Al  Al27  1  0.93349410  0.26379003  0.18736653  1
  Al  Al28  1  0.68736653  0.56650590  0.73620997  1
  Al  Al29  1  0.81263347  0.43349410  0.23620997  1
  Al  Al30  1  0.43349410  0.23620997  0.81263347  1
  Al  Al31  1  0.92349245  0.25854161  0.67828018  1
  Sr  Sr32  1  0.20168093  0.93630689  0.98153012  1
  Sr  Sr33  1  0.29519465  0.70480535  0.20480535  1
  Sr  Sr34  1  0.70480535  0.20480535  0.29519465  1
  Sr  Sr35  1  0.79519465  0.79519465  0.79519465  1
  Sr  Sr36  1  0.80776049  0.69223951  0.30776049  1
  Sr  Sr37  1  0.69223951  0.30776049  0.80776049  1
  Sr  Sr38  1  0.30776049  0.80776049  0.69223951  1
  Sr  Sr39  1  0.19223951  0.19223951  0.19223951  1
  Sr  Sr40  1  0.01846988  0.70168093  0.56369311  1
  Sr  Sr41  1  0.51846988  0.79831907  0.43630689  1
  Sr  Sr42  1  0.98153012  0.20168093  0.93630689  1
  Sr  Sr43  1  0.79831907  0.43630689  0.51846988  1
  Sr  Sr44  1  0.93630689  0.98153012  0.20168093  1
  Sr  Sr45  1  0.43630689  0.51846988  0.79831907  1
  Sr  Sr46  1  0.70168093  0.56369311  0.01846988  1
  Sr  Sr47  1  0.56369311  0.01846988  0.70168093  1
  Sr  Sr48  1  0.20480535  0.29519465  0.70480535  1
  Sr  Sr49  1  0.29831907  0.06369311  0.48153012  1
  Sr  Sr50  1  0.06369311  0.48153012  0.29831907  1
  Sr  Sr51  1  0.48153012  0.29831907  0.06369311  1
  Sr  Sr52  1  0.30278761  0.56223475  0.49877700  1
  Sr  Sr53  1  0.80278761  0.93776525  0.50122300  1
  Sr  Sr54  1  0.69721239  0.06223475  0.00122300  1
  Sr  Sr55  1  0.93776525  0.50122300  0.80278761  1
  Sr  Sr56  1  0.00122300  0.69721239  0.06223475  1
  Sr  Sr57  1  0.50122300  0.80278761  0.93776525  1
  Sr  Sr58  1  0.56223475  0.49877700  0.30278761  1
  Sr  Sr59  1  0.49877700  0.30278761  0.56223475  1
  Sr  Sr60  1  0.06223475  0.00122300  0.69721239  1
  Sr  Sr61  1  0.43776525  0.99877700  0.19721239  1
  Sr  Sr62  1  0.99877700  0.19721239  0.43776525  1
  Sr  Sr63  1  0.19721239  0.43776525  0.99877700  1
