# generated using pymatgen
data_Ba(NO2)2
_symmetry_space_group_name_H-M   'P 1'
_cell_length_a   6.89855058
_cell_length_b   7.83048719
_cell_length_c   8.46659344
_cell_angle_alpha   90.00000000
_cell_angle_beta   90.00000000
_cell_angle_gamma   90.00000000
_symmetry_Int_Tables_number   1
_chemical_formula_structural   Ba(NO2)2
_chemical_formula_sum   'Ba4 N8 O16'
_cell_volume   457.35701218
_cell_formula_units_Z   4
loop_
 _symmetry_equiv_pos_site_id
 _symmetry_equiv_pos_as_xyz
  1  'x, y, z'
loop_
 _atom_site_type_symbol
 _atom_site_label
 _atom_site_symmetry_multiplicity
 _atom_site_fract_x
 _atom_site_fract_y
 _atom_site_fract_z
 _atom_site_occupancy
  N  N0  1  0.49311742  0.72251329  0.72609144  1
  N  N1  1  0.99311742  0.77748671  0.27390856  1
  N  N2  1  0.50688258  0.22251329  0.77390856  1
  N  N3  1  0.00688258  0.27748671  0.22609144  1
  N  N4  1  0.89471974  0.53379689  0.86581718  1
  N  N5  1  0.39471974  0.96620311  0.13418282  1
  N  N6  1  0.10528026  0.03379689  0.63418282  1
  N  N7  1  0.60528026  0.46620311  0.36581718  1
  O  O8  1  0.37150155  0.33395629  0.76758268  1
  O  O9  1  0.87150155  0.16604371  0.23241732  1
  O  O10  1  0.62849845  0.83395629  0.73241732  1
  O  O11  1  0.12849845  0.66604371  0.26758268  1
  O  O12  1  0.05063958  0.62126528  0.84080011  1
  O  O13  1  0.55063958  0.87873472  0.15919989  1
  O  O14  1  0.94936042  0.12126528  0.65919989  1
  O  O15  1  0.44936042  0.37873472  0.34080011  1
  O  O16  1  0.70930532  0.40855012  0.47554122  1
  O  O17  1  0.20930532  0.09144988  0.52445878  1
  O  O18  1  0.29069468  0.90855012  0.02445878  1
  O  O19  1  0.79069468  0.59144988  0.97554122  1
  O  O20  1  0.40717323  0.71432418  0.59450710  1
  O  O21  1  0.90717323  0.78567582  0.40549290  1
  O  O22  1  0.59282677  0.21432418  0.90549290  1
  O  O23  1  0.09282677  0.28567582  0.09450710  1
  Ba  Ba24  1  0.39255621  0.54032439  0.03909199  1
  Ba  Ba25  1  0.89255621  0.95967561  0.96090801  1
  Ba  Ba26  1  0.60744379  0.04032439  0.46090801  1
  Ba  Ba27  1  0.10744379  0.45967561  0.53909199  1
