# generated using pymatgen
data_Ga(Bi3O5)4
_symmetry_space_group_name_H-M   'P 1'
_cell_length_a   8.86849289
_cell_length_b   8.86849289
_cell_length_c   8.86849289
_cell_angle_alpha   109.47390447
_cell_angle_beta   109.47719159
_cell_angle_gamma   109.46256620
_symmetry_Int_Tables_number   1
_chemical_formula_structural   Ga(Bi3O5)4
_chemical_formula_sum   'Ga1 Bi12 O20'
_cell_volume   536.94223723
_cell_formula_units_Z   1
loop_
 _symmetry_equiv_pos_site_id
 _symmetry_equiv_pos_as_xyz
  1  'x, y, z'
loop_
 _atom_site_type_symbol
 _atom_site_label
 _atom_site_symmetry_multiplicity
 _atom_site_fract_x
 _atom_site_fract_y
 _atom_site_fract_z
 _atom_site_occupancy
  O  O0  1  0.61779557  0.23683359  0.35673257  1
  O  O1  1  0.88010102  0.26106300  0.64326743  1
  O  O2  1  0.11989898  0.76316641  0.38096198  1
  O  O3  1  0.38220443  0.73893700  0.61903802  1
  O  O4  1  0.21352359  -0.00009516  0.00004509  1
  O  O5  1  -0.00014025  0.21347850  0.99995491  1
  O  O6  1  1.00014025  1.00009516  0.21361875  1
  O  O7  1  0.78647641  0.78652150  0.78638125  1
  O  O8  1  0.61621538  1.00000573  0.99995114  1
  O  O9  1  1.00005459  0.61626424  0.00004886  1
  O  O10  1  -0.00005459  -0.00000573  0.61620965  1
  O  O11  1  0.38378462  0.38373576  0.38379035  1
  O  O12  1  0.61908401  0.38210679  0.73902900  1
  O  O13  1  0.73903717  0.61902738  0.38242781  1
  O  O14  1  0.23659957  0.35660936  0.61757219  1
  O  O15  1  0.76340043  0.38097262  0.12000979  1
  O  O16  1  0.26096283  0.64339064  0.87999021  1
  O  O17  1  0.38091599  0.11994499  0.76302278  1
  O  O18  1  0.35692221  0.61789321  0.23697722  1
  O  O19  1  0.64307779  0.88005501  0.26097100  1
  Ga  Ga20  1  0.00000000  0.00000000  0.00000000  1
  Bi  Bi21  1  0.81359921  0.14079590  0.30550545  1
  Bi  Bi22  1  0.83529044  0.50809376  0.69449455  1
  Bi  Bi23  1  0.16470956  0.85920410  0.67280331  1
  Bi  Bi24  1  0.18640079  0.49190624  0.32719669  1
  Bi  Bi25  1  0.50808351  0.69460204  0.83544045  1
  Bi  Bi26  1  0.85916159  0.67264306  0.16455955  1
  Bi  Bi27  1  0.14083841  0.30539796  0.81348147  1
  Bi  Bi28  1  0.49191649  0.32735694  0.18651853  1
  Bi  Bi29  1  0.67289093  0.16470888  0.85915358  1
  Bi  Bi30  1  0.30555530  0.81373735  0.14084642  1
  Bi  Bi31  1  0.69444470  0.83529112  0.50818205  1
  Bi  Bi32  1  0.32710907  0.18626265  0.49181795  1
