# generated using pymatgen
data_Bi3NF6
_symmetry_space_group_name_H-M   'P 1'
_cell_length_a   5.80738429
_cell_length_b   5.82520556
_cell_length_c   18.82476717
_cell_angle_alpha   90.00000000
_cell_angle_beta   90.00000000
_cell_angle_gamma   90.00000000
_symmetry_Int_Tables_number   1
_chemical_formula_structural   Bi3NF6
_chemical_formula_sum   'Bi12 N4 F24'
_cell_volume   636.82695012
_cell_formula_units_Z   4
loop_
 _symmetry_equiv_pos_site_id
 _symmetry_equiv_pos_as_xyz
  1  'x, y, z'
loop_
 _atom_site_type_symbol
 _atom_site_label
 _atom_site_symmetry_multiplicity
 _atom_site_fract_x
 _atom_site_fract_y
 _atom_site_fract_z
 _atom_site_occupancy
  N  N0  1  0.75000000  0.51661950  0.50000000  1
  N  N1  1  0.25000000  0.48338050  0.00000000  1
  N  N2  1  0.25000000  0.48338050  0.50000000  1
  N  N3  1  0.75000000  0.51661950  0.00000000  1
  F  F4  1  0.75000000  0.01163733  0.50000000  1
  F  F5  1  0.25000000  0.98836267  0.00000000  1
  F  F6  1  0.25000000  0.98836267  0.50000000  1
  F  F7  1  0.75000000  0.01163733  0.00000000  1
  F  F8  1  0.13066139  0.59297274  0.25000000  1
  F  F9  1  0.63066139  0.40702726  0.25000000  1
  F  F10  1  0.36933861  0.59297274  0.75000000  1
  F  F11  1  0.86933861  0.40702726  0.75000000  1
  F  F12  1  0.26388546  0.03761088  0.32151416  1
  F  F13  1  0.76388546  0.96238912  0.17848584  1
  F  F14  1  0.23611454  0.03761088  0.67848584  1
  F  F15  1  0.73611454  0.96238912  0.82151416  1
  F  F16  1  0.73611454  0.96238912  0.67848584  1
  F  F17  1  0.23611454  0.03761088  0.82151416  1
  F  F18  1  0.76388546  0.96238912  0.32151416  1
  F  F19  1  0.26388546  0.03761088  0.17848584  1
  F  F20  1  0.44361213  0.62470595  0.12884572  1
  F  F21  1  0.94361213  0.37529405  0.37115428  1
  F  F22  1  0.05638787  0.62470595  0.87115428  1
  F  F23  1  0.55638787  0.37529405  0.62884572  1
  F  F24  1  0.55638787  0.37529405  0.87115428  1
  F  F25  1  0.05638787  0.62470595  0.62884572  1
  F  F26  1  0.94361213  0.37529405  0.12884572  1
  F  F27  1  0.44361213  0.62470595  0.37115428  1
  Bi  Bi28  1  0.48742097  0.70331101  0.56838474  1
  Bi  Bi29  1  0.98742097  0.29668899  0.93161526  1
  Bi  Bi30  1  0.01257903  0.70331101  0.43161526  1
  Bi  Bi31  1  0.51257903  0.29668899  0.06838474  1
  Bi  Bi32  1  0.51257903  0.29668899  0.43161526  1
  Bi  Bi33  1  0.01257903  0.70331101  0.06838474  1
  Bi  Bi34  1  0.98742097  0.29668899  0.56838474  1
  Bi  Bi35  1  0.48742097  0.70331101  0.93161526  1
  Bi  Bi36  1  0.97427620  0.21852498  0.25000000  1
  Bi  Bi37  1  0.47427620  0.78147502  0.25000000  1
  Bi  Bi38  1  0.52572380  0.21852498  0.75000000  1
  Bi  Bi39  1  0.02572380  0.78147502  0.75000000  1
