# generated using pymatgen
data_Al6Bi24Cl23
_symmetry_space_group_name_H-M   'P 1'
_cell_length_a   17.02367416
_cell_length_b   16.86858343
_cell_length_c   18.25302936
_cell_angle_alpha   91.14845185
_cell_angle_beta   88.59685283
_cell_angle_gamma   113.90341784
_symmetry_Int_Tables_number   1
_chemical_formula_structural   Al6Bi24Cl23
_chemical_formula_sum   'Al12 Bi48 Cl46'
_cell_volume   4790.32916569
_cell_formula_units_Z   2
loop_
 _symmetry_equiv_pos_site_id
 _symmetry_equiv_pos_as_xyz
  1  'x, y, z'
loop_
 _atom_site_type_symbol
 _atom_site_label
 _atom_site_symmetry_multiplicity
 _atom_site_fract_x
 _atom_site_fract_y
 _atom_site_fract_z
 _atom_site_occupancy
  Al  Al0  1  0.31996514  0.72556301  0.94867737  1
  Al  Al1  1  0.35599351  0.64507134  0.11459075  1
  Al  Al2  1  0.32385923  0.69127024  0.50317153  1
  Al  Al3  1  0.38036661  0.32942137  0.25023652  1
  Al  Al4  1  0.63437521  0.67844724  0.75300628  1
  Al  Al5  1  0.73853959  0.41151233  0.44971032  1
  Al  Al6  1  0.64625116  0.31035630  0.58951313  1
  Al  Al7  1  0.74211962  0.41220006  0.05277233  1
  Al  Al8  1  0.93568503  0.94573145  0.53700484  1
  Al  Al9  1  0.93465543  0.94620587  0.96114700  1
  Al  Al10  1  0.64994608  0.28554658  0.89227383  1
  Al  Al11  1  0.73944869  0.11759885  0.24905615  1
  Bi  Bi12  1  0.06995757  0.73603376  0.62818579  1
  Bi  Bi13  1  0.06738616  0.74392746  0.87152689  1
  Bi  Bi14  1  0.15220156  0.97897702  0.24971026  1
  Bi  Bi15  1  0.16810150  0.69299703  0.75365207  1
  Bi  Bi16  1  0.21479423  0.84433388  0.16434587  1
  Bi  Bi17  1  0.21254390  0.84569740  0.33376519  1
  Bi  Bi18  1  0.01033363  0.44862649  0.16127727  1
  Bi  Bi19  1  0.01171433  0.45252543  0.33479690  1
  Bi  Bi20  1  0.04596479  0.17751574  0.24769438  1
  Bi  Bi21  1  0.40966533  0.93978825  0.33381969  1
  Bi  Bi22  1  0.41231947  0.93885676  0.16251561  1
  Bi  Bi23  1  0.13991658  0.36554626  0.16291518  1
  Bi  Bi24  1  0.13840084  0.36741362  0.33292074  1
  Bi  Bi25  1  0.55312505  0.88098776  0.75046800  1
  Bi  Bi26  1  0.27197774  0.45053578  0.74885608  1
  Bi  Bi27  1  0.22844741  0.31341737  0.86974443  1
  Bi  Bi28  1  0.23633345  0.30663087  0.63018977  1
  Bi  Bi29  1  0.18652865  0.16635054  0.75132578  1
  Bi  Bi30  1  0.68976706  0.95992633  0.87121787  1
  Bi  Bi31  1  0.69483575  0.95680861  0.63068642  1
  Bi  Bi32  1  0.64960046  0.79738010  0.33448724  1
  Bi  Bi33  1  0.65044258  0.79582682  0.16693986  1
  Bi  Bi34  1  0.55108585  0.59619700  0.16552782  1
  Bi  Bi35  1  0.55303823  0.59755980  0.33397834  1
  Bi  Bi36  1  0.42544104  0.42359065  0.66586428  1
  Bi  Bi37  1  0.42243498  0.42903669  0.83526929  1
  Bi  Bi38  1  0.36066953  0.22587672  0.83738305  1
  Bi  Bi39  1  0.36446678  0.21639743  0.67098384  1
  Bi  Bi40  1  0.29574915  0.04704540  0.36642268  1
  Bi  Bi41  1  0.29860119  0.04432499  0.13105625  1
  Bi  Bi42  1  0.83790559  0.81945831  0.24708317  1
  Bi  Bi43  1  0.75392907  0.68643889  0.36632667  1
  Bi  Bi44  1  0.75419861  0.68342775  0.12742572  1
  Bi  Bi45  1  0.68377752  0.54028002  0.24598996  1
  Bi  Bi46  1  0.43893747  0.11276347  0.24787622  1
  Bi  Bi47  1  0.87472294  0.64047148  0.65925910  1
  Bi  Bi48  1  0.88468799  0.61346712  0.82099143  1
  Bi  Bi49  1  0.55983994  0.05067324  0.83519174  1
  Bi  Bi50  1  0.56415091  0.04784713  0.66797727  1
  Bi  Bi51  1  0.97850745  0.80841579  0.73951545  1
  Bi  Bi52  1  -0.00176632  0.51607299  0.68696629  1
  Bi  Bi53  1  0.03845223  0.54639805  0.85411777  1
  Bi  Bi54  1  0.76559458  0.15575834  0.66796966  1
  Bi  Bi55  1  0.75710597  0.16098810  0.83582679  1
  Bi  Bi56  1  0.84923752  0.31167518  0.24846721  1
  Bi  Bi57  1  0.83100729  0.03250848  0.75168736  1
  Bi  Bi58  1  0.95075968  0.25025294  0.12757862  1
  Bi  Bi59  1  0.94758895  0.25460605  0.36862495  1
  Cl  Cl60  1  0.28433531  0.82571194  0.90855186  1
  Cl  Cl61  1  0.30413768  0.74600563  0.60801044  1
  Cl  Cl62  1  0.20959094  0.65988153  0.43817352  1
  Cl  Cl63  1  0.21636918  0.65229051  0.02540389  1
  Cl  Cl64  1  0.13081173  0.49298564  0.63700522  1
  Cl  Cl65  1  0.12952659  0.45087067  0.87079852  1
  Cl  Cl66  1  0.34214495  0.66155873  0.85337027  1
  Cl  Cl67  1  0.06232527  0.06740822  0.34662698  1
  Cl  Cl68  1  0.43377999  0.78860164  0.01576835  1
  Cl  Cl69  1  0.43426339  0.79357929  0.45165810  1
  Cl  Cl70  1  0.36500354  0.56164196  0.02145461  1
  Cl  Cl71  1  0.34935309  0.57773719  0.51565468  1
  Cl  Cl72  1  0.35585155  0.44737404  0.25301770  1
  Cl  Cl73  1  0.25691220  0.22144321  0.25156027  1
  Cl  Cl74  1  0.57292090  0.68154885  0.85605082  1
  Cl  Cl75  1  0.55594901  0.68348134  0.66376992  1
  Cl  Cl76  1  0.44706366  0.32493218  0.34770715  1
  Cl  Cl77  1  0.44824854  0.32440109  0.15138909  1
  Cl  Cl78  1  0.75889435  0.78530058  0.74627808  1
  Cl  Cl79  1  0.65310440  0.55779801  0.74231288  1
  Cl  Cl80  1  0.40454817  0.07545659  0.74423809  1
  Cl  Cl81  1  0.80774384  0.84417498  0.94842589  1
  Cl  Cl82  1  0.80874817  0.84217987  0.54772701  1
  Cl  Cl83  1  0.64996268  0.43379020  0.53541979  1
  Cl  Cl84  1  0.66133797  0.44059982  0.97689198  1
  Cl  Cl85  1  0.54798218  0.20419229  0.54034945  1
  Cl  Cl86  1  0.54703170  0.19983224  0.96678647  1
  Cl  Cl87  1  0.65612606  0.32864514  0.70212935  1
  Cl  Cl88  1  0.67311789  0.34030364  0.14561095  1
  Cl  Cl89  1  0.66772522  0.33324092  0.36485662  1
  Cl  Cl90  1  0.99456882  0.98785217  0.85215019  1
  Cl  Cl91  1  0.01081687  0.89108037  0.01574044  1
  Cl  Cl92  1  0.01534760  0.89271318  0.48025510  1
  Cl  Cl93  1  0.97884260  0.78612998  0.25008305  1
  Cl  Cl94  1  0.84599906  0.53066355  0.08638272  1
  Cl  Cl95  1  0.84468511  0.52823305  0.42910399  1
  Cl  Cl96  1  0.79512132  0.33508309  0.98832271  1
  Cl  Cl97  1  0.77310177  0.33075460  0.53129458  1
  Cl  Cl98  1  0.66949855  0.11149061  0.34838918  1
  Cl  Cl99  1  0.66985659  0.10838914  0.15245417  1
  Cl  Cl100  1  0.89738078  0.35773036  0.72790708  1
  Cl  Cl101  1  0.80752525  0.03680245  0.24913414  1
  Cl  Cl102  1  0.91970748  0.05678021  0.00976482  1
  Cl  Cl103  1  0.92097787  0.05656776  0.49439663  1
  Cl  Cl104  1  0.06370727  0.06310282  0.15063294  1
  Cl  Cl105  1  0.99126640  0.98409774  0.64742802  1
