# generated using pymatgen
data_Ta7Cu3O19
_symmetry_space_group_name_H-M   'P 1'
_cell_length_a   6.28571597
_cell_length_b   6.28571597
_cell_length_c   20.43969879
_cell_angle_alpha   90.00000000
_cell_angle_beta   90.00000000
_cell_angle_gamma   119.99999995
_symmetry_Int_Tables_number   1
_chemical_formula_structural   Ta7Cu3O19
_chemical_formula_sum   'Ta14 Cu6 O38'
_cell_volume   699.38228753
_cell_formula_units_Z   2
loop_
 _symmetry_equiv_pos_site_id
 _symmetry_equiv_pos_as_xyz
  1  'x, y, z'
loop_
 _atom_site_type_symbol
 _atom_site_label
 _atom_site_symmetry_multiplicity
 _atom_site_fract_x
 _atom_site_fract_y
 _atom_site_fract_z
 _atom_site_occupancy
  O  O0  1  0.29078508  0.93030899  0.75000000  1
  O  O1  1  0.36047609  0.29078508  0.25000000  1
  O  O2  1  0.93030899  0.63952391  0.25000000  1
  O  O3  1  0.06969101  0.36047609  0.75000000  1
  O  O4  1  0.63952391  0.70921492  0.75000000  1
  O  O5  1  0.70921492  0.06969101  0.25000000  1
  O  O6  1  0.00000000  0.00000000  0.33742903  1
  O  O7  1  0.00000000  0.00000000  0.83742903  1
  O  O8  1  0.00000000  0.00000000  0.66257097  1
  O  O9  1  0.00000000  0.00000000  0.16257097  1
  O  O10  1  0.33413324  0.91403361  0.34578448  1
  O  O11  1  0.42009963  0.33413324  0.84578448  1
  O  O12  1  0.91403361  0.57990037  0.84578448  1
  O  O13  1  0.08596639  0.42009963  0.34578448  1
  O  O14  1  0.57990037  0.66586676  0.34578448  1
  O  O15  1  0.66586676  0.08596639  0.84578448  1
  O  O16  1  0.66586676  0.08596639  0.65421552  1
  O  O17  1  0.57990037  0.66586676  0.15421552  1
  O  O18  1  0.08596639  0.42009963  0.15421552  1
  O  O19  1  0.91403361  0.57990037  0.65421552  1
  O  O20  1  0.75122402  0.02801013  0.05649309  1
  O  O21  1  0.72321389  0.75122402  0.55649309  1
  O  O22  1  0.02801013  0.27678611  0.55649309  1
  O  O23  1  0.97198987  0.72321389  0.05649309  1
  O  O24  1  0.27678611  0.24877598  0.05649309  1
  O  O25  1  0.24877598  0.97198987  0.55649309  1
  O  O26  1  0.24877598  0.97198987  0.94350691  1
  O  O27  1  0.27678611  0.24877598  0.44350691  1
  O  O28  1  0.97198987  0.72321389  0.44350691  1
  O  O29  1  0.02801013  0.27678611  0.94350691  1
  O  O30  1  0.72321389  0.75122402  0.94350691  1
  O  O31  1  0.75122402  0.02801013  0.44350691  1
  O  O32  1  0.66666667  0.33333333  0.13864001  1
  O  O33  1  0.33333333  0.66666667  0.63864001  1
  O  O34  1  0.33333333  0.66666667  0.86135999  1
  O  O35  1  0.66666667  0.33333333  0.36135999  1
  O  O36  1  0.33413324  0.91403361  0.15421552  1
  O  O37  1  0.42009963  0.33413324  0.65421552  1
  Cu  Cu38  1  0.50000000  0.00000000  0.50000000  1
  Cu  Cu39  1  0.50000000  0.50000000  0.00000000  1
  Cu  Cu40  1  0.00000000  0.50000000  0.00000000  1
  Cu  Cu41  1  0.00000000  0.50000000  0.50000000  1
  Cu  Cu42  1  0.50000000  0.50000000  0.50000000  1
  Cu  Cu43  1  0.50000000  0.00000000  0.00000000  1
  Ta  Ta44  1  0.69352553  0.02865809  0.34334083  1
  Ta  Ta45  1  0.66486744  0.69352553  0.84334083  1
  Ta  Ta46  1  0.02865809  0.33513256  0.84334083  1
  Ta  Ta47  1  0.97134191  0.66486744  0.34334083  1
  Ta  Ta48  1  0.33513256  0.30647447  0.34334083  1
  Ta  Ta49  1  0.30647447  0.97134191  0.84334083  1
  Ta  Ta50  1  0.30647447  0.97134191  0.65665917  1
  Ta  Ta51  1  0.33513256  0.30647447  0.15665917  1
  Ta  Ta52  1  0.97134191  0.66486744  0.15665917  1
  Ta  Ta53  1  0.02865809  0.33513256  0.65665917  1
  Ta  Ta54  1  0.66486744  0.69352553  0.65665917  1
  Ta  Ta55  1  0.69352553  0.02865809  0.15665917  1
  Ta  Ta56  1  0.00000000  0.00000000  0.50000000  1
  Ta  Ta57  1  0.00000000  0.00000000  0.00000000  1
