# generated using pymatgen
data_HfAg2S3
_symmetry_space_group_name_H-M   'P 1'
_cell_length_a   6.69093823
_cell_length_b   6.69093823
_cell_length_c   12.77342422
_cell_angle_alpha   90.00000000
_cell_angle_beta   90.00000000
_cell_angle_gamma   119.86875460
_symmetry_Int_Tables_number   1
_chemical_formula_structural   HfAg2S3
_chemical_formula_sum   'Hf4 Ag8 S12'
_cell_volume   495.88943104
_cell_formula_units_Z   4
loop_
 _symmetry_equiv_pos_site_id
 _symmetry_equiv_pos_as_xyz
  1  'x, y, z'
loop_
 _atom_site_type_symbol
 _atom_site_label
 _atom_site_symmetry_multiplicity
 _atom_site_fract_x
 _atom_site_fract_y
 _atom_site_fract_z
 _atom_site_occupancy
  S  S0  1  0.61053926  0.61053926  0.37648128  1
  S  S1  1  0.88946074  0.88946074  0.87648128  1
  S  S2  1  0.11053926  0.11053926  0.12351872  1
  S  S3  1  0.38946074  0.38946074  0.62351872  1
  S  S4  1  0.84649811  0.49789672  0.10278955  1
  S  S5  1  0.65350189  0.00210328  0.60278955  1
  S  S6  1  0.99789672  0.34649811  0.39721045  1
  S  S7  1  0.50210328  0.15350189  0.89721045  1
  S  S8  1  0.15350189  0.50210328  0.89721045  1
  S  S9  1  0.49789672  0.84649811  0.10278955  1
  S  S10  1  0.00210328  0.65350189  0.60278955  1
  S  S11  1  0.34649811  0.99789672  0.39721045  1
  Ag  Ag12  1  0.35198677  0.85198677  0.75000000  1
  Ag  Ag13  1  0.47513999  0.47513999  0.18024336  1
  Ag  Ag14  1  0.52486001  0.52486001  0.81975664  1
  Ag  Ag15  1  0.97513999  0.97513999  0.31975664  1
  Ag  Ag16  1  0.64801323  0.14801323  0.25000000  1
  Ag  Ag17  1  0.85198677  0.35198677  0.75000000  1
  Ag  Ag18  1  0.14801323  0.64801323  0.25000000  1
  Ag  Ag19  1  0.02486001  0.02486001  0.68024336  1
  Hf  Hf20  1  0.66221554  0.33778446  0.50000000  1
  Hf  Hf21  1  0.83778446  0.16221554  0.00000000  1
  Hf  Hf22  1  0.33778446  0.66221554  0.50000000  1
  Hf  Hf23  1  0.16221554  0.83778446  0.00000000  1
