# generated using pymatgen
data_KBrO4
_symmetry_space_group_name_H-M   'P 1'
_cell_length_a   6.07594305
_cell_length_b   7.70010561
_cell_length_c   9.17788365
_cell_angle_alpha   90.00000000
_cell_angle_beta   90.00000000
_cell_angle_gamma   90.00000000
_symmetry_Int_Tables_number   1
_chemical_formula_structural   KBrO4
_chemical_formula_sum   'K4 Br4 O16'
_cell_volume   429.39098677
_cell_formula_units_Z   4
loop_
 _symmetry_equiv_pos_site_id
 _symmetry_equiv_pos_as_xyz
  1  'x, y, z'
loop_
 _atom_site_type_symbol
 _atom_site_label
 _atom_site_symmetry_multiplicity
 _atom_site_fract_x
 _atom_site_fract_y
 _atom_site_fract_z
 _atom_site_occupancy
  O  O0  1  0.52905732  0.30945539  0.41940581  1
  O  O1  1  0.02905732  0.69054461  0.58059419  1
  O  O2  1  0.47094268  0.80945539  0.08059419  1
  O  O3  1  0.97094268  0.19054461  0.91940581  1
  O  O4  1  0.47094268  0.69054461  0.58059419  1
  O  O5  1  0.97094268  0.30945539  0.41940581  1
  O  O6  1  0.52905732  0.19054461  0.91940581  1
  O  O7  1  0.02905732  0.80945539  0.08059419  1
  O  O8  1  0.25000000  0.54704512  0.20826710  1
  O  O9  1  0.75000000  0.45295488  0.79173290  1
  O  O10  1  0.75000000  0.04704512  0.29173290  1
  O  O11  1  0.25000000  0.95295488  0.70826710  1
  O  O12  1  0.25000000  0.57914854  0.91414544  1
  O  O13  1  0.75000000  0.42085146  0.08585456  1
  O  O14  1  0.75000000  0.07914854  0.58585456  1
  O  O15  1  0.25000000  0.92085146  0.41414544  1
  K  K16  1  0.25000000  0.16271074  0.17758045  1
  K  K17  1  0.75000000  0.83728926  0.82241955  1
  K  K18  1  0.75000000  0.66271074  0.32241955  1
  K  K19  1  0.25000000  0.33728926  0.67758045  1
  Br  Br20  1  0.25000000  0.68405683  0.07010760  1
  Br  Br21  1  0.75000000  0.31594317  0.92989240  1
  Br  Br22  1  0.75000000  0.18405683  0.42989240  1
  Br  Br23  1  0.25000000  0.81594317  0.57010760  1
