# generated using pymatgen
data_Al10Ge2O19
_symmetry_space_group_name_H-M   'P 1'
_cell_length_a   5.92535560
_cell_length_b   7.83298588
_cell_length_c   15.70865174
_cell_angle_alpha   90.00000000
_cell_angle_beta   100.87118992
_cell_angle_gamma   90.00000000
_symmetry_Int_Tables_number   1
_chemical_formula_structural   Al10Ge2O19
_chemical_formula_sum   'Al20 Ge4 O38'
_cell_volume   716.00473991
_cell_formula_units_Z   2
loop_
 _symmetry_equiv_pos_site_id
 _symmetry_equiv_pos_as_xyz
  1  'x, y, z'
loop_
 _atom_site_type_symbol
 _atom_site_label
 _atom_site_symmetry_multiplicity
 _atom_site_fract_x
 _atom_site_fract_y
 _atom_site_fract_z
 _atom_site_occupancy
  O  O0  1  0.92972082  0.52536517  0.85944165  1
  O  O1  1  0.07027918  0.02536517  0.14055835  1
  O  O2  1  0.19682634  0.44494537  0.39365267  1
  O  O3  1  0.80317366  0.94494537  0.60634733  1
  O  O4  1  0.42453255  0.55445211  0.84906511  1
  O  O5  1  0.57546745  0.05445211  0.15093489  1
  O  O6  1  0.78331743  0.29446633  0.06366647  1
  O  O7  1  0.21668257  0.79446633  0.93633353  1
  O  O8  1  0.28034903  0.29446633  0.06366647  1
  O  O9  1  0.71965097  0.79446633  0.93633353  1
  O  O10  1  0.53137299  0.28514922  0.55380966  1
  O  O11  1  0.46862701  0.78514922  0.44619034  1
  O  O12  1  0.02243666  0.28514922  0.55380966  1
  O  O13  1  0.97756334  0.78514922  0.44619034  1
  O  O14  1  0.59295136  0.69654166  0.69520701  1
  O  O15  1  0.40704864  0.19654166  0.30479299  1
  O  O16  1  0.10225565  0.69654166  0.69520701  1
  O  O17  1  0.89774435  0.19654166  0.30479299  1
  O  O18  1  0.34431742  0.72189486  0.18078467  1
  O  O19  1  0.65568258  0.22189486  0.81921533  1
  O  O20  1  0.83646726  0.72189486  0.18078467  1
  O  O21  1  0.16353274  0.22189486  0.81921533  1
  O  O22  1  0.97440960  0.08560252  0.94881919  1
  O  O23  1  0.02559040  0.58560252  0.05118081  1
  O  O24  1  0.84328349  0.38589461  0.68656699  1
  O  O25  1  0.15671651  0.88589461  0.31343301  1
  O  O26  1  0.34668430  0.41482089  0.69336860  1
  O  O27  1  0.65331570  0.91482089  0.30663140  1
  O  O28  1  0.59789223  0.42374944  0.19578446  1
  O  O29  1  0.40210777  0.92374944  0.80421554  1
  O  O30  1  0.09776940  0.43695980  0.19553880  1
  O  O31  1  0.90223060  0.93695980  0.80446120  1
  O  O32  1  0.78212031  0.59535617  0.56424061  1
  O  O33  1  0.21787969  0.09535617  0.43575939  1
  O  O34  1  0.27475219  0.54543210  0.54950439  1
  O  O35  1  0.72524781  0.04543210  0.45049561  1
  O  O36  1  0.52595120  0.57803597  0.05190239  1
  O  O37  1  0.47404880  0.07803597  0.94809761  1
  Al  Al38  1  0.18403143  0.01059120  0.88171819  1
  Al  Al39  1  0.81596857  0.51059120  0.11828181  1
  Al  Al40  1  0.69768676  0.01059120  0.88171819  1
  Al  Al41  1  0.30231324  0.51059120  0.11828181  1
  Al  Al42  1  0.02771155  0.16784114  0.05542310  1
  Al  Al43  1  0.97228845  0.66784114  0.94457690  1
  Al  Al44  1  0.52345497  0.18262929  0.04690995  1
  Al  Al45  1  0.47654503  0.68262929  0.95309005  1
  Al  Al46  1  0.77631900  0.15455524  0.55263800  1
  Al  Al47  1  0.22368100  0.65455524  0.44736200  1
  Al  Al48  1  0.85525470  0.82209988  0.71050940  1
  Al  Al49  1  0.14474530  0.32209988  0.28949060  1
  Al  Al50  1  0.59888837  0.83706899  0.19777674  1
  Al  Al51  1  0.40111163  0.33706899  0.80222326  1
  Al  Al52  1  0.09796773  0.83731179  0.19593546  1
  Al  Al53  1  0.90203227  0.33731179  0.80406454  1
  Al  Al54  1  0.56849348  0.48601704  0.63019848  1
  Al  Al55  1  0.43150652  0.98601704  0.36980152  1
  Al  Al56  1  0.06170500  0.48601704  0.63019848  1
  Al  Al57  1  0.93829500  0.98601704  0.36980152  1
  Ge  Ge58  1  0.61781224  0.21609939  0.23562448  1
  Ge  Ge59  1  0.38218776  0.71609939  0.76437552  1
  Ge  Ge60  1  0.75483806  0.79745952  0.50967612  1
  Ge  Ge61  1  0.24516194  0.29745952  0.49032388  1
