# generated using pymatgen
data_Mg3V2O6
_symmetry_space_group_name_H-M   'P 1'
_cell_length_a   6.10802613
_cell_length_b   5.94293057
_cell_length_c   18.20141483
_cell_angle_alpha   61.13095037
_cell_angle_beta   61.67544403
_cell_angle_gamma   60.58208996
_symmetry_Int_Tables_number   1
_chemical_formula_structural   Mg3V2O6
_chemical_formula_sum   'Mg12 V8 O24'
_cell_volume   478.97929345
_cell_formula_units_Z   4
loop_
 _symmetry_equiv_pos_site_id
 _symmetry_equiv_pos_as_xyz
  1  'x, y, z'
loop_
 _atom_site_type_symbol
 _atom_site_label
 _atom_site_symmetry_multiplicity
 _atom_site_fract_x
 _atom_site_fract_y
 _atom_site_fract_z
 _atom_site_occupancy
  Mg  Mg0  1  0.99302892  0.04061836  0.14023399  1
  Mg  Mg1  1  0.42962073  0.04307273  0.99128546  1
  Mg  Mg2  1  0.11649958  0.12287617  0.37575360  1
  Mg  Mg3  1  0.48645137  0.49585055  0.17162300  1
  Mg  Mg4  1  0.98290630  0.04922912  0.80512069  1
  Mg  Mg5  1  0.43188172  0.03957421  0.66431424  1
  Mg  Mg6  1  0.50784144  0.50361532  0.49674680  1
  Mg  Mg7  1  0.87162409  0.85207165  0.31185685  1
  Mg  Mg8  1  0.49717046  0.51142800  0.82944754  1
  Mg  Mg9  1  0.94314385  0.83458123  0.63085254  1
  Mg  Mg10  1  0.49891259  0.00434464  0.82913299  1
  Mg  Mg11  1  0.94918386  0.81434589  0.98080025  1
  V  V12  1  0.48281049  0.00151402  0.17164053  1
  V  V13  1  0.51084061  0.00168927  0.49830759  1
  V  V14  1  0.49413197  0.49259359  0.33497567  1
  V  V15  1  0.99678938  0.49374744  0.16948082  1
  V  V16  1  0.51391940  0.49222929  0.66812040  1
  V  V17  1  0.00672821  0.49193013  0.50523104  1
  V  V18  1  0.51841380  0.48931327  0.99910378  1
  V  V19  1  0.00639568  0.49820593  0.83297402  1
  O  O20  1  0.24706448  0.25296358  0.08384294  1
  O  O21  1  0.25607706  0.74193628  0.08057857  1
  O  O22  1  0.24477454  0.26140734  0.24093286  1
  O  O23  1  0.69421309  0.25089654  0.09232446  1
  O  O24  1  0.26272219  0.26351926  0.41608778  1
  O  O25  1  0.26347903  0.75308969  0.24600252  1
  O  O26  1  0.72051898  0.74093974  0.10032278  1
  O  O27  1  0.24882457  0.71831484  0.41971119  1
  O  O28  1  0.76181881  0.25334064  0.24162827  1
  O  O29  1  0.27689755  0.25897479  0.56776955  1
  O  O30  1  0.72111419  0.26408932  0.41368077  1
  O  O31  1  0.75979293  0.75009391  0.24366390  1
  O  O32  1  0.31574978  0.73607015  0.57838334  1
  O  O33  1  0.24052524  0.25258324  0.75275873  1
  O  O34  1  0.74899432  0.72357427  0.43658943  1
  O  O35  1  0.73774398  0.25286619  0.58999926  1
  O  O36  1  0.25121592  0.74999801  0.74949679  1
  O  O37  1  0.25550983  0.27417839  0.90102311  1
  O  O38  1  0.73433875  0.75786073  0.58925616  1
  O  O39  1  0.70214174  0.26549760  0.75482150  1
  O  O40  1  0.31281936  0.72711157  0.91361352  1
  O  O41  1  0.74669527  0.73576997  0.75992230  1
  O  O42  1  0.74864522  0.23197889  0.92075272  1
  O  O43  1  0.76002872  0.76011424  0.91650273  1
