# generated using pymatgen
data_Th2Ta2O9
_symmetry_space_group_name_H-M   'P 1'
_cell_length_a   7.47353118
_cell_length_b   9.78327582
_cell_length_c   9.78327582
_cell_angle_alpha   106.66450955
_cell_angle_beta   90.00000000
_cell_angle_gamma   90.00000000
_symmetry_Int_Tables_number   1
_chemical_formula_structural   Th2Ta2O9
_chemical_formula_sum   'Th8 Ta8 O36'
_cell_volume   685.26743740
_cell_formula_units_Z   4
loop_
 _symmetry_equiv_pos_site_id
 _symmetry_equiv_pos_as_xyz
  1  'x, y, z'
loop_
 _atom_site_type_symbol
 _atom_site_label
 _atom_site_symmetry_multiplicity
 _atom_site_fract_x
 _atom_site_fract_y
 _atom_site_fract_z
 _atom_site_occupancy
  O  O0  1  0.50000000  0.17618756  0.17618756  1
  O  O1  1  0.00000000  0.82381244  0.82381244  1
  O  O2  1  0.50000000  0.81779716  0.81779716  1
  O  O3  1  0.00000000  0.18220284  0.18220284  1
  O  O4  1  0.50000000  0.43107218  0.43107218  1
  O  O5  1  0.00000000  0.56892782  0.56892782  1
  O  O6  1  0.25000000  0.02694011  0.97305989  1
  O  O7  1  0.75000000  0.97305989  0.02694011  1
  O  O8  1  0.19856873  0.49087129  0.29240916  1
  O  O9  1  0.69856873  0.50912871  0.70759084  1
  O  O10  1  0.80143127  0.29240916  0.49087129  1
  O  O11  1  0.30143127  0.70759084  0.50912871  1
  O  O12  1  0.97986733  0.79176658  0.37113306  1
  O  O13  1  0.47986733  0.20823342  0.62886694  1
  O  O14  1  0.02013267  0.37113306  0.79176658  1
  O  O15  1  0.52013267  0.62886694  0.20823342  1
  O  O16  1  0.03106254  0.85252703  0.10115314  1
  O  O17  1  0.53106254  0.14747297  0.89884686  1
  O  O18  1  0.96893746  0.10115314  0.85252703  1
  O  O19  1  0.46893746  0.89884686  0.14747297  1
  O  O20  1  0.28296384  0.96649159  0.66967741  1
  O  O21  1  0.78296384  0.03350841  0.33032259  1
  O  O22  1  0.71703616  0.66967741  0.96649159  1
  O  O23  1  0.21703616  0.33032259  0.03350841  1
  O  O24  1  0.70348191  0.97805432  0.65749736  1
  O  O25  1  0.20348191  0.02194568  0.34250264  1
  O  O26  1  0.29651809  0.65749736  0.97805432  1
  O  O27  1  0.79651809  0.34250264  0.02194568  1
  O  O28  1  0.00020150  0.10703238  0.58313452  1
  O  O29  1  0.50020150  0.89296762  0.41686548  1
  O  O30  1  0.99979850  0.58313452  0.10703238  1
  O  O31  1  0.49979850  0.41686548  0.89296762  1
  O  O32  1  0.67900405  0.69712679  0.54354648  1
  O  O33  1  0.17900405  0.30287321  0.45645352  1
  O  O34  1  0.32099595  0.54354648  0.69712679  1
  O  O35  1  0.82099595  0.45645352  0.30287321  1
  Ta  Ta36  1  0.50000000  0.99130453  0.99130453  1
  Ta  Ta37  1  0.00000000  0.00869547  0.00869547  1
  Ta  Ta38  1  0.25000000  0.50539664  0.49460336  1
  Ta  Ta39  1  0.75000000  0.49460336  0.50539664  1
  Ta  Ta40  1  0.49856678  0.85458176  0.60034506  1
  Ta  Ta41  1  -0.00143322  0.14541824  0.39965494  1
  Ta  Ta42  1  0.50143322  0.60034506  0.85458176  1
  Ta  Ta43  1  1.00143322  0.39965494  0.14541824  1
  Th  Th44  1  0.25000000  0.20667356  0.79332644  1
  Th  Th45  1  0.75000000  0.79332644  0.20667356  1
  Th  Th46  1  0.25000000  0.76142228  0.23857772  1
  Th  Th47  1  0.75000000  0.23857772  0.76142228  1
  Th  Th48  1  0.51261826  0.38988251  0.13445250  1
  Th  Th49  1  0.01261826  0.61011749  0.86554750  1
  Th  Th50  1  0.48738174  0.13445250  0.38988251  1
  Th  Th51  1  0.98738174  0.86554750  0.61011749  1
