# generated using pymatgen
data_LiCo3(P3O10)2
_symmetry_space_group_name_H-M   'P 1'
_cell_length_a   8.34854699
_cell_length_b   8.34854699
_cell_length_c   12.21235518
_cell_angle_alpha   90.00000000
_cell_angle_beta   90.00000000
_cell_angle_gamma   74.97594301
_symmetry_Int_Tables_number   1
_chemical_formula_structural   LiCo3(P3O10)2
_chemical_formula_sum   'Li2 Co6 P12 O40'
_cell_volume   822.08381077
_cell_formula_units_Z   2
loop_
 _symmetry_equiv_pos_site_id
 _symmetry_equiv_pos_as_xyz
  1  'x, y, z'
loop_
 _atom_site_type_symbol
 _atom_site_label
 _atom_site_symmetry_multiplicity
 _atom_site_fract_x
 _atom_site_fract_y
 _atom_site_fract_z
 _atom_site_occupancy
  Li  Li0  1  0.41241763  0.58758274  0.50000021  1
  Li  Li1  1  0.58758226  0.41241808  0.00000000  1
  O  O2  1  0.52498029  0.77251504  0.19833893  1
  O  O3  1  0.64355287  0.03075640  0.55777373  1
  O  O4  1  0.72866026  0.25952874  0.10720004  1
  O  O5  1  0.74047074  0.27133994  0.89280038  1
  O  O6  1  0.96924255  0.35644748  0.44222669  1
  O  O7  1  0.79031974  0.15871948  0.69605296  1
  O  O8  1  0.15871929  0.79031918  0.80394767  1
  O  O9  1  0.20968047  0.84128010  0.19605275  1
  O  O10  1  0.35644734  0.96924318  0.05777352  1
  O  O11  1  0.03075734  0.64355334  0.94222690  1
  O  O12  1  0.25952946  0.72865964  0.39280017  1
  O  O13  1  0.27133994  0.74047084  0.60719944  1
  O  O14  1  0.06015597  0.34402708  0.24101364  1
  O  O15  1  0.65597301  0.93984348  0.75898679  1
  O  O16  1  0.73337586  0.99623099  0.20403799  1
  O  O17  1  0.00376800  0.26662460  0.79596243  1
  O  O18  1  0.46170608  0.72475105  0.77087549  1
  O  O19  1  0.27524863  0.53829307  0.22912493  1
  O  O20  1  0.84128091  0.20968040  0.30394746  1
  O  O21  1  0.22748551  0.47501994  0.80166149  1
  O  O22  1  0.15523651  0.31596392  0.60592522  1
  O  O23  1  0.68403562  0.84476336  0.39407521  1
  O  O24  1  0.07601818  0.16405188  0.02618653  1
  O  O25  1  0.83594854  0.92398185  0.97381307  1
  O  O26  1  0.34402600  0.06015610  0.25898658  1
  O  O27  1  0.28037433  0.32101439  0.41797586  1
  O  O28  1  0.32101452  0.28037470  0.08202435  1
  O  O29  1  0.71962436  0.67898643  0.91797607  1
  O  O30  1  0.92398203  0.83594769  0.52618674  1
  O  O31  1  0.16405167  0.07601773  0.47381286  1
  O  O32  1  0.84476370  0.68403566  0.10592501  1
  O  O33  1  0.31596339  0.15523622  0.89407542  1
  O  O34  1  0.47501959  0.22748578  0.69833914  1
  O  O35  1  0.77251438  0.52498088  0.30166128  1
  O  O36  1  0.53829412  0.27524853  0.27087528  1
  O  O37  1  0.72475158  0.46170651  0.72912432  1
  O  O38  1  0.26662435  0.00376859  0.70403820  1
  O  O39  1  0.99623101  0.73337497  0.29596222  1
  O  O40  1  0.93984391  0.65597373  0.74101385  1
  O  O41  1  0.67898569  0.71962488  0.58202375  1
  P  P42  1  0.84560299  0.73647307  0.98717195  1
  P  P43  1  0.26352710  0.15439714  0.01282766  1
  P  P44  1  0.70008627  0.18053230  0.21998958  1
  P  P45  1  0.73647310  0.84560243  0.51282787  1
  P  P46  1  0.81946819  0.29991309  0.78001003  1
  P  P47  1  0.91176748  0.37088458  0.31573926  1
  P  P48  1  0.08823273  0.62911500  0.81573865  1
  P  P49  1  0.37088490  0.91176797  0.18426095  1
  P  P50  1  0.18053202  0.70008649  0.28001064  1
  P  P51  1  0.29991394  0.81946728  0.71998979  1
  P  P52  1  0.15439722  0.26352651  0.48717255  1
  P  P53  1  0.62911530  0.08823161  0.68426116  1
  Co  Co54  1  0.87613928  0.12386072  0.00000000  1
  Co  Co55  1  0.76050754  0.76050822  0.25000011  1
  Co  Co56  1  0.69809897  0.69809971  0.75000032  1
  Co  Co57  1  0.30190091  0.30190110  0.25000011  1
  Co  Co58  1  0.23949266  0.23949136  0.75000032  1
  Co  Co59  1  0.12386092  0.87613885  0.50000021  1
