# generated using pymatgen
data_Gd3ReO7
_symmetry_space_group_name_H-M   'P 1'
_cell_length_a   6.55066037
_cell_length_b   6.55066037
_cell_length_c   7.50182905
_cell_angle_alpha   90.00000000
_cell_angle_beta   90.00000000
_cell_angle_gamma   110.27820618
_symmetry_Int_Tables_number   1
_chemical_formula_structural   Gd3ReO7
_chemical_formula_sum   'Gd6 Re2 O14'
_cell_volume   301.96027573
_cell_formula_units_Z   2
loop_
 _symmetry_equiv_pos_site_id
 _symmetry_equiv_pos_as_xyz
  1  'x, y, z'
loop_
 _atom_site_type_symbol
 _atom_site_label
 _atom_site_symmetry_multiplicity
 _atom_site_fract_x
 _atom_site_fract_y
 _atom_site_fract_z
 _atom_site_occupancy
  O  O0  1  0.34523464  0.61077819  0.75000000  1
  O  O1  1  0.65476536  0.38922181  0.25000000  1
  O  O2  1  0.61077819  0.34523464  0.75000000  1
  O  O3  1  0.38922181  0.65476536  0.25000000  1
  O  O4  1  0.06736371  0.32000973  0.02957713  1
  O  O5  1  0.93263629  0.67999027  0.52957713  1
  O  O6  1  0.32000973  0.06736371  0.47042287  1
  O  O7  1  0.67999027  0.93263629  0.97042287  1
  O  O8  1  0.95117219  0.95117219  0.25000000  1
  O  O9  1  0.04882781  0.04882781  0.75000000  1
  O  O10  1  0.32000973  0.06736371  0.02957713  1
  O  O11  1  0.67999027  0.93263629  0.52957713  1
  O  O12  1  0.06736371  0.32000973  0.47042287  1
  O  O13  1  0.93263629  0.67999027  0.97042287  1
  Gd  Gd14  1  0.50000000  0.50000000  0.00000000  1
  Gd  Gd15  1  0.50000000  0.50000000  0.50000000  1
  Gd  Gd16  1  0.97944370  0.44478464  0.75000000  1
  Gd  Gd17  1  0.02055630  0.55521536  0.25000000  1
  Gd  Gd18  1  0.44478464  0.97944370  0.75000000  1
  Gd  Gd19  1  0.55521536  0.02055630  0.25000000  1
  Re  Re20  1  0.00000000  0.00000000  0.00000000  1
  Re  Re21  1  0.00000000  0.00000000  0.50000000  1
