# generated using pymatgen
data_Ce8SbPd24
_symmetry_space_group_name_H-M   'P 1'
_cell_length_a   8.50164741
_cell_length_b   8.50164741
_cell_length_c   8.50164741
_cell_angle_alpha   90.00000000
_cell_angle_beta   90.00000000
_cell_angle_gamma   90.00000000
_symmetry_Int_Tables_number   1
_chemical_formula_structural   Ce8SbPd24
_chemical_formula_sum   'Ce8 Sb1 Pd24'
_cell_volume   614.48214533
_cell_formula_units_Z   1
loop_
 _symmetry_equiv_pos_site_id
 _symmetry_equiv_pos_as_xyz
  1  'x, y, z'
loop_
 _atom_site_type_symbol
 _atom_site_label
 _atom_site_symmetry_multiplicity
 _atom_site_fract_x
 _atom_site_fract_y
 _atom_site_fract_z
 _atom_site_occupancy
  Pd  Pd0  1  0.00000000  0.00000000  0.31685713  1
  Pd  Pd1  1  0.73184900  0.00000000  0.50000000  1
  Pd  Pd2  1  0.73184900  0.50000000  0.00000000  1
  Pd  Pd3  1  0.50000000  0.00000000  0.73184900  1
  Pd  Pd4  1  0.00000000  0.73184900  0.50000000  1
  Pd  Pd5  1  0.50000000  0.00000000  0.26815100  1
  Pd  Pd6  1  0.00000000  0.26815100  0.50000000  1
  Pd  Pd7  1  0.50000000  0.73184900  0.00000000  1
  Pd  Pd8  1  0.25533088  0.50000000  0.50000000  1
  Pd  Pd9  1  0.50000000  0.50000000  0.74466912  1
  Pd  Pd10  1  0.50000000  0.50000000  0.25533088  1
  Pd  Pd11  1  0.50000000  0.25533088  0.50000000  1
  Pd  Pd12  1  0.50000000  0.74466912  0.50000000  1
  Pd  Pd13  1  0.74466912  0.50000000  0.50000000  1
  Pd  Pd14  1  0.31685713  0.00000000  0.00000000  1
  Pd  Pd15  1  0.00000000  0.00000000  0.68314287  1
  Pd  Pd16  1  0.00000000  0.50000000  0.26815100  1
  Pd  Pd17  1  0.00000000  0.31685713  0.00000000  1
  Pd  Pd18  1  0.00000000  0.68314287  0.00000000  1
  Pd  Pd19  1  0.68314287  0.00000000  0.00000000  1
  Pd  Pd20  1  0.26815100  0.50000000  0.00000000  1
  Pd  Pd21  1  0.26815100  0.00000000  0.50000000  1
  Pd  Pd22  1  0.00000000  0.50000000  0.73184900  1
  Pd  Pd23  1  0.50000000  0.26815100  0.00000000  1
  Sb  Sb24  1  0.00000000  0.00000000  0.00000000  1
  Ce  Ce25  1  0.75259159  0.75259159  0.24740841  1
  Ce  Ce26  1  0.75259159  0.24740841  0.75259159  1
  Ce  Ce27  1  0.24740841  0.75259159  0.75259159  1
  Ce  Ce28  1  0.75259159  0.75259159  0.75259159  1
  Ce  Ce29  1  0.75259159  0.24740841  0.24740841  1
  Ce  Ce30  1  0.24740841  0.24740841  0.75259159  1
  Ce  Ce31  1  0.24740841  0.75259159  0.24740841  1
  Ce  Ce32  1  0.24740841  0.24740841  0.24740841  1
