# generated using pymatgen
data_Na2TiCr(PO4)3
_symmetry_space_group_name_H-M   'P 1'
_cell_length_a   9.90835550
_cell_length_b   9.90835550
_cell_length_c   9.90835550
_cell_angle_alpha   90.00000000
_cell_angle_beta   90.00000000
_cell_angle_gamma   90.00000000
_symmetry_Int_Tables_number   1
_chemical_formula_structural   Na2TiCr(PO4)3
_chemical_formula_sum   'Na8 Ti4 Cr4 P12 O48'
_cell_volume   972.75784174
_cell_formula_units_Z   4
loop_
 _symmetry_equiv_pos_site_id
 _symmetry_equiv_pos_as_xyz
  1  'x, y, z'
loop_
 _atom_site_type_symbol
 _atom_site_label
 _atom_site_symmetry_multiplicity
 _atom_site_fract_x
 _atom_site_fract_y
 _atom_site_fract_z
 _atom_site_occupancy
  O  O0  1  0.94171512  0.26601427  0.00697429  1
  O  O1  1  0.44171466  0.23398619  0.99302562  1
  O  O2  1  0.05828580  0.76601372  0.49302516  1
  O  O3  1  0.23398619  0.99302562  0.44171466  1
  O  O4  1  0.49302516  0.05828580  0.76601372  1
  O  O5  1  0.99302562  0.44171466  0.23398619  1
  O  O6  1  0.26601427  0.00697429  0.94171512  1
  O  O7  1  0.00697429  0.94171512  0.26601427  1
  O  O8  1  0.76601372  0.49302516  0.05828580  1
  O  O9  1  0.73398564  0.50697475  0.55828525  1
  O  O10  1  0.50697475  0.55828525  0.73398564  1
  O  O11  1  0.55828525  0.73398564  0.50697475  1
  O  O12  1  0.01701800  0.44032151  0.82770973  1
  O  O13  1  0.51701846  0.05967895  0.17229018  1
  O  O14  1  0.98298191  0.94032096  0.67228963  1
  O  O15  1  0.05967895  0.17229018  0.51701846  1
  O  O16  1  0.67228963  0.98298191  0.94032096  1
  O  O17  1  0.17229018  0.51701846  0.05967895  1
  O  O18  1  0.76664241  0.95628644  0.20317123  1
  O  O19  1  0.82770973  0.01701800  0.44032151  1
  O  O20  1  0.94032096  0.67228963  0.98298191  1
  O  O21  1  0.55967839  0.32771028  0.48298145  1
  O  O22  1  0.32771028  0.48298145  0.55967839  1
  O  O23  1  0.48298145  0.55967839  0.32771028  1
  O  O24  1  0.04371347  0.70317068  0.73335694  1
  O  O25  1  0.54371292  0.79682868  0.26664296  1
  O  O26  1  0.95628644  0.20317123  0.76664241  1
  O  O27  1  0.79682868  0.26664296  0.54371292  1
  O  O28  1  0.59360400  0.83047351  0.74987870  1
  O  O29  1  0.74987870  0.59360400  0.83047351  1
  O  O30  1  0.83047351  0.74987870  0.59360400  1
  O  O31  1  0.66952585  0.25012121  0.09360354  1
  O  O32  1  0.24987925  0.90639637  0.16952640  1
  O  O33  1  0.16952640  0.24987925  0.90639637  1
  O  O34  1  0.75012065  0.40639591  0.33047406  1
  O  O35  1  0.25012121  0.09360354  0.66952585  1
  O  O36  1  0.33047406  0.75012065  0.40639591  1
  O  O37  1  0.09360354  0.66952585  0.25012121  1
  O  O38  1  0.40639591  0.33047406  0.75012065  1
  O  O39  1  0.90639637  0.16952640  0.24987925  1
  O  O40  1  0.45628699  0.29682923  0.23335750  1
  O  O41  1  0.23335750  0.45628699  0.29682923  1
  O  O42  1  0.29682923  0.23335750  0.45628699  1
  O  O43  1  0.20317123  0.76664241  0.95628644  1
  O  O44  1  0.73335694  0.04371347  0.70317068  1
  O  O45  1  0.70317068  0.73335694  0.04371347  1
  O  O46  1  0.26664296  0.54371292  0.79682868  1
  O  O47  1  0.44032151  0.82770973  0.01701800  1
  Na  Na48  1  0.92850347  0.92850347  0.92850347  1
  Na  Na49  1  0.35339782  0.85339828  0.64660209  1
  Na  Na50  1  0.14660163  0.14660163  0.14660163  1
  Na  Na51  1  0.07149644  0.42850301  0.57149690  1
  Na  Na52  1  0.85339828  0.64660209  0.35339782  1
  Na  Na53  1  0.42850301  0.57149690  0.07149644  1
  Na  Na54  1  0.57149690  0.07149644  0.42850301  1
  Na  Na55  1  0.64660209  0.35339782  0.85339828  1
  P  P56  1  0.79160964  0.62133086  0.97643451  1
  P  P57  1  0.87866850  0.02356540  0.29160918  1
  P  P58  1  0.37866905  0.47643405  0.70839073  1
  P  P59  1  0.47643405  0.70839073  0.37866905  1
  P  P60  1  0.29160918  0.87866850  0.02356540  1
  P  P61  1  0.12133141  0.52356586  0.20839027  1
  P  P62  1  0.62133086  0.97643451  0.79160964  1
  P  P63  1  0.20839027  0.12133141  0.52356586  1
  P  P64  1  0.97643451  0.79160964  0.62133086  1
  P  P65  1  0.52356586  0.20839027  0.12133141  1
  P  P66  1  0.70839073  0.37866905  0.47643405  1
  P  P67  1  0.02356540  0.29160918  0.87866850  1
  Ti  Ti68  1  0.11020999  0.61021045  0.88978992  1
  Ti  Ti69  1  0.61021045  0.88978992  0.11020999  1
  Ti  Ti70  1  0.88978992  0.11020999  0.61021045  1
  Ti  Ti71  1  0.38978946  0.38978946  0.38978946  1
  Cr  Cr72  1  0.33665320  0.16334726  0.83665265  1
  Cr  Cr73  1  0.16334726  0.83665265  0.33665320  1
  Cr  Cr74  1  0.83665265  0.33665320  0.16334726  1
  Cr  Cr75  1  0.66334671  0.66334671  0.66334671  1
