# generated using pymatgen
data_Mn6Al31Ni2
_symmetry_space_group_name_H-M   'P 1'
_cell_length_a   7.76296740
_cell_length_b   12.53474068
_cell_length_c   12.38853914
_cell_angle_alpha   90.00000000
_cell_angle_beta   90.00000000
_cell_angle_gamma   108.03862586
_symmetry_Int_Tables_number   1
_chemical_formula_structural   Mn6Al31Ni2
_chemical_formula_sum   'Mn12 Al62 Ni4'
_cell_volume   1146.23667549
_cell_formula_units_Z   2
loop_
 _symmetry_equiv_pos_site_id
 _symmetry_equiv_pos_as_xyz
  1  'x, y, z'
loop_
 _atom_site_type_symbol
 _atom_site_label
 _atom_site_symmetry_multiplicity
 _atom_site_fract_x
 _atom_site_fract_y
 _atom_site_fract_z
 _atom_site_occupancy
  Al  Al0  1  0.18834366  0.37668732  0.75000000  1
  Al  Al1  1  0.81165634  0.62331268  0.25000000  1
  Al  Al2  1  0.80313108  0.60626216  0.75000000  1
  Al  Al3  1  0.19686892  0.39373784  0.25000000  1
  Al  Al4  1  0.63559658  0.27119316  0.75000000  1
  Al  Al5  1  0.36440342  0.72880684  0.25000000  1
  Al  Al6  1  0.63765976  0.27531953  0.14995761  1
  Al  Al7  1  0.36234024  0.72468047  0.85004239  1
  Al  Al8  1  0.36234024  0.72468047  0.64995761  1
  Al  Al9  1  0.63765976  0.27531953  0.35004239  1
  Al  Al10  1  0.74058413  0.48116827  0.06162717  1
  Al  Al11  1  0.25941587  0.51883173  0.93837283  1
  Al  Al12  1  0.25941587  0.51883173  0.56162717  1
  Al  Al13  1  0.74058413  0.48116827  0.43837283  1
  Al  Al14  1  0.53988675  0.07977350  0.88658119  1
  Al  Al15  1  0.46011325  0.92022650  0.11341881  1
  Al  Al16  1  0.46011325  0.92022650  0.38658119  1
  Al  Al17  1  0.53988675  0.07977350  0.61341881  1
  Al  Al18  1  0.98189977  0.96379954  0.09224876  1
  Al  Al19  1  0.01810023  0.03620046  0.90775124  1
  Al  Al20  1  0.01810023  0.03620046  0.59224876  1
  Al  Al21  1  0.98189977  0.96379954  0.40775124  1
  Al  Al22  1  0.78084538  0.03005969  0.75000000  1
  Al  Al23  1  0.75078569  0.96994031  0.25000000  1
  Al  Al24  1  0.21915462  0.96994031  0.25000000  1
  Al  Al25  1  0.24921431  0.03005969  0.75000000  1
  Al  Al26  1  0.71162281  0.80053632  0.75000000  1
  Al  Al27  1  0.91108649  0.19946368  0.25000000  1
  Al  Al28  1  0.28837719  0.19946368  0.25000000  1
  Al  Al29  1  0.08891351  0.80053632  0.75000000  1
  Al  Al30  1  0.36334508  0.10742542  0.06830030  1
  Al  Al31  1  0.25591966  0.89257458  0.93169970  1
  Al  Al32  1  0.63665492  0.89257458  0.56830030  1
  Al  Al33  1  0.74408034  0.10742542  0.43169970  1
  Al  Al34  1  0.63665492  0.89257458  0.93169970  1
  Al  Al35  1  0.74408034  0.10742542  0.06830030  1
  Al  Al36  1  0.36334508  0.10742542  0.43169970  1
  Al  Al37  1  0.25591966  0.89257458  0.56830030  1
  Al  Al38  1  0.63501472  0.65681376  0.93281739  1
  Al  Al39  1  0.97820095  0.34318624  0.06718261  1
  Al  Al40  1  0.36498528  0.34318624  0.43281739  1
  Al  Al41  1  0.02179905  0.65681376  0.56718261  1
  Al  Al42  1  0.36498528  0.34318624  0.06718261  1
  Al  Al43  1  0.02179905  0.65681376  0.93281739  1
  Al  Al44  1  0.63501472  0.65681376  0.56718261  1
  Al  Al45  1  0.97820095  0.34318624  0.43281739  1
  Al  Al46  1  0.53450811  0.43646856  0.87439982  1
  Al  Al47  1  0.09803955  0.56353144  0.12560018  1
  Al  Al48  1  0.46549189  0.56353144  0.37439982  1
  Al  Al49  1  0.90196045  0.43646856  0.62560018  1
  Al  Al50  1  0.46549189  0.56353144  0.12560018  1
  Al  Al51  1  0.90196045  0.43646856  0.87439982  1
  Al  Al52  1  0.53450811  0.43646856  0.62560018  1
  Al  Al53  1  0.09803955  0.56353144  0.37439982  1
  Al  Al54  1  0.69830314  0.77803386  0.10656679  1
  Al  Al55  1  0.92026928  0.22196614  0.89343321  1
  Al  Al56  1  0.30169686  0.22196614  0.60656679  1
  Al  Al57  1  0.07973072  0.77803386  0.39343321  1
  Al  Al58  1  0.30169686  0.22196614  0.89343321  1
  Al  Al59  1  0.07973072  0.77803386  0.10656679  1
  Al  Al60  1  0.69830314  0.77803386  0.39343321  1
  Al  Al61  1  0.92026928  0.22196614  0.60656679  1
  Mn  Mn62  1  0.45911819  0.91823637  0.75000000  1
  Mn  Mn63  1  0.54088181  0.08176363  0.25000000  1
  Mn  Mn64  1  0.08188107  0.16376214  0.75000000  1
  Mn  Mn65  1  0.91811893  0.83623786  0.25000000  1
  Mn  Mn66  1  0.64161603  0.28323206  0.94765901  1
  Mn  Mn67  1  0.35838397  0.71676794  0.05234099  1
  Mn  Mn68  1  0.35838397  0.71676794  0.44765901  1
  Mn  Mn69  1  0.64161603  0.28323206  0.55234099  1
  Mn  Mn70  1  0.91237598  0.82475196  0.92185737  1
  Mn  Mn71  1  0.08762402  0.17524804  0.07814263  1
  Mn  Mn72  1  0.08762402  0.17524804  0.42185737  1
  Mn  Mn73  1  0.91237598  0.82475196  0.57814263  1
  Ni  Ni74  1  0.10165532  0.57071537  0.75000000  1
  Ni  Ni75  1  0.53093994  0.42928463  0.25000000  1
  Ni  Ni76  1  0.89834468  0.42928463  0.25000000  1
  Ni  Ni77  1  0.46906006  0.57071537  0.75000000  1
