# generated using pymatgen
data_P2SO3
_symmetry_space_group_name_H-M   'P 1'
_cell_length_a   6.75977313
_cell_length_b   11.72622318
_cell_length_c   12.15412732
_cell_angle_alpha   90.31834766
_cell_angle_beta   90.00000000
_cell_angle_gamma   90.00000000
_symmetry_Int_Tables_number   1
_chemical_formula_structural   P2SO3
_chemical_formula_sum   'P16 S8 O24'
_cell_volume   963.40157870
_cell_formula_units_Z   8
loop_
 _symmetry_equiv_pos_site_id
 _symmetry_equiv_pos_as_xyz
  1  'x, y, z'
loop_
 _atom_site_type_symbol
 _atom_site_label
 _atom_site_symmetry_multiplicity
 _atom_site_fract_x
 _atom_site_fract_y
 _atom_site_fract_z
 _atom_site_occupancy
  P  P0  1  0.01427439  0.17818766  0.09604745  1
  P  P1  1  0.85960079  0.15115356  0.47730104  1
  P  P2  1  0.35960079  0.84884644  0.02269896  1
  P  P3  1  0.46887271  0.71181917  0.61852570  1
  P  P4  1  0.14039921  0.84884644  0.52269896  1
  P  P5  1  0.53112729  0.28818083  0.38147430  1
  P  P6  1  0.03112729  0.71181917  0.11852570  1
  P  P7  1  0.24739764  0.62919607  0.92524115  1
  P  P8  1  0.64039921  0.15115356  0.97730104  1
  P  P9  1  0.25260236  0.62919607  0.42524115  1
  P  P10  1  0.48572561  0.17818766  0.59604745  1
  P  P11  1  0.51427439  0.82181234  0.40395255  1
  P  P12  1  0.75260236  0.37080393  0.07475885  1
  P  P13  1  0.96887271  0.28818083  0.88147430  1
  P  P14  1  0.74739764  0.37080393  0.57475885  1
  P  P15  1  0.98572561  0.82181234  0.90395255  1
  S  S16  1  0.30646394  0.10483552  0.69205319  1
  S  S17  1  0.65753165  0.50043192  0.15061774  1
  S  S18  1  0.80646394  0.89516448  0.80794681  1
  S  S19  1  0.84246835  0.50043192  0.65061774  1
  S  S20  1  0.34246835  0.49956808  0.84938226  1
  S  S21  1  0.19353606  0.10483552  0.19205319  1
  S  S22  1  0.69353606  0.89516448  0.30794681  1
  S  S23  1  0.15753165  0.49956808  0.34938226  1
  O  O24  1  0.67792198  0.10420337  0.56120481  1
  O  O25  1  0.39816340  0.22002255  0.47931158  1
  O  O26  1  0.58538009  0.29528277  0.64427311  1
  O  O27  1  0.22356506  0.79971586  0.12522662  1
  O  O28  1  0.91461991  0.29528277  0.14427311  1
  O  O29  1  0.41000203  0.72478004  0.95766686  1
  O  O30  1  0.86832533  0.39171974  0.96035684  1
  O  O31  1  0.13167467  0.60828026  0.03964316  1
  O  O32  1  0.89816340  0.77997745  0.02068842  1
  O  O33  1  0.36832533  0.60828026  0.53964316  1
  O  O34  1  0.60183660  0.77997745  0.52068842  1
  O  O35  1  0.27643494  0.79971586  0.62522662  1
  O  O36  1  0.58999797  0.27521996  0.04233314  1
  O  O37  1  0.32207802  0.89579663  0.43879519  1
  O  O38  1  0.91000203  0.27521996  0.54233314  1
  O  O39  1  0.72356506  0.20028414  0.37477338  1
  O  O40  1  0.41461991  0.70471723  0.35572689  1
  O  O41  1  0.08999797  0.72478004  0.45766686  1
  O  O42  1  0.82207802  0.10420337  0.06120481  1
  O  O43  1  0.77643494  0.20028414  0.87477338  1
  O  O44  1  0.17792198  0.89579663  0.93879519  1
  O  O45  1  0.08538009  0.70471723  0.85572689  1
  O  O46  1  0.63167467  0.39171974  0.46035684  1
  O  O47  1  0.10183660  0.22002255  0.97931158  1
