# generated using pymatgen
data_LiMnP2O7
_symmetry_space_group_name_H-M   'P 1'
_cell_length_a   6.36018154
_cell_length_b   10.69141747
_cell_length_c   9.40598178
_cell_angle_alpha   66.50658067
_cell_angle_beta   108.41454218
_cell_angle_gamma   93.61406415
_symmetry_Int_Tables_number   1
_chemical_formula_structural   LiMnP2O7
_chemical_formula_sum   'Li4 Mn4 P8 O28'
_cell_volume   555.09054400
_cell_formula_units_Z   4
loop_
 _symmetry_equiv_pos_site_id
 _symmetry_equiv_pos_as_xyz
  1  'x, y, z'
loop_
 _atom_site_type_symbol
 _atom_site_label
 _atom_site_symmetry_multiplicity
 _atom_site_fract_x
 _atom_site_fract_y
 _atom_site_fract_z
 _atom_site_occupancy
  Li  Li0  1  0.02904897  0.50208026  0.19764328  1
  Li  Li1  1  0.37373729  0.59509696  0.93705054  1
  Li  Li2  1  0.53639297  0.02185123  0.49658530  1
  Li  Li3  1  0.92397037  0.47442961  0.85899268  1
  O  O4  1  0.45736299  0.82101510  0.92131728  1
  O  O5  1  0.91763007  0.11424061  0.26527223  1
  O  O6  1  0.95488036  0.73094349  0.50721510  1
  O  O7  1  0.98654894  0.29634877  0.72865681  1
  O  O8  1  0.05231838  0.64256201  0.87210925  1
  O  O9  1  0.08845668  0.89733184  0.71526089  1
  O  O10  1  0.03665944  0.28974762  0.46897560  1
  O  O11  1  0.01128961  0.70136402  0.26296148  1
  O  O12  1  0.25823914  0.03859181  0.87949325  1
  O  O13  1  0.35377226  0.44694861  0.84771960  1
  O  O14  1  0.21432364  0.54320313  0.53722186  1
  O  O15  1  0.98020559  0.36680827  0.10045626  1
  O  O16  1  0.31980267  0.78661144  0.45392435  1
  O  O17  1  0.12561621  0.16857812  0.06608092  1
  O  O18  1  0.42421782  0.31702195  0.69643388  1
  O  O19  1  0.40330511  0.03819418  0.65714344  1
  O  O20  1  0.29333493  0.19521367  0.33326023  1
  O  O21  1  0.36301509  0.46961454  0.31178132  1
  O  O22  1  0.75513725  0.95930803  0.11560792  1
  O  O23  1  0.71413930  0.81089207  0.66116455  1
  O  O24  1  0.56042580  0.69067917  0.30156118  1
  O  O25  1  0.60856059  0.97350463  0.33194104  1
  O  O26  1  0.90126210  0.82268043  0.93285317  1
  O  O27  1  0.67811743  0.21985905  0.53366291  1
  O  O28  1  0.55294687  0.18047839  0.05586878  1
  O  O29  1  0.63364549  0.57167274  0.14384268  1
  O  O30  1  0.77632900  0.46475400  0.45538130  1
  O  O31  1  0.62881547  0.53671608  0.68280338  1
  P  P32  1  0.87631632  0.30719455  0.55343658  1
  P  P33  1  0.69552084  0.04995395  0.18976352  1
  P  P34  1  0.93668316  0.78460706  0.80284811  1
  P  P35  1  0.56880521  0.54660535  0.29776888  1
  P  P36  1  0.11969846  0.70112020  0.43522000  1
  P  P37  1  0.31372296  0.95611194  0.79600693  1
  P  P38  1  0.41969069  0.46379454  0.69876936  1
  P  P39  1  0.08075144  0.22043561  0.18348369  1
  Mn  Mn40  1  0.27015446  0.21681881  0.89906494  1
  Mn  Mn41  1  0.35781429  0.25719313  0.51040628  1
  Mn  Mn42  1  0.63804849  0.75249141  0.48125114  1
  Mn  Mn43  1  0.73632262  0.78687409  0.09017860  1
