# generated using pymatgen
data_Li3Cr2(PO4)3
_symmetry_space_group_name_H-M   'P 1'
_cell_length_a   8.71307716
_cell_length_b   8.71307716
_cell_length_c   8.59881042
_cell_angle_alpha   58.43752858
_cell_angle_beta   121.56247139
_cell_angle_gamma   119.30901745
_symmetry_Int_Tables_number   1
_chemical_formula_structural   Li3Cr2(PO4)3
_chemical_formula_sum   'Li6 Cr4 P6 O24'
_cell_volume   452.58109014
_cell_formula_units_Z   2
loop_
 _symmetry_equiv_pos_site_id
 _symmetry_equiv_pos_as_xyz
  1  'x, y, z'
loop_
 _atom_site_type_symbol
 _atom_site_label
 _atom_site_symmetry_multiplicity
 _atom_site_fract_x
 _atom_site_fract_y
 _atom_site_fract_z
 _atom_site_occupancy
  Li  Li0  1  0.23652911  0.84100648  0.75600441  1
  Li  Li1  1  0.76347067  0.15899246  0.24399684  1
  Li  Li2  1  0.49999930  0.99999962  0.49999962  1
  Li  Li3  1  0.84100678  0.23653012  0.74399524  1
  Li  Li4  1  0.00000081  0.50000055  0.99999957  1
  Li  Li5  1  0.15899344  0.76347024  0.25600432  1
  O  O6  1  0.18836363  0.54953387  0.53026798  1
  O  O7  1  0.90397161  0.44129582  0.23279413  1
  O  O8  1  0.98219488  0.12506144  0.56244253  1
  O  O9  1  0.87493847  0.01780560  0.06244299  1
  O  O10  1  0.12506174  0.98219476  0.93755773  1
  O  O11  1  0.01780534  0.87493892  0.43755703  1
  O  O12  1  0.09602817  0.55870312  0.76720596  1
  O  O13  1  0.40647145  0.75085264  0.72740716  1
  O  O14  1  0.61464258  0.68117865  0.39862996  1
  O  O15  1  0.31882115  0.38535747  0.89863022  1
  O  O16  1  0.77103394  0.94648380  0.74588405  1
  O  O17  1  0.81163658  0.45046649  0.46973274  1
  O  O18  1  0.24914802  0.59352802  0.22740856  1
  O  O19  1  0.45046682  0.81163594  0.03026818  1
  O  O20  1  0.59352876  0.24914772  0.27259240  1
  O  O21  1  0.05351646  0.22896637  0.24588479  1
  O  O22  1  0.94648375  0.77103399  0.75411594  1
  O  O23  1  0.38535720  0.31882029  0.60137013  1
  O  O24  1  0.54953296  0.18836300  0.96973191  1
  O  O25  1  0.75085219  0.40647234  0.77259216  1
  O  O26  1  0.55870374  0.09602875  0.73279410  1
  O  O27  1  0.22896628  0.05351656  0.25411551  1
  O  O28  1  0.68117907  0.61464289  0.10137050  1
  O  O29  1  0.44129647  0.90397161  0.26720662  1
  P  P30  1  0.95647284  0.95647299  0.74999994  1
  P  P31  1  0.44565815  0.74496926  0.23358980  1
  P  P32  1  0.55434207  0.25503110  0.76640976  1
  P  P33  1  0.04352737  0.04352737  0.24999962  1
  P  P34  1  0.25503060  0.55434232  0.73358987  1
  P  P35  1  0.74496783  0.44565663  0.26641065  1
  Cr  Cr36  1  0.36542062  0.14252731  0.07391237  1
  Cr  Cr37  1  0.85747180  0.63457907  0.57391246  1
  Cr  Cr38  1  0.14252798  0.36541987  0.42608763  1
  Cr  Cr39  1  0.63457960  0.85747305  0.92608719  1
