# generated using pymatgen
data_Li3Cr2(PO4)3
_symmetry_space_group_name_H-M   'P 1'
_cell_length_a   4.86996504
_cell_length_b   4.86996503
_cell_length_c   18.83157636
_cell_angle_alpha   89.69457461
_cell_angle_beta   89.69457462
_cell_angle_gamma   66.42064636
_symmetry_Int_Tables_number   1
_chemical_formula_structural   Li3Cr2(PO4)3
_chemical_formula_sum   'Li6 Cr4 P6 O24'
_cell_volume   409.32220207
_cell_formula_units_Z   2
loop_
 _symmetry_equiv_pos_site_id
 _symmetry_equiv_pos_as_xyz
  1  'x, y, z'
loop_
 _atom_site_type_symbol
 _atom_site_label
 _atom_site_symmetry_multiplicity
 _atom_site_fract_x
 _atom_site_fract_y
 _atom_site_fract_z
 _atom_site_occupancy
  Li  Li0  1  0.00007968  0.00007966  0.49972892  1
  Li  Li1  1  0.99992076  0.99992148  0.83360435  1
  Li  Li2  1  0.67473243  0.67473208  0.75622164  1
  Li  Li3  1  0.67242738  0.67242638  0.42174720  1
  Li  Li4  1  0.32757397  0.32757252  0.91158607  1
  Li  Li5  1  0.32526801  0.32526907  0.57711163  1
  O  O6  1  0.23088084  0.69908094  0.40699038  1
  O  O7  1  0.76515951  0.29687670  0.58978284  1
  O  O8  1  0.70519532  0.22303829  0.08516273  1
  O  O9  1  0.77696173  0.29480428  0.24817057  1
  O  O10  1  0.22303848  0.70519549  0.08516273  1
  O  O11  1  0.29480490  0.77696148  0.24817057  1
  O  O12  1  0.29687572  0.76515978  0.58978285  1
  O  O13  1  0.23483887  0.70312444  0.74355096  1
  O  O14  1  0.25126397  0.25126477  0.48029254  1
  O  O15  1  0.30091883  0.76911995  0.92634343  1
  O  O16  1  0.23313630  0.23313697  0.34588532  1
  O  O17  1  0.76912050  0.30091796  0.92634343  1
  O  O18  1  0.24234809  0.24234733  0.67873903  1
  O  O19  1  0.25029225  0.25029140  0.01444180  1
  O  O20  1  0.70312356  0.23483912  0.74355096  1
  O  O21  1  0.24977196  0.24977104  0.81366509  1
  O  O22  1  0.75022938  0.75022786  0.51966818  1
  O  O23  1  0.74873531  0.74873413  0.85304074  1
  O  O24  1  0.74970796  0.74970837  0.31889149  1
  O  O25  1  0.76138812  0.76138618  0.18409812  1
  O  O26  1  0.75765235  0.75765381  0.65459424  1
  O  O27  1  0.76686414  0.76686418  0.98744795  1
  O  O28  1  0.69908251  0.23087895  0.40699038  1
  O  O29  1  0.23861209  0.23861360  0.14923517  1
  P  P30  1  0.34514366  0.34514459  0.41077683  1
  P  P31  1  0.35055321  0.35055449  0.74610615  1
  P  P32  1  0.64944517  0.64944666  0.58722712  1
  P  P33  1  0.65169426  0.65169508  0.24942985  1
  P  P34  1  0.34830505  0.34830694  0.08390344  1
  P  P35  1  0.65485678  0.65485656  0.92255644  1
  Cr  Cr36  1  0.99733246  0.99733283  0.33152387  1
  Cr  Cr37  1  0.00000015  0.00000092  0.66666647  1
  Cr  Cr38  1  0.99999901  0.00000023  0.16666675  1
  Cr  Cr39  1  0.00266776  0.00266695  0.00180942  1
