# generated using pymatgen
data_Li3Fe(PO4)2
_symmetry_space_group_name_H-M   'P 1'
_cell_length_a   8.22325642
_cell_length_b   5.43751300
_cell_length_c   6.26817323
_cell_angle_alpha   90.00000000
_cell_angle_beta   90.51097136
_cell_angle_gamma   90.00000000
_symmetry_Int_Tables_number   1
_chemical_formula_structural   Li3Fe(PO4)2
_chemical_formula_sum   'Li6 Fe2 P4 O16'
_cell_volume   280.26435154
_cell_formula_units_Z   2
loop_
 _symmetry_equiv_pos_site_id
 _symmetry_equiv_pos_as_xyz
  1  'x, y, z'
loop_
 _atom_site_type_symbol
 _atom_site_label
 _atom_site_symmetry_multiplicity
 _atom_site_fract_x
 _atom_site_fract_y
 _atom_site_fract_z
 _atom_site_occupancy
  Li  Li0  1  0.07664924  0.75000089  0.27203716  1
  Li  Li1  1  0.92335029  0.25000091  0.72796295  1
  Li  Li2  1  0.74973323  0.75000089  0.50042916  1
  Li  Li3  1  0.25026752  0.25000091  0.49957096  1
  Li  Li4  1  0.42319997  0.75000089  0.72886813  1
  Li  Li5  1  0.57679957  0.25000091  0.27113198  1
  O  O6  1  0.21696916  0.51985216  0.76954899  1
  O  O7  1  0.99609841  0.75000089  0.56227284  1
  O  O8  1  0.00390234  0.25000091  0.43772728  1
  O  O9  1  0.00837671  0.25000091  0.03464161  1
  O  O10  1  0.49145746  0.25000091  0.96465288  1
  O  O11  1  0.21696916  0.98014778  0.76954899  1
  O  O12  1  0.78303037  0.48014780  0.23044952  1
  O  O13  1  0.28304014  0.98021486  0.23065672  1
  O  O14  1  0.99162282  0.75000089  0.96535849  1
  O  O15  1  0.49643816  0.25000091  0.56151083  1
  O  O16  1  0.50356259  0.75000089  0.43848929  1
  O  O17  1  0.50854329  0.75000089  0.03534724  1
  O  O18  1  0.71695939  0.01978510  0.76934338  1
  O  O19  1  0.71695939  0.48021488  0.76934338  1
  O  O20  1  0.78303037  0.01985218  0.23044952  1
  O  O21  1  0.28304014  0.51978508  0.23065672  1
  P  P22  1  0.40011736  0.75000089  0.23763604  1
  P  P23  1  0.59988339  0.25000091  0.76236408  1
  P  P24  1  0.09984163  0.75000089  0.76289738  1
  P  P25  1  0.90015912  0.25000091  0.23710274  1
  Fe  Fe26  1  0.75004385  0.75000089  0.00005378  1
  Fe  Fe27  1  0.24995568  0.25000091  0.99994633  1
