# generated using pymatgen
data_Mn2P3O11
_symmetry_space_group_name_H-M   'P 1'
_cell_length_a   7.27500631
_cell_length_b   7.27500655
_cell_length_c   8.90883517
_cell_angle_alpha   70.19044777
_cell_angle_beta   109.80955296
_cell_angle_gamma   108.75585382
_symmetry_Int_Tables_number   1
_chemical_formula_structural   Mn2P3O11
_chemical_formula_sum   'Mn4 P6 O22'
_cell_volume   405.81668625
_cell_formula_units_Z   2
loop_
 _symmetry_equiv_pos_site_id
 _symmetry_equiv_pos_as_xyz
  1  'x, y, z'
loop_
 _atom_site_type_symbol
 _atom_site_label
 _atom_site_symmetry_multiplicity
 _atom_site_fract_x
 _atom_site_fract_y
 _atom_site_fract_z
 _atom_site_occupancy
  Mn  Mn0  1  0.11758791  0.36277661  0.95690219  1
  Mn  Mn1  1  0.63750473  0.88280410  0.45712950  1
  Mn  Mn2  1  0.36277661  0.11758791  0.54309781  1
  Mn  Mn3  1  0.88280410  0.63750473  0.04287050  1
  P  P4  1  0.33023568  0.54866883  0.28634152  1
  P  P5  1  0.96392666  0.96392666  0.25000000  1
  P  P6  1  0.45292877  0.66707822  0.78711558  1
  P  P7  1  0.54866883  0.33023568  0.21365848  1
  P  P8  1  0.66707822  0.45292877  0.71288442  1
  P  P9  1  0.03636044  0.03636044  0.75000000  1
  O  O10  1  0.46845947  0.84298778  0.62938726  1
  O  O11  1  0.62559090  0.71129008  0.93694206  1
  O  O12  1  0.13437997  0.98434263  0.40714423  1
  O  O13  1  0.24614207  0.61018644  0.81955954  1
  O  O14  1  0.71129008  0.62559090  0.56305794  1
  O  O15  1  0.98434263  0.13437997  0.09285577  1
  O  O16  1  0.39174676  0.75704255  0.31668562  1
  O  O17  1  0.96069801  0.76199670  0.22524417  1
  O  O18  1  0.84298778  0.46845947  0.87061274  1
  O  O19  1  0.28303156  0.37704429  0.43453132  1
  O  O20  1  0.23754668  0.03959937  0.72531474  1
  O  O21  1  0.75704255  0.39174676  0.18331438  1
  O  O22  1  0.76199670  0.96069801  0.27475583  1
  O  O23  1  0.47557741  0.47557741  0.75000000  1
  O  O24  1  0.86569095  0.01428111  0.59271430  1
  O  O25  1  0.53691335  0.15410642  0.37273692  1
  O  O26  1  0.37704429  0.28303156  0.06546868  1
  O  O27  1  0.03959937  0.23754668  0.77468526  1
  O  O28  1  0.15410642  0.53691335  0.12726308  1
  O  O29  1  0.61018644  0.24614207  0.68044046  1
  O  O30  1  0.01428111  0.86569095  0.90728570  1
  O  O31  1  0.51997554  0.51997554  0.25000000  1
