# generated using pymatgen
data_Li3Cr2P5O16
_symmetry_space_group_name_H-M   'P 1'
_cell_length_a   17.91337800
_cell_length_b   7.12321698
_cell_length_c   5.13774171
_cell_angle_alpha   90.00000000
_cell_angle_beta   92.10445081
_cell_angle_gamma   90.00000000
_symmetry_Int_Tables_number   1
_chemical_formula_structural   Li3Cr2P5O16
_chemical_formula_sum   'Li6 Cr4 P10 O32'
_cell_volume   655.13819470
_cell_formula_units_Z   2
loop_
 _symmetry_equiv_pos_site_id
 _symmetry_equiv_pos_as_xyz
  1  'x, y, z'
loop_
 _atom_site_type_symbol
 _atom_site_label
 _atom_site_symmetry_multiplicity
 _atom_site_fract_x
 _atom_site_fract_y
 _atom_site_fract_z
 _atom_site_occupancy
  Li  Li0  1  0.03694593  0.32752748  0.26407555  1
  Li  Li1  1  0.96305369  0.67247269  0.73592598  1
  Li  Li2  1  0.74999974  0.02308544  0.49999922  1
  Li  Li3  1  0.53694635  0.67247269  0.26407447  1
  Li  Li4  1  0.46305383  0.32752748  0.73592516  1
  Li  Li5  1  0.24999988  0.97691472  0.50000035  1
  O  O6  1  0.29501292  0.61754382  0.19298225  1
  O  O7  1  0.92654800  0.90621591  0.93792491  1
  O  O8  1  0.93546562  0.39080547  0.09932876  1
  O  O9  1  0.97810493  0.80374007  0.38359237  1
  O  O10  1  0.02189469  0.19626010  0.61640720  1
  O  O11  1  0.06453457  0.60919470  0.90067088  1
  O  O12  1  0.07345219  0.09378426  0.06207473  1
  O  O13  1  0.10935898  0.55671316  0.43866137  1
  O  O14  1  0.13926256  0.98890557  0.64185428  1
  O  O15  1  0.14552226  0.32053792  0.79327453  1
  O  O16  1  0.19982157  0.86272021  0.17443521  1
  O  O17  1  0.20498741  0.61754382  0.80701657  1
  O  O18  1  0.52189512  0.80374007  0.61640808  1
  O  O19  1  0.30017820  0.86272021  0.82556355  1
  O  O20  1  0.35447806  0.32053792  0.20672624  1
  O  O21  1  0.36073776  0.98890557  0.35814648  1
  O  O22  1  0.39064135  0.55671316  0.56133745  1
  O  O23  1  0.86073762  0.01109460  0.35814535  1
  O  O24  1  0.43546576  0.60919470  0.09932989  1
  O  O25  1  0.47810507  0.19626010  0.38359156  1
  O  O26  1  0.89064121  0.44328701  0.56133826  1
  O  O27  1  0.56453443  0.39080547  0.90067169  1
  O  O28  1  0.57345204  0.90621591  0.06207554  1
  O  O29  1  0.60935883  0.44328701  0.43866219  1
  O  O30  1  0.63926242  0.01109460  0.64185315  1
  O  O31  1  0.64552212  0.67946225  0.79327340  1
  O  O32  1  0.69982199  0.13727996  0.17443608  1
  O  O33  1  0.70498727  0.38245635  0.80701739  1
  O  O34  1  0.79501278  0.38245635  0.19298306  1
  O  O35  1  0.80017806  0.13727996  0.82556437  1
  O  O36  1  0.85447792  0.67946225  0.20672705  1
  O  O37  1  0.42654814  0.09378426  0.93792604  1
  P  P38  1  0.59191101  0.86739385  0.77758948  1
  P  P39  1  0.62403146  0.46688049  0.72982649  1
  P  P40  1  0.75000007  0.24578882  0.00000028  1
  P  P41  1  0.87596859  0.46688049  0.27017396  1
  P  P42  1  0.09191116  0.13260632  0.77758867  1
  P  P43  1  0.12403104  0.53311968  0.72982561  1
  P  P44  1  0.25000021  0.75421135  0.99999946  1
  P  P45  1  0.37596873  0.53311968  0.27017315  1
  P  P46  1  0.40808917  0.13260632  0.22241015  1
  P  P47  1  0.90808903  0.86739385  0.22241097  1
  Cr  Cr48  1  0.91275368  0.16809931  0.73806109  1
  Cr  Cr49  1  0.58724637  0.16809931  0.26193936  1
  Cr  Cr50  1  0.41275382  0.83190086  0.73806028  1
  Cr  Cr51  1  0.08724651  0.83190086  0.26193854  1
