# generated using pymatgen
data_UMo5O16
_symmetry_space_group_name_H-M   'P 1'
_cell_length_a   4.12360813
_cell_length_b   7.35954715
_cell_length_c   10.06389134
_cell_angle_alpha   91.45306005
_cell_angle_beta   90.00000000
_cell_angle_gamma   90.00000000
_symmetry_Int_Tables_number   1
_chemical_formula_structural   UMo5O16
_chemical_formula_sum   'U1 Mo5 O16'
_cell_volume   305.31964014
_cell_formula_units_Z   1
loop_
 _symmetry_equiv_pos_site_id
 _symmetry_equiv_pos_as_xyz
  1  'x, y, z'
loop_
 _atom_site_type_symbol
 _atom_site_label
 _atom_site_symmetry_multiplicity
 _atom_site_fract_x
 _atom_site_fract_y
 _atom_site_fract_z
 _atom_site_occupancy
  O  O0  1  0.98835710  0.18670554  0.49267013  1
  O  O1  1  0.98835710  0.81329473  0.50733014  1
  O  O2  1  0.50744325  0.23943550  0.68005496  1
  O  O3  1  0.50744325  0.76056477  0.31994532  1
  O  O4  1  0.48445219  0.24958778  0.31569375  1
  O  O5  1  0.48445219  0.75041250  0.68430653  1
  O  O6  1  0.49642732  0.00000000  0.00000000  1
  O  O7  1  0.47993827  0.50000028  0.00000011  1
  O  O8  1  0.97975231  0.71520675  0.88053359  1
  O  O9  1  0.97975231  0.28479352  0.11946669  1
  O  O10  1  0.99937868  0.71421113  0.12164729  1
  O  O11  1  0.98344595  0.49942118  0.34488931  1
  O  O12  1  -0.00268848  0.99379921  0.75733153  1
  O  O13  1  -0.00268848  0.00620107  0.24266775  1
  O  O14  1  0.98344595  0.50057909  0.65511096  1
  O  O15  1  0.99937868  0.28578914  0.87835299  1
  Mo  Mo16  1  0.08587248  0.24190140  0.68691569  1
  Mo  Mo17  1  0.08587248  0.75809887  0.31308458  1
  Mo  Mo18  1  0.90699024  0.25353437  0.32114660  1
  Mo  Mo19  1  0.90347033  0.50000028  0.00000011  1
  Mo  Mo20  1  0.90699024  0.74646591  0.67885367  1
  U  U21  1  -0.00374845  0.00000000  0.00000000  1
