# generated using pymatgen
data_Li3Cr(PO4)2
_symmetry_space_group_name_H-M   'P 1'
_cell_length_a   4.73662150
_cell_length_b   5.15883304
_cell_length_c   13.18465837
_cell_angle_alpha   83.01181912
_cell_angle_beta   90.00000000
_cell_angle_gamma   62.67232152
_symmetry_Int_Tables_number   1
_chemical_formula_structural   Li3Cr(PO4)2
_chemical_formula_sum   'Li6 Cr2 P4 O16'
_cell_volume   283.52029945
_cell_formula_units_Z   2
loop_
 _symmetry_equiv_pos_site_id
 _symmetry_equiv_pos_as_xyz
  1  'x, y, z'
loop_
 _atom_site_type_symbol
 _atom_site_label
 _atom_site_symmetry_multiplicity
 _atom_site_fract_x
 _atom_site_fract_y
 _atom_site_fract_z
 _atom_site_occupancy
  Li  Li0  1  0.63089808  0.66623002  0.65025054  1
  Li  Li1  1  0.05582762  0.99999920  0.24999991  1
  Li  Li2  1  0.94417288  0.99999980  0.74999963  1
  Li  Li3  1  0.70287219  0.66622942  0.15025006  1
  Li  Li4  1  0.29712873  0.33376872  0.84974982  1
  Li  Li5  1  0.36910174  0.33377033  0.34975000  1
  O  O6  1  0.82651419  0.90354169  0.37035446  1
  O  O7  1  0.73005601  0.09645807  0.12964484  1
  O  O8  1  0.26994381  0.90354229  0.87035494  1
  O  O9  1  0.77498503  0.77144866  0.97409460  1
  O  O10  1  0.50432847  0.68162453  0.28928792  1
  O  O11  1  0.45356659  0.77144807  0.47409412  1
  O  O12  1  0.17348562  0.09645866  0.62964532  1
  O  O13  1  0.03281090  0.63493410  0.58475860  1
  O  O14  1  0.22501478  0.22855169  0.02590518  1
  O  O15  1  0.33225419  0.63493571  0.08475802  1
  O  O16  1  0.66774562  0.36506464  0.91524176  1
  O  O17  1  0.49567135  0.31837581  0.71071262  1
  O  O18  1  0.96719002  0.36506404  0.41524204  1
  O  O19  1  0.18595314  0.31837521  0.21071214  1
  O  O20  1  0.54643433  0.22855008  0.52590577  1
  O  O21  1  0.81404778  0.68162293  0.78928775  1
  P  P22  1  0.68208206  0.67997573  0.38727597  1
  P  P23  1  0.31791775  0.32002462  0.61272381  1
  P  P24  1  0.63794300  0.67997412  0.88727655  1
  P  P25  1  0.36205792  0.32002402  0.11272409  1
  Cr  Cr26  1  0.00000000  0.00000000  0.00000000  1
  Cr  Cr27  1  0.99999970  0.00000060  0.49999972  1
