# generated using pymatgen
data_Li3Mo(PO4)2
_symmetry_space_group_name_H-M   'P 1'
_cell_length_a   5.06105479
_cell_length_b   18.37184742
_cell_length_c   6.37657491
_cell_angle_alpha   90.00000000
_cell_angle_beta   92.39409525
_cell_angle_gamma   90.00000000
_symmetry_Int_Tables_number   1
_chemical_formula_structural   Li3Mo(PO4)2
_chemical_formula_sum   'Li12 Mo4 P8 O32'
_cell_volume   592.38232386
_cell_formula_units_Z   4
loop_
 _symmetry_equiv_pos_site_id
 _symmetry_equiv_pos_as_xyz
  1  'x, y, z'
loop_
 _atom_site_type_symbol
 _atom_site_label
 _atom_site_symmetry_multiplicity
 _atom_site_fract_x
 _atom_site_fract_y
 _atom_site_fract_z
 _atom_site_occupancy
  Li  Li0  1  0.18593786  0.70082274  0.81512609  1
  Li  Li1  1  0.22118332  0.88388879  0.49956356  1
  Li  Li2  1  0.27881655  0.38388902  0.00043646  1
  Li  Li3  1  0.20852748  0.55592125  0.21222873  1
  Li  Li4  1  0.29147202  0.05592148  0.28777175  1
  Li  Li5  1  0.31406200  0.20082298  0.68487393  1
  Li  Li6  1  0.68593699  0.79917710  0.31512545  1
  Li  Li7  1  0.70852896  0.94407859  0.71222927  1
  Li  Li8  1  0.79147151  0.44407828  0.78777065  1
  Li  Li9  1  0.72118244  0.61611105  0.99956292  1
  Li  Li10  1  0.77881766  0.11611128  0.50043747  1
  Li  Li11  1  0.81406311  0.29917733  0.18487335  1
  O  O12  1  0.11342441  0.79971728  0.27373970  1
  O  O13  1  0.95755303  0.30836315  0.50048393  1
  O  O14  1  0.94375988  0.32641351  0.89521473  1
  O  O15  1  0.91626923  0.55822264  0.74154027  1
  O  O16  1  0.02179666  0.20195730  0.18416575  1
  O  O17  1  0.04244795  0.69163693  0.49951709  1
  O  O18  1  0.05623911  0.67358657  0.10478465  1
  O  O19  1  0.08372976  0.44177688  0.25846068  1
  O  O20  1  0.13360446  0.06550968  0.57274270  1
  O  O21  1  0.97820233  0.79804277  0.81583363  1
  O  O22  1  0.16402436  0.06297434  0.97150690  1
  O  O23  1  0.21029933  0.44956743  0.73539782  1
  O  O24  1  0.28970054  0.94956774  0.76460220  1
  O  O25  1  0.33597551  0.56297410  0.52849311  1
  O  O26  1  0.36639541  0.56550999  0.92725732  1
  O  O27  1  0.38657707  0.29971751  0.22625927  1
  O  O28  1  0.86639652  0.93449039  0.42725832  1
  O  O29  1  0.44376039  0.17358626  0.39521583  1
  O  O30  1  0.45755155  0.19163716  0.00048338  1
  O  O31  1  0.47820284  0.70195706  0.31583315  1
  O  O32  1  0.52179615  0.29804247  0.68416623  1
  O  O33  1  0.54244744  0.80836291  0.99951599  1
  O  O34  1  0.55624059  0.82641327  0.60478519  1
  O  O35  1  0.58372925  0.05822288  0.75845958  1
  O  O36  1  0.61342391  0.70028256  0.77374018  1
  O  O37  1  0.63360358  0.43449008  0.07274206  1
  O  O38  1  0.66402349  0.43702597  0.47150784  1
  O  O39  1  0.71030044  0.05043233  0.23539882  1
  O  O40  1  0.78969966  0.55043209  0.26460156  1
  O  O41  1  0.83597661  0.93702573  0.02849254  1
  O  O42  1  0.88657656  0.20028225  0.72625974  1
  O  O43  1  0.41626974  0.94177719  0.24153980  1
  P  P44  1  0.82677531  0.28443998  0.70661007  1
  P  P45  1  0.78325057  0.46459976  0.26513436  1
  P  P46  1  0.71674953  0.96460007  0.23486602  1
  P  P47  1  0.67322516  0.78443975  0.79338985  1
  P  P48  1  0.17322567  0.71556009  0.29339095  1
  P  P49  1  0.21675041  0.53540031  0.73486666  1
  P  P50  1  0.32677383  0.21556033  0.20660953  1
  P  P51  1  0.28324946  0.03540000  0.76513336  1
  Mo  Mo52  1  0.19446676  0.87377882  0.01711166  1
  Mo  Mo53  1  0.30553472  0.37377851  0.48288889  1
  Mo  Mo54  1  0.69446625  0.62622102  0.51711056  1
  Mo  Mo55  1  0.80553422  0.12622125  0.98288936  1
