# generated using pymatgen
data_SbHCSO3F8
_symmetry_space_group_name_H-M   'P 1'
_cell_length_a   8.84389681
_cell_length_b   9.70855036
_cell_length_c   10.82824559
_cell_angle_alpha   90.00000000
_cell_angle_beta   109.20826312
_cell_angle_gamma   90.00000000
_symmetry_Int_Tables_number   1
_chemical_formula_structural   SbHCSO3F8
_chemical_formula_sum   'Sb4 H4 C4 S4 O12 F32'
_cell_volume   877.96953619
_cell_formula_units_Z   4
loop_
 _symmetry_equiv_pos_site_id
 _symmetry_equiv_pos_as_xyz
  1  'x, y, z'
loop_
 _atom_site_type_symbol
 _atom_site_label
 _atom_site_symmetry_multiplicity
 _atom_site_fract_x
 _atom_site_fract_y
 _atom_site_fract_z
 _atom_site_occupancy
  Sb  Sb0  1  0.25867855  0.32827127  0.91977221  1
  Sb  Sb1  1  0.74132145  0.82827127  0.58022779  1
  Sb  Sb2  1  0.74132145  0.67172873  0.08022779  1
  Sb  Sb3  1  0.25867855  0.17172873  0.41977221  1
  H  H4  1  0.56587104  0.99667818  0.78601682  1
  H  H5  1  0.43412896  0.49667818  0.71398318  1
  H  H6  1  0.43412896  0.00332182  0.21398318  1
  H  H7  1  0.56587104  0.50332182  0.28601682  1
  C  C8  1  0.79809739  0.16293856  0.01432922  1
  C  C9  1  0.20190261  0.66293856  0.48567078  1
  C  C10  1  0.20190261  0.83706144  0.98567078  1
  C  C11  1  0.79809739  0.33706144  0.51432922  1
  S  S12  1  0.59197824  0.18992815  0.88853332  1
  S  S13  1  0.40802176  0.68992815  0.61146668  1
  S  S14  1  0.40802176  0.81007185  0.11146668  1
  S  S15  1  0.59197824  0.31007185  0.38853332  1
  O  O16  1  0.52883407  0.04101307  0.85522712  1
  O  O17  1  0.47116593  0.54101307  0.64477288  1
  O  O18  1  0.47116593  0.95898693  0.14477288  1
  O  O19  1  0.52883407  0.45898693  0.35522712  1
  O  O20  1  0.50023027  0.24693596  0.96933173  1
  O  O21  1  0.49976973  0.74693596  0.53066827  1
  O  O22  1  0.49976973  0.75306404  0.03066827  1
  O  O23  1  0.50023027  0.25306404  0.46933173  1
  O  O24  1  0.60341488  0.26736655  0.77977868  1
  O  O25  1  0.39658512  0.76736655  0.72022132  1
  O  O26  1  0.39658512  0.73263345  0.22022132  1
  O  O27  1  0.60341488  0.23263345  0.27977868  1
  F  F28  1  0.20268536  0.19844937  0.78097477  1
  F  F29  1  0.79731464  0.69844937  0.71902523  1
  F  F30  1  0.79731464  0.80155063  0.21902523  1
  F  F31  1  0.20268536  0.30155063  0.28097477  1
  F  F32  1  0.23594921  0.19211374  0.03835044  1
  F  F33  1  0.76405079  0.69211374  0.46164956  1
  F  F34  1  0.76405079  0.80788626  0.96164956  1
  F  F35  1  0.23594921  0.30788626  0.53835044  1
  F  F36  1  0.04948926  0.40035678  0.87827629  1
  F  F37  1  0.95051074  0.90035678  0.62172371  1
  F  F38  1  0.95051074  0.59964322  0.12172371  1
  F  F39  1  0.04948926  0.09964322  0.37827629  1
  F  F40  1  0.35127556  0.45235246  0.06002669  1
  F  F41  1  0.64872444  0.95235246  0.43997331  1
  F  F42  1  0.64872444  0.54764754  0.93997331  1
  F  F43  1  0.35127556  0.04764754  0.56002669  1
  F  F44  1  0.31633158  0.45739024  0.80561056  1
  F  F45  1  0.68366842  0.95739024  0.69438944  1
  F  F46  1  0.68366842  0.54260976  0.19438944  1
  F  F47  1  0.31633158  0.04260976  0.30561056  1
  F  F48  1  0.85154436  0.28234124  0.07394689  1
  F  F49  1  0.14845564  0.78234124  0.42605311  1
  F  F50  1  0.14845564  0.71765876  0.92605311  1
  F  F51  1  0.85154436  0.21765876  0.57394689  1
  F  F52  1  0.89137315  0.11887305  0.94638676  1
  F  F53  1  0.10862685  0.61887305  0.55361324  1
  F  F54  1  0.10862685  0.88112695  0.05361324  1
  F  F55  1  0.89137315  0.38112695  0.44638676  1
  F  F56  1  0.79045741  0.06834891  0.10151903  1
  F  F57  1  0.20954259  0.56834891  0.39848097  1
  F  F58  1  0.20954259  0.93165109  0.89848097  1
  F  F59  1  0.79045741  0.43165109  0.60151903  1
