# generated using pymatgen
data_Li3Mn2(PO4)3
_symmetry_space_group_name_H-M   'P 1'
_cell_length_a   8.82301328
_cell_length_b   8.82301328
_cell_length_c   9.03495622
_cell_angle_alpha   55.64242461
_cell_angle_beta   124.35757539
_cell_angle_gamma   119.47442455
_symmetry_Int_Tables_number   1
_chemical_formula_structural   Li3Mn2(PO4)3
_chemical_formula_sum   'Li6 Mn4 P6 O24'
_cell_volume   463.52161388
_cell_formula_units_Z   2
loop_
 _symmetry_equiv_pos_site_id
 _symmetry_equiv_pos_as_xyz
  1  'x, y, z'
loop_
 _atom_site_type_symbol
 _atom_site_label
 _atom_site_symmetry_multiplicity
 _atom_site_fract_x
 _atom_site_fract_y
 _atom_site_fract_z
 _atom_site_occupancy
  Li  Li0  1  0.21363734  0.83558456  0.75693141  1
  Li  Li1  1  0.16441476  0.78636211  0.25693135  1
  Li  Li2  1  0.99999960  0.50000071  0.99999974  1
  Li  Li3  1  0.83558417  0.21363745  0.74306827  1
  Li  Li4  1  0.50000025  0.00000050  0.49999949  1
  Li  Li5  1  0.78636159  0.16441501  0.24306821  1
  O  O6  1  0.19226289  0.57965880  0.52283678  1
  O  O7  1  0.00689923  0.12545334  0.56493429  1
  O  O8  1  0.90341368  0.43633980  0.24262535  1
  O  O9  1  0.59080145  0.23866748  0.26763562  1
  O  O10  1  0.12545400  0.00689942  0.93506593  1
  O  O11  1  0.99310108  0.87454621  0.43506610  1
  O  O12  1  0.09658663  0.56365974  0.75737504  1
  O  O13  1  0.40919749  0.76133208  0.73236400  1
  O  O14  1  0.87454669  0.99310156  0.06493388  1
  O  O15  1  0.33070232  0.39529898  0.89000676  1
  O  O16  1  0.77620600  0.96704619  0.72118017  1
  O  O17  1  0.43634002  0.90341261  0.25737535  1
  O  O18  1  0.23866889  0.59080216  0.23236475  1
  O  O19  1  0.42033984  0.80773590  0.02283671  1
  O  O20  1  0.80773604  0.42034077  0.47716284  1
  O  O21  1  0.60470137  0.66929707  0.39000731  1
  O  O22  1  0.39529894  0.33070247  0.60999308  1
  O  O23  1  0.03295342  0.22379403  0.22117995  1
  O  O24  1  0.57965910  0.19226367  0.97716291  1
  O  O25  1  0.76133180  0.40919881  0.76763506  1
  O  O26  1  0.56366029  0.09658694  0.74262504  1
  O  O27  1  0.22379431  0.03295335  0.27882022  1
  O  O28  1  0.66929699  0.60470201  0.10999227  1
  O  O29  1  0.96704689  0.77620551  0.77882044  1
  P  P30  1  0.74264660  0.43033302  0.27613941  1
  P  P31  1  0.03502054  0.03501961  0.25000051  1
  P  P32  1  0.56966691  0.25735354  0.77613927  1
  P  P33  1  0.43033340  0.74264601  0.22386112  1
  P  P34  1  0.25735371  0.56966653  0.72386098  1
  P  P35  1  0.96497977  0.96497994  0.74999988  1
  Mn  Mn36  1  0.62997701  0.85140674  0.93575911  1
  Mn  Mn37  1  0.14859374  0.37002338  0.43575918  1
  Mn  Mn38  1  0.85140657  0.62997616  0.56424121  1
  Mn  Mn39  1  0.37002368  0.14859423  0.06424070  1
