# generated using pymatgen
data_KV4O8
_symmetry_space_group_name_H-M   'P 1'
_cell_length_a   2.92082820
_cell_length_b   7.38271871
_cell_length_c   7.38271871
_cell_angle_alpha   87.75739428
_cell_angle_beta   78.59077210
_cell_angle_gamma   78.59077215
_symmetry_Int_Tables_number   1
_chemical_formula_structural   KV4O8
_chemical_formula_sum   'K1 V4 O8'
_cell_volume   152.96881501
_cell_formula_units_Z   1
loop_
 _symmetry_equiv_pos_site_id
 _symmetry_equiv_pos_as_xyz
  1  'x, y, z'
loop_
 _atom_site_type_symbol
 _atom_site_label
 _atom_site_symmetry_multiplicity
 _atom_site_fract_x
 _atom_site_fract_y
 _atom_site_fract_z
 _atom_site_occupancy
  O  O0  1  0.84521566  0.95448454  0.35508685  1
  O  O1  1  0.20030338  0.64491192  0.95448415  1
  O  O2  1  0.79969645  0.35508822  0.04551517  1
  O  O3  1  0.15478771  0.04551560  0.64491218  1
  O  O4  1  0.46023089  0.37456465  0.70497262  1
  O  O5  1  0.53976895  0.62543549  0.29502670  1
  O  O6  1  0.16520385  0.29502686  0.37456496  1
  O  O7  1  0.83479598  0.70497327  0.62543436  1
  K  K8  1  0.49999907  0.00000000  0.99999946  1
  V  V9  1  0.83221055  0.51899629  0.81658179  1
  V  V10  1  0.16778999  0.48100245  0.18341753  1
  V  V11  1  0.35120760  0.81658225  0.48100335  1
  V  V12  1  0.64879225  0.18341789  0.51899734  1
