# generated using pymatgen
data_NbAg7S6
_symmetry_space_group_name_H-M   'P 1'
_cell_length_a   7.73605086
_cell_length_b   10.97025107
_cell_length_c   14.90613692
_cell_angle_alpha   90.00000000
_cell_angle_beta   90.00000000
_cell_angle_gamma   90.63072312
_symmetry_Int_Tables_number   1
_chemical_formula_structural   NbAg7S6
_chemical_formula_sum   'Nb4 Ag28 S24'
_cell_volume   1264.95383255
_cell_formula_units_Z   4
loop_
 _symmetry_equiv_pos_site_id
 _symmetry_equiv_pos_as_xyz
  1  'x, y, z'
loop_
 _atom_site_type_symbol
 _atom_site_label
 _atom_site_symmetry_multiplicity
 _atom_site_fract_x
 _atom_site_fract_y
 _atom_site_fract_z
 _atom_site_occupancy
  S  S0  1  0.49789083  0.98718852  0.39274718  1
  S  S1  1  0.99789083  0.48718852  0.60725282  1
  S  S2  1  0.96418946  0.21593722  0.36617127  1
  S  S3  1  0.46418946  0.71593722  0.63382873  1
  S  S4  1  0.51683022  0.36802099  0.25079944  1
  S  S5  1  0.01683022  0.86802099  0.74920056  1
  S  S6  1  0.50457782  0.38550182  0.51131055  1
  S  S7  1  0.00457782  0.88550182  0.48868945  1
  S  S8  1  0.74042826  0.63264171  0.37742667  1
  S  S9  1  0.24042826  0.13264171  0.62257333  1
  S  S10  1  0.24617044  0.60143162  0.37882348  1
  S  S11  1  0.74617044  0.10143162  0.62117652  1
  S  S12  1  0.99789083  0.48718852  0.10725282  1
  S  S13  1  0.96418946  0.21593722  0.86617127  1
  S  S14  1  0.49789083  0.98718852  0.89274718  1
  S  S15  1  0.46418946  0.71593722  0.13382873  1
  S  S16  1  0.74617044  0.10143162  0.12117652  1
  S  S17  1  0.24617044  0.60143162  0.87882348  1
  S  S18  1  0.24042826  0.13264171  0.12257333  1
  S  S19  1  0.74042826  0.63264171  0.87742667  1
  S  S20  1  0.00457782  0.88550182  0.98868945  1
  S  S21  1  0.50457782  0.38550182  0.01131055  1
  S  S22  1  0.01683022  0.86802099  0.24920056  1
  S  S23  1  0.51683022  0.36802099  0.75079944  1
  Nb  Nb24  1  0.50328288  0.49663163  0.87790606  1
  Nb  Nb25  1  0.00328288  0.99663163  0.62209394  1
  Nb  Nb26  1  0.50328288  0.49663163  0.37790606  1
  Nb  Nb27  1  0.00328288  0.99663163  0.12209394  1
  Ag  Ag28  1  0.69569131  0.58991880  0.56031883  1
  Ag  Ag29  1  0.19569131  0.08991880  0.43968117  1
  Ag  Ag30  1  0.32912699  0.84866874  0.52145515  1
  Ag  Ag31  1  0.82912699  0.34866874  0.47854485  1
  Ag  Ag32  1  0.72057347  0.80518724  0.69962286  1
  Ag  Ag33  1  0.22057347  0.30518724  0.30037714  1
  Ag  Ag34  1  0.02938462  0.71827081  0.60826915  1
  Ag  Ag35  1  0.52938462  0.21827081  0.39173085  1
  Ag  Ag36  1  0.96494313  0.26727289  0.65971040  1
  Ag  Ag37  1  0.46494313  0.76727289  0.34028960  1
  Ag  Ag38  1  0.31764233  0.00991158  0.75661165  1
  Ag  Ag39  1  0.81764233  0.50991158  0.24338835  1
  Ag  Ag40  1  0.26426823  0.54541644  0.70749712  1
  Ag  Ag41  1  0.76426823  0.04541644  0.29250288  1
  Ag  Ag42  1  0.76426823  0.04541644  0.79250288  1
  Ag  Ag43  1  0.26426823  0.54541644  0.20749712  1
  Ag  Ag44  1  0.81764233  0.50991158  0.74338835  1
  Ag  Ag45  1  0.31764233  0.00991158  0.25661165  1
  Ag  Ag46  1  0.46494313  0.76727289  0.84028960  1
  Ag  Ag47  1  0.96494313  0.26727289  0.15971040  1
  Ag  Ag48  1  0.52938462  0.21827081  0.89173085  1
  Ag  Ag49  1  0.02938462  0.71827081  0.10826915  1
  Ag  Ag50  1  0.22057347  0.30518724  0.80037714  1
  Ag  Ag51  1  0.72057347  0.80518724  0.19962286  1
  Ag  Ag52  1  0.82912699  0.34866874  0.97854485  1
  Ag  Ag53  1  0.32912699  0.84866874  0.02145515  1
  Ag  Ag54  1  0.19569131  0.08991880  0.93968117  1
  Ag  Ag55  1  0.69569131  0.58991880  0.06031883  1
