# generated using pymatgen
data_AsH3CNOF9
_symmetry_space_group_name_H-M   'P 1'
_cell_length_a   5.25527850
_cell_length_b   8.48018219
_cell_length_c   8.94551799
_cell_angle_alpha   90.16391667
_cell_angle_beta   94.02331249
_cell_angle_gamma   104.07689641
_symmetry_Int_Tables_number   1
_chemical_formula_structural   AsH3CNOF9
_chemical_formula_sum   'As2 H6 C2 N2 O2 F18'
_cell_volume   385.65687416
_cell_formula_units_Z   2
loop_
 _symmetry_equiv_pos_site_id
 _symmetry_equiv_pos_as_xyz
  1  'x, y, z'
loop_
 _atom_site_type_symbol
 _atom_site_label
 _atom_site_symmetry_multiplicity
 _atom_site_fract_x
 _atom_site_fract_y
 _atom_site_fract_z
 _atom_site_occupancy
  As  As0  1  0.98534585  0.74832982  0.66135471  1
  As  As1  1  0.01465415  0.25167018  0.33864529  1
  H  H2  1  0.36550932  0.70765540  0.35919050  1
  H  H3  1  0.63449068  0.29234460  0.64080950  1
  H  H4  1  0.60615304  0.86836966  0.30710269  1
  H  H5  1  0.39384696  0.13163034  0.69289731  1
  H  H6  1  0.56151445  0.54381295  0.25570123  1
  H  H7  1  0.43848555  0.45618705  0.74429877  1
  C  C8  1  0.31447125  0.77698141  0.13267640  1
  C  C9  1  0.68552875  0.22301859  0.86732360  1
  N  N10  1  0.48467788  0.75471575  0.27260197  1
  N  N11  1  0.51532212  0.24528425  0.72739803  1
  O  O12  1  0.65497675  0.65710685  0.23827839  1
  O  O13  1  0.34502325  0.34289315  0.76172161  1
  F  F14  1  0.13288487  0.75702566  0.48695604  1
  F  F15  1  0.86711513  0.24297434  0.51304396  1
  F  F16  1  0.20502189  0.93989431  0.71696251  1
  F  F17  1  0.79497811  0.06010569  0.28303749  1
  F  F18  1  0.76493751  0.55751621  0.60664793  1
  F  F19  1  0.23506249  0.44248379  0.39335207  1
  F  F20  1  0.75814154  0.85051043  0.57763834  1
  F  F21  1  0.24185846  0.14948957  0.42236166  1
  F  F22  1  0.21880111  0.64689456  0.73846952  1
  F  F23  1  0.78119889  0.35310544  0.26153048  1
  F  F24  1  0.84209629  0.74191380  0.83347529  1
  F  F25  1  0.15790371  0.25808620  0.16652471  1
  F  F26  1  0.47264031  0.83348625  0.02516165  1
  F  F27  1  0.52735969  0.16651375  0.97483835  1
  F  F28  1  0.17629915  0.88323684  0.16719973  1
  F  F29  1  0.82370085  0.11676316  0.83280027  1
  F  F30  1  0.15715814  0.63231512  0.09275501  1
  F  F31  1  0.84284186  0.36768488  0.90724499  1
