# generated using pymatgen
data_Li7Ti7O16
_symmetry_space_group_name_H-M   'P 1'
_cell_length_a   5.93556493
_cell_length_b   5.93556503
_cell_length_c   11.95365756
_cell_angle_alpha   60.22811883
_cell_angle_beta   60.22811993
_cell_angle_gamma   59.99999493
_symmetry_Int_Tables_number   1
_chemical_formula_structural   Li7Ti7O16
_chemical_formula_sum   'Li7 Ti7 O16'
_cell_volume   298.81253168
_cell_formula_units_Z   1
loop_
 _symmetry_equiv_pos_site_id
 _symmetry_equiv_pos_as_xyz
  1  'x, y, z'
loop_
 _atom_site_type_symbol
 _atom_site_label
 _atom_site_symmetry_multiplicity
 _atom_site_fract_x
 _atom_site_fract_y
 _atom_site_fract_z
 _atom_site_occupancy
  Li  Li0  1  -0.00055675  -0.00055675  0.01696130  1
  Li  Li1  1  0.46719089  -0.00055675  0.01696130  1
  Li  Li2  1  0.49679347  0.49679347  0.00480980  1
  Li  Li3  1  0.13208242  0.13208242  0.55187637  1
  Li  Li4  1  -0.00055675  0.46719089  0.01696130  1
  Li  Li5  1  0.87774455  0.87774455  0.43338317  1
  Li  Li6  1  0.96661858  0.96661858  0.80007213  1
  O  O7  1  0.25106557  0.25106557  0.13933915  1
  O  O8  1  0.26047947  0.26047947  0.35928079  1
  O  O9  1  0.25106557  0.71919056  0.13933915  1
  O  O10  1  0.71919056  0.25106557  0.13933915  1
  O  O11  1  0.28759155  0.73233275  0.37387148  1
  O  O12  1  0.25595629  0.25595629  0.63752187  1
  O  O13  1  0.74126195  0.74126195  0.13810708  1
  O  O14  1  0.73233275  0.28759155  0.37387148  1
  O  O15  1  0.25232482  0.25232482  0.87151277  1
  O  O16  1  0.25595629  0.71304368  0.63752187  1
  O  O17  1  0.71304368  0.25595629  0.63752187  1
  O  O18  1  0.73233275  0.73233275  0.37387148  1
  O  O19  1  0.27088135  0.74552543  0.86903389  1
  O  O20  1  0.73532609  0.73532609  0.64701086  1
  O  O21  1  0.74552543  0.27088135  0.86903389  1
  O  O22  1  0.74552543  0.74552543  0.86903389  1
  Ti  Ti23  1  0.49602084  0.00808351  0.24993740  1
  Ti  Ti24  1  0.49602084  0.49602084  0.24993740  1
  Ti  Ti25  1  0.49912399  0.98850467  0.75662367  1
  Ti  Ti26  1  0.49894619  0.49894619  0.50158071  1
  Ti  Ti27  1  0.00808351  0.49602084  0.24993740  1
  Ti  Ti28  1  0.49912399  0.49912399  0.75662367  1
  Ti  Ti29  1  0.98850467  0.49912399  0.75662367  1
