# generated using pymatgen
data_Eu(YS2)2
_symmetry_space_group_name_H-M   'P 1'
_cell_length_a   7.32026082
_cell_length_b   7.32026057
_cell_length_c   7.32026092
_cell_angle_alpha   109.27288113
_cell_angle_beta   109.27287865
_cell_angle_gamma   109.86863720
_symmetry_Int_Tables_number   1
_chemical_formula_structural   Eu(YS2)2
_chemical_formula_sum   'Eu2 Y4 S8'
_cell_volume   301.95489064
_cell_formula_units_Z   2
loop_
 _symmetry_equiv_pos_site_id
 _symmetry_equiv_pos_as_xyz
  1  'x, y, z'
loop_
 _atom_site_type_symbol
 _atom_site_label
 _atom_site_symmetry_multiplicity
 _atom_site_fract_x
 _atom_site_fract_y
 _atom_site_fract_z
 _atom_site_occupancy
  Eu  Eu0  1  0.62500000  0.37500000  0.25000000  1
  Eu  Eu1  1  0.87500000  0.12500000  0.75000000  1
  S  S2  1  0.00913439  0.86021246  0.49778188  1
  S  S3  1  0.01135251  0.36243058  0.50221812  1
  S  S4  1  0.13978754  0.13756942  0.14892193  1
  S  S5  1  0.36021246  0.50913439  0.99778188  1
  S  S6  1  0.49086561  0.98864749  0.85107807  1
  S  S7  1  0.63756942  0.63978754  0.64892193  1
  S  S8  1  0.48864749  0.99086561  0.35107807  1
  S  S9  1  0.86243058  0.51135251  0.00221812  1
  Y  Y10  1  0.12540755  0.75000000  0.87540755  1
  Y  Y11  1  0.25000000  0.62540755  0.37540755  1
  Y  Y12  1  0.37459245  0.25000000  0.62459245  1
  Y  Y13  1  0.75000000  0.87459245  0.12459245  1
