# generated using pymatgen
data_Li5NCl2
_symmetry_space_group_name_H-M   'P 1'
_cell_length_a   3.65927250
_cell_length_b   7.68599247
_cell_length_c   13.98035407
_cell_angle_alpha   43.61525760
_cell_angle_beta   58.43349593
_cell_angle_gamma   61.56924604
_symmetry_Int_Tables_number   1
_chemical_formula_structural   Li5NCl2
_chemical_formula_sum   'Li10 N2 Cl4'
_cell_volume   227.92476720
_cell_formula_units_Z   2
loop_
 _symmetry_equiv_pos_site_id
 _symmetry_equiv_pos_as_xyz
  1  'x, y, z'
loop_
 _atom_site_type_symbol
 _atom_site_label
 _atom_site_symmetry_multiplicity
 _atom_site_fract_x
 _atom_site_fract_y
 _atom_site_fract_z
 _atom_site_occupancy
  Cl  Cl0  1  0.00486550  0.50651874  0.99430788  1
  Cl  Cl1  1  0.00000000  0.33333300  0.33333300  1
  Cl  Cl2  1  0.00000000  0.83333300  0.33333300  1
  Cl  Cl3  1  0.99513450  0.16014826  0.67235912  1
  Li  Li4  1  0.30087848  0.07247976  0.06332038  1
  Li  Li5  1  0.21406411  0.62569678  0.08011906  1
  Li  Li6  1  0.78593589  0.04096922  0.58654694  1
  Li  Li7  1  0.19198667  0.26947896  0.76926719  1
  Li  Li8  1  0.21741666  0.90117744  0.44070345  1
  Li  Li9  1  0.78258334  0.76548956  0.22596355  1
  Li  Li10  1  0.69912152  0.59418624  0.60334562  1
  Li  Li11  1  0.31206258  0.71770649  0.73511547  1
  Li  Li12  1  0.80801333  0.39718804  0.89739981  1
  Li  Li13  1  0.68793742  0.94896051  0.93155153  1
  N  N14  1  0.99774144  0.00250782  0.99987537  1
  N  N15  1  0.00225856  0.66415918  0.66679163  1
