# generated using pymatgen
data_Li3V3(PO4)4
_symmetry_space_group_name_H-M   'P 1'
_cell_length_a   14.58204228
_cell_length_b   4.98199731
_cell_length_c   8.24007993
_cell_angle_alpha   90.00000000
_cell_angle_beta   99.38927441
_cell_angle_gamma   90.00000000
_symmetry_Int_Tables_number   1
_chemical_formula_structural   Li3V3(PO4)4
_chemical_formula_sum   'Li6 V6 P8 O32'
_cell_volume   590.60289857
_cell_formula_units_Z   2
loop_
 _symmetry_equiv_pos_site_id
 _symmetry_equiv_pos_as_xyz
  1  'x, y, z'
loop_
 _atom_site_type_symbol
 _atom_site_label
 _atom_site_symmetry_multiplicity
 _atom_site_fract_x
 _atom_site_fract_y
 _atom_site_fract_z
 _atom_site_occupancy
  Li  Li0  1  0.12192498  0.47837196  0.82376950  1
  Li  Li1  1  0.00000000  0.00000000  0.00000000  1
  Li  Li2  1  0.37807498  0.97837184  0.67623071  1
  Li  Li3  1  0.50000029  0.49999989  0.50000033  1
  Li  Li4  1  0.62192489  0.02162793  0.32376852  1
  Li  Li5  1  0.87807490  0.52162782  0.17623096  1
  O  O6  1  0.30063919  0.07155561  0.20850426  1
  O  O7  1  0.07307638  0.17239409  0.52510915  1
  O  O8  1  0.25700123  0.58305421  0.93431566  1
  O  O9  1  0.12812509  0.70126449  0.60506175  1
  O  O10  1  0.02121596  0.53038887  0.26306344  1
  O  O11  1  0.37187488  0.20126460  0.89493847  1
  O  O12  1  0.24299874  0.08305432  0.56568455  1
  O  O13  1  0.42692358  0.67239397  0.97489106  1
  O  O14  1  0.11177730  0.20340864  0.11152193  1
  O  O15  1  0.34230359  0.58178526  0.68825839  1
  O  O16  1  0.09685216  0.69422159  0.03203052  1
  O  O17  1  0.19936110  0.57155549  0.29149607  1
  O  O18  1  0.15769637  0.08178537  0.81174060  1
  O  O19  1  0.40314812  0.19422170  0.46796858  1
  O  O20  1  0.52121625  0.96961079  0.76306377  1
  O  O21  1  0.38822299  0.70340853  0.38847717  1
  O  O22  1  0.61177689  0.29659124  0.61152206  1
  O  O23  1  0.47878363  0.03038898  0.23693669  1
  O  O24  1  0.59685175  0.80577807  0.53203065  1
  O  O25  1  0.69936139  0.92844416  0.79149640  1
  O  O26  1  0.84230351  0.91821641  0.18825863  1
  O  O27  1  0.90314771  0.30577818  0.96796871  1
  O  O28  1  0.65769629  0.41821652  0.31174084  1
  O  O29  1  0.88822328  0.79659113  0.88847750  1
  O  O30  1  0.57307630  0.32760580  0.02510940  1
  O  O31  1  0.75700114  0.91694545  0.43431590  1
  O  O32  1  0.62812571  0.79873718  0.10506219  1
  O  O33  1  0.97878392  0.46961090  0.73693579  1
  O  O34  1  0.87187479  0.29873729  0.39493749  1
  O  O35  1  0.74299865  0.41694556  0.06568357  1
  O  O36  1  0.92692350  0.82760568  0.47489130  1
  O  O37  1  0.80063878  0.42844428  0.70850439  1
  P  P38  1  0.15013790  0.00463461  0.62384375  1
  P  P39  1  0.34986206  0.50463449  0.87615646  1
  P  P40  1  0.10733049  0.48848528  0.18028737  1
  P  P41  1  0.39266980  0.98848517  0.31971296  1
  P  P42  1  0.60733007  0.01151661  0.68028627  1
  P  P43  1  0.89266939  0.51151650  0.81971309  1
  P  P44  1  0.65013782  0.49536528  0.12384399  1
  P  P45  1  0.84986198  0.99536717  0.37615671  1
  V  V46  1  0.99999984  0.49999989  0.49999994  1
  V  V47  1  0.29162749  0.42677751  0.47039467  1
  V  V48  1  0.20837280  0.92677740  0.02960565  1
  V  V49  1  0.79162708  0.07322237  0.97039358  1
  V  V50  1  0.49999976  0.00000000  0.00000019  1
  V  V51  1  0.70837239  0.57322226  0.52960578  1
