# generated using pymatgen
data_Li4SiO4
_symmetry_space_group_name_H-M   'P 1'
_cell_length_a   5.23239469
_cell_length_b   5.38900176
_cell_length_c   6.14309873
_cell_angle_alpha   91.44607805
_cell_angle_beta   89.85539802
_cell_angle_gamma   90.34014999
_symmetry_Int_Tables_number   1
_chemical_formula_structural   Li4SiO4
_chemical_formula_sum   'Li8 Si2 O8'
_cell_volume   173.16060799
_cell_formula_units_Z   2
loop_
 _symmetry_equiv_pos_site_id
 _symmetry_equiv_pos_as_xyz
  1  'x, y, z'
loop_
 _atom_site_type_symbol
 _atom_site_label
 _atom_site_symmetry_multiplicity
 _atom_site_fract_x
 _atom_site_fract_y
 _atom_site_fract_z
 _atom_site_occupancy
  Li  Li0  1  0.16915268  0.19878722  0.00959696  1
  Li  Li1  1  0.19962921  0.17588328  0.46427246  1
  Li  Li2  1  0.18306457  0.65579951  0.23882290  1
  Li  Li3  1  0.61280677  0.84651944  0.44573922  1
  Li  Li4  1  0.59339502  0.29497183  0.77090669  1
  Li  Li5  1  0.80736037  0.80245943  0.02756161  1
  Li  Li6  1  0.91630213  0.52667496  0.57511110  1
  Li  Li7  1  0.93771258  -0.00152243  0.72322712  1
  O  O8  1  0.19001958  0.83282692  0.95795383  1
  O  O9  1  0.23317240  0.82845265  0.53112716  1
  O  O10  1  0.23363044  0.39179654  0.73524722  1
  O  O11  1  0.36552416  0.33621349  0.23871861  1
  O  O12  1  0.64742886  0.69243192  0.75146701  1
  O  O13  1  0.80288153  0.60126368  0.27436421  1
  O  O14  1  0.77159978  0.18103327  0.47771423  1
  O  O15  1  0.78366909  0.17259361  0.02519034  1
  Si  Si16  1  0.32931874  0.68693566  0.75366544  1
  Si  Si17  1  0.67753209  0.31977902  0.24681389  1
