# generated using pymatgen
data_VP2O7
_symmetry_space_group_name_H-M   'P 1'
_cell_length_a   6.29105663
_cell_length_b   6.29237996
_cell_length_c   13.16408538
_cell_angle_alpha   79.29067221
_cell_angle_beta   78.22228040
_cell_angle_gamma   100.61689944
_symmetry_Int_Tables_number   1
_chemical_formula_structural   VP2O7
_chemical_formula_sum   'V4 P8 O28'
_cell_volume   487.69973174
_cell_formula_units_Z   4
loop_
 _symmetry_equiv_pos_site_id
 _symmetry_equiv_pos_as_xyz
  1  'x, y, z'
loop_
 _atom_site_type_symbol
 _atom_site_label
 _atom_site_symmetry_multiplicity
 _atom_site_fract_x
 _atom_site_fract_y
 _atom_site_fract_z
 _atom_site_occupancy
  V  V0  1  0.25874764  0.11316248  0.14291321  1
  V  V1  1  0.24377047  0.59820945  0.64297187  1
  V  V2  1  0.74125236  0.88683752  0.85708679  1
  V  V3  1  0.75622953  0.40179055  0.35702813  1
  P  P4  1  0.34679550  0.66413832  0.06884745  1
  P  P5  1  0.88370459  0.91119759  0.36436246  1
  P  P6  1  0.11629541  0.08880241  0.63563754  1
  P  P7  1  0.76698646  0.58445171  0.56879455  1
  P  P8  1  0.23301354  0.41554829  0.43120545  1
  P  P9  1  0.77550000  0.24809834  0.13558333  1
  P  P10  1  0.65320450  0.33586168  0.93115255  1
  P  P11  1  0.22450000  0.75190166  0.86441667  1
  O  O12  1  0.91124991  0.80190157  0.48003555  1
  O  O13  1  0.21801833  0.60865796  0.98008396  1
  O  O14  1  0.29847348  0.60109708  0.48738754  1
  O  O15  1  0.25565271  0.91791828  0.61824001  1
  O  O16  1  0.18103343  0.58255687  0.79646689  1
  O  O17  1  0.87904378  0.97739745  0.70358277  1
  O  O18  1  0.70152652  0.39890292  0.51261246  1
  O  O19  1  0.68152827  0.56397761  0.85788133  1
  O  O20  1  0.92182357  0.53946107  0.64206944  1
  O  O21  1  0.78198167  0.39134204  0.01991604  1
  O  O22  1  0.41151902  0.21411982  0.98734377  1
  O  O23  1  0.58848098  0.78588018  0.01265623  1
  O  O24  1  0.45722335  0.90696099  0.82274827  1
  O  O25  1  0.77384748  0.18653251  0.87066783  1
  O  O26  1  0.22615252  0.81346749  0.12933217  1
  O  O27  1  0.77028841  0.72008553  0.32268951  1
  O  O28  1  0.54277665  0.09303901  0.17725173  1
  O  O29  1  0.55714836  0.64460575  0.62928615  1
  O  O30  1  0.96380654  0.12606479  0.11821267  1
  O  O31  1  0.12095622  0.02260255  0.29641723  1
  O  O32  1  0.08875009  0.19809843  0.51996445  1
  O  O33  1  0.74434729  0.08208172  0.38175999  1
  O  O34  1  0.31847173  0.43602239  0.14211867  1
  O  O35  1  0.22971159  0.27991447  0.67731049  1
  O  O36  1  0.81896657  0.41744313  0.20353311  1
  O  O37  1  0.44285164  0.35539425  0.37071385  1
  O  O38  1  0.07817643  0.46053893  0.35793056  1
  O  O39  1  0.03619346  0.87393521  0.88178733  1
