# generated using pymatgen
data_PrMg(BiO3)2
_symmetry_space_group_name_H-M   'P 1'
_cell_length_a   5.82903414
_cell_length_b   6.08300737
_cell_length_c   8.55023371
_cell_angle_alpha   90.00090095
_cell_angle_beta   89.99593039
_cell_angle_gamma   89.99076128
_symmetry_Int_Tables_number   1
_chemical_formula_structural   PrMg(BiO3)2
_chemical_formula_sum   'Pr2 Mg2 Bi4 O12'
_cell_volume   303.17467491
_cell_formula_units_Z   2
loop_
 _symmetry_equiv_pos_site_id
 _symmetry_equiv_pos_as_xyz
  1  'x, y, z'
loop_
 _atom_site_type_symbol
 _atom_site_label
 _atom_site_symmetry_multiplicity
 _atom_site_fract_x
 _atom_site_fract_y
 _atom_site_fract_z
 _atom_site_occupancy
  Pr  Pr0  1  0.01138926  0.93507010  0.75002153  1
  Pr  Pr1  1  0.51139304  0.56488832  0.25001871  1
  Mg  Mg2  1  0.50969912  0.49835699  0.75001415  1
  Mg  Mg3  1  0.00967970  0.00163242  0.24999451  1
  Bi  Bi4  1  0.00379335  0.48654028  0.00059363  1
  Bi  Bi5  1  0.00382069  0.48646312  0.49942715  1
  Bi  Bi6  1  0.50381255  0.01349065  0.50056662  1
  Bi  Bi7  1  0.50383838  0.01357053  0.99945087  1
  O  O8  1  0.13746551  0.39519676  0.24981920  1
  O  O9  1  0.16669940  0.17105566  0.93425122  1
  O  O10  1  0.16706551  0.17069231  0.56566170  1
  O  O11  1  0.32819862  0.67552237  0.58119151  1
  O  O12  1  0.32773431  0.67508560  0.91882809  1
  O  O13  1  0.34411014  0.92600753  0.25018244  1
  O  O14  1  0.63744759  0.10479306  0.74981843  1
  O  O15  1  0.66702584  0.32931465  0.06575972  1
  O  O16  1  0.66660869  0.32901719  0.43423552  1
  O  O17  1  0.82824660  0.82447342  0.08108049  1
  O  O18  1  0.82775314  0.82488563  0.41888274  1
  O  O19  1  0.84421554  0.57394542  0.75019976  1
