# generated using pymatgen
data_CrCuO4
_symmetry_space_group_name_H-M   'P 1'
_cell_length_a   5.27542499
_cell_length_b   5.27542546
_cell_length_c   5.95754254
_cell_angle_alpha   90.00000000
_cell_angle_beta   90.00000000
_cell_angle_gamma   117.37729544
_symmetry_Int_Tables_number   1
_chemical_formula_structural   CrCuO4
_chemical_formula_sum   'Cr2 Cu2 O8'
_cell_volume   147.22919101
_cell_formula_units_Z   2
loop_
 _symmetry_equiv_pos_site_id
 _symmetry_equiv_pos_as_xyz
  1  'x, y, z'
loop_
 _atom_site_type_symbol
 _atom_site_label
 _atom_site_symmetry_multiplicity
 _atom_site_fract_x
 _atom_site_fract_y
 _atom_site_fract_z
 _atom_site_occupancy
  O  O0  1  0.74149626  0.78544627  0.74999900  1
  O  O1  1  0.25850474  0.21455373  0.25000000  1
  O  O2  1  0.78544527  0.74149526  0.25000000  1
  O  O3  1  0.21455373  0.25850274  0.74999900  1
  O  O4  1  0.26272950  0.73727150  0.96954572  1
  O  O5  1  0.73727050  0.26272950  0.46954672  1
  O  O6  1  0.26272950  0.73727150  0.53045428  1
  O  O7  1  0.73727050  0.26272950  0.03045328  1
  Cr  Cr8  1  0.63255004  0.36744896  0.25000000  1
  Cr  Cr9  1  0.36744996  0.63255204  0.74999900  1
  Cu  Cu10  1  0.00000000  0.00000000  0.50000000  1
  Cu  Cu11  1  0.00000000  0.00000000  0.00000000  1
