# generated using pymatgen
data_MgAl6O10
_symmetry_space_group_name_H-M   'P 1'
_cell_length_a   5.70731031
_cell_length_b   5.72578610
_cell_length_c   28.44604607
_cell_angle_alpha   59.78907638
_cell_angle_beta   59.51121813
_cell_angle_gamma   59.88741339
_symmetry_Int_Tables_number   1
_chemical_formula_structural   MgAl6O10
_chemical_formula_sum   'Mg4 Al24 O40'
_cell_volume   653.25770553
_cell_formula_units_Z   4
loop_
 _symmetry_equiv_pos_site_id
 _symmetry_equiv_pos_as_xyz
  1  'x, y, z'
loop_
 _atom_site_type_symbol
 _atom_site_label
 _atom_site_symmetry_multiplicity
 _atom_site_fract_x
 _atom_site_fract_y
 _atom_site_fract_z
 _atom_site_occupancy
  Al  Al0  1  0.11552967  0.11645372  0.03026636  1
  Al  Al1  1  0.00624310  0.50442750  0.09696991  1
  Al  Al2  1  0.13731315  0.12023985  0.22444801  1
  Al  Al3  1  0.49916183  0.01558302  0.09609693  1
  Al  Al4  1  0.49920862  0.50458923  0.09609402  1
  Al  Al5  1  0.46653619  0.51158254  0.20211622  1
  Al  Al6  1  0.50871166  0.00575640  0.29604977  1
  Al  Al7  1  0.15106575  0.12851032  0.41835919  1
  Al  Al8  1  0.50858918  0.50556593  0.29603284  1
  Al  Al9  1  0.00759011  0.50427158  0.49673877  1
  Al  Al10  1  0.54319685  0.50090818  0.39100062  1
  Al  Al11  1  0.86001824  0.88450751  0.17422616  1
  Al  Al12  1  0.50888352  1.00016163  0.49716823  1
  Al  Al13  1  0.50892064  0.50493196  0.49716122  1
  Al  Al14  1  0.99609326  0.49666918  0.70211527  1
  Al  Al15  1  0.88039110  0.88804880  0.36872259  1
  Al  Al16  1  0.50125876  0.49853404  0.60031356  1
  Al  Al17  1  0.49705506  0.49672024  0.70215658  1
  Al  Al18  1  0.98096280  0.49129393  0.90732106  1
  Al  Al19  1  0.49037845  0.98269336  0.90710147  1
  Al  Al20  1  0.49173020  0.49185946  0.80492020  1
  Al  Al21  1  0.49704151  0.99545576  0.70215793  1
  Al  Al22  1  0.49039411  0.49158659  0.90707382  1
  Al  Al23  1  0.87589209  0.87975458  0.97292807  1
  Mg  Mg24  1  0.12768055  0.12388659  0.62490055  1
  Mg  Mg25  1  0.11494305  0.11341057  0.83167374  1
  Mg  Mg26  1  0.87607803  0.87569273  0.57447948  1
  Mg  Mg27  1  0.86480312  0.86712474  0.78019407  1
  O  O28  1  0.23122047  0.23633944  0.05933319  1
  O  O29  1  0.23131581  0.73553944  0.05932226  1
  O  O30  1  0.25241076  0.26029261  0.14539230  1
  O  O31  1  0.73256681  0.23533904  0.05930275  1
  O  O32  1  0.28155457  0.24151771  0.24731365  1
  O  O33  1  0.26236824  0.74472276  0.14965309  1
  O  O34  1  0.28149791  0.74048305  0.24732143  1
  O  O35  1  0.28785401  0.24746934  0.34346457  1
  O  O36  1  0.73195440  0.28552409  0.14844064  1
  O  O37  1  0.73694731  0.74512143  0.05454092  1
  O  O38  1  0.73743061  0.25814056  0.24928901  1
  O  O39  1  0.73202834  0.74029229  0.14844447  1
  O  O40  1  0.26390984  0.25834753  0.44949683  1
  O  O41  1  0.27573920  0.74259774  0.34784625  1
  O  O42  1  0.26391291  0.73009685  0.44949453  1
  O  O43  1  0.72392193  0.76048670  0.25106208  1
  O  O44  1  0.27651684  0.26851904  0.53726197  1
  O  O45  1  0.72421169  0.26378046  0.34977501  1
  O  O46  1  0.74529650  0.25848175  0.44751522  1
  O  O47  1  0.72420437  0.76316978  0.34979056  1
  O  O48  1  0.26691668  0.26532977  0.65141607  1
  O  O49  1  0.29932373  0.74129294  0.54358921  1
  O  O50  1  0.26036009  0.26055260  0.74372418  1
  O  O51  1  0.26690379  0.71065204  0.65141276  1
  O  O52  1  0.75613375  0.74769270  0.44966406  1
  O  O53  1  0.74494139  0.29675771  0.54335720  1
  O  O54  1  0.71285932  0.26542785  0.65125505  1
  O  O55  1  0.74494941  0.74135819  0.54335798  1
  O  O56  1  0.26008156  0.26006882  0.85634201  1
  O  O57  1  0.28577132  0.73626959  0.74834690  1
  O  O58  1  0.24466836  0.24681935  0.95235001  1
  O  O59  1  0.26007794  0.69826338  0.85634503  1
  O  O60  1  0.73602397  0.28654165  0.74821882  1
  O  O61  1  0.73803885  0.73664287  0.65773380  1
  O  O62  1  0.69853698  0.26032389  0.85617667  1
  O  O63  1  0.73598943  0.73636905  0.74822336  1
  O  O64  1  0.25355829  0.75501746  0.94730382  1
  O  O65  1  0.75235116  0.25569822  0.94735528  1
  O  O66  1  0.72765135  0.72717040  0.86361695  1
  O  O67  1  0.75232954  0.75526999  0.94736347  1
