# generated using pymatgen
data_Li7Nb8O24
_symmetry_space_group_name_H-M   'P 1'
_cell_length_a   22.42365962
_cell_length_b   15.09467778
_cell_length_c   9.90812002
_cell_angle_alpha   26.75721763
_cell_angle_beta   50.44814041
_cell_angle_gamma   37.85973913
_symmetry_Int_Tables_number   1
_chemical_formula_structural   Li7Nb8O24
_chemical_formula_sum   'Li14 Nb16 O48'
_cell_volume   897.97894457
_cell_formula_units_Z   2
loop_
 _symmetry_equiv_pos_site_id
 _symmetry_equiv_pos_as_xyz
  1  'x, y, z'
loop_
 _atom_site_type_symbol
 _atom_site_label
 _atom_site_symmetry_multiplicity
 _atom_site_fract_x
 _atom_site_fract_y
 _atom_site_fract_z
 _atom_site_occupancy
  Li  Li0  1  0.06922604  1.00288395  0.28538819  1
  Li  Li1  1  0.32124898  0.00016573  0.28009176  1
  Li  Li2  1  0.19438376  0.50650057  0.27745304  1
  Li  Li3  1  0.06998254  0.49968363  0.78250557  1
  Li  Li4  1  0.57121328  -0.00092726  0.28124055  1
  Li  Li5  1  0.44471009  0.00099690  0.78378056  1
  Li  Li6  1  0.44726116  0.49567485  0.28698782  1
  Li  Li7  1  0.32184946  0.49503669  0.78609995  1
  Li  Li8  1  0.82149982  0.99359036  0.28834858  1
  Li  Li9  1  0.69690575  0.00207015  0.77861357  1
  Li  Li10  1  0.56839232  0.50461896  0.78280855  1
  Li  Li11  1  0.94744381  0.99361949  0.79058643  1
  Li  Li12  1  0.94530301  0.50178854  0.28041958  1
  Li  Li13  1  0.82019118  0.50529583  0.77486093  1
  Nb  Nb14  1  -0.00105101  1.00047920  -0.00003766  1
  Nb  Nb15  1  0.24983574  0.99877387  1.00288446  1
  Nb  Nb16  1  0.12525608  0.00153475  0.49893669  1
  Nb  Nb17  1  0.12480353  0.50332442  -0.00573431  1
  Nb  Nb18  1  0.50496004  0.99004101  0.00561401  1
  Nb  Nb19  1  0.37167149  0.00110032  0.50698762  1
  Nb  Nb20  1  0.37553492  0.49694429  0.00130262  1
  Nb  Nb21  1  0.24902189  0.51126249  0.48669270  1
  Nb  Nb22  1  0.74788252  0.01290244  0.98611321  1
  Nb  Nb23  1  0.62585953  1.00056098  0.49537236  1
  Nb  Nb24  1  0.62505237  0.50175132  -0.00094136  1
  Nb  Nb25  1  0.49843056  0.49915427  0.50048624  1
  Nb  Nb26  1  0.87539062  -0.00100176  0.49860162  1
  Nb  Nb27  1  0.87300812  0.49780155  0.00848074  1
  Nb  Nb28  1  0.74989714  0.49931289  0.50253972  1
  Nb  Nb29  1  0.00475244  0.48894088  0.50774903  1
  O  O30  1  0.01293512  0.30424122  0.11244189  1
  O  O31  1  0.02451699  0.12253532  0.61371740  1
  O  O32  1  0.16591670  0.19641230  0.21917916  1
  O  O33  1  0.07496204  0.40636768  0.32921710  1
  O  O34  1  0.10758017  0.18123175  0.86701524  1
  O  O35  1  0.26255057  0.30388605  0.11573083  1
  O  O36  1  0.04112537  0.69404507  0.21928819  1
  O  O37  1  0.27556904  0.13138453  0.60614799  1
  O  O38  1  0.20066639  0.31024086  0.73510201  1
  O  O39  1  0.41559335  0.19410640  0.22100881  1
  O  O40  1  0.13689626  0.78324011  0.14178447  1
  O  O41  1  0.33629310  0.38092900  0.35382455  1
  O  O42  1  0.14867145  0.63034539  0.60419167  1
  O  O43  1  0.35520799  0.18963321  0.85226791  1
  O  O44  1  0.51438261  0.30045929  0.11310870  1
  O  O45  1  0.07370732  0.82132798  0.71559983  1
  O  O46  1  0.29435248  0.68985170  0.22855506  1
  O  O47  1  0.52694068  0.11819623  0.61434887  1
  O  O48  1  0.21246280  0.87388609  0.36293633  1
  O  O49  1  0.44817370  0.31878715  0.71710493  1
  O  O50  1  0.66393960  0.20080288  0.21577846  1
  O  O51  1  0.23197225  0.68264091  0.85923036  1
  O  O52  1  0.38895824  0.80218046  0.11168695  1
  O  O53  1  0.58627337  0.37562749  0.35944031  1
  O  O54  1  0.39761939  0.61826129  0.61684370  1
  O  O55  1  0.60711801  0.18615743  0.85162499  1
  O  O56  1  0.76332062  0.30526570  0.11220608  1
  O  O57  1  0.33375292  0.81012685  0.70783167  1
  O  O58  1  0.52785615  0.71743445  0.20973440  1
  O  O59  1  0.77888654  0.09308412  0.64430257  1
  O  O60  1  0.46411951  0.87804698  0.35352033  1
  O  O61  1  0.69601033  0.32021907  0.73112286  1
  O  O62  1  0.91509032  0.19366333  0.22636160  1
  O  O63  1  0.48167139  0.68301282  0.85881473  1
  O  O64  1  0.63934887  0.81236095  0.10749606  1
  O  O65  1  0.84008231  0.37242410  0.36543229  1
  O  O66  1  0.64933646  0.62351545  0.61425592  1
  O  O67  1  0.85755633  0.17841814  0.86376289  1
  O  O68  1  0.57244271  0.81916087  0.72307895  1
  O  O69  1  0.79219366  0.68717556  0.23608992  1
  O  O70  1  0.70834029  0.87990507  0.35323480  1
  O  O71  1  0.95027233  0.31403264  0.72588340  1
  O  O72  1  0.73922806  0.68627945  0.83148195  1
  O  O73  1  0.88518505  0.81217988  0.11110935  1
  O  O74  1  0.90275519  0.61920102  0.61124095  1
  O  O75  1  0.82258448  0.81787851  0.72022403  1
  O  O76  1  0.95877660  0.87753586  0.35887770  1
  O  O77  1  0.98458870  0.67842006  0.85332904  1
