# generated using pymatgen
data_CeSn2Rh
_symmetry_space_group_name_H-M   'P 1'
_cell_length_a   4.60739341
_cell_length_b   8.91768459
_cell_length_c   9.65163970
_cell_angle_alpha   90.00000000
_cell_angle_beta   90.00000000
_cell_angle_gamma   104.97093510
_symmetry_Int_Tables_number   1
_chemical_formula_structural   CeSn2Rh
_chemical_formula_sum   'Ce4 Sn8 Rh4'
_cell_volume   383.09920897
_cell_formula_units_Z   4
loop_
 _symmetry_equiv_pos_site_id
 _symmetry_equiv_pos_as_xyz
  1  'x, y, z'
loop_
 _atom_site_type_symbol
 _atom_site_label
 _atom_site_symmetry_multiplicity
 _atom_site_fract_x
 _atom_site_fract_y
 _atom_site_fract_z
 _atom_site_occupancy
  Ce  Ce0  1  0.29559608  0.59119215  0.75000000  1
  Ce  Ce1  1  0.70440392  0.40880785  0.25000000  1
  Ce  Ce2  1  0.50000000  0.00000000  0.50000000  1
  Ce  Ce3  1  0.50000000  0.00000000  0.00000000  1
  Rh  Rh4  1  0.14630985  0.29261969  0.49386546  1
  Rh  Rh5  1  0.85369015  0.70738031  0.50613454  1
  Rh  Rh6  1  0.85369015  0.70738031  0.99386546  1
  Rh  Rh7  1  0.14630985  0.29261969  0.00613454  1
  Sn  Sn8  1  0.30152216  0.60304432  0.41028893  1
  Sn  Sn9  1  0.69847784  0.39695568  0.58971107  1
  Sn  Sn10  1  0.69847784  0.39695568  0.91028893  1
  Sn  Sn11  1  0.30152216  0.60304432  0.08971107  1
  Sn  Sn12  1  0.09021478  0.18042955  0.75000000  1
  Sn  Sn13  1  0.90978522  0.81957045  0.25000000  1
  Sn  Sn14  1  0.92608559  0.85217118  0.75000000  1
  Sn  Sn15  1  0.07391441  0.14782882  0.25000000  1
