# generated using pymatgen
data_Zr6Al2NiH10
_symmetry_space_group_name_H-M   'P 1'
_cell_length_a   8.08079996
_cell_length_b   8.08080007
_cell_length_c   7.22311267
_cell_angle_alpha   90.00000000
_cell_angle_beta   90.00000000
_cell_angle_gamma   120.00449396
_symmetry_Int_Tables_number   1
_chemical_formula_structural   Zr6Al2NiH10
_chemical_formula_sum   'Zr12 Al4 Ni2 H20'
_cell_volume   408.45486203
_cell_formula_units_Z   2
loop_
 _symmetry_equiv_pos_site_id
 _symmetry_equiv_pos_as_xyz
  1  'x, y, z'
loop_
 _atom_site_type_symbol
 _atom_site_label
 _atom_site_symmetry_multiplicity
 _atom_site_fract_x
 _atom_site_fract_y
 _atom_site_fract_z
 _atom_site_occupancy
  Zr  Zr0  1  0.57822069  0.62480404  0.75000000  1
  Zr  Zr1  1  0.37516794  0.95339468  0.75000000  1
  Zr  Zr2  1  0.04660990  0.42180986  0.75000000  1
  Zr  Zr3  1  0.62480404  0.57822069  0.25000000  1
  Zr  Zr4  1  0.95339468  0.37516794  0.25000000  1
  Zr  Zr5  1  0.42180986  0.04660990  0.25000000  1
  Zr  Zr6  1  0.26246825  0.26246825  0.00000000  1
  Zr  Zr7  1  0.73756828  0.00003548  0.99995966  1
  Zr  Zr8  1  0.00003548  0.73756828  0.00004034  1
  Zr  Zr9  1  0.26246825  0.26246825  0.50000000  1
  Zr  Zr10  1  0.73756828  0.00003548  0.50004034  1
  Zr  Zr11  1  0.00003548  0.73756828  0.49995966  1
  Al  Al12  1  0.66665009  0.33332630  0.94872576  1
  Al  Al13  1  0.66665009  0.33332630  0.55127424  1
  Al  Al14  1  0.33332630  0.66665009  0.44872576  1
  Al  Al15  1  0.33332630  0.66665009  0.05127424  1
  Ni  Ni16  1  0.00006043  0.00001427  0.75000000  1
  Ni  Ni17  1  0.00001427  0.00006043  0.25000000  1
  H  H18  1  0.87855950  0.11773763  0.75000000  1
  H  H19  1  0.88227398  0.76082839  0.75000000  1
  H  H20  1  0.23915023  0.12142415  0.75000000  1
  H  H21  1  0.11773763  0.87855950  0.25000000  1
  H  H22  1  0.76082839  0.88227398  0.25000000  1
  H  H23  1  0.12142415  0.23915023  0.25000000  1
  H  H24  1  0.59512887  0.88574216  0.75000000  1
  H  H25  1  0.11429297  0.70943447  0.75000000  1
  H  H26  1  0.29063067  0.40487381  0.75000000  1
  H  H27  1  0.88574216  0.59512887  0.25000000  1
  H  H28  1  0.70943447  0.11429297  0.25000000  1
  H  H29  1  0.40487381  0.29063067  0.25000000  1
  H  H30  1  0.72042907  0.72042907  0.00000000  1
  H  H31  1  0.27955662  0.99998725  0.99999897  1
  H  H32  1  0.99998725  0.27955662  0.00000103  1
  H  H33  1  0.72042907  0.72042907  0.50000000  1
  H  H34  1  0.27955662  0.99998725  0.50000103  1
  H  H35  1  0.99998725  0.27955662  0.49999897  1
  H  H36  1  -0.00000065  -0.00000065  0.00000000  1
  H  H37  1  -0.00000065  -0.00000065  0.50000000  1
