# generated using pymatgen
data_K2UF6
_symmetry_space_group_name_H-M   'P 1'
_cell_length_a   6.66425757
_cell_length_b   6.66425756
_cell_length_c   3.74582249
_cell_angle_alpha   90.00000000
_cell_angle_beta   90.00000000
_cell_angle_gamma   119.99999998
_symmetry_Int_Tables_number   1
_chemical_formula_structural   K2UF6
_chemical_formula_sum   'K2 U1 F6'
_cell_volume   144.07259288
_cell_formula_units_Z   1
loop_
 _symmetry_equiv_pos_site_id
 _symmetry_equiv_pos_as_xyz
  1  'x, y, z'
loop_
 _atom_site_type_symbol
 _atom_site_label
 _atom_site_symmetry_multiplicity
 _atom_site_fract_x
 _atom_site_fract_y
 _atom_site_fract_z
 _atom_site_occupancy
  F  F0  1  0.77434116  0.77434116  0.50000000  1
  F  F1  1  1.00000000  0.22565884  0.50000000  1
  F  F2  1  0.22565884  0.00000000  0.50000000  1
  F  F3  1  0.65904521  0.00000000  0.00000000  1
  F  F4  1  0.00000000  0.65904521  0.00000000  1
  F  F5  1  0.34095479  0.34095479  0.00000000  1
  K  K6  1  0.33333333  0.66666667  0.50077329  1
  K  K7  1  0.66666667  0.33333333  0.49922671  1
  U  U8  1  0.00000000  0.00000000  0.00000000  1
