# generated using pymatgen
data_MgAl2O4
_symmetry_space_group_name_H-M   'P 1'
_cell_length_a   5.78452971
_cell_length_b   5.76092806
_cell_length_c   40.36889849
_cell_angle_alpha   60.03473973
_cell_angle_beta   60.15495297
_cell_angle_gamma   60.13487847
_symmetry_Int_Tables_number   1
_chemical_formula_structural   MgAl2O4
_chemical_formula_sum   'Mg14 Al28 O56'
_cell_volume   953.57440621
_cell_formula_units_Z   14
loop_
 _symmetry_equiv_pos_site_id
 _symmetry_equiv_pos_as_xyz
  1  'x, y, z'
loop_
 _atom_site_type_symbol
 _atom_site_label
 _atom_site_symmetry_multiplicity
 _atom_site_fract_x
 _atom_site_fract_y
 _atom_site_fract_z
 _atom_site_occupancy
  Al  Al0  1  0.13702092  0.11806411  0.16097841  1
  Al  Al1  1  0.49720025  0.49796052  0.07236053  1
  Al  Al2  1  0.50513505  0.50325024  0.14119478  1
  Al  Al3  1  0.14129132  0.11989996  0.30270082  1
  Al  Al4  1  0.49720025  0.99831855  0.07236053  1
  Al  Al5  1  0.50258837  0.50376930  0.21493262  1
  Al  Al6  1  0.50505135  0.50252240  0.28427169  1
  Al  Al7  1  0.14478165  0.12236116  0.44435701  1
  Al  Al8  1  0.50258837  0.98911601  0.21493262  1
  Al  Al9  1  0.50389180  0.50407205  0.35762512  1
  Al  Al10  1  0.50612361  0.50327675  0.42675998  1
  Al  Al11  1  0.50272026  0.99240576  0.50017122  1
  Al  Al12  1  0.50389180  0.98866131  0.35762512  1
  Al  Al13  1  0.50272026  0.50367547  0.50017122  1
  Al  Al14  1  0.49546142  0.50290104  0.57124850  1
  Al  Al15  1  0.49973037  0.00197324  0.64257972  1
  Al  Al16  1  0.49973037  0.50023734  0.64257972  1
  Al  Al17  1  0.00172319  0.50035559  0.78536623  1
  Al  Al18  1  0.50086761  0.50172542  0.71366908  1
  Al  Al19  1  0.50021292  0.00181393  0.78536699  1
  Al  Al20  1  0.50021292  0.50040222  0.78536699  1
  Al  Al21  1  0.00633809  0.49682052  0.92857398  1
  Al  Al22  1  -0.00061546  0.50023203  0.64287863  1
  Al  Al23  1  0.50229275  0.50158149  0.85636361  1
  Al  Al24  1  0.49627288  0.49720270  0.92882666  1
  Al  Al25  1  0.49627288  0.00473479  0.92882666  1
  Al  Al26  1  0.49807451  0.48855870  0.00354401  1
  Al  Al27  1  0.87161774  0.87398961  0.98291486  1
  Mg  Mg28  1  0.12604310  0.11592597  0.02030056  1
  Mg  Mg29  1  0.99980035  0.49910063  0.07171449  1
  Mg  Mg30  1  0.86437932  0.87975561  0.12515849  1
  Mg  Mg31  1  0.99635448  0.50151801  0.21437307  1
  Mg  Mg32  1  0.86245443  0.87826556  0.26871621  1
  Mg  Mg33  1  0.13263367  0.12985252  0.58680904  1
  Mg  Mg34  1  0.99633698  0.50224056  0.35702613  1
  Mg  Mg35  1  0.12510257  0.12688908  0.73158861  1
  Mg  Mg36  1  0.86240917  0.87801657  0.41165081  1
  Mg  Mg37  1  0.99676970  0.50263896  0.49970748  1
  Mg  Mg38  1  0.86535300  0.87802252  0.55408557  1
  Mg  Mg39  1  0.12487257  0.12688227  0.87448041  1
  Mg  Mg40  1  0.87821739  0.87661940  0.69550669  1
  Mg  Mg41  1  0.87593151  0.87427399  0.83936036  1
  O  O42  1  0.28722320  0.25126561  0.03617118  1
  O  O43  1  0.28722320  0.70831289  0.03617118  1
  O  O44  1  0.26565458  0.24637980  0.10594112  1
  O  O45  1  0.71325875  0.25895333  0.03840494  1
  O  O46  1  0.27540379  0.25241232  0.17750457  1
  O  O47  1  0.28670606  0.74439938  0.10349917  1
  O  O48  1  0.73811105  0.75471102  0.03606627  1
  O  O49  1  0.27540379  0.72965094  0.17750457  1
  O  O50  1  0.71976484  0.29369042  0.10514969  1
  O  O51  1  0.27510945  0.25007495  0.24639166  1
  O  O52  1  0.73784098  0.25694762  0.17832325  1
  O  O53  1  0.71976484  0.75049589  0.10514969  1
  O  O54  1  0.27550055  0.25196785  0.32016356  1
  O  O55  1  0.28039395  0.74301249  0.24765415  1
  O  O56  1  0.71817134  0.74928370  0.18332346  1
  O  O57  1  0.27786111  0.25164851  0.38840598  1
  O  O58  1  0.27550055  0.73138468  0.32016356  1
  O  O59  1  0.71953942  0.28961074  0.24877271  1
  O  O60  1  0.74151054  0.25675662  0.32071060  1
  O  O61  1  0.71953942  0.74943889  0.24877271  1
  O  O62  1  0.27494819  0.25160828  0.46259353  1
  O  O63  1  0.28010479  0.74250427  0.39069767  1
  O  O64  1  0.27494819  0.73528584  0.46259353  1
  O  O65  1  0.71990929  0.28877234  0.39170833  1
  O  O66  1  0.71732152  0.74839552  0.32655564  1
  O  O67  1  0.29064572  0.25941166  0.52721857  1
  O  O68  1  0.74852496  0.25546686  0.46293405  1
  O  O69  1  0.71990929  0.74935706  0.39170833  1
  O  O70  1  0.25591212  0.26145976  0.61041401  1
  O  O71  1  0.27808372  0.74013992  0.53451992  1
  O  O72  1  0.25591212  0.70973306  0.61041401  1
  O  O73  1  0.71182042  0.28691824  0.53657942  1
  O  O74  1  0.26349618  0.26203399  0.67320483  1
  O  O75  1  0.71634382  0.74631271  0.47014739  1
  O  O76  1  0.70958123  0.26123398  0.60970769  1
  O  O77  1  0.71182042  0.74520840  0.53657942  1
  O  O78  1  0.26015365  0.26039146  0.75301451  1
  O  O79  1  0.28922962  0.73318737  0.67777109  1
  O  O80  1  0.73255059  0.28891726  0.67788301  1
  O  O81  1  0.73250175  0.73444089  0.61408807  1
  O  O82  1  0.26242599  0.26232129  0.81613263  1
  O  O83  1  0.26015365  0.70835532  0.75301451  1
  O  O84  1  0.70750433  0.26070808  0.75301165  1
  O  O85  1  0.73255059  0.73335306  0.67788301  1
  O  O86  1  0.26166858  0.26109737  0.89560595  1
  O  O87  1  0.28888427  0.73339332  0.82061859  1
  O  O88  1  0.73383402  0.28811637  0.82063824  1
  O  O89  1  0.26166858  0.70799342  0.89560595  1
  O  O90  1  0.73481785  0.73487042  0.75649147  1
  O  O91  1  0.26257033  0.26096059  0.95935878  1
  O  O92  1  0.70722824  0.26110749  0.89579397  1
  O  O93  1  0.73383402  0.73358291  0.82063824  1
  O  O94  1  0.26899754  0.74205799  0.96384093  1
  O  O95  1  0.72944301  0.73071958  0.90130226  1
  O  O96  1  0.74708215  0.26999056  0.96323077  1
  O  O97  1  0.74708215  0.74031187  0.96323077  1
