# generated using pymatgen
data_Ta2CuO6
_symmetry_space_group_name_H-M   'P 1'
_cell_length_a   7.58869399
_cell_length_b   7.58608754
_cell_length_c   30.39835104
_cell_angle_alpha   90.00000000
_cell_angle_beta   90.00000000
_cell_angle_gamma   90.00000000
_symmetry_Int_Tables_number   1
_chemical_formula_structural   Ta2CuO6
_chemical_formula_sum   'Ta32 Cu16 O96'
_cell_volume   1749.98737829
_cell_formula_units_Z   16
loop_
 _symmetry_equiv_pos_site_id
 _symmetry_equiv_pos_as_xyz
  1  'x, y, z'
loop_
 _atom_site_type_symbol
 _atom_site_label
 _atom_site_symmetry_multiplicity
 _atom_site_fract_x
 _atom_site_fract_y
 _atom_site_fract_z
 _atom_site_occupancy
  Cu  Cu0  1  0.00000000  0.50000000  0.00031865  1
  Cu  Cu1  1  0.00000000  0.00000000  0.12527269  1
  Cu  Cu2  1  0.00000000  0.50000000  0.24970049  1
  Cu  Cu3  1  0.00000000  0.50000000  0.37538780  1
  Cu  Cu4  1  0.00000000  0.00000000  0.37477591  1
  Cu  Cu5  1  0.00000000  0.00000000  0.62560323  1
  Cu  Cu6  1  0.00000000  0.50000000  0.62458959  1
  Cu  Cu7  1  0.00000000  0.50000000  0.87599327  1
  Cu  Cu8  1  0.00000000  0.00000000  0.87498849  1
  Cu  Cu9  1  0.50000000  0.00000000  0.24881665  1
  Cu  Cu10  1  0.50000000  0.00000000  0.75032512  1
  Cu  Cu11  1  0.50000000  0.00000000  0.12488228  1
  Cu  Cu12  1  0.50000000  0.00000000  0.62521216  1
  Cu  Cu13  1  0.50000000  0.50000000  0.49992624  1
  Cu  Cu14  1  0.50000000  0.00000000  0.37628397  1
  Cu  Cu15  1  0.50000000  0.00000000  0.87362866  1
  O  O16  1  0.00000000  0.68876206  0.04600796  1
  O  O17  1  0.00000000  0.30745863  0.29481994  1
  O  O18  1  0.00000000  0.69115032  0.20560688  1
  O  O19  1  0.00000000  0.69254137  0.29481994  1
  O  O20  1  0.00000000  0.29642742  0.44959376  1
  O  O21  1  0.00000000  0.29543063  0.55001383  1
  O  O22  1  0.00000000  0.70357258  0.44959376  1
  O  O23  1  0.00000000  0.70456937  0.55001383  1
  O  O24  1  0.00000000  0.28615464  0.79676210  1
  O  O25  1  0.00000000  0.71416599  0.70174177  1
  O  O26  1  0.00000000  0.71384536  0.79676210  1
  O  O27  1  0.00000000  0.68786962  0.95402538  1
  O  O28  1  0.17849806  0.00000000  0.07726096  1
  O  O29  1  0.17832767  0.00000000  0.17411926  1
  O  O30  1  0.18151088  0.00000000  0.32798045  1
  O  O31  1  0.18607678  0.00000000  0.42134289  1
  O  O32  1  0.18593963  0.00000000  0.57811341  1
  O  O33  1  0.18877799  0.00000000  0.67018491  1
  O  O34  1  0.18729036  0.00000000  0.82979071  1
  O  O35  1  0.18017958  0.00000000  0.92213750  1
  O  O36  1  0.20295502  0.70091809  0.12535603  1
  O  O37  1  0.20295502  0.29908191  0.12535603  1
  O  O38  1  0.18922370  0.68331726  0.37457195  1
  O  O39  1  0.18922370  0.31668274  0.37457195  1
  O  O40  1  0.19127397  0.31921053  0.62458803  1
  O  O41  1  0.19127397  0.68078947  0.62458803  1
  O  O42  1  0.18524587  0.31440806  0.87490913  1
  O  O43  1  0.18524587  0.68559194  0.87490913  1
  O  O44  1  0.29616182  0.19509237  0.99984309  1
  O  O45  1  0.31229518  0.18230393  0.25090593  1
  O  O46  1  0.29616182  0.80490763  0.99984309  1
  O  O47  1  0.29354601  0.19344782  0.49980011  1
  O  O48  1  0.31229518  0.81769607  0.25090593  1
  O  O49  1  0.31128309  0.18128610  0.74993566  1
  O  O50  1  0.29354601  0.80655218  0.49980011  1
  O  O51  1  0.31128309  0.81871390  0.74993566  1
  O  O52  1  0.30907536  0.50000000  0.05341694  1
  O  O53  1  0.30673687  0.50000000  0.19918771  1
  O  O54  1  0.30593937  0.50000000  0.30144446  1
  O  O55  1  0.32109072  0.50000000  0.45170236  1
  O  O56  1  0.32115265  0.50000000  0.54748362  1
  O  O57  1  0.30446361  0.50000000  0.80158621  1
  O  O58  1  0.30383688  0.50000000  0.69856160  1
  O  O59  1  0.30905388  0.50000000  0.94671142  1
  O  O60  1  0.50000000  0.18492118  0.07865968  1
  O  O61  1  0.50000000  0.18435077  0.17211898  1
  O  O62  1  0.50000000  0.18852610  0.33027454  1
  O  O63  1  0.50000000  0.18864837  0.57940070  1
  O  O64  1  0.50000000  0.81507882  0.07865968  1
  O  O65  1  0.50000000  0.18911699  0.42053257  1
  O  O66  1  0.50000000  0.81147390  0.33027454  1
  O  O67  1  0.50000000  0.18876412  0.67054082  1
  O  O68  1  0.50000000  0.18891443  0.82893515  1
  O  O69  1  0.50000000  0.81088301  0.42053257  1
  O  O70  1  0.50000000  0.81135163  0.57940070  1
  O  O71  1  0.50000000  0.18738886  0.91997049  1
  O  O72  1  0.50000000  0.81564923  0.17211898  1
  O  O73  1  0.50000000  0.81108557  0.82893515  1
  O  O74  1  0.50000000  0.81261114  0.91997049  1
  O  O75  1  0.50000000  0.81123588  0.67054082  1
  O  O76  1  0.69092464  0.50000000  0.05341694  1
  O  O77  1  0.69326313  0.50000000  0.19918771  1
  O  O78  1  0.69406063  0.50000000  0.30144446  1
  O  O79  1  0.67890928  0.50000000  0.45170236  1
  O  O80  1  0.67884735  0.50000000  0.54748362  1
  O  O81  1  0.69616312  0.50000000  0.69856160  1
  O  O82  1  0.69553639  0.50000000  0.80158621  1
  O  O83  1  0.69094612  0.50000000  0.94671142  1
  O  O84  1  0.70383818  0.19509237  0.99984309  1
  O  O85  1  0.70383818  0.80490763  0.99984309  1
  O  O86  1  0.68770482  0.18230393  0.25090593  1
  O  O87  1  0.70645399  0.19344782  0.49980011  1
  O  O88  1  0.68770482  0.81769607  0.25090593  1
  O  O89  1  0.70645399  0.80655218  0.49980011  1
  O  O90  1  0.68871691  0.18128610  0.74993566  1
  O  O91  1  0.68871691  0.81871390  0.74993566  1
  O  O92  1  0.79704498  0.29908191  0.12535603  1
  O  O93  1  0.79704498  0.70091809  0.12535603  1
  O  O94  1  0.81077630  0.31668274  0.37457195  1
  O  O95  1  0.80872603  0.31921053  0.62458803  1
  O  O96  1  0.81077630  0.68331726  0.37457195  1
  O  O97  1  0.80872603  0.68078947  0.62458803  1
  O  O98  1  0.81475413  0.31440806  0.87490913  1
  O  O99  1  0.81475413  0.68559194  0.87490913  1
  O  O100  1  0.82150194  0.00000000  0.07726096  1
  O  O101  1  0.81848912  0.00000000  0.32798045  1
  O  O102  1  0.81406037  0.00000000  0.57811341  1
  O  O103  1  0.82167233  0.00000000  0.17411926  1
  O  O104  1  0.81392322  0.00000000  0.42134289  1
  O  O105  1  0.81122201  0.00000000  0.67018491  1
  O  O106  1  0.81270964  0.00000000  0.82979071  1
  O  O107  1  0.81982042  0.00000000  0.92213750  1
  O  O108  1  0.00000000  0.31123794  0.04600796  1
  O  O109  1  0.00000000  0.30884968  0.20560688  1
  O  O110  1  0.00000000  0.28583401  0.70174177  1
  O  O111  1  0.00000000  0.31213038  0.95402538  1
  Ta  Ta112  1  0.24833301  0.74286093  0.18533453  1
  Ta  Ta113  1  0.24774099  0.75057406  0.43925527  1
  Ta  Ta114  1  0.24815242  0.74488271  0.68862636  1
  Ta  Ta115  1  0.25519423  0.74852628  0.93969362  1
  Ta  Ta116  1  0.25224221  0.74678849  0.06164094  1
  Ta  Ta117  1  0.24833301  0.25713907  0.18533453  1
  Ta  Ta118  1  0.25294854  0.74666850  0.31146527  1
  Ta  Ta119  1  0.24774099  0.24942594  0.43925527  1
  Ta  Ta120  1  0.24776528  0.75034229  0.56149029  1
  Ta  Ta121  1  0.24566435  0.74350416  0.81239302  1
  Ta  Ta122  1  0.24815242  0.25511729  0.68862636  1
  Ta  Ta123  1  0.25519423  0.25147372  0.93969362  1
  Ta  Ta124  1  0.25224221  0.25321151  0.06164094  1
  Ta  Ta125  1  0.25294854  0.25333150  0.31146527  1
  Ta  Ta126  1  0.24776528  0.24965771  0.56149029  1
  Ta  Ta127  1  0.24566435  0.25649584  0.81239302  1
  Ta  Ta128  1  0.75166699  0.74286093  0.18533453  1
  Ta  Ta129  1  0.75225901  0.75057406  0.43925527  1
  Ta  Ta130  1  0.75184758  0.74488271  0.68862636  1
  Ta  Ta131  1  0.74480577  0.74852628  0.93969362  1
  Ta  Ta132  1  0.75166699  0.25713907  0.18533453  1
  Ta  Ta133  1  0.74775779  0.74678849  0.06164094  1
  Ta  Ta134  1  0.74705146  0.74666850  0.31146527  1
  Ta  Ta135  1  0.75223472  0.75034229  0.56149029  1
  Ta  Ta136  1  0.75433565  0.74350416  0.81239302  1
  Ta  Ta137  1  0.75225901  0.24942594  0.43925527  1
  Ta  Ta138  1  0.75184758  0.25511729  0.68862636  1
  Ta  Ta139  1  0.74480577  0.25147372  0.93969362  1
  Ta  Ta140  1  0.74775779  0.25321151  0.06164094  1
  Ta  Ta141  1  0.74705146  0.25333150  0.31146527  1
  Ta  Ta142  1  0.75223472  0.24965771  0.56149029  1
  Ta  Ta143  1  0.75433565  0.25649584  0.81239302  1
