# generated using pymatgen
data_LiMo(PO4)2
_symmetry_space_group_name_H-M   'P 1'
_cell_length_a   4.94254187
_cell_length_b   13.03936421
_cell_length_c   10.49696108
_cell_angle_alpha   90.00000000
_cell_angle_beta   99.04401199
_cell_angle_gamma   90.00000000
_symmetry_Int_Tables_number   1
_chemical_formula_structural   LiMo(PO4)2
_chemical_formula_sum   'Li4 Mo4 P8 O32'
_cell_volume   668.09361044
_cell_formula_units_Z   4
loop_
 _symmetry_equiv_pos_site_id
 _symmetry_equiv_pos_as_xyz
  1  'x, y, z'
loop_
 _atom_site_type_symbol
 _atom_site_label
 _atom_site_symmetry_multiplicity
 _atom_site_fract_x
 _atom_site_fract_y
 _atom_site_fract_z
 _atom_site_occupancy
  Li  Li0  1  0.19145844  0.30626990  0.01589739  1
  Li  Li1  1  0.30854156  0.80626990  0.48410161  1
  Li  Li2  1  0.69145944  0.19373010  0.51589739  1
  Li  Li3  1  0.80854156  0.69373010  0.98410261  1
  O  O4  1  0.41709172  0.01210605  0.86500888  1
  O  O5  1  0.89939381  0.32499183  0.11369655  1
  O  O6  1  0.99855561  0.28765636  0.64861020  1
  O  O7  1  0.91709172  0.48789395  0.36500788  1
  O  O8  1  0.01908601  0.84137307  0.75120476  1
  O  O9  1  0.10060719  0.67500917  0.88630245  1
  O  O10  1  0.00144439  0.71234364  0.35139080  1
  O  O11  1  0.08290828  0.51210605  0.63499212  1
  O  O12  1  0.00293726  0.59090547  0.13456630  1
  O  O13  1  0.08205090  0.94761337  0.21534034  1
  O  O14  1  0.25951814  0.19785151  0.84053413  1
  O  O15  1  0.24048286  0.69785151  0.65946687  1
  O  O16  1  0.12513973  0.09704395  0.01520343  1
  O  O17  1  0.98091199  0.15862693  0.24879524  1
  O  O18  1  0.39939381  0.17500817  0.61369755  1
  O  O19  1  0.37486027  0.59704395  0.48479557  1
  O  O20  1  0.48091199  0.34137307  0.74879524  1
  O  O21  1  0.50144439  0.78765636  0.85139080  1
  O  O22  1  0.41794910  0.44761337  0.28465966  1
  O  O23  1  0.49706274  0.09090547  0.36543370  1
  O  O24  1  0.99706374  0.40909453  0.86543270  1
  O  O25  1  0.58204890  0.55238563  0.71534034  1
  O  O26  1  0.49855561  0.21234364  0.14860920  1
  O  O27  1  0.51908601  0.65862693  0.25120376  1
  O  O28  1  0.62513973  0.40295605  0.51520343  1
  O  O29  1  0.60060719  0.82499183  0.38630345  1
  O  O30  1  0.58290828  0.98789395  0.13499112  1
  O  O31  1  0.87486027  0.90295605  0.98479657  1
  O  O32  1  0.75951814  0.30214849  0.34053313  1
  O  O33  1  0.74048286  0.80214849  0.15946687  1
  O  O34  1  0.91794910  0.05238563  0.78465866  1
  O  O35  1  0.50293726  0.90909453  0.63456730  1
  P  P36  1  0.82093412  0.91726934  0.12253345  1
  P  P37  1  0.79447494  0.24986309  0.20106540  1
  P  P38  1  0.70552306  0.74986309  0.29893360  1
  P  P39  1  0.67906688  0.41726934  0.37746555  1
  P  P40  1  0.17906688  0.08273066  0.87746655  1
  P  P41  1  0.20552306  0.75013691  0.79893460  1
  P  P42  1  0.32093412  0.58273066  0.62253345  1
  P  P43  1  0.29447494  0.25013691  0.70106640  1
  Mo  Mo44  1  0.18400930  0.57870730  0.28783933  1
  Mo  Mo45  1  0.31599070  0.07870730  0.21215967  1
  Mo  Mo46  1  0.68400930  0.92129270  0.78784033  1
  Mo  Mo47  1  0.81599070  0.42129270  0.71216067  1
