# generated using pymatgen
data_Li3Mo2(PO4)3
_symmetry_space_group_name_H-M   'P 1'
_cell_length_a   5.01202682
_cell_length_b   5.01201743
_cell_length_c   19.36280474
_cell_angle_alpha   90.11561765
_cell_angle_beta   90.11509145
_cell_angle_gamma   66.27926649
_symmetry_Int_Tables_number   1
_chemical_formula_structural   Li3Mo2(PO4)3
_chemical_formula_sum   'Li6 Mo4 P6 O24'
_cell_volume   445.30689599
_cell_formula_units_Z   2
loop_
 _symmetry_equiv_pos_site_id
 _symmetry_equiv_pos_as_xyz
  1  'x, y, z'
loop_
 _atom_site_type_symbol
 _atom_site_label
 _atom_site_symmetry_multiplicity
 _atom_site_fract_x
 _atom_site_fract_y
 _atom_site_fract_z
 _atom_site_occupancy
  Li  Li0  1  0.00015721  0.00015427  0.50260214  1
  Li  Li1  1  0.33189473  0.33188964  0.57749647  1
  Li  Li2  1  0.33418883  0.33419175  0.90560828  1
  Li  Li3  1  0.66581190  0.66581009  0.42772559  1
  Li  Li4  1  0.66809594  0.66811593  0.75583802  1
  Li  Li5  1  0.99984196  0.99984139  0.83073163  1
  O  O6  1  0.23691132  0.69129031  0.41690993  1
  O  O7  1  0.77237870  0.30184846  0.25171307  1
  O  O8  1  0.75900962  0.30520130  0.58681751  1
  O  O9  1  0.69478441  0.24101846  0.74651120  1
  O  O10  1  0.22762851  0.69815261  0.08162098  1
  O  O11  1  0.30185764  0.77237064  0.25171118  1
  O  O12  1  0.30521502  0.75898539  0.58681918  1
  O  O13  1  0.24098267  0.69479817  0.74651477  1
  O  O14  1  0.69814675  0.22762727  0.08162291  1
  O  O15  1  0.30870293  0.76310081  0.91642620  1
  O  O16  1  0.24405390  0.24406285  0.35319394  1
  O  O17  1  0.24557337  0.24558484  0.14213341  1
  O  O18  1  0.25406548  0.25406455  0.67859915  1
  O  O19  1  0.24716210  0.24714628  0.81030937  1
  O  O20  1  0.76309051  0.30870846  0.91642527  1
  O  O21  1  0.26199007  0.26198801  0.00962925  1
  O  O22  1  0.73800874  0.73801809  0.32370451  1
  O  O23  1  0.75146965  0.75146544  0.84905787  1
  O  O24  1  0.75284822  0.75284670  0.52301927  1
  O  O25  1  0.74592980  0.74593518  0.65473105  1
  O  O26  1  0.75442559  0.75441905  0.19120032  1
  O  O27  1  0.75594000  0.75594401  0.98014019  1
  O  O28  1  0.69129693  0.23689678  0.41690723  1
  O  O29  1  0.24853569  0.24852964  0.48427610  1
  P  P30  1  0.65313025  0.65313551  0.91454863  1
  P  P31  1  0.64794840  0.64794744  0.58646284  1
  P  P32  1  0.64784435  0.64783560  0.25436625  1
  P  P33  1  0.35204571  0.35205004  0.74687126  1
  P  P34  1  0.35216007  0.35216393  0.07896673  1
  P  P35  1  0.34687254  0.34686351  0.41878495  1
  Mo  Mo36  1  0.00000318  0.99999899  0.16666702  1
  Mo  Mo37  1  0.99999903  -0.00000070  0.66666591  1
  Mo  Mo38  1  0.00345825  0.00346876  0.99556499  1
  Mo  Mo39  1  0.99654503  0.99652953  0.33776944  1
