# generated using pymatgen
data_Ti5Fe11O24
_symmetry_space_group_name_H-M   'P 1'
_cell_length_a   11.06396794
_cell_length_b   14.97935216
_cell_length_c   9.82018822
_cell_angle_alpha   26.40909703
_cell_angle_beta   49.98828703
_cell_angle_gamma   37.47981229
_symmetry_Int_Tables_number   1
_chemical_formula_structural   Ti5Fe11O24
_chemical_formula_sum   'Ti5 Fe11 O24'
_cell_volume   426.41876246
_cell_formula_units_Z   1
loop_
 _symmetry_equiv_pos_site_id
 _symmetry_equiv_pos_as_xyz
  1  'x, y, z'
loop_
 _atom_site_type_symbol
 _atom_site_label
 _atom_site_symmetry_multiplicity
 _atom_site_fract_x
 _atom_site_fract_y
 _atom_site_fract_z
 _atom_site_occupancy
  Ti  Ti0  1  0.17833417  0.50956105  0.83841500  1
  Ti  Ti1  1  0.17970624  0.00578155  0.34532474  1
  Ti  Ti2  1  0.68731938  0.50495665  0.83377158  1
  Ti  Ti3  1  0.41479315  0.00805550  0.85482248  1
  Ti  Ti4  1  0.92120237  0.99090120  0.87520282  1
  Fe  Fe5  1  0.32026103  0.00487135  0.64235124  1
  Fe  Fe6  1  0.32477482  0.49984542  0.14363829  1
  Fe  Fe7  1  0.07588987  0.49513963  0.66020454  1
  Fe  Fe8  1  0.42803983  0.49712382  0.35647305  1
  Fe  Fe9  1  0.81770986  0.00098239  0.64870697  1
  Fe  Fe10  1  0.06689703  0.99582423  0.14956595  1
  Fe  Fe11  1  0.82516207  0.50005501  0.14393866  1
  Fe  Fe12  1  0.57965582  0.49402987  0.64492869  1
  Fe  Fe13  1  0.92625827  0.50085696  0.35606484  1
  Fe  Fe14  1  0.57531073  0.99954030  0.15479324  1
  Fe  Fe15  1  0.67612022  0.00147282  0.35222843  1
  O  O16  1  0.27291995  0.18118580  0.07857146  1
  O  O17  1  0.11153507  0.34923688  0.22890353  1
  O  O18  1  0.16458219  0.14533439  0.74215573  1
  O  O19  1  0.02702249  0.71078824  0.03895999  1
  O  O20  1  0.45233331  0.15168434  0.44380468  1
  O  O21  1  0.30961418  0.33194626  0.56311341  1
  O  O22  1  0.76033830  0.20559879  0.06213734  1
  O  O23  1  0.60345047  0.35521848  0.23585952  1
  O  O24  1  0.21833714  0.62031271  0.47828037  1
  O  O25  1  0.65653272  0.14995609  0.74118773  1
  O  O26  1  0.05606419  0.82747393  0.58366454  1
  O  O27  1  0.52717830  0.69374268  0.05919441  1
  O  O28  1  0.45656423  0.30718740  0.95597468  1
  O  O29  1  0.96064098  0.15190723  0.42981279  1
  O  O30  1  0.34539745  0.87036453  0.22369739  1
  O  O31  1  0.81267877  0.32528234  0.56051586  1
  O  O32  1  0.37796708  0.67778383  0.73225710  1
  O  O33  1  0.21284895  0.81038366  0.94758003  1
  O  O34  1  0.70263710  0.64459440  0.46779769  1
  O  O35  1  0.55292202  0.83306195  0.57683302  1
  O  O36  1  0.95840902  0.31083359  0.95469692  1
  O  O37  1  0.85637571  0.86072393  0.23352890  1
  O  O38  1  0.89698243  0.65817556  0.74490421  1
  O  O39  1  0.70892210  0.81321222  0.94079318  1
