# generated using pymatgen
data_MnP2O7
_symmetry_space_group_name_H-M   'P 1'
_cell_length_a   6.84287539
_cell_length_b   7.92962952
_cell_length_c   9.59613126
_cell_angle_alpha   90.00000000
_cell_angle_beta   66.58784970
_cell_angle_gamma   90.00000000
_symmetry_Int_Tables_number   1
_chemical_formula_structural   MnP2O7
_chemical_formula_sum   'Mn4 P8 O28'
_cell_volume   477.83111357
_cell_formula_units_Z   4
loop_
 _symmetry_equiv_pos_site_id
 _symmetry_equiv_pos_as_xyz
  1  'x, y, z'
loop_
 _atom_site_type_symbol
 _atom_site_label
 _atom_site_symmetry_multiplicity
 _atom_site_fract_x
 _atom_site_fract_y
 _atom_site_fract_z
 _atom_site_occupancy
  Mn  Mn0  1  0.21317562  0.72229158  0.50758558  1
  Mn  Mn1  1  0.71317562  0.77770842  0.00758558  1
  Mn  Mn2  1  0.28682438  0.22229158  0.99241442  1
  Mn  Mn3  1  0.78682438  0.27770842  0.49241442  1
  O  O4  1  0.02513310  0.88506546  0.20452740  1
  O  O5  1  0.09866714  0.26145425  0.39021120  1
  O  O6  1  0.26894728  0.40622893  0.12838035  1
  O  O7  1  0.16025735  0.57935023  0.36650415  1
  O  O8  1  0.33974265  0.07935023  0.13349585  1
  O  O9  1  0.23105272  0.90622893  0.37161965  1
  O  O10  1  0.40133286  0.76145425  0.10978880  1
  O  O11  1  0.01161994  0.82484924  0.90641570  1
  O  O12  1  0.20074352  0.54991191  0.65459655  1
  O  O13  1  0.25732802  0.89773489  0.63396509  1
  O  O14  1  0.47486690  0.38506546  0.29547260  1
  O  O15  1  0.24267198  0.39773489  0.86603491  1
  O  O16  1  0.51161994  0.67515076  0.40641570  1
  O  O17  1  0.29925648  0.04991191  0.84540345  1
  O  O18  1  0.70074352  0.95008809  0.15459655  1
  O  O19  1  0.48838006  0.32484924  0.59358430  1
  O  O20  1  0.75732802  0.60226511  0.13396509  1
  O  O21  1  0.52513310  0.61493454  0.70452740  1
  O  O22  1  0.74267198  0.10226511  0.36603491  1
  O  O23  1  0.79925648  0.45008809  0.34540345  1
  O  O24  1  0.98838006  0.17515076  0.09358430  1
  O  O25  1  0.59866714  0.23854575  0.89021120  1
  O  O26  1  0.76894728  0.09377107  0.62838035  1
  O  O27  1  0.66025735  0.92064977  0.86650415  1
  O  O28  1  0.83974265  0.42064977  0.63349585  1
  O  O29  1  0.73105272  0.59377107  0.87161965  1
  O  O30  1  0.90133286  0.73854575  0.60978880  1
  O  O31  1  0.97486690  0.11493454  0.79547260  1
  P  P32  1  0.25999450  0.90555980  0.20469592  1
  P  P33  1  0.24000550  0.40555980  0.29530408  1
  P  P34  1  0.13662265  0.96503736  0.79494941  1
  P  P35  1  0.36337735  0.46503736  0.70505059  1
  P  P36  1  0.63662265  0.53496264  0.29494941  1
  P  P37  1  0.86337735  0.03496264  0.20505059  1
  P  P38  1  0.75999450  0.59444020  0.70469592  1
  P  P39  1  0.74000550  0.09444020  0.79530408  1
