# generated using pymatgen
data_Li3V(PO4)2
_symmetry_space_group_name_H-M   'P 1'
_cell_length_a   4.93236167
_cell_length_b   8.86573069
_cell_length_c   6.50284392
_cell_angle_alpha   90.00000000
_cell_angle_beta   94.29181761
_cell_angle_gamma   90.00000000
_symmetry_Int_Tables_number   1
_chemical_formula_structural   Li3V(PO4)2
_chemical_formula_sum   'Li6 V2 P4 O16'
_cell_volume   283.56539718
_cell_formula_units_Z   2
loop_
 _symmetry_equiv_pos_site_id
 _symmetry_equiv_pos_as_xyz
  1  'x, y, z'
loop_
 _atom_site_type_symbol
 _atom_site_label
 _atom_site_symmetry_multiplicity
 _atom_site_fract_x
 _atom_site_fract_y
 _atom_site_fract_z
 _atom_site_occupancy
  Li  Li0  1  0.01388784  0.13877057  0.69013313  1
  Li  Li1  1  0.00000000  0.50000000  0.00000000  1
  Li  Li2  1  0.48611116  0.63877057  0.80986687  1
  Li  Li3  1  0.50000100  0.00000000  0.50000000  1
  Li  Li4  1  0.51388884  0.36122943  0.19013413  1
  Li  Li5  1  0.98611216  0.86122943  0.30986587  1
  O  O6  1  0.28278174  0.85641920  0.80833215  1
  O  O7  1  0.15327991  0.09797171  0.40836978  1
  O  O8  1  0.21721926  0.35641920  0.69166785  1
  O  O9  1  0.16859273  0.13357497  0.02196603  1
  O  O10  1  0.07138426  0.35583774  0.24529937  1
  O  O11  1  0.33140827  0.63357597  0.47803397  1
  O  O12  1  0.34671909  0.59797171  0.09163022  1
  O  O13  1  0.42861674  0.85583774  0.25470063  1
  O  O14  1  0.92861574  0.64416326  0.75470063  1
  O  O15  1  0.65328091  0.40202929  0.90837078  1
  O  O16  1  0.66859173  0.36642503  0.52196603  1
  O  O17  1  0.71721726  0.14358080  0.19166885  1
  O  O18  1  0.83140727  0.86642503  0.97803297  1
  O  O19  1  0.78278074  0.64358080  0.30833115  1
  O  O20  1  0.84672009  0.90202929  0.59163022  1
  O  O21  1  0.57138326  0.14416226  0.74529837  1
  P  P22  1  0.02849049  0.18146293  0.22027916  1
  P  P23  1  0.47150851  0.68146293  0.27971884  1
  P  P24  1  0.52849149  0.31853707  0.72028016  1
  P  P25  1  0.97150951  0.81853607  0.77971984  1
  V  V26  1  0.00000000  0.50000000  0.50000000  1
  V  V27  1  0.50000100  0.00000000  0.00000100  1
