# generated using pymatgen
data_MnP2O7
_symmetry_space_group_name_H-M   'P 1'
_cell_length_a   6.20518871
_cell_length_b   6.20500585
_cell_length_c   13.00418789
_cell_angle_alpha   79.30020368
_cell_angle_beta   77.63697857
_cell_angle_gamma   99.33748836
_symmetry_Int_Tables_number   1
_chemical_formula_structural   MnP2O7
_chemical_formula_sum   'Mn4 P8 O28'
_cell_volume   469.82513935
_cell_formula_units_Z   4
loop_
 _symmetry_equiv_pos_site_id
 _symmetry_equiv_pos_as_xyz
  1  'x, y, z'
loop_
 _atom_site_type_symbol
 _atom_site_label
 _atom_site_symmetry_multiplicity
 _atom_site_fract_x
 _atom_site_fract_y
 _atom_site_fract_z
 _atom_site_occupancy
  Mn  Mn0  1  0.26719575  0.12137297  0.14279474  1
  Mn  Mn1  1  0.23584506  0.59000585  0.64278219  1
  Mn  Mn2  1  0.76415494  0.40999415  0.35721781  1
  Mn  Mn3  1  0.73280425  0.87862703  0.85720526  1
  O  O4  1  0.21914519  0.80931994  0.13543112  1
  O  O5  1  0.08405068  0.47249676  0.35468719  1
  O  O6  1  0.12842039  0.02569269  0.29776601  1
  O  O7  1  0.03112985  0.88251780  0.88149344  1
  O  O8  1  0.08828620  0.19474272  0.51861405  1
  O  O9  1  0.32725626  0.43876450  0.14528572  1
  O  O10  1  0.26409897  0.91264068  0.61848371  1
  O  O11  1  0.29810578  0.59854538  0.49008246  1
  O  O12  1  0.17661763  0.57379835  0.79774326  1
  O  O13  1  0.58862911  0.78829471  0.00991534  1
  O  O14  1  0.23631491  0.27395497  0.67634765  1
  O  O15  1  0.21340372  0.60692612  0.98137167  1
  O  O16  1  0.44476150  0.35459433  0.36457829  1
  O  O17  1  0.54966517  0.08728618  0.17636368  1
  O  O18  1  0.45033483  0.91271382  0.82363632  1
  O  O19  1  0.55523850  0.64540567  0.63542171  1
  O  O20  1  0.78659628  0.39307388  0.01862833  1
  O  O21  1  0.76368509  0.72604503  0.32365235  1
  O  O22  1  0.41137089  0.21170529  0.99008466  1
  O  O23  1  0.82338237  0.42620165  0.20225674  1
  O  O24  1  0.70189422  0.40145462  0.50991754  1
  O  O25  1  0.73590103  0.08735932  0.38151629  1
  O  O26  1  0.67274374  0.56123550  0.85471428  1
  O  O27  1  0.91171380  0.80525728  0.48138595  1
  O  O28  1  0.96887015  0.11748220  0.11850656  1
  O  O29  1  0.87157961  0.97430731  0.70223399  1
  O  O30  1  0.91594932  0.52750324  0.64531281  1
  O  O31  1  0.78085481  0.19068006  0.86456888  1
  P  P32  1  0.34396933  0.66606080  0.06996146  1
  P  P33  1  0.23599213  0.41391785  0.43002025  1
  P  P34  1  0.11340604  0.08258004  0.63629763  1
  P  P35  1  0.21893458  0.74970932  0.86367896  1
  P  P36  1  0.78106542  0.25029068  0.13632104  1
  P  P37  1  0.88659396  0.91741996  0.36370237  1
  P  P38  1  0.76400787  0.58608215  0.56997975  1
  P  P39  1  0.65603067  0.33393920  0.93003854  1
