# generated using pymatgen
data_Li2V(PO4)2
_symmetry_space_group_name_H-M   'P 1'
_cell_length_a   7.59953760
_cell_length_b   7.84978627
_cell_length_c   5.06331541
_cell_angle_alpha   90.00000000
_cell_angle_beta   93.94633572
_cell_angle_gamma   90.00000000
_symmetry_Int_Tables_number   1
_chemical_formula_structural   Li2V(PO4)2
_chemical_formula_sum   'Li4 V2 P4 O16'
_cell_volume   301.33461593
_cell_formula_units_Z   2
loop_
 _symmetry_equiv_pos_site_id
 _symmetry_equiv_pos_as_xyz
  1  'x, y, z'
loop_
 _atom_site_type_symbol
 _atom_site_label
 _atom_site_symmetry_multiplicity
 _atom_site_fract_x
 _atom_site_fract_y
 _atom_site_fract_z
 _atom_site_occupancy
  Li  Li0  1  0.40426916  0.86608656  0.89779012  1
  Li  Li1  1  0.09573084  0.36608656  0.60220988  1
  Li  Li2  1  0.90426916  0.63391344  0.39779012  1
  Li  Li3  1  0.59573084  0.13391344  0.10220988  1
  V  V4  1  0.00000000  0.00000000  0.50000000  1
  V  V5  1  0.50000000  0.50000000  0.00000000  1
  P  P6  1  0.20197352  0.18811953  0.03850239  1
  P  P7  1  0.70197352  0.31188047  0.53850239  1
  P  P8  1  0.79802648  0.81188047  0.96149761  1
  P  P9  1  0.29802648  0.68811953  0.46149761  1
  O  O10  1  0.14619387  0.56736852  0.43534632  1
  O  O11  1  0.64619387  0.93263148  0.93534632  1
  O  O12  1  0.25993395  0.37317627  0.96691829  1
  O  O13  1  0.89809955  0.81703590  0.69706100  1
  O  O14  1  0.75993395  0.12682373  0.46691829  1
  O  O15  1  0.74006605  0.62682373  0.03308171  1
  O  O16  1  0.55801404  0.36015641  0.31358942  1
  O  O17  1  0.85380613  0.43263148  0.56465368  1
  O  O18  1  0.05801404  0.13984359  0.81358942  1
  O  O19  1  0.10190045  0.18296410  0.30293900  1
  O  O20  1  0.60190045  0.31703590  0.80293900  1
  O  O21  1  0.44198596  0.63984359  0.68641058  1
  O  O22  1  0.35380613  0.06736852  0.06465368  1
  O  O23  1  0.24006605  0.87317627  0.53308171  1
  O  O24  1  0.39809955  0.68296410  0.19706100  1
  O  O25  1  0.94198596  0.86015641  0.18641058  1
