# generated using pymatgen
data_Li2Mo(PO4)2
_symmetry_space_group_name_H-M   'P 1'
_cell_length_a   5.07503383
_cell_length_b   8.53150953
_cell_length_c   7.37103153
_cell_angle_alpha   90.00011806
_cell_angle_beta   97.76835402
_cell_angle_gamma   89.99992575
_symmetry_Int_Tables_number   1
_chemical_formula_structural   Li2Mo(PO4)2
_chemical_formula_sum   'Li4 Mo2 P4 O16'
_cell_volume   316.21976819
_cell_formula_units_Z   2
loop_
 _symmetry_equiv_pos_site_id
 _symmetry_equiv_pos_as_xyz
  1  'x, y, z'
loop_
 _atom_site_type_symbol
 _atom_site_label
 _atom_site_symmetry_multiplicity
 _atom_site_fract_x
 _atom_site_fract_y
 _atom_site_fract_z
 _atom_site_occupancy
  Li  Li0  1  0.47656771  0.01277391  0.53983671  1
  Li  Li1  1  0.52320472  0.35441813  0.12268087  1
  Li  Li2  1  0.02343067  0.51277382  0.96016301  1
  Li  Li3  1  0.97679575  0.85441910  0.37731895  1
  O  O4  1  0.22783033  0.17100504  0.07235530  1
  O  O5  1  0.79562544  0.89652525  0.58824326  1
  O  O6  1  0.04953848  0.34764132  0.29490875  1
  O  O7  1  0.15726613  0.06054489  0.38461247  1
  O  O8  1  0.27778753  0.39278994  0.69117033  1
  O  O9  1  0.96683199  0.64415710  0.73712201  1
  O  O10  1  0.22221125  0.89279019  0.80882925  1
  O  O11  1  0.27216996  0.67100563  0.42764464  1
  O  O12  1  0.34273439  0.56054332  0.11538771  1
  O  O13  1  0.74276407  0.63003239  0.33889823  1
  O  O14  1  0.53316886  0.14415672  0.76287721  1
  O  O15  1  0.70437495  0.39652456  0.91175788  1
  O  O16  1  0.71365977  0.34856929  0.56720186  1
  O  O17  1  0.75723725  0.13003265  0.16110244  1
  O  O18  1  0.78633894  0.84856879  0.93279887  1
  O  O19  1  0.45046180  0.84764051  0.20509172  1
  P  P20  1  0.93347088  0.82435935  0.76258757  1
  P  P21  1  0.56653052  0.32435892  0.73741225  1
  P  P22  1  0.05351856  0.17331164  0.23383919  1
  P  P23  1  0.44648074  0.67331183  0.26616044  1
  Mo  Mo24  1  0.00940176  0.49957153  0.51046941  1
  Mo  Mo25  1  0.49059855  0.99957118  0.98953067  1
