# generated using pymatgen
data_Li2Cr3(P2O7)2
_symmetry_space_group_name_H-M   'P 1'
_cell_length_a   6.09204839
_cell_length_b   6.64849644
_cell_length_c   7.46470497
_cell_angle_alpha   75.27069402
_cell_angle_beta   77.54137463
_cell_angle_gamma   71.69815162
_symmetry_Int_Tables_number   1
_chemical_formula_structural   Li2Cr3(P2O7)2
_chemical_formula_sum   'Li2 Cr3 P4 O14'
_cell_volume   274.55855259
_cell_formula_units_Z   1
loop_
 _symmetry_equiv_pos_site_id
 _symmetry_equiv_pos_as_xyz
  1  'x, y, z'
loop_
 _atom_site_type_symbol
 _atom_site_label
 _atom_site_symmetry_multiplicity
 _atom_site_fract_x
 _atom_site_fract_y
 _atom_site_fract_z
 _atom_site_occupancy
  Li  Li0  1  0.61466861  0.02693622  0.69954603  1
  Li  Li1  1  0.38533139  0.97306278  0.30045297  1
  O  O2  1  0.34388359  0.29013089  0.13719160  1
  O  O3  1  0.59435812  0.21915650  0.43930522  1
  O  O4  1  0.93800350  0.35602641  0.44367386  1
  O  O5  1  0.06199650  0.64397459  0.55632514  1
  O  O6  1  0.24107758  0.17314150  0.87136780  1
  O  O7  1  0.75892242  0.82685950  0.12863220  1
  O  O8  1  0.99821364  0.94055128  0.73773177  1
  O  O9  1  0.00178636  0.05944772  0.26226923  1
  O  O10  1  0.39668797  0.71139493  0.18272381  1
  O  O11  1  0.65611641  0.70987011  0.86280840  1
  O  O12  1  0.40564088  0.78084350  0.56069578  1
  O  O13  1  0.60331403  0.28860407  0.81727519  1
  O  O14  1  0.78720704  0.42914708  0.13605967  1
  O  O15  1  0.21279196  0.57085392  0.86393933  1
  P  P16  1  0.17459873  0.74642054  0.66744532  1
  P  P17  1  0.35382315  0.32058717  0.92598309  1
  P  P18  1  0.64617685  0.67941283  0.07401791  1
  P  P19  1  0.82540227  0.25357946  0.33255368  1
  Cr  Cr20  1  0.78054918  0.51153450  0.66973454  1
  Cr  Cr21  1  0.21945182  0.48846550  0.33026446  1
  Cr  Cr22  1  0.00000000  0.00000000  0.00000000  1
