# generated using pymatgen
data_LiCrPO5
_symmetry_space_group_name_H-M   'P 1'
_cell_length_a   6.82368190
_cell_length_b   6.97617935
_cell_length_c   8.02554905
_cell_angle_alpha   89.66782873
_cell_angle_beta   91.41404014
_cell_angle_gamma   116.26946064
_symmetry_Int_Tables_number   1
_chemical_formula_structural   LiCrPO5
_chemical_formula_sum   'Li4 Cr4 P4 O20'
_cell_volume   342.47576469
_cell_formula_units_Z   4
loop_
 _symmetry_equiv_pos_site_id
 _symmetry_equiv_pos_as_xyz
  1  'x, y, z'
loop_
 _atom_site_type_symbol
 _atom_site_label
 _atom_site_symmetry_multiplicity
 _atom_site_fract_x
 _atom_site_fract_y
 _atom_site_fract_z
 _atom_site_occupancy
  Cr  Cr0  1  0.24682494  0.99694867  0.75174853  1
  Cr  Cr1  1  0.24732838  0.49626578  0.74912261  1
  Cr  Cr2  1  0.75267162  0.50373422  0.25087739  1
  Cr  Cr3  1  0.75317506  0.00305133  0.24825147  1
  Li  Li4  1  0.30146296  0.78633090  0.43208110  1
  Li  Li5  1  0.20815096  0.26305630  0.06933260  1
  Li  Li6  1  0.79184904  0.73694370  0.93066740  1
  Li  Li7  1  0.69853704  0.21366910  0.56791890  1
  O  O8  1  0.13940069  0.87066316  0.97567395  1
  O  O9  1  0.07603987  0.64483062  0.23623923  1
  O  O10  1  0.23769784  0.74496240  0.67899316  1
  O  O11  1  0.27196858  0.57959566  0.99158425  1
  O  O12  1  0.22133361  0.40946027  0.51174220  1
  O  O13  1  0.44410938  0.90907606  0.18321401  1
  O  O14  1  0.05857012  0.09082763  0.31234316  1
  O  O15  1  0.26375758  0.25476099  0.82363209  1
  O  O16  1  0.64513199  0.88271646  0.47759225  1
  O  O17  1  0.42801927  0.35857406  0.26837987  1
  O  O18  1  0.57198073  0.64142594  0.73162013  1
  O  O19  1  0.35486801  0.11728354  0.52240775  1
  O  O20  1  0.73624242  0.74523901  0.17636791  1
  O  O21  1  0.94142988  0.90917237  0.68765684  1
  O  O22  1  0.55589062  0.09092394  0.81678599  1
  O  O23  1  0.77866639  0.59053973  0.48825780  1
  O  O24  1  0.72803142  0.42040434  0.00841575  1
  O  O25  1  0.76230216  0.25503760  0.32100684  1
  O  O26  1  0.92396013  0.35516938  0.76376077  1
  O  O27  1  0.86059931  0.12933684  0.02432605  1
  P  P28  1  0.23462043  0.75006434  0.09045161  1
  P  P29  1  0.26560033  0.24648088  0.41009118  1
  P  P30  1  0.73439967  0.75351912  0.58990882  1
  P  P31  1  0.76537957  0.24993666  0.90954839  1
