# generated using pymatgen
data_Bi14PdBr16
_symmetry_space_group_name_H-M   'P 1'
_cell_length_a   11.11881740
_cell_length_b   11.26508658
_cell_length_c   11.32049327
_cell_angle_alpha   118.50548382
_cell_angle_beta   108.53276225
_cell_angle_gamma   92.00914528
_symmetry_Int_Tables_number   1
_chemical_formula_structural   Bi14PdBr16
_chemical_formula_sum   'Bi14 Pd1 Br16'
_cell_volume   1151.37179794
_cell_formula_units_Z   1
loop_
 _symmetry_equiv_pos_site_id
 _symmetry_equiv_pos_as_xyz
  1  'x, y, z'
loop_
 _atom_site_type_symbol
 _atom_site_label
 _atom_site_symmetry_multiplicity
 _atom_site_fract_x
 _atom_site_fract_y
 _atom_site_fract_z
 _atom_site_occupancy
  Bi  Bi0  1  0.24784939  0.89670244  0.99441499  1
  Bi  Bi1  1  0.75215061  0.10329756  0.00558501  1
  Bi  Bi2  1  0.16765959  0.11639086  0.89909184  1
  Bi  Bi3  1  0.83234041  0.88360914  0.10090816  1
  Bi  Bi4  1  0.01287744  0.30163861  0.09147767  1
  Bi  Bi5  1  0.98712256  0.69836139  0.90852233  1
  Bi  Bi6  1  0.99371221  0.19032593  0.29547350  1
  Bi  Bi7  1  0.00628779  0.80967407  0.70452650  1
  Bi  Bi8  1  0.13545381  0.93674500  0.23425279  1
  Bi  Bi9  1  0.86454619  0.06325500  0.76574721  1
  Bi  Bi10  1  0.61816748  0.33760962  0.47008880  1
  Bi  Bi11  1  0.38183252  0.66239038  0.52991120  1
  Bi  Bi12  1  0.65459817  0.60295554  0.21550804  1
  Bi  Bi13  1  0.34540183  0.39704446  0.78449196  1
  Pd  Pd14  1  0.00000000  0.00000000  0.00000000  1
  Br  Br15  1  0.57381895  0.07956822  0.21715600  1
  Br  Br16  1  0.42618105  0.92043178  0.78284400  1
  Br  Br17  1  0.85677295  0.32422897  0.63353212  1
  Br  Br18  1  0.14322705  0.67577103  0.36646788  1
  Br  Br19  1  0.47986919  0.21604700  0.56659236  1
  Br  Br20  1  0.52013081  0.78395300  0.43340764  1
  Br  Br21  1  0.37378370  0.38559773  0.29658047  1
  Br  Br22  1  0.62621630  0.61440227  0.70341953  1
  Br  Br23  1  0.79181946  0.48796459  0.38792673  1
  Br  Br24  1  0.20818054  0.51203541  0.61207327  1
  Br  Br25  1  0.80267307  0.52653249  0.04881523  1
  Br  Br26  1  0.19732693  0.47346751  0.95118477  1
  Br  Br27  1  0.50693890  0.69000912  0.01994336  1
  Br  Br28  1  0.49306110  0.30999088  0.98005664  1
  Br  Br29  1  0.83299952  0.85677175  0.39859084  1
  Br  Br30  1  0.16700048  0.14322825  0.60140916  1
