# generated using pymatgen
data_Li3V(PO4)2
_symmetry_space_group_name_H-M   'P 1'
_cell_length_a   4.92223042
_cell_length_b   17.95289317
_cell_length_c   6.42611687
_cell_angle_alpha   90.00000000
_cell_angle_beta   92.82784889
_cell_angle_gamma   90.00000000
_symmetry_Int_Tables_number   1
_chemical_formula_structural   Li3V(PO4)2
_chemical_formula_sum   'Li12 V4 P8 O32'
_cell_volume   567.17337217
_cell_formula_units_Z   4
loop_
 _symmetry_equiv_pos_site_id
 _symmetry_equiv_pos_as_xyz
  1  'x, y, z'
loop_
 _atom_site_type_symbol
 _atom_site_label
 _atom_site_symmetry_multiplicity
 _atom_site_fract_x
 _atom_site_fract_y
 _atom_site_fract_z
 _atom_site_occupancy
  Li  Li0  1  0.78178476  0.12033749  0.49754319  1
  Li  Li1  1  0.76255683  0.44771185  0.78765738  1
  Li  Li2  1  0.28178476  0.37966251  0.99754319  1
  Li  Li3  1  0.26255683  0.05228815  0.28765738  1
  Li  Li4  1  0.73744317  0.94771185  0.71234262  1
  Li  Li5  1  0.21821524  0.87966251  0.50245681  1
  Li  Li6  1  0.69027747  0.80174439  0.31069051  1
  Li  Li7  1  0.23744317  0.55228815  0.21234262  1
  Li  Li8  1  0.19027747  0.69825561  0.81069051  1
  Li  Li9  1  0.80972253  0.30174439  0.18930949  1
  Li  Li10  1  0.71821524  0.62033749  0.00245681  1
  Li  Li11  1  0.30972253  0.19825561  0.68930949  1
  V  V12  1  0.29899473  0.37286361  0.48477429  1
  V  V13  1  0.70100527  0.62713639  0.51522571  1
  V  V14  1  0.20100527  0.87286361  0.01522571  1
  V  V15  1  0.79899473  0.12713639  0.98477429  1
  P  P16  1  0.22308169  0.53558059  0.72969382  1
  P  P17  1  0.67714287  0.78528949  0.78656308  1
  P  P18  1  0.82285713  0.28528949  0.71343692  1
  P  P19  1  0.72308169  0.96441941  0.22969382  1
  P  P20  1  0.77691831  0.46441941  0.27030618  1
  P  P21  1  0.17714287  0.71471051  0.28656308  1
  P  P22  1  0.27691831  0.03558059  0.77030618  1
  P  P23  1  0.32285713  0.21471051  0.21343692  1
  O  O24  1  0.86990825  0.93483856  0.42502164  1
  O  O25  1  0.96734800  0.30950594  0.51219486  1
  O  O26  1  0.35799677  0.56628942  0.53221441  1
  O  O27  1  0.01070094  0.19855544  0.18366320  1
  O  O28  1  0.93850620  0.32739159  0.90315369  1
  O  O29  1  0.48929906  0.69855544  0.31633680  1
  O  O30  1  0.46734800  0.19049406  0.01219486  1
  O  O31  1  0.03265200  0.69049406  0.48780514  1
  O  O32  1  0.12237862  0.80073614  0.26579897  1
  O  O33  1  0.62237862  0.69926386  0.76579897  1
  O  O34  1  0.64200323  0.43371058  0.46778559  1
  O  O35  1  0.56149380  0.82739159  0.59684631  1
  O  O36  1  0.53265200  0.80950594  0.98780514  1
  O  O37  1  0.41508878  0.93971611  0.22615009  1
  O  O38  1  0.98929906  0.80144456  0.81633680  1
  O  O39  1  0.43850620  0.17260841  0.40315369  1
  O  O40  1  0.51070094  0.30144456  0.68366320  1
  O  O41  1  0.21822913  0.44818692  0.72633985  1
  O  O42  1  0.91508878  0.56028389  0.72615009  1
  O  O43  1  0.14200323  0.06628942  0.96778559  1
  O  O44  1  0.13009175  0.06516144  0.57497836  1
  O  O45  1  0.58491122  0.06028389  0.77384991  1
  O  O46  1  0.37762138  0.30073614  0.23420103  1
  O  O47  1  0.63009175  0.43483856  0.07497836  1
  O  O48  1  0.28177087  0.94818692  0.77366015  1
  O  O49  1  0.85799677  0.93371058  0.03221441  1
  O  O50  1  0.71822913  0.05181308  0.22633985  1
  O  O51  1  0.36990825  0.56516144  0.92502164  1
  O  O52  1  0.06149380  0.67260841  0.09684631  1
  O  O53  1  0.87762138  0.19926386  0.73420103  1
  O  O54  1  0.08491122  0.43971611  0.27384991  1
  O  O55  1  0.78177087  0.55181308  0.27366015  1
