# generated using pymatgen
data_U(Al2Cr)4
_symmetry_space_group_name_H-M   'P 1'
_cell_length_a   4.99818370
_cell_length_b   6.75254939
_cell_length_c   6.75254939
_cell_angle_alpha   82.12738627
_cell_angle_beta   68.27845905
_cell_angle_gamma   68.27845903
_symmetry_Int_Tables_number   1
_chemical_formula_structural   U(Al2Cr)4
_chemical_formula_sum   'U1 Al8 Cr4'
_cell_volume   196.68584182
_cell_formula_units_Z   1
loop_
 _symmetry_equiv_pos_site_id
 _symmetry_equiv_pos_as_xyz
  1  'x, y, z'
loop_
 _atom_site_type_symbol
 _atom_site_label
 _atom_site_symmetry_multiplicity
 _atom_site_fract_x
 _atom_site_fract_y
 _atom_site_fract_z
 _atom_site_occupancy
  Al  Al0  1  0.34186845  0.65813155  0.65813155  1
  Al  Al1  1  0.00000000  0.34186845  0.65813155  1
  Al  Al2  1  0.00000000  0.65813155  0.34186845  1
  Al  Al3  1  0.65813155  0.34186845  0.34186845  1
  Al  Al4  1  0.28321104  0.21678896  0.21678896  1
  Al  Al5  1  0.50000000  0.78321104  0.21678896  1
  Al  Al6  1  0.50000000  0.21678896  0.78321104  1
  Al  Al7  1  0.71678896  0.78321104  0.78321104  1
  Cr  Cr8  1  0.50000000  0.00000000  0.50000000  1
  Cr  Cr9  1  0.00000000  0.50000000  0.00000000  1
  Cr  Cr10  1  0.50000000  0.50000000  0.00000000  1
  Cr  Cr11  1  0.00000000  0.00000000  0.50000000  1
  U  U12  1  0.00000000  0.00000000  0.00000000  1
