# generated using pymatgen
data_NaSbCO2F3
_symmetry_space_group_name_H-M   'P 1'
_cell_length_a   6.42600346
_cell_length_b   8.49297265
_cell_length_c   9.32751670
_cell_angle_alpha   96.47947733
_cell_angle_beta   110.14913470
_cell_angle_gamma   89.99999902
_symmetry_Int_Tables_number   1
_chemical_formula_structural   NaSbCO2F3
_chemical_formula_sum   'Na4 Sb4 C4 O8 F12'
_cell_volume   474.43747135
_cell_formula_units_Z   4
loop_
 _symmetry_equiv_pos_site_id
 _symmetry_equiv_pos_as_xyz
  1  'x, y, z'
loop_
 _atom_site_type_symbol
 _atom_site_label
 _atom_site_symmetry_multiplicity
 _atom_site_fract_x
 _atom_site_fract_y
 _atom_site_fract_z
 _atom_site_occupancy
  Na  Na0  1  0.32615973  0.82380866  0.42062881  1
  Na  Na1  1  0.09446908  0.32380866  0.42062881  1
  Na  Na2  1  0.90553092  0.67619134  0.57937119  1
  Na  Na3  1  0.67384027  0.17619134  0.57937119  1
  Sb  Sb4  1  0.51956831  0.60544630  0.78909829  1
  Sb  Sb5  1  0.26952998  0.10544630  0.78909829  1
  Sb  Sb6  1  0.73047002  0.89455370  0.21090171  1
  Sb  Sb7  1  0.48043169  0.39455370  0.21090171  1
  C  C8  1  0.89567402  0.02752440  0.93662906  1
  C  C9  1  0.10432598  0.97247560  0.06337094  1
  C  C10  1  0.95904497  0.47247560  0.06337094  1
  C  C11  1  0.04095503  0.52752440  0.93662906  1
  O  O12  1  0.29174515  0.00371317  0.05578003  1
  O  O13  1  0.92928176  0.10090458  0.83379870  1
  O  O14  1  0.76403488  0.50371317  0.05578003  1
  O  O15  1  0.09548307  0.39909542  0.16620130  1
  O  O16  1  0.70825485  0.99628683  0.94421997  1
  O  O17  1  0.23596512  0.49628683  0.94421997  1
  O  O18  1  0.90451693  0.60090458  0.83379870  1
  O  O19  1  0.07071824  0.89909542  0.16620130  1
  F  F20  1  0.57444757  0.69573135  0.61287226  1
  F  F21  1  0.55999294  0.37906273  0.73222910  1
  F  F22  1  0.96157531  0.80426865  0.38712774  1
  F  F23  1  0.44000706  0.62093727  0.26777090  1
  F  F24  1  0.60773026  0.95232806  0.38576372  1
  F  F25  1  0.39226974  0.04767194  0.61423628  1
  F  F26  1  0.77803346  0.45232806  0.38576372  1
  F  F27  1  0.82776384  0.12093727  0.26777090  1
  F  F28  1  0.03842469  0.19573135  0.61287226  1
  F  F29  1  0.22196654  0.54767194  0.61423628  1
  F  F30  1  0.42555243  0.30426865  0.38712774  1
  F  F31  1  0.17223616  0.87906273  0.73222910  1
