# generated using pymatgen
data_NaSbCO2F3
_symmetry_space_group_name_H-M   'P 1'
_cell_length_a   6.42899090
_cell_length_b   8.52205224
_cell_length_c   9.33602677
_cell_angle_alpha   96.33295958
_cell_angle_beta   110.13973647
_cell_angle_gamma   89.99999902
_symmetry_Int_Tables_number   1
_chemical_formula_structural   NaSbCO2F3
_chemical_formula_sum   'Na4 Sb4 C4 O8 F12'
_cell_volume   476.90247639
_cell_formula_units_Z   4
loop_
 _symmetry_equiv_pos_site_id
 _symmetry_equiv_pos_as_xyz
  1  'x, y, z'
loop_
 _atom_site_type_symbol
 _atom_site_label
 _atom_site_symmetry_multiplicity
 _atom_site_fract_x
 _atom_site_fract_y
 _atom_site_fract_z
 _atom_site_occupancy
  Na  Na0  1  0.49072800  0.43137436  0.21196267  1
  Na  Na1  1  0.30336142  0.78211272  0.37016642  1
  Na  Na2  1  0.72123467  0.93137436  0.21196267  1
  Na  Na3  1  0.06680500  0.28211272  0.37016642  1
  Sb  Sb4  1  0.87753378  0.50369333  0.00220525  1
  Sb  Sb5  1  0.91765194  0.71018323  0.57852406  1
  Sb  Sb6  1  0.66087212  0.21018323  0.57852406  1
  Sb  Sb7  1  0.12467147  1.00369333  0.00220525  1
  C  C8  1  0.35477120  0.57574099  0.85233830  1
  C  C9  1  0.28836944  0.13010048  0.72579386  1
  C  C10  1  0.49756710  0.07574099  0.85233830  1
  C  C11  1  0.43742442  0.63010048  0.72579386  1
  O  O12  1  0.68402166  0.10371808  0.84188749  1
  O  O13  1  0.30165076  0.70344496  0.62271381  1
  O  O14  1  0.32106305  0.20344496  0.62271381  1
  O  O15  1  0.15786583  0.60371808  0.84188749  1
  O  O16  1  0.10132733  0.09859671  0.73366965  1
  O  O17  1  0.63234232  0.59859671  0.73366965  1
  O  O18  1  0.49256188  0.50632398  0.95783652  1
  O  O19  1  0.46527464  1.00632398  0.95783652  1
  F  F20  1  0.43123189  0.30495213  0.40469167  1
  F  F21  1  0.83395140  0.72941987  0.05614265  1
  F  F22  1  0.82516432  0.41640248  0.18038936  1
  F  F23  1  0.78240762  0.15565719  0.40274151  1
  F  F24  1  0.97345978  0.80495213  0.40469167  1
  F  F25  1  0.35522504  0.91640248  0.18038936  1
  F  F26  1  0.17626179  0.56439673  0.17436910  1
  F  F27  1  0.95604973  0.48538275  0.51876768  1
  F  F28  1  0.62033389  0.65565719  0.40274151  1
  F  F29  1  0.56271795  0.98538275  0.51876768  1
  F  F30  1  -0.00189270  0.06439673  0.17436910  1
  F  F31  1  0.22219125  0.22941987  0.05614265  1
