# generated using pymatgen
data_LiVP2O7
_symmetry_space_group_name_H-M   'P 1'
_cell_length_a   8.46256797
_cell_length_b   5.06472233
_cell_length_c   12.32904153
_cell_angle_alpha   90.00000000
_cell_angle_beta   78.50884185
_cell_angle_gamma   90.00000000
_symmetry_Int_Tables_number   1
_chemical_formula_structural   LiVP2O7
_chemical_formula_sum   'Li4 V4 P8 O28'
_cell_volume   517.83745827
_cell_formula_units_Z   4
loop_
 _symmetry_equiv_pos_site_id
 _symmetry_equiv_pos_as_xyz
  1  'x, y, z'
loop_
 _atom_site_type_symbol
 _atom_site_label
 _atom_site_symmetry_multiplicity
 _atom_site_fract_x
 _atom_site_fract_y
 _atom_site_fract_z
 _atom_site_occupancy
  Li  Li0  1  0.11167349  0.26859319  0.29744039  1
  Li  Li1  1  0.38832651  0.76859319  0.20255961  1
  Li  Li2  1  0.61167349  0.23140681  0.79744039  1
  Li  Li3  1  0.88832651  0.73140681  0.70255961  1
  O  O4  1  0.09018802  0.03629959  0.15885128  1
  O  O5  1  0.16411228  0.55059831  0.14168123  1
  O  O6  1  0.09083409  0.65539090  0.38200867  1
  O  O7  1  0.08945695  0.93333655  0.59425582  1
  O  O8  1  0.10476168  0.29288066  0.74079705  1
  O  O9  1  0.21214627  0.38580445  0.54298150  1
  O  O10  1  0.06791344  0.28297225  0.94416992  1
  O  O11  1  0.40916591  0.15539090  0.11799133  1
  O  O12  1  0.33588772  0.05059831  0.35831877  1
  O  O13  1  0.40981198  0.53629959  0.34114872  1
  O  O14  1  0.43208656  0.78297225  0.55583008  1
  O  O15  1  0.58945695  0.56666345  0.09425582  1
  O  O16  1  0.28785373  0.88580445  0.95701850  1
  O  O17  1  0.39523832  0.79288066  0.75920295  1
  O  O18  1  0.60476168  0.20711934  0.24079705  1
  O  O19  1  0.71214627  0.11419555  0.04298150  1
  O  O20  1  0.41054305  0.43333655  0.90574418  1
  O  O21  1  0.56791344  0.21702775  0.44416992  1
  O  O22  1  0.59018802  0.46370041  0.65885128  1
  O  O23  1  0.66411228  0.94940169  0.64168123  1
  O  O24  1  0.59083409  0.84460910  0.88200867  1
  O  O25  1  0.93208656  0.71702775  0.05583008  1
  O  O26  1  0.78785373  0.61419555  0.45701850  1
  O  O27  1  0.89523832  0.70711934  0.25920295  1
  O  O28  1  0.91054305  0.06666345  0.40574418  1
  O  O29  1  0.90916591  0.34460910  0.61799133  1
  O  O30  1  0.83588772  0.44940169  0.85831877  1
  O  O31  1  0.90981198  0.96370041  0.84114872  1
  P  P32  1  0.02682577  0.75544353  0.14577648  1
  P  P33  1  0.07975506  0.23210993  0.61641436  1
  P  P34  1  0.47317423  0.25544353  0.35422352  1
  P  P35  1  0.57975506  0.26789007  0.11641436  1
  P  P36  1  0.42024494  0.73210993  0.88358564  1
  P  P37  1  0.52682577  0.74455647  0.64577648  1
  P  P38  1  0.92024494  0.76789007  0.38358564  1
  P  P39  1  0.97317423  0.24455647  0.85422352  1
  V  V40  1  0.23698713  0.23630913  0.03082648  1
  V  V41  1  0.26301287  0.73630913  0.46917352  1
  V  V42  1  0.73698713  0.26369087  0.53082648  1
  V  V43  1  0.76301287  0.76369087  0.96917352  1
