# generated using pymatgen
data_SiO2
_symmetry_space_group_name_H-M   'P 1'
_cell_length_a   5.32452716
_cell_length_b   5.32482171
_cell_length_c   5.32459556
_cell_angle_alpha   97.57861567
_cell_angle_beta   97.57864093
_cell_angle_gamma   97.57781524
_symmetry_Int_Tables_number   1
_chemical_formula_structural   SiO2
_chemical_formula_sum   'Si3 O6'
_cell_volume   146.61635885
_cell_formula_units_Z   3
loop_
 _symmetry_equiv_pos_site_id
 _symmetry_equiv_pos_as_xyz
  1  'x, y, z'
loop_
 _atom_site_type_symbol
 _atom_site_label
 _atom_site_symmetry_multiplicity
 _atom_site_fract_x
 _atom_site_fract_y
 _atom_site_fract_z
 _atom_site_occupancy
  O  O0  1  0.30869892  0.69133058  0.49997053  1
  O  O1  1  0.50002267  0.30867335  0.69130383  1
  Si  Si2  1  0.71547311  0.28454643  0.50003906  1
  O  O3  1  0.69131380  0.50001168  0.30867382  1
  O  O4  1  -0.00004594  0.33268337  0.66728106  1
  O  O5  1  0.66730433  -0.00000030  0.33269593  1
  O  O6  1  0.33272078  0.66731950  1.00005228  1
  Si  Si7  1  0.49996981  0.71544343  0.28452882  1
  Si  Si8  1  0.28454251  0.49999196  0.71545465  1
