# generated using pymatgen
data_AlSBr3N
_symmetry_space_group_name_H-M   'P 1'
_cell_length_a   7.55275305
_cell_length_b   10.12965471
_cell_length_c   10.84219617
_cell_angle_alpha   90.00000000
_cell_angle_beta   90.00000000
_cell_angle_gamma   111.11247768
_symmetry_Int_Tables_number   1
_chemical_formula_structural   AlSBr3N
_chemical_formula_sum   'Al4 S4 Br12 N4'
_cell_volume   773.82132728
_cell_formula_units_Z   4
loop_
 _symmetry_equiv_pos_site_id
 _symmetry_equiv_pos_as_xyz
  1  'x, y, z'
loop_
 _atom_site_type_symbol
 _atom_site_label
 _atom_site_symmetry_multiplicity
 _atom_site_fract_x
 _atom_site_fract_y
 _atom_site_fract_z
 _atom_site_occupancy
  Al  Al0  1  0.61630822  0.34206008  0.62342750  1
  Al  Al1  1  0.38369178  0.65793992  0.37657250  1
  Al  Al2  1  0.88369178  0.15793992  0.12342750  1
  Al  Al3  1  0.11630822  0.84206008  0.87657250  1
  S  S4  1  0.47083875  0.10881026  0.02800391  1
  S  S5  1  0.52916125  0.89118974  0.97199609  1
  S  S6  1  0.02916125  0.39118974  0.52800391  1
  S  S7  1  0.97083875  0.60881026  0.47199609  1
  Br  Br8  1  0.62292780  0.70893318  0.52101347  1
  Br  Br9  1  0.12292780  0.20893318  0.97898653  1
  Br  Br10  1  0.71646721  0.15269709  0.65413938  1
  Br  Br11  1  0.37707220  0.29106682  0.47898653  1
  Br  Br12  1  0.87707220  0.79106682  0.02101347  1
  Br  Br13  1  0.42067841  0.55400289  0.19772881  1
  Br  Br14  1  0.78353279  0.34730291  0.15413938  1
  Br  Br15  1  0.07932159  0.94599711  0.69772881  1
  Br  Br16  1  0.28353279  0.84730291  0.34586062  1
  Br  Br17  1  0.21646721  0.65269709  0.84586062  1
  Br  Br18  1  0.57932159  0.44599711  0.80227119  1
  Br  Br19  1  0.92067841  0.05400289  0.30227119  1
  N  N20  1  0.14481140  0.54596186  0.45829446  1
  N  N21  1  0.64481140  0.04596186  0.04170554  1
  N  N22  1  0.35518860  0.95403814  0.95829446  1
  N  N23  1  0.85518860  0.45403814  0.54170554  1
