# generated using pymatgen
data_MoSCl7O
_symmetry_space_group_name_H-M   'P 1'
_cell_length_a   9.55338150
_cell_length_b   10.02823190
_cell_length_c   12.54135284
_cell_angle_alpha   111.65292434
_cell_angle_beta   90.00000000
_cell_angle_gamma   90.00000000
_symmetry_Int_Tables_number   1
_chemical_formula_structural   MoSCl7O
_chemical_formula_sum   'Mo4 S4 Cl28 O4'
_cell_volume   1116.72281768
_cell_formula_units_Z   4
loop_
 _symmetry_equiv_pos_site_id
 _symmetry_equiv_pos_as_xyz
  1  'x, y, z'
loop_
 _atom_site_type_symbol
 _atom_site_label
 _atom_site_symmetry_multiplicity
 _atom_site_fract_x
 _atom_site_fract_y
 _atom_site_fract_z
 _atom_site_occupancy
  Mo  Mo0  1  0.16149782  0.84556721  0.50161043  1
  Mo  Mo1  1  0.33850218  0.34556721  0.00161043  1
  Mo  Mo2  1  0.83850218  0.15443279  0.49838957  1
  Mo  Mo3  1  0.66149782  0.65443279  0.99838957  1
  S  S4  1  0.26202671  0.29514591  0.51316514  1
  S  S5  1  0.73797329  0.70485409  0.48683486  1
  S  S6  1  0.76202671  0.20485409  0.98683486  1
  S  S7  1  0.23797329  0.79514591  0.01316514  1
  Cl  Cl8  1  0.04502815  0.14773657  0.61436607  1
  Cl  Cl9  1  0.58126872  0.69738772  0.37778561  1
  Cl  Cl10  1  0.49974363  0.30387771  0.13650562  1
  Cl  Cl11  1  0.63719776  0.67248732  0.61749427  1
  Cl  Cl12  1  0.67887347  0.06614999  0.34692697  1
  Cl  Cl13  1  0.00025637  0.80387771  0.63650562  1
  Cl  Cl14  1  0.54502815  0.35226343  0.88563393  1
  Cl  Cl15  1  0.99974363  0.19612229  0.36349438  1
  Cl  Cl16  1  0.41873128  0.30261228  0.62221439  1
  Cl  Cl17  1  0.82112653  0.56614999  0.84692697  1
  Cl  Cl18  1  0.91873128  0.19738772  0.87778561  1
  Cl  Cl19  1  0.50025637  0.69612229  0.86349438  1
  Cl  Cl20  1  0.32112653  0.93385001  0.65307303  1
  Cl  Cl21  1  0.79190994  0.53572076  0.10007936  1
  Cl  Cl22  1  0.13719776  0.82751268  0.88250573  1
  Cl  Cl23  1  0.86280224  0.17248732  0.11749427  1
  Cl  Cl24  1  0.17178382  0.48911030  0.59442046  1
  Cl  Cl25  1  0.08126872  0.80261228  0.12221439  1
  Cl  Cl26  1  0.67178382  0.01088970  0.90557954  1
  Cl  Cl27  1  0.45497185  0.64773657  0.11436607  1
  Cl  Cl28  1  0.95497185  0.85226343  0.38563393  1
  Cl  Cl29  1  0.17887347  0.43385001  0.15307303  1
  Cl  Cl30  1  0.36280224  0.32751268  0.38250573  1
  Cl  Cl31  1  0.32821618  0.98911030  0.09442046  1
  Cl  Cl32  1  0.82821618  0.51088970  0.40557954  1
  Cl  Cl33  1  0.70809006  0.03572076  0.60007936  1
  Cl  Cl34  1  0.29190994  0.96427924  0.39992064  1
  Cl  Cl35  1  0.20809006  0.46427924  0.89992064  1
  O  O36  1  0.78474572  0.32551090  0.56995376  1
  O  O37  1  0.21525428  0.67448910  0.43004624  1
  O  O38  1  0.28474572  0.17448910  0.93004624  1
  O  O39  1  0.71525428  0.82551090  0.06995376  1
