# generated using pymatgen
data_Pm2O3
_symmetry_space_group_name_H-M   'P 1'
_cell_length_a   3.65504884
_cell_length_b   7.46748730
_cell_length_c   8.97328172
_cell_angle_alpha   99.97085229
_cell_angle_beta   90.00000000
_cell_angle_gamma   104.16592763
_symmetry_Int_Tables_number   1
_chemical_formula_structural   Pm2O3
_chemical_formula_sum   'Pm6 O9'
_cell_volume   233.65224042
_cell_formula_units_Z   3
loop_
 _symmetry_equiv_pos_site_id
 _symmetry_equiv_pos_as_xyz
  1  'x, y, z'
loop_
 _atom_site_type_symbol
 _atom_site_label
 _atom_site_symmetry_multiplicity
 _atom_site_fract_x
 _atom_site_fract_y
 _atom_site_fract_z
 _atom_site_occupancy
  Pm  Pm0  1  0.96777890  0.93555781  0.18657725  1
  Pm  Pm1  1  0.36618716  0.73237432  0.51060969  1
  Pm  Pm2  1  0.03222110  0.06444219  0.81342275  1
  Pm  Pm3  1  0.69244484  0.38488968  0.13903269  1
  Pm  Pm4  1  0.63381284  0.26762568  0.48939031  1
  Pm  Pm5  1  0.30755516  0.61511032  0.86096731  1
  O  O6  1  0.12933119  0.25866239  0.28531808  1
  O  O7  1  0.52657963  0.05315925  0.65647975  1
  O  O8  1  0.20205840  0.40411681  0.62601504  1
  O  O9  1  0.79794160  0.59588319  0.37398496  1
  O  O10  1  0.50000000  0.00000000  0.00000000  1
  O  O11  1  0.87066881  0.74133761  0.71468192  1
  O  O12  1  0.82513136  0.65026272  0.02672930  1
  O  O13  1  0.17486864  0.34973728  0.97327070  1
  O  O14  1  0.47342037  0.94684075  0.34352025  1
