# generated using pymatgen
data_Na4MgC6(SN)6
_symmetry_space_group_name_H-M   'P 1'
_cell_length_a   8.74645182
_cell_length_b   8.74645142
_cell_length_c   14.08479821
_cell_angle_alpha   90.00000000
_cell_angle_beta   90.00000000
_cell_angle_gamma   120.00000150
_symmetry_Int_Tables_number   1
_chemical_formula_structural   Na4MgC6(SN)6
_chemical_formula_sum   'Na8 Mg2 C12 S12 N12'
_cell_volume   933.13622854
_cell_formula_units_Z   2
loop_
 _symmetry_equiv_pos_site_id
 _symmetry_equiv_pos_as_xyz
  1  'x, y, z'
loop_
 _atom_site_type_symbol
 _atom_site_label
 _atom_site_symmetry_multiplicity
 _atom_site_fract_x
 _atom_site_fract_y
 _atom_site_fract_z
 _atom_site_occupancy
  Na  Na0  1  0.33333300  0.66666700  0.97482636  1
  Na  Na1  1  0.66666700  0.33333300  0.47482636  1
  Na  Na2  1  0.66666700  0.33333300  0.02517364  1
  Na  Na3  1  0.33333300  0.66666700  0.52517364  1
  Na  Na4  1  0.00000000  0.00000000  0.00000000  1
  Na  Na5  1  0.33333300  0.66666700  0.25000000  1
  Na  Na6  1  0.00000000  0.00000000  0.50000000  1
  Na  Na7  1  0.66666700  0.33333300  0.75000000  1
  Mg  Mg8  1  0.66666700  0.33333300  0.25000000  1
  Mg  Mg9  1  0.33333300  0.66666700  0.75000000  1
  C  C10  1  0.34203086  0.99872714  0.36432191  1
  C  C11  1  0.65796914  0.00127286  0.63567809  1
  C  C12  1  0.34330373  0.00127286  0.86432191  1
  C  C13  1  0.99872714  0.65669627  0.63567809  1
  C  C14  1  0.00127286  0.34330373  0.36432191  1
  C  C15  1  0.34330373  0.34203086  0.63567809  1
  C  C16  1  0.99872714  0.34203086  0.86432191  1
  C  C17  1  0.65669627  0.99872714  0.13567809  1
  C  C18  1  0.00127286  0.65796914  0.13567809  1
  C  C19  1  0.65796914  0.65669627  0.86432191  1
  C  C20  1  0.65669627  0.65796914  0.36432191  1
  C  C21  1  0.34203086  0.34330373  0.13567809  1
  S  S22  1  0.16617079  0.81290543  0.39210876  1
  S  S23  1  0.64673464  0.81290543  0.10789124  1
  S  S24  1  0.83382921  0.18709457  0.60789124  1
  S  S25  1  0.18709457  0.35326536  0.39210876  1
  S  S26  1  0.64673464  0.83382921  0.39210876  1
  S  S27  1  0.16617079  0.35326536  0.10789124  1
  S  S28  1  0.83382921  0.64673464  0.89210876  1
  S  S29  1  0.35326536  0.16617079  0.60789124  1
  S  S30  1  0.81290543  0.64673464  0.60789124  1
  S  S31  1  0.81290543  0.16617079  0.89210876  1
  S  S32  1  0.35326536  0.18709457  0.89210876  1
  S  S33  1  0.18709457  0.83382921  0.10789124  1
  N  N34  1  0.33723906  0.86737165  0.84288267  1
  N  N35  1  0.53013259  0.66276094  0.84288267  1
  N  N36  1  0.13262835  0.66276094  0.65711733  1
  N  N37  1  0.86737165  0.53013259  0.15711733  1
  N  N38  1  0.53013259  0.86737165  0.65711733  1
  N  N39  1  0.13262835  0.46986741  0.84288267  1
  N  N40  1  0.86737165  0.33723906  0.34288267  1
  N  N41  1  0.33723906  0.46986741  0.65711733  1
  N  N42  1  0.46986741  0.33723906  0.15711733  1
  N  N43  1  0.46986741  0.13262835  0.34288267  1
  N  N44  1  0.66276094  0.53013259  0.34288267  1
  N  N45  1  0.66276094  0.13262835  0.15711733  1
