# generated using pymatgen
data_K3Na3(NO4)2
_symmetry_space_group_name_H-M   'P 1'
_cell_length_a   7.10411817
_cell_length_b   7.38412059
_cell_length_c   16.32032805
_cell_angle_alpha   90.00000000
_cell_angle_beta   90.00000000
_cell_angle_gamma   90.00000000
_symmetry_Int_Tables_number   1
_chemical_formula_structural   K3Na3(NO4)2
_chemical_formula_sum   'K12 Na12 N8 O32'
_cell_volume   856.12630566
_cell_formula_units_Z   4
loop_
 _symmetry_equiv_pos_site_id
 _symmetry_equiv_pos_as_xyz
  1  'x, y, z'
loop_
 _atom_site_type_symbol
 _atom_site_label
 _atom_site_symmetry_multiplicity
 _atom_site_fract_x
 _atom_site_fract_y
 _atom_site_fract_z
 _atom_site_occupancy
  K  K0  1  0.08519149  0.20616823  0.86699613  1
  K  K1  1  0.91480851  0.79383177  0.13300387  1
  K  K2  1  0.25000000  0.50000000  0.01073011  1
  K  K3  1  0.75000000  0.50000000  0.98926989  1
  K  K4  1  0.25000000  0.00000000  0.51073011  1
  K  K5  1  0.75000000  0.00000000  0.48926989  1
  K  K6  1  0.58519149  0.29383177  0.63300387  1
  K  K7  1  0.58519149  0.20616823  0.13300387  1
  K  K8  1  0.08519149  0.29383177  0.36699613  1
  K  K9  1  0.41480851  0.70616823  0.36699613  1
  K  K10  1  0.91480851  0.70616823  0.63300387  1
  K  K11  1  0.41480851  0.79383177  0.86699613  1
  Na  Na12  1  0.75000000  0.50000000  0.79291629  1
  Na  Na13  1  0.25000000  0.50000000  0.53040041  1
  Na  Na14  1  0.75000000  0.00000000  0.75788173  1
  Na  Na15  1  0.75000000  0.50000000  0.25788173  1
  Na  Na16  1  0.25000000  0.50000000  0.20708371  1
  Na  Na17  1  0.25000000  0.00000000  0.24211827  1
  Na  Na18  1  0.75000000  0.50000000  0.46959959  1
  Na  Na19  1  0.75000000  0.00000000  0.29291629  1
  Na  Na20  1  0.75000000  0.00000000  0.96959959  1
  Na  Na21  1  0.25000000  0.50000000  0.74211827  1
  Na  Na22  1  0.25000000  0.00000000  0.03040041  1
  Na  Na23  1  0.25000000  0.00000000  0.70708371  1
  N  N24  1  0.01661709  0.24055284  0.13016555  1
  N  N25  1  0.51661709  0.24055284  0.86983445  1
  N  N26  1  0.51661709  0.25944716  0.36983445  1
  N  N27  1  0.01661709  0.25944716  0.63016555  1
  N  N28  1  0.48338291  0.75944716  0.13016555  1
  N  N29  1  0.48338291  0.74055284  0.63016555  1
  N  N30  1  0.98338291  0.75944716  0.86983445  1
  N  N31  1  0.98338291  0.74055284  0.36983445  1
  O  O32  1  0.54009421  0.57884942  0.13490359  1
  O  O33  1  0.05238133  0.64481006  0.30255557  1
  O  O34  1  0.94761867  0.14481006  0.19744443  1
  O  O35  1  0.54009421  0.92115058  0.63490359  1
  O  O36  1  0.55238133  0.85518994  0.19744443  1
  O  O37  1  0.05238133  0.85518994  0.80255557  1
  O  O38  1  0.44761867  0.14481006  0.80255557  1
  O  O39  1  0.78519708  0.76913896  0.86888635  1
  O  O40  1  0.95990579  0.42115058  0.13490359  1
  O  O41  1  0.71480292  0.23086104  0.86888635  1
  O  O42  1  0.45990579  0.42115058  0.86509641  1
  O  O43  1  0.95110709  0.16461166  0.05653228  1
  O  O44  1  0.95110709  0.33538834  0.55653228  1
  O  O45  1  0.04889291  0.66461166  0.44346772  1
  O  O46  1  0.28519708  0.73086104  0.63111365  1
  O  O47  1  0.54889291  0.66461166  0.55653228  1
  O  O48  1  0.45110709  0.33538834  0.44346772  1
  O  O49  1  0.44761867  0.35518994  0.30255557  1
  O  O50  1  0.45110709  0.16461166  0.94346772  1
  O  O51  1  0.94761867  0.35518994  0.69744443  1
  O  O52  1  0.71480292  0.26913896  0.36888635  1
  O  O53  1  0.45990579  0.07884942  0.36509641  1
  O  O54  1  0.95990579  0.07884942  0.63490359  1
  O  O55  1  0.78519708  0.73086104  0.36888635  1
  O  O56  1  0.04009421  0.92115058  0.36509641  1
  O  O57  1  0.21480292  0.26913896  0.63111365  1
  O  O58  1  0.54889291  0.83538834  0.05653228  1
  O  O59  1  0.55238133  0.64481006  0.69744443  1
  O  O60  1  0.28519708  0.76913896  0.13111365  1
  O  O61  1  0.21480292  0.23086104  0.13111365  1
  O  O62  1  0.04889291  0.83538834  0.94346772  1
  O  O63  1  0.04009421  0.57884942  0.86509641  1
