# generated using pymatgen
data_NaCuAsO4
_symmetry_space_group_name_H-M   'P 1'
_cell_length_a   6.13959712
_cell_length_b   10.58280962
_cell_length_c   10.90796261
_cell_angle_alpha   90.00000000
_cell_angle_beta   90.00000000
_cell_angle_gamma   91.48489007
_symmetry_Int_Tables_number   1
_chemical_formula_structural   NaCuAsO4
_chemical_formula_sum   'Na8 Cu8 As8 O32'
_cell_volume   708.49800940
_cell_formula_units_Z   8
loop_
 _symmetry_equiv_pos_site_id
 _symmetry_equiv_pos_as_xyz
  1  'x, y, z'
loop_
 _atom_site_type_symbol
 _atom_site_label
 _atom_site_symmetry_multiplicity
 _atom_site_fract_x
 _atom_site_fract_y
 _atom_site_fract_z
 _atom_site_occupancy
  Na  Na0  1  0.63208312  0.38142938  0.63068380  1
  Na  Na1  1  0.87168646  0.61764144  0.34740190  1
  Na  Na2  1  0.36791688  0.61857062  0.36931620  1
  Na  Na3  1  0.12831354  0.88235856  0.84740190  1
  Na  Na4  1  0.63208312  0.88142938  0.86931620  1
  Na  Na5  1  0.12831354  0.38235856  0.65259810  1
  Na  Na6  1  0.36791688  0.11857062  0.13068380  1
  Na  Na7  1  0.87168646  0.11764144  0.15259810  1
  Cu  Cu8  1  0.61566804  0.72294219  0.09969716  1
  Cu  Cu9  1  0.16881328  0.51085403  0.12035421  1
  Cu  Cu10  1  0.38433196  0.77705781  0.59969716  1
  Cu  Cu11  1  0.61566804  0.22294219  0.40030284  1
  Cu  Cu12  1  0.16881328  0.01085403  0.37964579  1
  Cu  Cu13  1  0.38433196  0.27705781  0.90030284  1
  Cu  Cu14  1  0.83118672  0.48914597  0.87964579  1
  Cu  Cu15  1  0.83118672  0.98914597  0.62035421  1
  As  As16  1  0.37772887  0.09118353  0.63547613  1
  As  As17  1  0.37772887  0.59118353  0.86452387  1
  As  As18  1  0.87288220  0.67862600  0.62095100  1
  As  As19  1  0.62227113  0.90881647  0.36452387  1
  As  As20  1  0.87288220  0.17862600  0.87904900  1
  As  As21  1  0.12711780  0.32137400  0.37904900  1
  As  As22  1  0.12711780  0.82137400  0.12095100  1
  As  As23  1  0.62227113  0.40881647  0.13547613  1
  O  O24  1  0.36510921  0.84024757  0.03526546  1
  O  O25  1  0.59764878  0.55252941  0.20529007  1
  O  O26  1  0.87072600  0.81707292  0.70401740  1
  O  O27  1  0.84532855  0.41186644  0.03837121  1
  O  O28  1  0.84532855  0.91186644  0.46162879  1
  O  O29  1  0.87910299  0.04631361  0.78443081  1
  O  O30  1  0.12927400  0.68292708  0.20401740  1
  O  O31  1  0.09914875  0.66573705  0.52914087  1
  O  O32  1  0.62575418  0.12229200  0.55350036  1
  O  O33  1  0.62575418  0.62229200  0.94649964  1
  O  O34  1  0.65339992  0.78350605  0.26824249  1
  O  O35  1  0.90085125  0.33426295  0.47085913  1
  O  O36  1  0.63489079  0.65975243  0.53526546  1
  O  O37  1  0.09914875  0.16573705  0.97085913  1
  O  O38  1  0.34660008  0.71649395  0.76824249  1
  O  O39  1  0.40235122  0.44747059  0.79470993  1
  O  O40  1  0.15467145  0.58813356  0.96162879  1
  O  O41  1  0.40235122  0.94747059  0.70529007  1
  O  O42  1  0.87910299  0.54631361  0.71556919  1
  O  O43  1  0.36510921  0.34024757  0.46473454  1
  O  O44  1  0.37424582  0.37770800  0.05350036  1
  O  O45  1  0.37424582  0.87770800  0.44649964  1
  O  O46  1  0.59764878  0.05252941  0.29470993  1
  O  O47  1  0.34660008  0.21649395  0.73175751  1
  O  O48  1  0.65339992  0.28350605  0.23175751  1
  O  O49  1  0.15467145  0.08813356  0.53837121  1
  O  O50  1  0.12927400  0.18292708  0.29598260  1
  O  O51  1  0.12089701  0.45368639  0.28443081  1
  O  O52  1  0.63489079  0.15975243  0.96473454  1
  O  O53  1  0.87072600  0.31707292  0.79598260  1
  O  O54  1  0.90085125  0.83426295  0.02914087  1
  O  O55  1  0.12089701  0.95368639  0.21556919  1
