# generated using pymatgen
data_NaCuPO4
_symmetry_space_group_name_H-M   'P 1'
_cell_length_a   5.08101083
_cell_length_b   7.08611685
_cell_length_c   8.99995467
_cell_angle_alpha   90.00000000
_cell_angle_beta   90.00000000
_cell_angle_gamma   98.49217355
_symmetry_Int_Tables_number   1
_chemical_formula_structural   NaCuPO4
_chemical_formula_sum   'Na4 Cu4 P4 O16'
_cell_volume   320.48733494
_cell_formula_units_Z   4
loop_
 _symmetry_equiv_pos_site_id
 _symmetry_equiv_pos_as_xyz
  1  'x, y, z'
loop_
 _atom_site_type_symbol
 _atom_site_label
 _atom_site_symmetry_multiplicity
 _atom_site_fract_x
 _atom_site_fract_y
 _atom_site_fract_z
 _atom_site_occupancy
  Na  Na0  1  0.95400669  0.30340191  0.64422217  1
  Na  Na1  1  0.45400669  0.80340191  0.85577783  1
  Na  Na2  1  0.54599331  0.19659809  0.14422217  1
  Na  Na3  1  0.04599331  0.69659809  0.35577783  1
  Cu  Cu4  1  0.00000000  0.50000000  0.00000000  1
  Cu  Cu5  1  0.50000000  0.50000000  0.50000000  1
  Cu  Cu6  1  0.00000000  0.00000000  0.00000000  1
  Cu  Cu7  1  0.50000000  0.00000000  0.50000000  1
  P  P8  1  0.95032946  0.80238962  0.67505995  1
  P  P9  1  0.54967054  0.69761038  0.17505995  1
  P  P10  1  0.04967054  0.19761038  0.32494005  1
  P  P11  1  0.45032946  0.30238962  0.82494005  1
  O  O12  1  0.79965114  0.96918722  0.63424651  1
  O  O13  1  0.20034886  0.03081278  0.36575349  1
  O  O14  1  0.70034886  0.53081278  0.13424651  1
  O  O15  1  0.24489328  0.82497594  0.62308007  1
  O  O16  1  0.18174494  0.38987273  0.39450528  1
  O  O17  1  0.29965114  0.46918722  0.86575349  1
  O  O18  1  0.81825506  0.61012727  0.60549472  1
  O  O19  1  0.25510672  0.67502406  0.12308007  1
  O  O20  1  0.75510672  0.17502406  0.37691993  1
  O  O21  1  0.43981598  0.28544415  0.65068966  1
  O  O22  1  0.74489328  0.32497594  0.87691993  1
  O  O23  1  0.93981598  0.78544415  0.84931034  1
  O  O24  1  0.68174494  0.88987273  0.10549472  1
  O  O25  1  0.31825506  0.11012727  0.89450528  1
  O  O26  1  0.06018402  0.21455585  0.15068966  1
  O  O27  1  0.56018402  0.71455585  0.34931034  1
