# generated using pymatgen
data_SiH12C2(NF3)2
_symmetry_space_group_name_H-M   'P 1'
_cell_length_a   6.40659999
_cell_length_b   7.30953095
_cell_length_c   9.48400068
_cell_angle_alpha   90.00000000
_cell_angle_beta   90.00000000
_cell_angle_gamma   90.00000000
_symmetry_Int_Tables_number   1
_chemical_formula_structural   SiH12C2(NF3)2
_chemical_formula_sum   'Si2 H24 C4 N4 F12'
_cell_volume   444.12855265
_cell_formula_units_Z   2
loop_
 _symmetry_equiv_pos_site_id
 _symmetry_equiv_pos_as_xyz
  1  'x, y, z'
loop_
 _atom_site_type_symbol
 _atom_site_label
 _atom_site_symmetry_multiplicity
 _atom_site_fract_x
 _atom_site_fract_y
 _atom_site_fract_z
 _atom_site_occupancy
  Si  Si0  1  0.50000000  0.50000000  0.50000000  1
  Si  Si1  1  0.00000000  0.00000000  0.00000000  1
  H  H2  1  0.87002106  0.65831404  0.63273302  1
  H  H3  1  0.13931822  0.50131423  0.14086628  1
  H  H4  1  0.86068178  0.49868577  0.85913372  1
  H  H5  1  0.63931822  0.99868577  0.64086628  1
  H  H6  1  0.13931822  0.49868577  0.85913372  1
  H  H7  1  0.36068178  0.00131423  0.35913372  1
  H  H8  1  0.12997894  0.65831404  0.63273302  1
  H  H9  1  0.87002106  0.34168596  0.36726698  1
  H  H10  1  0.36068178  0.99868577  0.64086628  1
  H  H11  1  0.86068178  0.50131423  0.14086628  1
  H  H12  1  0.37002106  0.15831404  0.86726698  1
  H  H13  1  0.62997894  0.84168596  0.13273302  1
  H  H14  1  0.50000000  0.12896403  0.22802215  1
  H  H15  1  0.63931822  0.00131423  0.35913372  1
  H  H16  1  0.00000000  0.77926682  0.75568898  1
  H  H17  1  0.00000000  0.22073318  0.24431102  1
  H  H18  1  0.12997894  0.34168596  0.36726698  1
  H  H19  1  0.62997894  0.15831404  0.86726698  1
  H  H20  1  0.00000000  0.62896403  0.27197785  1
  H  H21  1  0.50000000  0.72073318  0.25568898  1
  H  H22  1  0.00000000  0.37103597  0.72802215  1
  H  H23  1  0.50000000  0.27926682  0.74431102  1
  H  H24  1  0.37002106  0.84168596  0.13273302  1
  H  H25  1  0.50000000  0.87103597  0.77197785  1
  C  C26  1  0.50000000  0.99481135  0.70722462  1
  C  C27  1  0.50000000  0.00518865  0.29277538  1
  C  C28  1  0.00000000  0.50518865  0.20722462  1
  C  C29  1  0.00000000  0.49481135  0.79277538  1
  N  N30  1  0.50000000  0.84220574  0.19869966  1
  N  N31  1  0.00000000  0.65779426  0.69869966  1
  N  N32  1  0.00000000  0.34220574  0.30130034  1
  N  N33  1  0.50000000  0.15779426  0.80130034  1
  F  F34  1  0.50000000  0.51156448  0.68128464  1
  F  F35  1  0.00000000  0.01156448  0.81871536  1
  F  F36  1  0.30950835  0.66608709  0.49262101  1
  F  F37  1  0.50000000  0.48843552  0.31871536  1
  F  F38  1  0.30950835  0.33391291  0.50737899  1
  F  F39  1  0.69049165  0.33391291  0.50737899  1
  F  F40  1  0.19049165  0.16608709  0.00737899  1
  F  F41  1  0.80950835  0.16608709  0.00737899  1
  F  F42  1  0.69049165  0.66608709  0.49262101  1
  F  F43  1  0.80950835  0.83391291  0.99262101  1
  F  F44  1  0.00000000  0.98843552  0.18128464  1
  F  F45  1  0.19049165  0.83391291  0.99262101  1
