# generated using pymatgen
data_Al(HO)3
_symmetry_space_group_name_H-M   'P 1'
_cell_length_a   5.03957858
_cell_length_b   5.09405108
_cell_length_c   5.35956736
_cell_angle_alpha   105.95953467
_cell_angle_beta   98.89443149
_cell_angle_gamma   119.00328432
_symmetry_Int_Tables_number   1
_chemical_formula_structural   Al(HO)3
_chemical_formula_sum   'Al2 H6 O6'
_cell_volume   108.70299423
_cell_formula_units_Z   2
loop_
 _symmetry_equiv_pos_site_id
 _symmetry_equiv_pos_as_xyz
  1  'x, y, z'
loop_
 _atom_site_type_symbol
 _atom_site_label
 _atom_site_symmetry_multiplicity
 _atom_site_fract_x
 _atom_site_fract_y
 _atom_site_fract_z
 _atom_site_occupancy
  Al  Al0  1  0.17151618  0.33399273  0.00215848  1
  Al  Al1  1  0.82848382  0.66600727  0.99784152  1
  H  H2  1  0.58598491  0.91391360  0.79779812  1
  H  H3  1  0.08907846  0.63090169  0.40683957  1
  H  H4  1  0.41401509  0.08608640  0.20220188  1
  H  H5  1  0.91092154  0.36909831  0.59316043  1
  H  H6  1  0.66271444  0.78195178  0.41409502  1
  H  H7  1  0.33728556  0.21804822  0.58590498  1
  O  O8  1  0.22614514  0.09650905  0.21017272  1
  O  O9  1  0.04183222  0.52434671  0.78408018  1
  O  O10  1  0.95816778  0.47565329  0.21591982  1
  O  O11  1  0.41506200  0.26664781  0.78444540  1
  O  O12  1  0.77385486  0.90349095  0.78982728  1
  O  O13  1  0.58493800  0.73335219  0.21555460  1
