# generated using pymatgen
data_Ag(Bi2S3)3
_symmetry_space_group_name_H-M   'P 1'
_cell_length_a   4.09303736
_cell_length_b   7.18605660
_cell_length_c   15.07777015
_cell_angle_alpha   98.82629867
_cell_angle_beta   90.00000000
_cell_angle_gamma   106.54630976
_symmetry_Int_Tables_number   1
_chemical_formula_structural   Ag(Bi2S3)3
_chemical_formula_sum   'Ag1 Bi6 S9'
_cell_volume   419.63344262
_cell_formula_units_Z   1
loop_
 _symmetry_equiv_pos_site_id
 _symmetry_equiv_pos_as_xyz
  1  'x, y, z'
loop_
 _atom_site_type_symbol
 _atom_site_label
 _atom_site_symmetry_multiplicity
 _atom_site_fract_x
 _atom_site_fract_y
 _atom_site_fract_z
 _atom_site_occupancy
  Ag  Ag0  1  0.50000000  0.00000000  0.50000000  1
  Bi  Bi1  1  0.14700472  0.29400943  0.06421979  1
  Bi  Bi2  1  0.44125495  0.88250991  0.19035233  1
  Bi  Bi3  1  0.85299528  0.70599057  0.93578021  1
  Bi  Bi4  1  0.25013937  0.50027875  0.61732062  1
  Bi  Bi5  1  0.74986063  0.49972125  0.38267938  1
  Bi  Bi6  1  0.55874505  0.11749009  0.80964767  1
  S  S7  1  0.79132005  0.58264010  0.11457280  1
  S  S8  1  0.38521754  0.77043507  0.35268345  1
  S  S9  1  0.07852461  0.15704921  0.22601520  1
  S  S10  1  0.61478246  0.22956493  0.64731655  1
  S  S11  1  0.20867995  0.41735990  0.88542720  1
  S  S12  1  0.14343768  0.28687535  0.45772737  1
  S  S13  1  0.92147539  0.84295079  0.77398480  1
  S  S14  1  0.50000000  0.00000000  0.00000000  1
  S  S15  1  0.85656232  0.71312465  0.54227263  1
