# generated using pymatgen
data_UAgIO6
_symmetry_space_group_name_H-M   'P 1'
_cell_length_a   8.11303629
_cell_length_b   15.36807675
_cell_length_c   18.70758565
_cell_angle_alpha   100.63639431
_cell_angle_beta   90.00000000
_cell_angle_gamma   90.00000000
_symmetry_Int_Tables_number   1
_chemical_formula_structural   UAgIO6
_chemical_formula_sum   'U16 Ag16 I16 O96'
_cell_volume   2292.41857256
_cell_formula_units_Z   16
loop_
 _symmetry_equiv_pos_site_id
 _symmetry_equiv_pos_as_xyz
  1  'x, y, z'
loop_
 _atom_site_type_symbol
 _atom_site_label
 _atom_site_symmetry_multiplicity
 _atom_site_fract_x
 _atom_site_fract_y
 _atom_site_fract_z
 _atom_site_occupancy
  U  U0  1  0.73655146  0.41008201  0.87804473  1
  U  U1  1  0.53349019  0.99555389  0.21865752  1
  U  U2  1  0.76357383  0.12688039  0.09034238  1
  U  U3  1  0.00476633  0.00641158  0.78107603  1
  U  U4  1  0.49523367  0.50641158  0.28107603  1
  U  U5  1  0.50476633  0.49358842  0.71892397  1
  U  U6  1  0.03349019  0.50444611  0.28134248  1
  U  U7  1  0.73642617  0.62688039  0.59034238  1
  U  U8  1  0.26344854  0.58991799  0.12195527  1
  U  U9  1  0.76344854  0.91008201  0.37804473  1
  U  U10  1  0.23655146  0.08991799  0.62195527  1
  U  U11  1  0.46650981  0.00444611  0.78134248  1
  U  U12  1  0.26357383  0.37311961  0.40965762  1
  U  U13  1  0.96650981  0.49555389  0.71865752  1
  U  U14  1  0.99523367  0.99358842  0.21892397  1
  U  U15  1  0.23642617  0.87311961  0.90965762  1
  Ag  Ag16  1  0.48181838  0.74399162  0.74493944  1
  Ag  Ag17  1  0.76282935  0.67156341  0.41043103  1
  Ag  Ag18  1  0.72868042  0.31595908  0.59678279  1
  Ag  Ag19  1  0.98181838  0.75600838  0.75506056  1
  Ag  Ag20  1  0.98190020  0.24876847  0.74313056  1
  Ag  Ag21  1  0.51818162  0.25600838  0.25506056  1
  Ag  Ag22  1  0.01818162  0.24399162  0.24493944  1
  Ag  Ag23  1  0.26282935  0.82843659  0.08956897  1
  Ag  Ag24  1  0.73717065  0.17156341  0.91043103  1
  Ag  Ag25  1  0.23717065  0.32843659  0.58956897  1
  Ag  Ag26  1  0.27131958  0.68404092  0.40321721  1
  Ag  Ag27  1  0.01809980  0.75123153  0.25686944  1
  Ag  Ag28  1  0.22868042  0.18404092  0.90321721  1
  Ag  Ag29  1  0.48190020  0.25123153  0.75686944  1
  Ag  Ag30  1  0.51809980  0.74876847  0.24313056  1
  Ag  Ag31  1  0.77131958  0.81595908  0.09678279  1
  I  I32  1  0.47146004  0.32171470  0.04309202  1
  I  I33  1  0.73411654  0.08231725  0.64451183  1
  I  I34  1  0.23249377  0.60710011  0.60351129  1
  I  I35  1  0.53848605  0.85134765  0.55776002  1
  I  I36  1  0.76750623  0.39289989  0.39648871  1
  I  I37  1  0.23411654  0.41768275  0.85548817  1
  I  I38  1  0.76588346  0.58231725  0.14451183  1
  I  I39  1  0.97146004  0.17828530  0.45690798  1
  I  I40  1  0.96151395  0.35134765  0.05776002  1
  I  I41  1  0.02853996  0.82171470  0.54309202  1
  I  I42  1  0.26588346  0.91768275  0.35548817  1
  I  I43  1  0.52853996  0.67828530  0.95690798  1
  I  I44  1  0.73249377  0.89289989  0.89648871  1
  I  I45  1  0.26750623  0.10710011  0.10351129  1
  I  I46  1  0.46151395  0.14865235  0.44223998  1
  I  I47  1  0.03848605  0.64865235  0.94223998  1
  O  O48  1  0.50559264  0.07822991  0.11384979  1
  O  O49  1  0.99185812  0.09884139  0.28471978  1
  O  O50  1  0.05408666  0.61816188  0.03221177  1
  O  O51  1  0.00285560  0.55573770  0.15624469  1
  O  O52  1  0.74798636  0.21829455  0.17021851  1
  O  O53  1  0.49440736  0.92177009  0.88615021  1
  O  O54  1  0.94591334  0.38183812  0.96778823  1
  O  O55  1  0.70874459  0.52542872  0.92796457  1
  O  O56  1  0.92080845  0.23127416  0.03114534  1
  O  O57  1  0.46549127  0.89439640  0.72080324  1
  O  O58  1  0.78493287  0.28476653  0.33702452  1
  O  O59  1  0.75201364  0.71829455  0.67021851  1
  O  O60  1  0.52631048  0.39937658  0.37669202  1
  O  O61  1  0.56704132  0.21016505  0.02396130  1
  O  O62  1  0.76290806  0.95116394  0.27103478  1
  O  O63  1  0.21203639  0.29747324  0.82131313  1
  O  O64  1  0.95218536  0.85989591  0.46201188  1
  O  O65  1  0.47388519  0.41181204  0.82908827  1
  O  O66  1  0.73709194  0.45116394  0.77103478  1
  O  O67  1  0.45218536  0.64010409  0.03798812  1
  O  O68  1  0.99440736  0.57822991  0.61384979  1
  O  O69  1  0.99714440  0.44426230  0.84375531  1
  O  O70  1  0.23818539  0.52608534  0.66804635  1
  O  O71  1  0.47764304  0.11915154  0.83997536  1
  O  O72  1  0.72171093  0.54841961  0.50228530  1
  O  O73  1  0.26722250  0.47479088  0.33736350  1
  O  O74  1  0.49185812  0.40115861  0.21528022  1
  O  O75  1  0.99277319  0.11566528  0.84743358  1
  O  O76  1  0.97764304  0.38084846  0.66002464  1
  O  O77  1  0.07919155  0.76872584  0.96885466  1
  O  O78  1  0.02631048  0.10062342  0.12330798  1
  O  O79  1  0.42080845  0.26872584  0.46885466  1
  O  O80  1  0.96549127  0.60560360  0.77919676  1
  O  O81  1  0.73818539  0.97391466  0.83195365  1
  O  O82  1  0.26181461  0.02608534  0.16804635  1
  O  O83  1  0.73741648  0.78982995  0.33590740  1
  O  O84  1  0.73410234  0.71611764  0.99161414  1
  O  O85  1  0.97368952  0.89937658  0.87669202  1
  O  O86  1  0.23709194  0.04883606  0.72896522  1
  O  O87  1  0.52611481  0.58818796  0.17091173  1
  O  O88  1  0.73955165  0.89168954  0.59397387  1
  O  O89  1  0.23277750  0.97479088  0.83736350  1
  O  O90  1  0.54781464  0.35989591  0.96201188  1
  O  O91  1  0.26524935  0.95828796  0.26721674  1
  O  O92  1  0.03450873  0.39439640  0.22080324  1
  O  O93  1  0.76722250  0.02520912  0.16263650  1
  O  O94  1  0.71506713  0.78476653  0.83702452  1
  O  O95  1  0.71203639  0.20252676  0.67868687  1
  O  O96  1  0.55408666  0.88183812  0.46778823  1
  O  O97  1  0.73475065  0.04171204  0.73278326  1
  O  O98  1  0.24798636  0.28170545  0.32978149  1
  O  O99  1  0.26589766  0.28388236  0.00838586  1
  O  O100  1  0.26044835  0.10831046  0.40602613  1
  O  O101  1  0.23955165  0.60831046  0.90602613  1
  O  O102  1  0.23475065  0.45828796  0.76721674  1
  O  O103  1  0.93295868  0.71016505  0.52396130  1
  O  O104  1  0.20874459  0.97457128  0.57203543  1
  O  O105  1  0.23741648  0.71017005  0.16409260  1
  O  O106  1  0.21506713  0.71523347  0.66297548  1
  O  O107  1  0.47368952  0.60062342  0.62330798  1
  O  O108  1  0.79125541  0.02542872  0.42796457  1
  O  O109  1  0.76181461  0.47391466  0.33195365  1
  O  O110  1  0.78796361  0.70252676  0.17868687  1
  O  O111  1  0.00559264  0.42177009  0.38615021  1
  O  O112  1  0.29125541  0.47457128  0.07203543  1
  O  O113  1  0.26258352  0.21017005  0.66409260  1
  O  O114  1  0.27828907  0.45158039  0.49771470  1
  O  O115  1  0.50285560  0.94426230  0.34375531  1
  O  O116  1  0.00722681  0.88433472  0.15256642  1
  O  O117  1  0.50814188  0.59884139  0.78471978  1
  O  O118  1  0.28796361  0.79747324  0.32131313  1
  O  O119  1  0.57919155  0.73127416  0.53114534  1
  O  O120  1  0.02611481  0.91181204  0.32908827  1
  O  O121  1  0.53450873  0.10560360  0.27919676  1
  O  O122  1  0.76044835  0.39168954  0.09397387  1
  O  O123  1  0.49277319  0.38433472  0.65256642  1
  O  O124  1  0.52235696  0.88084846  0.16002464  1
  O  O125  1  0.97388519  0.08818796  0.67091173  1
  O  O126  1  0.76258352  0.28982995  0.83590740  1
  O  O127  1  0.76524935  0.54171204  0.23278326  1
  O  O128  1  0.49714440  0.05573770  0.65624469  1
  O  O129  1  0.06704132  0.28983495  0.47603870  1
  O  O130  1  0.22171093  0.95158039  0.99771470  1
  O  O131  1  0.73277750  0.52520912  0.66263650  1
  O  O132  1  0.76589766  0.21611764  0.49161414  1
  O  O133  1  0.44591334  0.11816188  0.53221177  1
  O  O134  1  0.50722681  0.61566528  0.34743358  1
  O  O135  1  0.02235696  0.61915154  0.33997536  1
  O  O136  1  0.23410234  0.78388236  0.50838586  1
  O  O137  1  0.43295868  0.78983495  0.97603870  1
  O  O138  1  0.28493287  0.21523347  0.16297548  1
  O  O139  1  0.77828907  0.04841961  0.00228530  1
  O  O140  1  0.25201364  0.78170545  0.82978149  1
  O  O141  1  0.26290806  0.54883606  0.22896522  1
  O  O142  1  0.04781464  0.14010409  0.53798812  1
  O  O143  1  0.00814188  0.90115861  0.71528022  1
