# generated using pymatgen
data_Al(HO)3
_symmetry_space_group_name_H-M   'P 1'
_cell_length_a   4.83916472
_cell_length_b   5.10534690
_cell_length_c   8.76699641
_cell_angle_alpha   90.00000000
_cell_angle_beta   90.00000000
_cell_angle_gamma   78.62946114
_symmetry_Int_Tables_number   1
_chemical_formula_structural   Al(HO)3
_chemical_formula_sum   'Al4 H12 O12'
_cell_volume   212.34287371
_cell_formula_units_Z   4
loop_
 _symmetry_equiv_pos_site_id
 _symmetry_equiv_pos_as_xyz
  1  'x, y, z'
loop_
 _atom_site_type_symbol
 _atom_site_label
 _atom_site_symmetry_multiplicity
 _atom_site_fract_x
 _atom_site_fract_y
 _atom_site_fract_z
 _atom_site_occupancy
  Al  Al0  1  0.01981167  0.95360494  0.66493325  1
  Al  Al1  1  0.98018833  0.54639506  0.16493325  1
  Al  Al2  1  0.98018833  0.04639506  0.33506675  1
  Al  Al3  1  0.01981167  0.45360494  0.83506675  1
  H  H4  1  0.36242116  0.24990143  0.61584093  1
  H  H5  1  0.79346491  0.86314728  0.95595997  1
  H  H6  1  0.63757884  0.25009857  0.11584093  1
  H  H7  1  0.79346491  0.36314728  0.54404003  1
  H  H8  1  0.20653509  0.13685272  0.04404003  1
  H  H9  1  0.60931495  0.20897465  0.81134592  1
  H  H10  1  0.60931495  0.70897465  0.68865408  1
  H  H11  1  0.39068505  0.29102535  0.31134592  1
  H  H12  1  0.63757884  0.75009857  0.38415907  1
  H  H13  1  0.39068505  0.79102535  0.18865408  1
  H  H14  1  0.36242116  0.74990143  0.88415907  1
  H  H15  1  0.20653509  0.63685272  0.45595997  1
  O  O16  1  0.18621907  0.83419835  0.17078530  1
  O  O17  1  0.21570314  0.82244625  0.48299911  1
  O  O18  1  0.74988342  0.29305069  0.20133746  1
  O  O19  1  0.21570314  0.32244625  0.01700089  1
  O  O20  1  0.81378093  0.66580165  0.67078530  1
  O  O21  1  0.74988342  0.79305069  0.29866254  1
  O  O22  1  0.18621907  0.33419835  0.32921470  1
  O  O23  1  0.78429686  0.67755375  0.98299911  1
  O  O24  1  0.81378093  0.16580165  0.82921470  1
  O  O25  1  0.25011658  0.70694931  0.79866254  1
  O  O26  1  0.25011658  0.20694931  0.70133746  1
  O  O27  1  0.78429686  0.17755375  0.51700089  1
