# generated using pymatgen
data_NpV4O12
_symmetry_space_group_name_H-M   'P 1'
_cell_length_a   8.66627118
_cell_length_b   8.66627143
_cell_length_c   15.83664340
_cell_angle_alpha   105.87946554
_cell_angle_beta   105.87946600
_cell_angle_gamma   89.99999854
_symmetry_Int_Tables_number   1
_chemical_formula_structural   NpV4O12
_chemical_formula_sum   'Np4 V16 O48'
_cell_volume   1096.74629446
_cell_formula_units_Z   4
loop_
 _symmetry_equiv_pos_site_id
 _symmetry_equiv_pos_as_xyz
  1  'x, y, z'
loop_
 _atom_site_type_symbol
 _atom_site_label
 _atom_site_symmetry_multiplicity
 _atom_site_fract_x
 _atom_site_fract_y
 _atom_site_fract_z
 _atom_site_occupancy
  Np  Np0  1  0.87504577  0.62504577  0.25009154  1
  Np  Np1  1  0.12495423  0.37495423  0.74990846  1
  Np  Np2  1  0.62504577  0.87504577  0.75009154  1
  Np  Np3  1  0.37495423  0.12495423  0.24990846  1
  V  V4  1  0.05494971  0.80315340  0.89689068  1
  V  V5  1  0.90626272  0.94505029  0.60310932  1
  V  V6  1  0.55463582  0.59352119  0.89676275  1
  V  V7  1  0.84212693  0.30324157  0.89676275  1
  V  V8  1  0.09373728  0.05494971  0.39689068  1
  V  V9  1  0.65805903  0.90626272  0.10310932  1
  V  V10  1  0.94505029  0.19684660  0.10310932  1
  V  V11  1  0.44536418  0.40647881  0.10323725  1
  V  V12  1  0.59352119  0.84212693  0.39676275  1
  V  V13  1  0.34194097  0.09373728  0.89689068  1
  V  V14  1  0.30324157  0.55463582  0.39676275  1
  V  V15  1  0.69675843  0.44536418  0.60323725  1
  V  V16  1  0.15787307  0.69675843  0.10323725  1
  V  V17  1  0.40647881  0.15787307  0.60323725  1
  V  V18  1  0.19684660  0.65805903  0.60310932  1
  V  V19  1  0.80315340  0.34194097  0.39689068  1
  O  O20  1  0.25050605  0.56063187  0.50007481  1
  O  O21  1  0.78961041  0.03961041  0.07922083  1
  O  O22  1  0.09088060  0.64108370  0.82022675  1
  O  O23  1  0.67951610  0.72996153  0.32026019  1
  O  O24  1  0.86138120  0.48356422  0.35302241  1
  O  O25  1  0.77065386  0.82085695  0.17977325  1
  O  O26  1  0.96038959  0.21038959  0.42077917  1
  O  O27  1  0.13861880  0.51643578  0.64697759  1
  O  O28  1  0.21038959  0.96038959  0.92077917  1
  O  O29  1  0.99164121  0.86945820  0.35302241  1
  O  O30  1  0.85925591  0.40970134  0.67973981  1
  O  O31  1  0.40970134  0.32048390  0.17973981  1
  O  O32  1  0.51643578  0.00835879  0.14697759  1
  O  O33  1  0.27003847  0.85925591  0.17973981  1
  O  O34  1  0.98361301  0.36158554  0.85283794  1
  O  O35  1  0.59029866  0.67951610  0.82026019  1
  O  O36  1  0.28988419  0.53988419  0.07976839  1
  O  O37  1  0.14074409  0.59029866  0.32026019  1
  O  O38  1  0.35891630  0.77065386  0.67977325  1
  O  O39  1  0.74949395  0.43936813  0.49992519  1
  O  O40  1  0.64108370  0.22934614  0.32022675  1
  O  O41  1  0.17914305  0.09088060  0.32022675  1
  O  O42  1  0.00835879  0.13054180  0.64697759  1
  O  O43  1  0.63841446  0.63077508  0.64716206  1
  O  O44  1  0.71011581  0.46011581  0.92023161  1
  O  O45  1  0.36158554  0.36922492  0.35283794  1
  O  O46  1  0.56063187  0.74956876  0.00007481  1
  O  O47  1  0.48356422  0.99164121  0.85302241  1
  O  O48  1  0.86945820  0.86138120  0.85302241  1
  O  O49  1  0.01638699  0.63841446  0.14716206  1
  O  O50  1  0.74956876  0.93944294  0.50007481  1
  O  O51  1  0.53988419  0.28988419  0.57976839  1
  O  O52  1  0.46011581  0.71011581  0.42023161  1
  O  O53  1  0.32048390  0.27003847  0.67973981  1
  O  O54  1  0.22934614  0.17914305  0.82022675  1
  O  O55  1  0.36922492  0.49125239  0.85283794  1
  O  O56  1  0.43936813  0.25043124  0.99992519  1
  O  O57  1  0.82085695  0.90911940  0.67977325  1
  O  O58  1  0.25043124  0.06055706  0.49992519  1
  O  O59  1  0.13054180  0.13861880  0.14697759  1
  O  O60  1  0.63077508  0.50874761  0.14716206  1
  O  O61  1  0.72996153  0.14074409  0.82026019  1
  O  O62  1  0.50874761  0.01638699  0.64716206  1
  O  O63  1  0.49125239  0.98361301  0.35283794  1
  O  O64  1  0.06055706  0.74949395  0.99992519  1
  O  O65  1  0.90911940  0.35891630  0.17977325  1
  O  O66  1  0.93944294  0.25050605  0.00007481  1
  O  O67  1  0.03961041  0.78961041  0.57922083  1
