# generated using pymatgen
data_Th(MoO4)2
_symmetry_space_group_name_H-M   'P 1'
_cell_length_a   18.68800835
_cell_length_b   18.68800825
_cell_length_c   6.20651573
_cell_angle_alpha   90.00000000
_cell_angle_beta   90.00000000
_cell_angle_gamma   120.00000017
_symmetry_Int_Tables_number   1
_chemical_formula_structural   Th(MoO4)2
_chemical_formula_sum   'Th9 Mo18 O72'
_cell_volume   1877.17398957
_cell_formula_units_Z   9
loop_
 _symmetry_equiv_pos_site_id
 _symmetry_equiv_pos_as_xyz
  1  'x, y, z'
loop_
 _atom_site_type_symbol
 _atom_site_label
 _atom_site_symmetry_multiplicity
 _atom_site_fract_x
 _atom_site_fract_y
 _atom_site_fract_z
 _atom_site_occupancy
  Th  Th0  1  0.33333300  0.66666700  0.00000000  1
  Th  Th1  1  0.33496855  0.31490750  0.50000000  1
  Th  Th2  1  0.64790895  0.66343051  0.50000000  1
  Th  Th3  1  0.68509250  0.02006106  0.50000000  1
  Th  Th4  1  0.66666700  0.33333300  0.00000000  1
  Th  Th5  1  0.33656949  0.98447845  0.50000000  1
  Th  Th6  1  0.01552155  0.35209105  0.50000000  1
  Th  Th7  1  0.97993894  0.66503145  0.50000000  1
  Th  Th8  1  0.00000000  0.00000000  0.00000000  1
  Mo  Mo9  1  0.43991532  0.92124469  0.00000000  1
  Mo  Mo10  1  0.52163339  0.34377860  0.50000000  1
  Mo  Mo11  1  0.48132937  0.56008468  0.00000000  1
  Mo  Mo12  1  0.09163341  0.25736988  0.00000000  1
  Mo  Mo13  1  0.74263012  0.83426354  0.00000000  1
  Mo  Mo14  1  0.82214521  0.47836661  0.50000000  1
  Mo  Mo15  1  0.84480608  0.26446200  0.00000000  1
  Mo  Mo16  1  0.21893859  0.72515354  0.50000000  1
  Mo  Mo17  1  0.07875531  0.51867063  0.00000000  1
  Mo  Mo18  1  0.86860952  0.03008080  0.50000000  1
  Mo  Mo19  1  0.16573646  0.90836659  0.00000000  1
  Mo  Mo20  1  0.96991920  0.83852872  0.50000000  1
  Mo  Mo21  1  0.27484646  0.49378505  0.50000000  1
  Mo  Mo22  1  0.73553800  0.58034408  0.00000000  1
  Mo  Mo23  1  0.41965592  0.15519392  0.00000000  1
  Mo  Mo24  1  0.50621495  0.78106141  0.50000000  1
  Mo  Mo25  1  0.65622140  0.17785479  0.50000000  1
  Mo  Mo26  1  0.16147128  0.13139048  0.50000000  1
  O  O27  1  0.97404398  0.89544092  0.26679525  1
  O  O28  1  0.57759007  0.34610034  0.26783923  1
  O  O29  1  0.04721036  0.80366392  0.50000000  1
  O  O30  1  0.44086265  0.74709169  0.27196575  1
  O  O31  1  0.92139694  0.02595602  0.73320475  1
  O  O32  1  0.23036737  0.93806099  0.75891596  1
  O  O33  1  0.54374366  0.58562173  0.75673886  1
  O  O34  1  0.25290831  0.69377096  0.72803425  1
  O  O35  1  0.78716650  0.31796798  0.00000000  1
  O  O36  1  0.06193901  0.29230638  0.75891596  1
  O  O37  1  0.70769362  0.76963263  0.24108404  1
  O  O38  1  0.54374366  0.58562173  0.24326114  1
  O  O39  1  0.41437827  0.95812193  0.75673886  1
  O  O40  1  0.57688739  0.89665910  0.50000000  1
  O  O41  1  0.70630468  0.61244858  0.24553385  1
  O  O42  1  0.04649211  0.59236927  0.00000000  1
  O  O43  1  0.10455908  0.07860306  0.26679525  1
  O  O44  1  0.85379987  0.11635405  0.50000000  1
  O  O45  1  0.26255417  0.14620013  0.50000000  1
  O  O46  1  0.85311017  0.89022136  0.00000000  1
  O  O47  1  0.10977864  0.96288880  0.00000000  1
  O  O48  1  0.53080148  0.21283350  0.00000000  1
  O  O49  1  0.93546570  0.52480579  0.50000000  1
  O  O50  1  0.74625805  0.16645564  0.50000000  1
  O  O51  1  0.54587716  0.95350789  0.00000000  1
  O  O52  1  0.26757473  0.83377500  0.50000000  1
  O  O53  1  0.37668552  0.81057333  0.00000000  1
  O  O54  1  0.90614390  0.29369532  0.75446615  1
  O  O55  1  0.40763073  0.45412284  0.00000000  1
  O  O56  1  0.65389966  0.23148973  0.73216077  1
  O  O57  1  0.03711120  0.14688983  0.00000000  1
  O  O58  1  0.77685680  0.15689627  0.00000000  1
  O  O59  1  0.18942667  0.56611219  0.00000000  1
  O  O60  1  0.41437827  0.95812193  0.24326114  1
  O  O61  1  0.25290831  0.69377096  0.27196575  1
  O  O62  1  0.70769362  0.76963263  0.75891596  1
  O  O63  1  0.19844834  0.29339316  0.00000000  1
  O  O64  1  0.58934009  0.06453430  0.50000000  1
  O  O65  1  0.31977171  0.42311261  0.50000000  1
  O  O66  1  0.44086265  0.74709169  0.72803425  1
  O  O67  1  0.04187807  0.45625634  0.75673886  1
  O  O68  1  0.90614390  0.29369532  0.24553385  1
  O  O69  1  0.09494482  0.80155166  0.00000000  1
  O  O70  1  0.76851027  0.42240993  0.73216077  1
  O  O71  1  0.84310373  0.61996054  0.00000000  1
  O  O72  1  0.23036737  0.93806099  0.24108404  1
  O  O73  1  0.76851027  0.42240993  0.26783923  1
  O  O74  1  0.19633608  0.24354643  0.50000000  1
  O  O75  1  0.38003946  0.22314320  0.00000000  1
  O  O76  1  0.38755142  0.09385610  0.24553385  1
  O  O77  1  0.47519421  0.41065991  0.50000000  1
  O  O78  1  0.68203202  0.46919852  0.00000000  1
  O  O79  1  0.97404398  0.89544092  0.73320475  1
  O  O80  1  0.70630468  0.61244858  0.75446615  1
  O  O81  1  0.70660684  0.90505518  0.00000000  1
  O  O82  1  0.92139694  0.02595602  0.26679525  1
  O  O83  1  0.06193901  0.29230638  0.24108404  1
  O  O84  1  0.83354436  0.57980241  0.50000000  1
  O  O85  1  0.57759007  0.34610034  0.73216077  1
  O  O86  1  0.16622500  0.43379973  0.50000000  1
  O  O87  1  0.43388781  0.62331448  0.00000000  1
  O  O88  1  0.30622904  0.55913735  0.27196575  1
  O  O89  1  0.56620027  0.73242527  0.50000000  1
  O  O90  1  0.38755142  0.09385610  0.75446615  1
  O  O91  1  0.04187807  0.45625634  0.24326114  1
  O  O92  1  0.65389966  0.23148973  0.26783923  1
  O  O93  1  0.75645357  0.95278964  0.50000000  1
  O  O94  1  0.10334090  0.68022829  0.50000000  1
  O  O95  1  0.42019759  0.25374195  0.50000000  1
  O  O96  1  0.30622904  0.55913735  0.72803425  1
  O  O97  1  0.88364595  0.73744583  0.50000000  1
  O  O98  1  0.10455908  0.07860306  0.73320475  1
