# generated using pymatgen
data_CuMoO4
_symmetry_space_group_name_H-M   'P 1'
_cell_length_a   6.81121047
_cell_length_b   8.56909343
_cell_length_c   9.91004576
_cell_angle_alpha   96.31379436
_cell_angle_beta   106.85743863
_cell_angle_gamma   100.92716940
_symmetry_Int_Tables_number   1
_chemical_formula_structural   CuMoO4
_chemical_formula_sum   'Cu6 Mo6 O24'
_cell_volume   535.07862444
_cell_formula_units_Z   6
loop_
 _symmetry_equiv_pos_site_id
 _symmetry_equiv_pos_as_xyz
  1  'x, y, z'
loop_
 _atom_site_type_symbol
 _atom_site_label
 _atom_site_symmetry_multiplicity
 _atom_site_fract_x
 _atom_site_fract_y
 _atom_site_fract_z
 _atom_site_occupancy
  Cu  Cu0  1  0.54700719  0.69987991  0.48721426  1
  Cu  Cu1  1  0.74834581  0.30081272  0.08877369  1
  Cu  Cu2  1  0.25165419  0.69918728  0.91122631  1
  Cu  Cu3  1  0.96709510  0.89285622  0.74175198  1
  Cu  Cu4  1  0.03290490  0.10714378  0.25824802  1
  Cu  Cu5  1  0.45299281  0.30012009  0.51278574  1
  Mo  Mo6  1  0.99769828  0.27916516  0.60926523  1
  Mo  Mo7  1  0.49489500  0.97223179  0.75059326  1
  Mo  Mo8  1  0.69550023  0.58841895  0.84288541  1
  Mo  Mo9  1  0.00230172  0.72083484  0.39073477  1
  Mo  Mo10  1  0.50510500  0.02776821  0.24940674  1
  Mo  Mo11  1  0.30449977  0.41158105  0.15711459  1
  O  O12  1  0.56753481  0.88564745  0.35832688  1
  O  O13  1  0.55842920  0.50018864  0.65819975  1
  O  O14  1  0.98891188  0.89855626  0.30923571  1
  O  O15  1  0.43246519  0.11435255  0.64167312  1
  O  O16  1  0.65661602  0.08058168  0.91668447  1
  O  O17  1  0.66241008  0.85069148  0.68290804  1
  O  O18  1  0.74643383  0.43076332  0.93862770  1
  O  O19  1  0.75194078  0.14330644  0.22550404  1
  O  O20  1  0.90364227  0.55099269  0.25460149  1
  O  O21  1  0.24805922  0.85669356  0.77449596  1
  O  O22  1  0.09635773  0.44900731  0.74539851  1
  O  O23  1  0.84542110  0.70814405  0.51250734  1
  O  O24  1  0.01108812  0.10144374  0.69076429  1
  O  O25  1  0.34338398  0.91941832  0.08331553  1
  O  O26  1  0.25356617  0.56923668  0.06137230  1
  O  O27  1  0.46112461  0.30288537  0.08290913  1
  O  O28  1  0.27341542  0.72732861  0.49333001  1
  O  O29  1  0.53887539  0.69711463  0.91709087  1
  O  O30  1  0.72658458  0.27267139  0.50666999  1
  O  O31  1  0.95447651  0.72695134  0.86679215  1
  O  O32  1  0.33758992  0.14930852  0.31709196  1
  O  O33  1  0.44157080  0.49981136  0.34180025  1
  O  O34  1  0.04552349  0.27304866  0.13320785  1
  O  O35  1  0.15457890  0.29185595  0.48749266  1
