# generated using pymatgen
data_Cu2As4S3Cl2
_symmetry_space_group_name_H-M   'P 1'
_cell_length_a   6.27161877
_cell_length_b   7.07310357
_cell_length_c   11.99361645
_cell_angle_alpha   90.00000000
_cell_angle_beta   102.83409869
_cell_angle_gamma   90.00000000
_symmetry_Int_Tables_number   1
_chemical_formula_structural   Cu2As4S3Cl2
_chemical_formula_sum   'Cu4 As8 S6 Cl4'
_cell_volume   518.74289367
_cell_formula_units_Z   2
loop_
 _symmetry_equiv_pos_site_id
 _symmetry_equiv_pos_as_xyz
  1  'x, y, z'
loop_
 _atom_site_type_symbol
 _atom_site_label
 _atom_site_symmetry_multiplicity
 _atom_site_fract_x
 _atom_site_fract_y
 _atom_site_fract_z
 _atom_site_occupancy
  Cu  Cu0  1  0.43977420  0.97133611  0.80795807  1
  Cu  Cu1  1  0.56022580  0.02866389  0.19204193  1
  Cu  Cu2  1  0.43977420  0.52866389  0.80795807  1
  Cu  Cu3  1  0.56022580  0.47133611  0.19204193  1
  As  As4  1  0.01677852  0.75000000  0.10737130  1
  As  As5  1  0.26451862  0.57200009  0.39504306  1
  As  As6  1  0.92501587  0.75000000  0.40583897  1
  As  As7  1  0.26451862  0.92799991  0.39504306  1
  As  As8  1  0.73548138  0.42799991  0.60495694  1
  As  As9  1  0.98322148  0.25000000  0.89262870  1
  As  As10  1  0.07498413  0.25000000  0.59416103  1
  As  As11  1  0.73548138  0.07200009  0.60495694  1
  S  S12  1  0.20327372  0.99824746  0.20421082  1
  S  S13  1  0.79672628  0.49824746  0.79578918  1
  S  S14  1  0.20327372  0.50175254  0.20421082  1
  S  S15  1  0.25584604  0.25000000  0.78465304  1
  S  S16  1  0.74415396  0.75000000  0.21534696  1
  S  S17  1  0.79672628  0.00175254  0.79578918  1
  Cl  Cl18  1  0.29753812  0.75000000  0.64539343  1
  Cl  Cl19  1  0.60831425  0.25000000  0.05765717  1
  Cl  Cl20  1  0.39168575  0.75000000  0.94234283  1
  Cl  Cl21  1  0.70246188  0.25000000  0.35460657  1
