# generated using pymatgen
data_V2Te2O7F2
_symmetry_space_group_name_H-M   'P 1'
_cell_length_a   4.95646311
_cell_length_b   5.34098280
_cell_length_c   7.31902068
_cell_angle_alpha   108.82306531
_cell_angle_beta   91.38056102
_cell_angle_gamma   89.83059390
_symmetry_Int_Tables_number   1
_chemical_formula_structural   V2Te2O7F2
_chemical_formula_sum   'V2 Te2 O7 F2'
_cell_volume   183.33435824
_cell_formula_units_Z   1
loop_
 _symmetry_equiv_pos_site_id
 _symmetry_equiv_pos_as_xyz
  1  'x, y, z'
loop_
 _atom_site_type_symbol
 _atom_site_label
 _atom_site_symmetry_multiplicity
 _atom_site_fract_x
 _atom_site_fract_y
 _atom_site_fract_z
 _atom_site_occupancy
  V  V0  1  0.76122459  0.34562782  0.36357048  1
  V  V1  1  0.23877541  0.65437218  0.63642952  1
  Te  Te2  1  0.72234117  0.31488659  0.82514269  1
  Te  Te3  1  0.27765883  0.68511341  0.17485731  1
  O  O4  1  0.13185347  0.94971367  0.76525916  1
  O  O5  1  0.07545048  0.59120809  0.37241774  1
  O  O6  1  0.86814653  0.05028633  0.23474084  1
  O  O7  1  0.47713828  0.60585530  0.85922843  1
  O  O8  1  0.52286172  0.39414470  0.14077157  1
  O  O9  1  0.92454952  0.40879191  0.62758226  1
  O  O10  1  0.00000000  0.50000000  0.00000000  1
  F  F11  1  0.43880149  0.26290578  0.49023606  1
  F  F12  1  0.56119851  0.73709422  0.50976394  1
