# generated using pymatgen
data_La2WO6
_symmetry_space_group_name_H-M   'P 1'
_cell_length_a   7.56026507
_cell_length_b   10.53587358
_cell_length_c   12.89918437
_cell_angle_alpha   90.00000000
_cell_angle_beta   90.00000000
_cell_angle_gamma   90.00000000
_symmetry_Int_Tables_number   1
_chemical_formula_structural   La2WO6
_chemical_formula_sum   'La16 W8 O48'
_cell_volume   1027.47159322
_cell_formula_units_Z   8
loop_
 _symmetry_equiv_pos_site_id
 _symmetry_equiv_pos_as_xyz
  1  'x, y, z'
loop_
 _atom_site_type_symbol
 _atom_site_label
 _atom_site_symmetry_multiplicity
 _atom_site_fract_x
 _atom_site_fract_y
 _atom_site_fract_z
 _atom_site_occupancy
  La  La0  1  0.26242093  0.55314625  0.63443518  1
  La  La1  1  0.26229882  0.04411485  0.82547099  1
  La  La2  1  0.56822778  0.58415209  0.41632313  1
  La  La3  1  0.06822778  0.91584791  0.58367687  1
  La  La4  1  0.51958990  0.72473678  0.91535261  1
  La  La5  1  0.23770118  0.95588515  0.32547099  1
  La  La6  1  0.98041010  0.27526322  0.41535261  1
  La  La7  1  0.48041010  0.22473678  0.58464739  1
  La  La8  1  0.76229882  0.45588515  0.17452901  1
  La  La9  1  0.23757907  0.44685375  0.13443518  1
  La  La10  1  0.43177222  0.08415209  0.08367687  1
  La  La11  1  0.73757907  0.05314625  0.86556482  1
  La  La12  1  0.76242093  0.94685375  0.36556482  1
  La  La13  1  0.01958990  0.77526322  0.08464739  1
  La  La14  1  0.73770118  0.54411485  0.67452901  1
  La  La15  1  0.93177222  0.41584791  0.91632313  1
  W  W16  1  0.94313728  0.77190133  0.81679102  1
  W  W17  1  0.03540568  0.62161553  0.37031498  1
  W  W18  1  0.53540568  0.87838447  0.62968502  1
  W  W19  1  0.96459432  0.12161553  0.12968502  1
  W  W20  1  0.05686272  0.27190133  0.68320898  1
  W  W21  1  0.55686272  0.22809867  0.31679102  1
  W  W22  1  0.46459432  0.37838447  0.87031498  1
  W  W23  1  0.44313728  0.72809867  0.18320898  1
  O  O24  1  0.74828006  0.09088893  0.05310874  1
  O  O25  1  0.47743728  0.55542714  0.23106547  1
  O  O26  1  0.44897726  0.54581394  0.79499575  1
  O  O27  1  0.31927422  0.85316631  0.70565351  1
  O  O28  1  0.00320380  0.70654226  0.68151834  1
  O  O29  1  0.85066623  0.25338681  0.61030563  1
  O  O30  1  0.99679620  0.20654226  0.81848166  1
  O  O31  1  0.32138109  0.88417760  0.14889344  1
  O  O32  1  0.97213148  0.29869597  0.08235905  1
  O  O33  1  0.97126842  0.55680581  0.07165185  1
  O  O34  1  0.97743728  0.94457286  0.76893453  1
  O  O35  1  0.50320380  0.79345774  0.31848166  1
  O  O36  1  0.35066623  0.24661319  0.38969437  1
  O  O37  1  0.47126842  0.94319419  0.92834815  1
  O  O38  1  0.25171994  0.59088893  0.44689126  1
  O  O39  1  0.39828615  0.94539622  0.51646391  1
  O  O40  1  0.68072578  0.35316631  0.79434649  1
  O  O41  1  0.55102274  0.04581394  0.70500425  1
  O  O42  1  0.32391897  0.65615881  0.06277067  1
  O  O43  1  0.67608103  0.15615881  0.43722933  1
  O  O44  1  0.89828615  0.55460378  0.48353609  1
  O  O45  1  0.32342972  0.30514639  0.74922612  1
  O  O46  1  0.05102274  0.45418606  0.29499575  1
  O  O47  1  0.02873158  0.05680581  0.42834815  1
  O  O48  1  0.17861891  0.11582240  0.64889344  1
  O  O49  1  0.17608103  0.34384119  0.56277067  1
  O  O50  1  0.17657028  0.69485361  0.24922612  1
  O  O51  1  0.75171994  0.90911107  0.55310874  1
  O  O52  1  0.60171385  0.44539622  0.98353609  1
  O  O53  1  0.14933377  0.75338681  0.88969437  1
  O  O54  1  0.94897726  0.95418606  0.20500425  1
  O  O55  1  0.49679620  0.29345774  0.18151834  1
  O  O56  1  0.82138109  0.61582240  0.85110656  1
  O  O57  1  0.52786852  0.70130403  0.58235905  1
  O  O58  1  0.47213148  0.20130403  0.91764095  1
  O  O59  1  0.81927422  0.64683369  0.29434649  1
  O  O60  1  0.18072578  0.14683369  0.20565351  1
  O  O61  1  0.10171385  0.05460378  0.01646391  1
  O  O62  1  0.64933377  0.74661319  0.11030563  1
  O  O63  1  0.24828006  0.40911107  0.94689126  1
  O  O64  1  0.02256272  0.44457286  0.73106547  1
  O  O65  1  0.67657028  0.80514639  0.75077388  1
  O  O66  1  0.82342972  0.19485361  0.25077388  1
  O  O67  1  0.52873158  0.44319419  0.57165185  1
  O  O68  1  0.52256272  0.05542714  0.26893453  1
  O  O69  1  0.02786852  0.79869597  0.41764095  1
  O  O70  1  0.82391897  0.84384119  0.93722933  1
  O  O71  1  0.67861891  0.38417760  0.35110656  1
