# generated using pymatgen
data_HfI4
_symmetry_space_group_name_H-M   'P 1'
_cell_length_a   13.74357110
_cell_length_b   13.74357110
_cell_length_c   13.74357110
_cell_angle_alpha   90.00000000
_cell_angle_beta   90.00000000
_cell_angle_gamma   90.00000000
_symmetry_Int_Tables_number   1
_chemical_formula_structural   HfI4
_chemical_formula_sum   'Hf8 I32'
_cell_volume   2595.96468791
_cell_formula_units_Z   8
loop_
 _symmetry_equiv_pos_site_id
 _symmetry_equiv_pos_as_xyz
  1  'x, y, z'
loop_
 _atom_site_type_symbol
 _atom_site_label
 _atom_site_symmetry_multiplicity
 _atom_site_fract_x
 _atom_site_fract_y
 _atom_site_fract_z
 _atom_site_occupancy
  Hf  Hf0  1  0.37418449  0.62581551  0.12581551  1
  Hf  Hf1  1  0.12581551  0.12581551  0.12581551  1
  Hf  Hf2  1  0.87418449  0.62581551  0.37418449  1
  Hf  Hf3  1  0.12581551  0.37418449  0.62581551  1
  Hf  Hf4  1  0.62581551  0.12581551  0.37418449  1
  Hf  Hf5  1  0.37418449  0.87418449  0.62581551  1
  Hf  Hf6  1  0.87418449  0.87418449  0.87418449  1
  Hf  Hf7  1  0.62581551  0.37418449  0.87418449  1
  I  I8  1  0.73897230  0.48536356  0.98725169  1
  I  I9  1  0.48536356  0.98725169  0.73897230  1
  I  I10  1  0.23897230  0.01463644  0.01274831  1
  I  I11  1  0.01463644  0.01274831  0.23897230  1
  I  I12  1  0.51463644  0.01274831  0.26102770  1
  I  I13  1  0.51463644  0.48725169  0.76102770  1
  I  I14  1  0.01463644  0.48725169  0.73897230  1
  I  I15  1  0.98725169  0.76102770  0.98536356  1
  I  I16  1  0.01274831  0.26102770  0.51463644  1
  I  I17  1  0.51274831  0.26102770  0.98536356  1
  I  I18  1  0.98536356  0.98725169  0.76102770  1
  I  I19  1  0.01274831  0.23897230  0.01463644  1
  I  I20  1  0.98725169  0.73897230  0.48536356  1
  I  I21  1  0.26184173  0.73815827  0.23815827  1
  I  I22  1  0.76184173  0.73815827  0.26184173  1
  I  I23  1  0.73815827  0.23815827  0.26184173  1
  I  I24  1  0.98536356  0.51274831  0.26102770  1
  I  I25  1  0.73815827  0.26184173  0.76184173  1
  I  I26  1  0.48725169  0.76102770  0.51463644  1
  I  I27  1  0.51274831  0.23897230  0.48536356  1
  I  I28  1  0.76102770  0.98536356  0.98725169  1
  I  I29  1  0.23815827  0.26184173  0.73815827  1
  I  I30  1  0.76184173  0.76184173  0.76184173  1
  I  I31  1  0.23897230  0.48536356  0.51274831  1
  I  I32  1  0.26184173  0.76184173  0.73815827  1
  I  I33  1  0.76102770  0.51463644  0.48725169  1
  I  I34  1  0.23815827  0.23815827  0.23815827  1
  I  I35  1  0.26102770  0.51463644  0.01274831  1
  I  I36  1  0.73897230  0.01463644  0.48725169  1
  I  I37  1  0.26102770  0.98536356  0.51274831  1
  I  I38  1  0.48725169  0.73897230  0.01463644  1
  I  I39  1  0.48536356  0.51274831  0.23897230  1
