# generated using pymatgen
data_SiC
_symmetry_space_group_name_H-M   'P 1'
_cell_length_a   32.90377935
_cell_length_b   32.90377930
_cell_length_c   32.90377946
_cell_angle_alpha   5.39747670
_cell_angle_beta   5.39747771
_cell_angle_gamma   5.39747767
_symmetry_Int_Tables_number   1
_chemical_formula_structural   SiC
_chemical_formula_sum   'Si13 C13'
_cell_volume   273.17462777
_cell_formula_units_Z   13
loop_
 _symmetry_equiv_pos_site_id
 _symmetry_equiv_pos_as_xyz
  1  'x, y, z'
loop_
 _atom_site_type_symbol
 _atom_site_label
 _atom_site_symmetry_multiplicity
 _atom_site_fract_x
 _atom_site_fract_y
 _atom_site_fract_z
 _atom_site_occupancy
  Si  Si0  1  0.61536498  0.61536498  0.61536498  1
  Si  Si1  1  0.15382984  0.15382984  0.15382984  1
  Si  Si2  1  0.92307120  0.92307120  0.92307120  1
  Si  Si3  1  0.76921668  0.76921668  0.76921668  1
  Si  Si4  1  0.71791272  0.71791272  0.71791272  1
  Si  Si5  1  0.07690247  0.07690247  0.07690247  1
  Si  Si6  1  0.35896090  0.35896090  0.35896090  1
  Si  Si7  1  0.99998001  0.99998001  0.99998001  1
  Si  Si8  1  0.30765481  0.30765481  0.30765481  1
  Si  Si9  1  0.46150508  0.46150508  0.46150508  1
  Si  Si10  1  0.23075586  0.23075586  0.23075586  1
  Si  Si11  1  0.87176346  0.87176346  0.87176346  1
  Si  Si12  1  0.51280983  0.51280983  0.51280983  1
  C  C13  1  0.53206694  0.53206694  0.53206694  1
  C  C14  1  0.32690427  0.32690427  0.32690427  1
  C  C15  1  0.17314214  0.17314214  0.17314214  1
  C  C16  1  0.89101096  0.89101096  0.89101096  1
  C  C17  1  0.09622077  0.09622077  0.09622077  1
  C  C18  1  0.94232907  0.94232907  0.94232907  1
  C  C19  1  0.01929648  0.01929648  0.01929648  1
  C  C20  1  0.48075274  0.48075274  0.48075274  1
  C  C21  1  0.63461771  0.63461771  0.63461771  1
  C  C22  1  0.78847803  0.78847803  0.78847803  1
  C  C23  1  0.25006936  0.25006936  0.25006936  1
  C  C24  1  0.37821619  0.37821619  0.37821619  1
  C  C25  1  0.73715751  0.73715751  0.73715751  1
