# generated using pymatgen
data_SiC
_symmetry_space_group_name_H-M   'P 1'
_cell_length_a   22.81363712
_cell_length_b   22.81363705
_cell_length_c   22.81363710
_cell_angle_alpha   7.78713470
_cell_angle_beta   7.78713588
_cell_angle_gamma   7.78713502
_symmetry_Int_Tables_number   1
_chemical_formula_structural   SiC
_chemical_formula_sum   'Si9 C9'
_cell_volume   189.06740428
_cell_formula_units_Z   9
loop_
 _symmetry_equiv_pos_site_id
 _symmetry_equiv_pos_as_xyz
  1  'x, y, z'
loop_
 _atom_site_type_symbol
 _atom_site_label
 _atom_site_symmetry_multiplicity
 _atom_site_fract_x
 _atom_site_fract_y
 _atom_site_fract_z
 _atom_site_occupancy
  Si  Si0  1  0.88893578  0.88893578  0.88893578  1
  Si  Si1  1  0.51851712  0.51851712  0.51851712  1
  Si  Si2  1  0.14810439  0.14810439  0.14810439  1
  Si  Si3  1  0.29620097  0.29620097  0.29620097  1
  Si  Si4  1  0.59260235  0.59260235  0.59260235  1
  Si  Si5  1  0.99990607  0.99990607  0.99990607  1
  Si  Si6  1  0.44437741  0.44437741  0.44437741  1
  Si  Si7  1  0.37029340  0.37029340  0.37029340  1
  Si  Si8  1  0.74068907  0.74068907  0.74068907  1
  C  C9  1  0.39813310  0.39813310  0.39813310  1
  C  C10  1  0.76859918  0.76859918  0.76859918  1
  C  C11  1  0.32400955  0.32400955  0.32400955  1
  C  C12  1  0.02782900  0.02782900  0.02782900  1
  C  C13  1  0.47219542  0.47219542  0.47219542  1
  C  C14  1  0.91682325  0.91682325  0.91682325  1
  C  C15  1  0.17603560  0.17603560  0.17603560  1
  C  C16  1  0.54635605  0.54635605  0.54635605  1
  C  C17  1  0.62039230  0.62039230  0.62039230  1
