# generated using pymatgen
data_Co29O40
_symmetry_space_group_name_H-M   'P 1'
_cell_length_a   29.48595837
_cell_length_b   15.62337161
_cell_length_c   10.22471296
_cell_angle_alpha   29.11395912
_cell_angle_beta   30.06387922
_cell_angle_gamma   19.16130805
_symmetry_Int_Tables_number   1
_chemical_formula_structural   Co29O40
_chemical_formula_sum   'Co29 O40'
_cell_volume   727.97691504
_cell_formula_units_Z   1
loop_
 _symmetry_equiv_pos_site_id
 _symmetry_equiv_pos_as_xyz
  1  'x, y, z'
loop_
 _atom_site_type_symbol
 _atom_site_label
 _atom_site_symmetry_multiplicity
 _atom_site_fract_x
 _atom_site_fract_y
 _atom_site_fract_z
 _atom_site_occupancy
  Co  Co0  1  0.14167740  0.13651883  0.13070483  1
  Co  Co1  1  0.19804123  -0.00327647  0.51230396  1
  Co  Co2  1  0.00265977  0.49491475  0.50037105  1
  Co  Co3  1  0.35136907  0.12091225  0.13143552  1
  Co  Co4  1  0.09982781  0.49496455  0.51125904  1
  Co  Co5  1  0.40194298  0.99736483  0.49917918  1
  Co  Co6  1  0.19480973  0.51196915  0.49374216  1
  Co  Co7  1  0.10250369  0.50206185  0.99082716  1
  Co  Co8  1  0.54955892  0.12741770  0.11856421  1
  Co  Co9  1  0.29872259  0.50502941  0.49710093  1
  Co  Co10  1  0.59911332  0.00596026  0.49634186  1
  Co  Co11  1  0.05073864  0.87322094  0.88248692  1
  Co  Co12  1  0.40200864  0.49085008  0.50626883  1
  Co  Co13  1  0.30255597  0.49134087  0.00738030  1
  Co  Co14  1  0.75289650  0.12336914  0.11900395  1
  Co  Co15  1  0.49990228  0.50009895  0.50116592  1
  Co  Co16  1  0.24931070  0.87567501  0.87483382  1
  Co  Co17  1  0.80069689  -0.00280570  0.50148678  1
  Co  Co18  1  0.60016754  0.49991392  0.49660170  1
  Co  Co19  1  0.49835634  0.49895106  0.00342111  1
  Co  Co20  1  0.70440607  0.49766495  0.48598657  1
  Co  Co21  1  0.99619512  0.01162246  0.48957075  1
  Co  Co22  1  0.45303013  0.86858743  0.87602256  1
  Co  Co23  1  0.79824327  0.50560461  0.49839803  1
  Co  Co24  1  0.71065187  0.48515039  -0.00183673  1
  Co  Co25  1  0.90400261  0.49904364  0.49293842  1
  Co  Co26  1  0.65609889  0.86303311  0.87577047  1
  Co  Co27  1  0.89774076  0.50368198  0.00101300  1
  Co  Co28  1  0.84911417  0.87397883  0.87617930  1
  O  O29  1  0.08885795  0.26942881  0.26586827  1
  O  O30  1  0.00424042  0.28040959  0.68505600  1
  O  O31  1  0.18836505  0.26199613  0.26117042  1
  O  O32  1  0.08444793  0.27822102  0.76200122  1
  O  O33  1  0.30661600  0.24849986  0.25486945  1
  O  O34  1  0.12902717  0.69173525  0.24829515  1
  O  O35  1  0.20243223  0.25811687  0.72715149  1
  O  O36  1  0.39060057  0.25494963  0.25453784  1
  O  O37  1  0.00848166  0.74922400  0.73322275  1
  O  O38  1  0.19525485  0.74406366  0.27650776  1
  O  O39  1  0.28696059  0.27747411  0.74306236  1
  O  O40  1  0.09717449  0.75417264  0.74047576  1
  O  O41  1  0.49656496  0.25851522  0.25642846  1
  O  O42  1  0.30777026  0.73005554  0.25726358  1
  O  O43  1  0.40534280  0.25138870  0.72838328  1
  O  O44  1  0.58938435  0.26372303  0.25155862  1
  O  O45  1  0.21639338  0.72133355  0.76253949  1
  O  O46  1  0.39633518  0.73907797  0.28917605  1
  O  O47  1  0.48652144  0.27561482  0.75690686  1
  O  O48  1  0.30052863  0.72581311  0.76818912  1
  O  O49  1  0.69957302  0.24809326  0.26709544  1
  O  O50  1  0.51171121  0.71595863  0.27168808  1
  O  O51  1  0.59633749  0.28000499  0.71174658  1
  O  O52  1  0.77295256  0.27648143  0.27683927  1
  O  O53  1  0.41678667  0.73950043  0.72138800  1
  O  O54  1  0.60225343  0.71870694  0.28123299  1
  O  O55  1  0.68566348  0.28167365  0.73241340  1
  O  O56  1  0.50400733  0.74564037  0.72662801  1
  O  O57  1  0.89399934  0.27430167  0.25401570  1
  O  O58  1  0.71317992  0.72789592  0.23700493  1
  O  O59  1  0.79936816  0.27875011  0.71278485  1
  O  O60  1  0.97423414  0.28964978  0.25633978  1
  O  O61  1  0.61916368  0.72479733  0.74467798  1
  O  O62  1  0.80176960  0.72425500  0.28840535  1
  O  O63  1  0.89790019  0.27681346  0.73533343  1
  O  O64  1  0.71773912  0.73003002  0.71919548  1
  O  O65  1  0.91027176  0.72087099  0.25159149  1
  O  O66  1  0.81942036  0.72360507  0.74395121  1
  O  O67  1  -0.00113423  0.72577354  0.29052387  1
  O  O68  1  0.90007096  0.74071411  0.74645965  1
