# generated using pymatgen
data_SrAlSi4N7
_symmetry_space_group_name_H-M   'P 1'
_cell_length_a   4.97249490
_cell_length_b   11.81134550
_cell_length_c   21.27812965
_cell_angle_alpha   90.00000000
_cell_angle_beta   90.00000000
_cell_angle_gamma   90.00000000
_symmetry_Int_Tables_number   1
_chemical_formula_structural   SrAlSi4N7
_chemical_formula_sum   'Sr8 Al8 Si32 N56'
_cell_volume   1249.70403083
_cell_formula_units_Z   8
loop_
 _symmetry_equiv_pos_site_id
 _symmetry_equiv_pos_as_xyz
  1  'x, y, z'
loop_
 _atom_site_type_symbol
 _atom_site_label
 _atom_site_symmetry_multiplicity
 _atom_site_fract_x
 _atom_site_fract_y
 _atom_site_fract_z
 _atom_site_occupancy
  Sr  Sr0  1  0.93598560  0.22676103  0.01051238  1
  Sr  Sr1  1  0.43598560  0.27323897  0.51051238  1
  Sr  Sr2  1  0.46676110  0.15032840  0.79779536  1
  Sr  Sr3  1  0.46676110  0.65032840  0.70220464  1
  Sr  Sr4  1  0.43598560  0.77323897  0.98948762  1
  Sr  Sr5  1  0.93598560  0.72676103  0.48948762  1
  Sr  Sr6  1  0.96676110  0.34967160  0.29779536  1
  Sr  Sr7  1  0.96676110  0.84967160  0.20220464  1
  Al  Al8  1  0.22987399  0.65995578  0.84829276  1
  Al  Al9  1  0.72987399  0.34004422  0.15170724  1
  Al  Al10  1  0.73763157  0.66121976  0.84972145  1
  Al  Al11  1  0.23763157  0.83878024  0.34972145  1
  Al  Al12  1  0.23763157  0.33878024  0.15027855  1
  Al  Al13  1  0.72987399  0.84004422  0.34829276  1
  Al  Al14  1  0.73763157  0.16121976  0.65027855  1
  Al  Al15  1  0.22987399  0.15995578  0.65170724  1
  Si  Si16  1  0.45783265  0.96604225  0.11027068  1
  Si  Si17  1  0.46880303  0.92886145  0.69961956  1
  Si  Si18  1  0.94968558  0.80988340  0.63909296  1
  Si  Si19  1  0.47072780  0.89853738  0.84690870  1
  Si  Si20  1  0.47072780  0.39853738  0.65309130  1
  Si  Si21  1  0.45783265  0.46604225  0.38972932  1
  Si  Si22  1  0.45975170  0.49888094  0.04424152  1
  Si  Si23  1  0.44968558  0.19011660  0.36090704  1
  Si  Si24  1  0.96880303  0.57113855  0.19961956  1
  Si  Si25  1  0.96880303  0.07113855  0.30038044  1
  Si  Si26  1  0.95717117  0.93981249  0.03331579  1
  Si  Si27  1  0.94658652  0.16232498  0.43470098  1
  Si  Si28  1  0.46889813  0.14079434  0.22330066  1
  Si  Si29  1  0.94658652  0.66232498  0.06529902  1
  Si  Si30  1  0.95717117  0.43981249  0.46668421  1
  Si  Si31  1  0.94968558  0.30988340  0.86090704  1
  Si  Si32  1  0.95975170  0.50111906  0.95575848  1
  Si  Si33  1  0.44658652  0.33767502  0.93470098  1
  Si  Si34  1  0.44658652  0.83767502  0.56529902  1
  Si  Si35  1  0.96889813  0.85920566  0.77669934  1
  Si  Si36  1  0.45717117  0.56018751  0.53331579  1
  Si  Si37  1  0.46880303  0.42886145  0.80038044  1
  Si  Si38  1  0.97072780  0.60146262  0.34690870  1
  Si  Si39  1  0.96889813  0.35920566  0.72330066  1
  Si  Si40  1  0.44968558  0.69011660  0.13909296  1
  Si  Si41  1  0.45717117  0.06018751  0.96668421  1
  Si  Si42  1  0.95975170  1.00111906  0.54424152  1
  Si  Si43  1  0.95783265  0.03395775  0.88972932  1
  Si  Si44  1  0.45975170  -0.00111906  0.45575848  1
  Si  Si45  1  0.95783265  0.53395775  0.61027068  1
  Si  Si46  1  0.46889813  0.64079434  0.27669934  1
  Si  Si47  1  0.97072780  0.10146262  0.15309130  1
  N  N48  1  0.29082459  0.13220288  0.29462963  1
  N  N49  1  0.80269943  0.08861478  0.22686583  1
  N  N50  1  0.80505324  0.00292392  0.10168794  1
  N  N51  1  0.30269943  0.41138522  0.72686583  1
  N  N52  1  0.42565798  0.70387812  0.53259751  1
  N  N53  1  0.80123299  0.51054865  0.53346868  1
  N  N54  1  0.98569910  0.93281763  0.31473004  1
  N  N55  1  0.80123299  0.01054865  0.96653132  1
  N  N56  1  0.29745378  0.34474768  0.85797273  1
  N  N57  1  0.48569910  0.56718237  0.81473004  1
  N  N58  1  0.79745378  0.65525232  0.14202727  1
  N  N59  1  0.98280294  0.71974666  0.79282641  1
  N  N60  1  0.27830415  0.94429392  0.52096362  1
  N  N61  1  0.29745378  0.84474768  0.64202727  1
  N  N62  1  0.77830415  0.05570608  0.47903638  1
  N  N63  1  0.98987577  0.10757898  0.59494136  1
  N  N64  1  0.97876892  0.73371177  0.37552777  1
  N  N65  1  0.30004429  0.55318680  0.33300157  1
  N  N66  1  0.80505324  0.50292392  0.39831206  1
  N  N67  1  0.48280294  0.78025334  0.29282641  1
  N  N68  1  0.78973899  0.87808683  0.57322881  1
  N  N69  1  0.91186498  0.66887895  0.63253803  1
  N  N70  1  0.77830415  0.55570608  0.02096362  1
  N  N71  1  0.98987577  0.60757898  0.90505864  1
  N  N72  1  0.80004429  0.94681320  0.83300157  1
  N  N73  1  0.48987577  0.39242102  0.09494136  1
  N  N74  1  0.28973899  0.62191317  0.07322881  1
  N  N75  1  0.30505324  0.49707608  0.60168794  1
  N  N76  1  0.41186498  0.33112105  0.36746197  1
  N  N77  1  0.98280294  0.21974666  0.70717359  1
  N  N78  1  0.91186498  0.16887895  0.86746197  1
  N  N79  1  0.98569910  0.43281763  0.18526996  1
  N  N80  1  0.29082459  0.63220288  0.20537037  1
  N  N81  1  0.92565798  0.79612188  0.03259751  1
  N  N82  1  0.27830415  0.44429392  0.97903638  1
  N  N83  1  0.30269943  0.91138522  0.77313417  1
  N  N84  1  0.41186498  0.83112105  0.13253803  1
  N  N85  1  0.80269943  0.58861478  0.27313417  1
  N  N86  1  0.80004429  0.44681320  0.66699843  1
  N  N87  1  0.30004429  0.05318680  0.16699843  1
  N  N88  1  0.47876892  0.26628823  0.62447223  1
  N  N89  1  0.42565798  0.20387812  0.96740249  1
  N  N90  1  0.79745378  0.15525232  0.35797273  1
  N  N91  1  0.78973899  0.37808683  0.92677119  1
  N  N92  1  0.48280294  0.28025334  0.20717359  1
  N  N93  1  0.79082459  0.86779712  0.70537037  1
  N  N94  1  0.48569910  0.06718237  0.68526996  1
  N  N95  1  0.79082459  0.36779712  0.79462963  1
  N  N96  1  0.28973899  0.12191317  0.42677119  1
  N  N97  1  0.47876892  0.76628823  0.87552777  1
  N  N98  1  0.30123299  0.98945135  0.03346868  1
  N  N99  1  0.30505324  0.99707608  0.89831206  1
  N  N100  1  0.48987577  0.89242102  0.40505864  1
  N  N101  1  0.97876892  0.23371177  0.12447223  1
  N  N102  1  0.30123299  0.48945135  0.46653132  1
  N  N103  1  0.92565798  0.29612188  0.46740249  1
