# generated using pymatgen
data_SiC
_symmetry_space_group_name_H-M   'P 1'
_cell_length_a   20.28236361
_cell_length_b   20.28236363
_cell_length_c   20.28236395
_cell_angle_alpha   8.76380700
_cell_angle_beta   8.76380658
_cell_angle_gamma   8.76380617
_symmetry_Int_Tables_number   1
_chemical_formula_structural   SiC
_chemical_formula_sum   'Si8 C8'
_cell_volume   168.06720452
_cell_formula_units_Z   8
loop_
 _symmetry_equiv_pos_site_id
 _symmetry_equiv_pos_as_xyz
  1  'x, y, z'
loop_
 _atom_site_type_symbol
 _atom_site_label
 _atom_site_symmetry_multiplicity
 _atom_site_fract_x
 _atom_site_fract_y
 _atom_site_fract_z
 _atom_site_occupancy
  Si  Si0  1  0.12496758  0.12496758  0.12496758  1
  Si  Si1  1  0.62480905  0.62480905  0.62480905  1
  Si  Si2  1  0.41662642  0.41662642  0.41662642  1
  Si  Si3  1  0.99988697  0.99988697  0.99988697  1
  Si  Si4  1  0.49992809  0.49992809  0.49992809  1
  Si  Si5  1  0.70830108  0.70830108  0.70830108  1
  Si  Si6  1  0.24982268  0.24982268  0.24982268  1
  Si  Si7  1  0.87485995  0.87485995  0.87485995  1
  C  C8  1  0.03130351  0.03130351  0.03130351  1
  C  C9  1  0.53121082  0.53121082  0.53121082  1
  C  C10  1  0.90617414  0.90617414  0.90617414  1
  C  C11  1  0.28115050  0.28115050  0.28115050  1
  C  C12  1  0.15632563  0.15632563  0.15632563  1
  C  C13  1  0.65612721  0.65612721  0.65612721  1
  C  C14  1  0.73960593  0.73960593  0.73960593  1
  C  C15  1  0.44790047  0.44790047  0.44790047  1
