# generated using pymatgen
data_Pr15Si10Ni7
_symmetry_space_group_name_H-M   'P 1'
_cell_length_a   19.86797823
_cell_length_b   19.86797818
_cell_length_c   4.38164792
_cell_angle_alpha   90.00000000
_cell_angle_beta   90.00000000
_cell_angle_gamma   120.00000008
_symmetry_Int_Tables_number   1
_chemical_formula_structural   Pr15Si10Ni7
_chemical_formula_sum   'Pr30 Si20 Ni14'
_cell_volume   1497.87460865
_cell_formula_units_Z   2
loop_
 _symmetry_equiv_pos_site_id
 _symmetry_equiv_pos_as_xyz
  1  'x, y, z'
loop_
 _atom_site_type_symbol
 _atom_site_label
 _atom_site_symmetry_multiplicity
 _atom_site_fract_x
 _atom_site_fract_y
 _atom_site_fract_z
 _atom_site_occupancy
  Pr  Pr0  1  0.91800279  0.41957251  0.25000000  1
  Pr  Pr1  1  0.85286620  0.98409510  0.25000000  1
  Pr  Pr2  1  0.64416550  0.67856574  0.75000000  1
  Pr  Pr3  1  0.03440024  0.35583450  0.75000000  1
  Pr  Pr4  1  0.46610570  0.71055532  0.75000000  1
  Pr  Pr5  1  0.19756458  0.32177021  0.75000000  1
  Pr  Pr6  1  0.41957251  0.50156972  0.75000000  1
  Pr  Pr7  1  0.13122890  0.14713380  0.25000000  1
  Pr  Pr8  1  0.86877110  0.85286620  0.75000000  1
  Pr  Pr9  1  0.80243542  0.67822979  0.25000000  1
  Pr  Pr10  1  0.67856574  0.03440024  0.25000000  1
  Pr  Pr11  1  0.71055532  0.24444962  0.25000000  1
  Pr  Pr12  1  0.98409510  0.13122890  0.75000000  1
  Pr  Pr13  1  0.32143426  0.96559976  0.75000000  1
  Pr  Pr14  1  0.08199721  0.58042749  0.75000000  1
  Pr  Pr15  1  0.12420563  0.80243542  0.75000000  1
  Pr  Pr16  1  0.32177021  0.12420563  0.25000000  1
  Pr  Pr17  1  0.53389430  0.28944468  0.25000000  1
  Pr  Pr18  1  0.58042749  0.49843028  0.25000000  1
  Pr  Pr19  1  0.96559976  0.64416550  0.25000000  1
  Pr  Pr20  1  0.49843028  0.91800279  0.75000000  1
  Pr  Pr21  1  0.75555038  0.46610570  0.25000000  1
  Pr  Pr22  1  0.28944468  0.75555038  0.75000000  1
  Pr  Pr23  1  0.35583450  0.32143426  0.25000000  1
  Pr  Pr24  1  0.67822979  0.87579437  0.75000000  1
  Pr  Pr25  1  0.01590490  0.86877110  0.25000000  1
  Pr  Pr26  1  0.87579437  0.19756458  0.25000000  1
  Pr  Pr27  1  0.50156972  0.08199721  0.25000000  1
  Pr  Pr28  1  0.24444962  0.53389430  0.75000000  1
  Pr  Pr29  1  0.14713380  0.01590490  0.75000000  1
  Si  Si30  1  0.88971685  0.51497154  0.75000000  1
  Si  Si31  1  0.71065032  0.55520052  0.75000000  1
  Si  Si32  1  0.15544980  0.71065032  0.25000000  1
  Si  Si33  1  0.62525470  0.11028315  0.75000000  1
  Si  Si34  1  0.25684678  0.19568333  0.75000000  1
  Si  Si35  1  0.51497154  0.62525470  0.25000000  1
  Si  Si36  1  0.66666700  0.33333300  0.75000000  1
  Si  Si37  1  0.19568333  0.93883655  0.25000000  1
  Si  Si38  1  0.48502846  0.37474530  0.75000000  1
  Si  Si39  1  0.11028315  0.48502846  0.25000000  1
  Si  Si40  1  0.80431667  0.06116345  0.75000000  1
  Si  Si41  1  0.84455020  0.28934968  0.75000000  1
  Si  Si42  1  0.37474530  0.88971685  0.25000000  1
  Si  Si43  1  0.93883655  0.74315322  0.75000000  1
  Si  Si44  1  0.06116345  0.25684678  0.25000000  1
  Si  Si45  1  0.33333300  0.66666700  0.25000000  1
  Si  Si46  1  0.74315322  0.80431667  0.25000000  1
  Si  Si47  1  0.44479948  0.15544980  0.75000000  1
  Si  Si48  1  0.28934968  0.44479948  0.25000000  1
  Si  Si49  1  0.55520052  0.84455020  0.25000000  1
  Ni  Ni50  1  0.80051508  0.37940498  0.75000000  1
  Ni  Ni51  1  0.84709913  0.60629101  0.75000000  1
  Ni  Ni52  1  0.60629101  0.75919188  0.25000000  1
  Ni  Ni53  1  0.75919188  0.15290087  0.75000000  1
  Ni  Ni54  1  0.62059502  0.42111010  0.75000000  1
  Ni  Ni55  1  0.42111010  0.80051508  0.25000000  1
  Ni  Ni56  1  0.57888990  0.19948492  0.75000000  1
  Ni  Ni57  1  0.19948492  0.62059502  0.25000000  1
  Ni  Ni58  1  0.37940498  0.57888990  0.25000000  1
  Ni  Ni59  1  0.15290087  0.39370899  0.25000000  1
  Ni  Ni60  1  0.39370899  0.24080812  0.75000000  1
  Ni  Ni61  1  0.00000000  0.00000000  0.50000000  1
  Ni  Ni62  1  0.00000000  0.00000000  0.00000000  1
  Ni  Ni63  1  0.24080812  0.84709913  0.25000000  1
