# generated using pymatgen
data_Li2U5MoO19
_symmetry_space_group_name_H-M   'P 1'
_cell_length_a   8.00843228
_cell_length_b   10.22175482
_cell_length_c   20.25926206
_cell_angle_alpha   90.00000000
_cell_angle_beta   90.00000000
_cell_angle_gamma   91.39975377
_symmetry_Int_Tables_number   1
_chemical_formula_structural   Li2U5MoO19
_chemical_formula_sum   'Li8 U20 Mo4 O76'
_cell_volume   1657.93299413
_cell_formula_units_Z   4
loop_
 _symmetry_equiv_pos_site_id
 _symmetry_equiv_pos_as_xyz
  1  'x, y, z'
loop_
 _atom_site_type_symbol
 _atom_site_label
 _atom_site_symmetry_multiplicity
 _atom_site_fract_x
 _atom_site_fract_y
 _atom_site_fract_z
 _atom_site_occupancy
  Li  Li0  1  0.25619887  0.16802692  0.88155510  1
  Li  Li1  1  0.29349080  0.33827334  0.39320783  1
  Li  Li2  1  0.25619887  0.66802692  0.61844490  1
  Li  Li3  1  0.70650920  0.66172666  0.60679217  1
  Li  Li4  1  0.74380113  0.83197308  0.11844490  1
  Li  Li5  1  0.74380113  0.33197308  0.38155510  1
  Li  Li6  1  0.70650920  0.16172666  0.89320783  1
  Li  Li7  1  0.29349080  0.83827334  0.10679217  1
  U  U8  1  0.27905371  0.59255944  0.25337313  1
  U  U9  1  0.97306780  0.18496881  0.64020199  1
  U  U10  1  0.97306780  0.68496881  0.85979801  1
  U  U11  1  0.27905371  0.09255944  0.24662687  1
  U  U12  1  0.51809106  0.81898852  0.36396728  1
  U  U13  1  0.22906566  0.43940738  0.76419773  1
  U  U14  1  0.51809106  0.31898852  0.13603272  1
  U  U15  1  0.72094629  0.90744056  0.75337313  1
  U  U16  1  0.50000000  0.50000000  0.50000000  1
  U  U17  1  0.02693220  0.81503119  0.35979801  1
  U  U18  1  0.48190894  0.68101148  0.86396728  1
  U  U19  1  0.48190894  0.18101148  0.63603272  1
  U  U20  1  0.00000000  0.00000000  0.00000000  1
  U  U21  1  0.50000000  0.00000000  0.00000000  1
  U  U22  1  0.02693220  0.31503119  0.14020199  1
  U  U23  1  0.77093434  0.06059262  0.26419773  1
  U  U24  1  0.72094629  0.40744056  0.74662687  1
  U  U25  1  0.00000000  0.50000000  0.50000000  1
  U  U26  1  0.77093434  0.56059262  0.23580227  1
  U  U27  1  0.22906566  0.93940738  0.73580227  1
  Mo  Mo28  1  0.79382632  0.46792345  0.98793092  1
  Mo  Mo29  1  0.20617368  0.53207655  0.01206908  1
  Mo  Mo30  1  0.79382632  0.96792345  0.51206908  1
  Mo  Mo31  1  0.20617368  0.03207655  0.48793092  1
  O  O32  1  0.54632242  0.38111438  0.43142708  1
  O  O33  1  0.06131246  0.46734552  0.19956213  1
  O  O34  1  0.63214917  0.95719037  0.45052544  1
  O  O35  1  0.22897917  0.83541959  0.66263179  1
  O  O36  1  0.25250819  0.97571156  0.03075391  1
  O  O37  1  0.50886651  0.53090197  0.80284848  1
  O  O38  1  0.00962441  0.82879645  0.78187782  1
  O  O39  1  0.77270567  0.36716981  0.16308955  1
  O  O40  1  0.02763670  0.54048987  0.94494413  1
  O  O41  1  0.93203144  0.88198746  0.06432565  1
  O  O42  1  0.21905177  0.18264211  0.44939529  1
  O  O43  1  0.45367758  0.61888562  0.56857292  1
  O  O44  1  0.97236330  0.95951013  0.44494413  1
  O  O45  1  0.54298402  0.68183399  0.42634100  1
  O  O46  1  0.74749181  0.52428844  0.53075391  1
  O  O47  1  0.77102083  0.16458041  0.33736821  1
  O  O48  1  0.55434076  0.16995917  0.21508325  1
  O  O49  1  0.00962441  0.32879645  0.71812218  1
  O  O50  1  0.06131246  0.96734552  0.30043787  1
  O  O51  1  0.97236330  0.45951013  0.05505587  1
  O  O52  1  0.45701598  0.81816601  0.92634100  1
  O  O53  1  0.28184388  0.40594678  0.07062232  1
  O  O54  1  0.44565924  0.33004083  0.71508325  1
  O  O55  1  0.25250819  0.47571156  0.46924609  1
  O  O56  1  0.76595908  0.94693058  0.19509437  1
  O  O57  1  0.06796856  0.11801254  0.93567435  1
  O  O58  1  0.28633074  0.20630382  0.31556082  1
  O  O59  1  0.71366926  0.79369618  0.68443918  1
  O  O60  1  0.36785083  0.04280963  0.54947456  1
  O  O61  1  0.28184388  0.90594678  0.42937768  1
  O  O62  1  0.72771319  0.02492887  0.82081654  1
  O  O63  1  0.55434076  0.66995917  0.28491675  1
  O  O64  1  0.36785083  0.54280963  0.95052544  1
  O  O65  1  0.27228681  0.97507113  0.17918346  1
  O  O66  1  0.78094823  0.81735789  0.55060471  1
  O  O67  1  0.23404092  0.05306942  0.80490563  1
  O  O68  1  0.93868754  0.03265448  0.69956213  1
  O  O69  1  0.98446494  0.67927995  0.42270529  1
  O  O70  1  0.77270567  0.86716981  0.33691045  1
  O  O71  1  0.23404092  0.55306942  0.69509437  1
  O  O72  1  0.99037559  0.17120355  0.21812218  1
  O  O73  1  0.50886651  0.03090197  0.69715152  1
  O  O74  1  0.78094823  0.31735789  0.94939529  1
  O  O75  1  0.45367758  0.11888562  0.93142708  1
  O  O76  1  0.54298402  0.18183399  0.07365900  1
  O  O77  1  0.98446494  0.17927995  0.07729471  1
  O  O78  1  0.01553506  0.82072005  0.92270529  1
  O  O79  1  0.22729433  0.13283019  0.66308955  1
  O  O80  1  0.93203144  0.38198746  0.43567435  1
  O  O81  1  0.45701598  0.31816601  0.57365900  1
  O  O82  1  0.21905177  0.68264211  0.05060471  1
  O  O83  1  0.63214917  0.45719037  0.04947456  1
  O  O84  1  0.27461471  0.75107932  0.33028700  1
  O  O85  1  0.27228681  0.47507113  0.32081654  1
  O  O86  1  0.22897917  0.33541959  0.83736821  1
  O  O87  1  0.71815612  0.59405322  0.92937768  1
  O  O88  1  0.72538529  0.74892068  0.83028700  1
  O  O89  1  0.76595908  0.44693058  0.30490563  1
  O  O90  1  0.49113349  0.96909803  0.30284848  1
  O  O91  1  0.71366926  0.29369618  0.81556082  1
  O  O92  1  0.49113349  0.46909803  0.19715152  1
  O  O93  1  0.27461471  0.25107932  0.16971300  1
  O  O94  1  0.28633074  0.70630382  0.18443918  1
  O  O95  1  0.02763670  0.04048987  0.55505587  1
  O  O96  1  0.01553506  0.32072005  0.57729471  1
  O  O97  1  0.06796856  0.61801254  0.56432565  1
  O  O98  1  0.72538529  0.24892068  0.66971300  1
  O  O99  1  0.99037559  0.67120355  0.28187782  1
  O  O100  1  0.93868754  0.53265448  0.80043787  1
  O  O101  1  0.77102083  0.66458041  0.16263179  1
  O  O102  1  0.54632242  0.88111438  0.06857292  1
  O  O103  1  0.22729433  0.63283019  0.83691045  1
  O  O104  1  0.71815612  0.09405322  0.57062232  1
  O  O105  1  0.72771319  0.52492887  0.67918346  1
  O  O106  1  0.44565924  0.83004083  0.78491675  1
  O  O107  1  0.74749181  0.02428844  0.96924609  1
