# generated using pymatgen
data_FePH5CO4
_symmetry_space_group_name_H-M   'P 1'
_cell_length_a   4.85738260
_cell_length_b   5.80336894
_cell_length_c   9.01630236
_cell_angle_alpha   90.04605789
_cell_angle_beta   90.00518796
_cell_angle_gamma   90.03471588
_symmetry_Int_Tables_number   1
_chemical_formula_structural   FePH5CO4
_chemical_formula_sum   'Fe2 P2 H10 C2 O8'
_cell_volume   254.16207009
_cell_formula_units_Z   2
loop_
 _symmetry_equiv_pos_site_id
 _symmetry_equiv_pos_as_xyz
  1  'x, y, z'
loop_
 _atom_site_type_symbol
 _atom_site_label
 _atom_site_symmetry_multiplicity
 _atom_site_fract_x
 _atom_site_fract_y
 _atom_site_fract_z
 _atom_site_occupancy
  Fe  Fe0  1  0.72445115  0.49944055  0.02442125  1
  Fe  Fe1  1  0.22445036  0.00056821  0.97553132  1
  P  P2  1  0.66157323  0.00022728  0.18963145  1
  P  P3  1  0.16173623  0.49978014  0.81041463  1
  H  H4  1  0.14158823  0.36434384  0.20167860  1
  H  H5  1  0.85895219  0.50000918  0.60039216  1
  H  H6  1  0.64189675  0.13564949  0.79842716  1
  H  H7  1  0.17025648  0.34621844  0.56260364  1
  H  H8  1  0.67021340  0.84607242  0.43744160  1
  H  H9  1  0.35889219  0.99992674  0.39969585  1
  H  H10  1  0.67034910  0.15390284  0.43739870  1
  H  H11  1  0.64094736  0.86448095  0.79821647  1
  H  H12  1  0.17038169  0.65406516  0.56255165  1
  H  H13  1  0.14102817  0.63553933  0.20166602  1
  C  C14  1  0.58305456  0.99986287  0.38463259  1
  C  C15  1  0.08315480  0.50021954  0.61539026  1
  O  O16  1  0.51999023  0.21601330  0.11825482  1
  O  O17  1  0.02038416  0.49969986  0.21095195  1
  O  O18  1  0.01556208  0.71224225  0.88379867  1
  O  O19  1  0.02000856  0.28372926  0.88167272  1
  O  O20  1  0.47456334  0.50054084  0.83033454  1
  O  O21  1  0.97428045  0.99953476  0.16967191  1
  O  O22  1  0.52053441  0.00034435  0.78892824  1
  O  O23  1  0.51515090  0.78758940  0.11629579  1
