# generated using pymatgen
data_Cu2SeO4
_symmetry_space_group_name_H-M   'P 1'
_cell_length_a   9.03150370
_cell_length_b   9.03150370
_cell_length_c   9.03150370
_cell_angle_alpha   90.00000000
_cell_angle_beta   90.00000000
_cell_angle_gamma   90.00000000
_symmetry_Int_Tables_number   1
_chemical_formula_structural   Cu2SeO4
_chemical_formula_sum   'Cu16 Se8 O32'
_cell_volume   736.68222741
_cell_formula_units_Z   8
loop_
 _symmetry_equiv_pos_site_id
 _symmetry_equiv_pos_as_xyz
  1  'x, y, z'
loop_
 _atom_site_type_symbol
 _atom_site_label
 _atom_site_symmetry_multiplicity
 _atom_site_fract_x
 _atom_site_fract_y
 _atom_site_fract_z
 _atom_site_occupancy
  Cu  Cu0  1  0.87803235  0.37358760  0.36822156  1
  Cu  Cu1  1  0.87358760  0.13177844  0.12196765  1
  Cu  Cu2  1  0.12641240  0.63177844  0.37803235  1
  Cu  Cu3  1  0.13177844  0.12196765  0.87358760  1
  Cu  Cu4  1  0.62196765  0.62641240  0.86822156  1
  Cu  Cu5  1  0.63177844  0.37803235  0.12641240  1
  Cu  Cu6  1  0.62641240  0.86822156  0.62196765  1
  Cu  Cu7  1  0.86822156  0.62196765  0.62641240  1
  Cu  Cu8  1  0.88182413  0.88182413  0.88182413  1
  Cu  Cu9  1  0.37358760  0.36822156  0.87803235  1
  Cu  Cu10  1  0.36822156  0.87803235  0.37358760  1
  Cu  Cu11  1  0.38182413  0.61817587  0.11817587  1
  Cu  Cu12  1  0.12196765  0.87358760  0.13177844  1
  Cu  Cu13  1  0.11817587  0.38182413  0.61817587  1
  Cu  Cu14  1  0.37803235  0.12641240  0.63177844  1
  Cu  Cu15  1  0.61817587  0.11817587  0.38182413  1
  Se  Se16  1  0.28868169  0.78868169  0.71131831  1
  Se  Se17  1  0.54050146  0.95949854  0.04050146  1
  Se  Se18  1  0.78868169  0.71131831  0.28868169  1
  Se  Se19  1  0.21131831  0.21131831  0.21131831  1
  Se  Se20  1  0.45949854  0.45949854  0.45949854  1
  Se  Se21  1  0.04050146  0.54050146  0.95949854  1
  Se  Se22  1  0.71131831  0.28868169  0.78868169  1
  Se  Se23  1  0.95949854  0.04050146  0.54050146  1
  O  O24  1  0.50863636  0.49136364  0.99136364  1
  O  O25  1  0.68776572  0.47016709  0.72981575  1
  O  O26  1  0.02983291  0.27018425  0.18776572  1
  O  O27  1  0.24022318  0.25977682  0.74022318  1
  O  O28  1  0.99136364  0.50863636  0.49136364  1
  O  O29  1  0.27018425  0.18776572  0.02983291  1
  O  O30  1  0.48285190  0.46848067  0.26687660  1
  O  O31  1  0.03151933  0.73312340  0.98285190  1
  O  O32  1  0.47016709  0.72981575  0.68776572  1
  O  O33  1  0.49136364  0.99136364  0.50863636  1
  O  O34  1  0.81223428  0.52983291  0.22981575  1
  O  O35  1  0.46848067  0.26687660  0.48285190  1
  O  O36  1  0.01714810  0.53151933  0.76687660  1
  O  O37  1  0.31223428  0.97016709  0.77018425  1
  O  O38  1  0.52983291  0.22981575  0.81223428  1
  O  O39  1  0.77018425  0.31223428  0.97016709  1
  O  O40  1  0.97016709  0.77018425  0.31223428  1
  O  O41  1  0.98285190  0.03151933  0.73312340  1
  O  O42  1  0.18776572  0.02983291  0.27018425  1
  O  O43  1  0.00863636  0.00863636  0.00863636  1
  O  O44  1  0.73312340  0.98285190  0.03151933  1
  O  O45  1  0.51714810  0.96848067  0.23312340  1
  O  O46  1  0.53151933  0.76687660  0.01714810  1
  O  O47  1  0.72981575  0.68776572  0.47016709  1
  O  O48  1  0.22981575  0.81223428  0.52983291  1
  O  O49  1  0.74022318  0.24022318  0.25977682  1
  O  O50  1  0.96848067  0.23312340  0.51714810  1
  O  O51  1  0.76687660  0.01714810  0.53151933  1
  O  O52  1  0.25977682  0.74022318  0.24022318  1
  O  O53  1  0.75977682  0.75977682  0.75977682  1
  O  O54  1  0.23312340  0.51714810  0.96848067  1
  O  O55  1  0.26687660  0.48285190  0.46848067  1
