# generated using pymatgen
data_MnH10CNCl3O2
_symmetry_space_group_name_H-M   'P 1'
_cell_length_a   7.95029249
_cell_length_b   9.13617295
_cell_length_c   11.59397640
_cell_angle_alpha   90.00000000
_cell_angle_beta   91.95735507
_cell_angle_gamma   90.00000000
_symmetry_Int_Tables_number   1
_chemical_formula_structural   MnH10CNCl3O2
_chemical_formula_sum   'Mn4 H40 C4 N4 Cl12 O8'
_cell_volume   841.63997889
_cell_formula_units_Z   4
loop_
 _symmetry_equiv_pos_site_id
 _symmetry_equiv_pos_as_xyz
  1  'x, y, z'
loop_
 _atom_site_type_symbol
 _atom_site_label
 _atom_site_symmetry_multiplicity
 _atom_site_fract_x
 _atom_site_fract_y
 _atom_site_fract_z
 _atom_site_occupancy
  Mn  Mn0  1  0.03726132  0.50212065  0.75056204  1
  Mn  Mn1  1  0.96273868  0.00212065  0.74943796  1
  Mn  Mn2  1  0.03726132  0.99787935  0.25056204  1
  Mn  Mn3  1  0.96273868  0.49787935  0.24943796  1
  H  H4  1  0.16556701  0.47420527  0.05225609  1
  H  H5  1  0.81449591  0.82543228  0.37788179  1
  H  H6  1  0.62038223  0.08499541  0.35277178  1
  H  H7  1  0.18903182  0.98800011  0.94552592  1
  H  H8  1  0.81096818  0.48800011  0.55447408  1
  H  H9  1  0.55601072  0.32242619  0.43308175  1
  H  H10  1  0.36442444  0.27996630  0.91425956  1
  H  H11  1  0.64585885  0.20884754  0.25028992  1
  H  H12  1  0.63557556  0.72003370  0.08574044  1
  H  H13  1  0.62038223  0.41500459  0.85277178  1
  H  H14  1  0.18550409  0.32543228  0.12211821  1
  H  H15  1  0.83334245  0.17257226  0.10304789  1
  H  H16  1  0.16665755  0.82742774  0.89695211  1
  H  H17  1  0.18550409  0.17456772  0.62211821  1
  H  H18  1  0.52978908  0.60761042  0.25300942  1
  H  H19  1  0.63557556  0.77996630  0.58574044  1
  H  H20  1  0.37961777  0.91500459  0.64722822  1
  H  H21  1  0.35414115  0.79115246  0.74971008  1
  H  H22  1  0.83334245  0.32742774  0.60304789  1
  H  H23  1  0.58351789  0.85571957  0.18926966  1
  H  H24  1  0.64585885  0.29115246  0.75028992  1
  H  H25  1  0.41648211  0.14428043  0.81073034  1
  H  H26  1  0.44398928  0.67757381  0.56691825  1
  H  H27  1  0.37961777  0.58499541  0.14722822  1
  H  H28  1  0.44398928  0.82242619  0.06691825  1
  H  H29  1  0.41648211  0.35571957  0.31073034  1
  H  H30  1  0.36442444  0.22003370  0.41425956  1
  H  H31  1  0.83443299  0.97420527  0.44774391  1
  H  H32  1  0.47021092  0.39238958  0.74699058  1
  H  H33  1  0.16556701  0.02579473  0.55225609  1
  H  H34  1  0.35414115  0.70884754  0.24971008  1
  H  H35  1  0.81096818  0.01199989  0.05447408  1
  H  H36  1  0.83443299  0.52579473  0.94774391  1
  H  H37  1  0.16665755  0.67257226  0.39695211  1
  H  H38  1  0.58351789  0.64428043  0.68926966  1
  H  H39  1  0.47021092  0.10761042  0.24699058  1
  H  H40  1  0.81449591  0.67456772  0.87788179  1
  H  H41  1  0.52978908  0.89238958  0.75300942  1
  H  H42  1  0.18903182  0.51199989  0.44552592  1
  H  H43  1  0.55601072  0.17757381  0.93308175  1
  C  C44  1  0.46776519  0.22715104  0.87038879  1
  C  C45  1  0.53223481  0.72715104  0.62961121  1
  C  C46  1  0.46776519  0.27284896  0.37038879  1
  C  C47  1  0.53223481  0.77284896  0.12961121  1
  N  N48  1  0.44308929  0.66095610  0.19835240  1
  N  N49  1  0.55691071  0.33904390  0.80164760  1
  N  N50  1  0.55691071  0.16095610  0.30164760  1
  N  N51  1  0.44308929  0.83904390  0.69835240  1
  Cl  Cl52  1  0.74606000  0.90385353  0.88468872  1
  Cl  Cl53  1  0.98758095  0.24904692  0.34445924  1
  Cl  Cl54  1  0.01241905  0.75095308  0.65554076  1
  Cl  Cl55  1  0.73616019  0.41126642  0.10679685  1
  Cl  Cl56  1  0.01241905  0.74904692  0.15554076  1
  Cl  Cl57  1  0.74606000  0.59614647  0.38468872  1
  Cl  Cl58  1  0.25394000  0.09614647  0.11531128  1
  Cl  Cl59  1  0.98758095  0.25095308  0.84445924  1
  Cl  Cl60  1  0.26383981  0.91126642  0.39320315  1
  Cl  Cl61  1  0.25394000  0.40385353  0.61531128  1
  Cl  Cl62  1  0.26383981  0.58873358  0.89320315  1
  Cl  Cl63  1  0.73616019  0.08873358  0.60679685  1
  O  O64  1  0.83064463  0.93263337  0.36906684  1
  O  O65  1  0.16935537  0.43263337  0.13093316  1
  O  O66  1  0.16935537  0.06736663  0.63093316  1
  O  O67  1  0.17192095  0.93116080  0.87360932  1
  O  O68  1  0.17192095  0.56883920  0.37360932  1
  O  O69  1  0.83064463  0.56736663  0.86906684  1
  O  O70  1  0.82807905  0.43116080  0.62639068  1
  O  O71  1  0.82807905  0.06883920  0.12639068  1
