# generated using pymatgen
data_NiB18(H11C2)2
_symmetry_space_group_name_H-M   'P 1'
_cell_length_a   12.34823145
_cell_length_b   10.56051712
_cell_length_c   13.60251616
_cell_angle_alpha   90.00000000
_cell_angle_beta   112.46809704
_cell_angle_gamma   90.00000000
_symmetry_Int_Tables_number   1
_chemical_formula_structural   NiB18(H11C2)2
_chemical_formula_sum   'Ni4 B72 H88 C16'
_cell_volume   1639.17238504
_cell_formula_units_Z   4
loop_
 _symmetry_equiv_pos_site_id
 _symmetry_equiv_pos_as_xyz
  1  'x, y, z'
loop_
 _atom_site_type_symbol
 _atom_site_label
 _atom_site_symmetry_multiplicity
 _atom_site_fract_x
 _atom_site_fract_y
 _atom_site_fract_z
 _atom_site_occupancy
  Ni  Ni0  1  0.25674486  0.43507187  0.74443246  1
  Ni  Ni1  1  0.74325514  0.93507187  0.75556754  1
  Ni  Ni2  1  0.74325514  0.56492813  0.25556754  1
  Ni  Ni3  1  0.25674486  0.06492813  0.24443246  1
  B  B4  1  0.39233497  0.29536297  0.85643032  1
  B  B5  1  0.60766503  0.79536297  0.64356968  1
  B  B6  1  0.60766503  0.70463703  0.14356968  1
  B  B7  1  0.39233497  0.20463703  0.35643032  1
  B  B8  1  0.35179537  0.13794245  0.80814751  1
  B  B9  1  0.64820463  0.63794245  0.69185249  1
  B  B10  1  0.64820463  0.86205755  0.19185249  1
  B  B11  1  0.35179537  0.36205755  0.30814751  1
  B  B12  1  0.19628354  0.18111245  0.69550950  1
  B  B13  1  0.80371646  0.68111245  0.80449050  1
  B  B14  1  0.80371646  0.81888755  0.30449050  1
  B  B15  1  0.19628354  0.31888755  0.19550950  1
  B  B16  1  0.12635356  0.37001529  0.79574795  1
  B  B17  1  0.87364644  0.87001529  0.70425205  1
  B  B18  1  0.87364644  0.62998471  0.20425205  1
  B  B19  1  0.12635356  0.12998471  0.29574795  1
  B  B20  1  0.27711680  0.36480988  0.89355395  1
  B  B21  1  0.72288320  0.86480988  0.60644605  1
  B  B22  1  0.72288320  0.63519012  0.10644605  1
  B  B23  1  0.27711680  0.13519012  0.39355395  1
  B  B24  1  0.32435330  0.20210410  0.91935589  1
  B  B25  1  0.67564670  0.70210410  0.58064411  1
  B  B26  1  0.67564670  0.79789590  0.08064411  1
  B  B27  1  0.32435330  0.29789590  0.41935589  1
  B  B28  1  0.17661459  0.24124017  0.88694665  1
  B  B29  1  0.82338541  0.74124017  0.61305335  1
  B  B30  1  0.82338541  0.75875983  0.11305335  1
  B  B31  1  0.17661459  0.25875983  0.38694665  1
  B  B32  1  0.14906336  0.58518127  0.65279650  1
  B  B33  1  0.85093664  0.08518127  0.84720350  1
  B  B34  1  0.85093664  0.41481873  0.34720350  1
  B  B35  1  0.14906336  0.91481873  0.15279650  1
  B  B36  1  0.20155669  0.67937793  0.57167941  1
  B  B37  1  0.79844331  0.17937793  0.92832059  1
  B  B38  1  0.79844331  0.32062207  0.42832059  1
  B  B39  1  0.20155669  0.82062207  0.07167941  1
  B  B40  1  0.34667075  0.63586314  0.59658998  1
  B  B41  1  0.65332925  0.13586314  0.90341002  1
  B  B42  1  0.65332925  0.36413686  0.40341002  1
  B  B43  1  0.34667075  0.86413686  0.09658998  1
  B  B44  1  0.38499610  0.57680630  0.81595101  1
  B  B45  1  0.61500390  0.07680630  0.68404899  1
  B  B46  1  0.61500390  0.42319370  0.18404899  1
  B  B47  1  0.38499610  0.92319370  0.31595101  1
  B  B48  1  0.23623367  0.62299014  0.79368022  1
  B  B49  1  0.76376633  0.12299014  0.70631978  1
  B  B50  1  0.76376633  0.37700986  0.20631978  1
  B  B51  1  0.23623367  0.87700986  0.29368022  1
  B  B52  1  0.19591532  0.74131920  0.69143847  1
  B  B53  1  0.80408468  0.24131920  0.80856153  1
  B  B54  1  0.80408468  0.25868080  0.30856153  1
  B  B55  1  0.19591532  0.75868080  0.19143847  1
  B  B56  1  0.34228412  0.73659685  0.79075721  1
  B  B57  1  0.65771588  0.23659685  0.70924279  1
  B  B58  1  0.65771588  0.26340315  0.20924279  1
  B  B59  1  0.34228412  0.76340315  0.29075721  1
  B  B60  1  0.21276312  0.11347077  0.81921919  1
  B  B61  1  0.78723688  0.61347077  0.68078081  1
  B  B62  1  0.78723688  0.88652923  0.18078081  1
  B  B63  1  0.21276312  0.38652923  0.31921919  1
  B  B64  1  0.08768439  0.20980859  0.75214934  1
  B  B65  1  0.91231561  0.70980859  0.74785066  1
  B  B66  1  0.91231561  0.79019141  0.24785066  1
  B  B67  1  0.08768439  0.29019141  0.25214934  1
  B  B68  1  0.31845462  0.77411061  0.65745907  1
  B  B69  1  0.68154538  0.27411061  0.84254093  1
  B  B70  1  0.68154538  0.22588939  0.34254093  1
  B  B71  1  0.31845462  0.72588939  0.15745907  1
  B  B72  1  0.43562688  0.67045561  0.73034053  1
  B  B73  1  0.56437312  0.17045561  0.76965947  1
  B  B74  1  0.56437312  0.32954439  0.26965947  1
  B  B75  1  0.43562688  0.82954439  0.23034053  1
  H  H76  1  0.39758763  0.27954912  0.68705051  1
  H  H77  1  0.60241237  0.77954912  0.81294949  1
  H  H78  1  0.60241237  0.72045088  0.31294949  1
  H  H79  1  0.39758763  0.22045088  0.18705051  1
  H  H80  1  0.06579758  0.34191324  0.60544672  1
  H  H81  1  0.93420242  0.84191324  0.89455328  1
  H  H82  1  0.93420242  0.65808676  0.39455328  1
  H  H83  1  0.06579758  0.15808676  0.10544672  1
  H  H84  1  0.48849401  0.33683095  0.88693038  1
  H  H85  1  0.51150599  0.83683095  0.61306962  1
  H  H86  1  0.51150599  0.66316905  0.11306962  1
  H  H87  1  0.48849401  0.16316905  0.38693038  1
  H  H88  1  0.39168576  0.03334660  0.83015693  1
  H  H89  1  0.60831424  0.53334660  0.66984307  1
  H  H90  1  0.60831424  0.96665340  0.16984307  1
  H  H91  1  0.39168576  0.46665340  0.33015693  1
  H  H92  1  0.19038579  0.13123105  0.61506399  1
  H  H93  1  0.80961421  0.63123105  0.88493601  1
  H  H94  1  0.80961421  0.86876895  0.38493601  1
  H  H95  1  0.19038579  0.36876895  0.11506399  1
  H  H96  1  0.05381511  0.44239911  0.79854537  1
  H  H97  1  0.94618489  0.94239911  0.70145463  1
  H  H98  1  0.94618489  0.55760089  0.20145463  1
  H  H99  1  0.05381511  0.05760089  0.29854537  1
  H  H100  1  0.31137247  0.43947668  0.96482278  1
  H  H101  1  0.68862753  0.93947668  0.53517722  1
  H  H102  1  0.68862753  0.56052332  0.03517722  1
  H  H103  1  0.31137247  0.06052332  0.46482278  1
  H  H104  1  0.38229563  0.16503517  0.00719652  1
  H  H105  1  0.61770437  0.66503517  0.49280348  1
  H  H106  1  0.61770437  0.83496483  0.99280348  1
  H  H107  1  0.38229563  0.33496483  0.50719652  1
  H  H108  1  0.19422141  0.00530010  0.83256405  1
  H  H109  1  0.80577859  0.50530010  0.66743595  1
  H  H110  1  0.80577859  0.99469990  0.16743595  1
  H  H111  1  0.19422141  0.49469990  0.33256405  1
  H  H112  1  0.99111356  0.16766200  0.71893999  1
  H  H113  1  0.00888644  0.66766200  0.78106001  1
  H  H114  1  0.00888644  0.83233800  0.28106001  1
  H  H115  1  0.99111356  0.33233800  0.21893999  1
  H  H116  1  0.13703371  0.22797415  0.95397639  1
  H  H117  1  0.86296629  0.72797415  0.54602361  1
  H  H118  1  0.86296629  0.77202585  0.04602361  1
  H  H119  1  0.13703371  0.27202585  0.45397639  1
  H  H120  1  0.22567518  0.45672863  0.54210816  1
  H  H121  1  0.77432482  0.95672863  0.95789184  1
  H  H122  1  0.77432482  0.54327137  0.45789184  1
  H  H123  1  0.22567518  0.04327137  0.04210816  1
  H  H124  1  0.43697613  0.45258158  0.68698444  1
  H  H125  1  0.56302387  0.95258158  0.81301556  1
  H  H126  1  0.56302387  0.54741842  0.31301556  1
  H  H127  1  0.43697613  0.04741842  0.18698444  1
  H  H128  1  0.04881678  0.55533383  0.61520191  1
  H  H129  1  0.95118322  0.05533383  0.88479809  1
  H  H130  1  0.95118322  0.44466617  0.38479809  1
  H  H131  1  0.04881678  0.94466617  0.11520191  1
  H  H132  1  0.13709257  0.70216213  0.48290701  1
  H  H133  1  0.86290743  0.20216213  0.01709299  1
  H  H134  1  0.86290743  0.29783787  0.51709299  1
  H  H135  1  0.13709257  0.79783787  0.98290701  1
  H  H136  1  0.38684273  0.62049624  0.53099638  1
  H  H137  1  0.61315727  0.12049624  0.96900362  1
  H  H138  1  0.61315727  0.37950376  0.46900362  1
  H  H139  1  0.38684273  0.87950376  0.03099638  1
  H  H140  1  0.46117401  0.54559445  0.89670052  1
  H  H141  1  0.53882599  0.04559445  0.60329948  1
  H  H142  1  0.53882599  0.45440555  0.10329948  1
  H  H143  1  0.46117401  0.95440555  0.39670052  1
  H  H144  1  0.19765894  0.62756921  0.86138771  1
  H  H145  1  0.80234106  0.12756921  0.63861229  1
  H  H146  1  0.80234106  0.37243079  0.13861229  1
  H  H147  1  0.19765894  0.87243079  0.36138771  1
  H  H148  1  0.12680352  0.82052150  0.69130584  1
  H  H149  1  0.87319648  0.32052150  0.80869416  1
  H  H150  1  0.87319648  0.17947850  0.30869416  1
  H  H151  1  0.12680352  0.67947850  0.19130584  1
  H  H152  1  0.33653012  0.87757755  0.63214724  1
  H  H153  1  0.66346988  0.37757755  0.86785276  1
  H  H154  1  0.66346988  0.12242245  0.36785276  1
  H  H155  1  0.33653012  0.62242245  0.13214724  1
  H  H156  1  0.61760449  0.61909165  0.82991257  1
  H  H157  1  0.38239551  0.11909165  0.67008743  1
  H  H158  1  0.38239551  0.38090835  0.17008743  1
  H  H159  1  0.61760449  0.88090835  0.32991257  1
  H  H160  1  0.37762975  0.81256832  0.86079376  1
  H  H161  1  0.62237025  0.31256832  0.63920624  1
  H  H162  1  0.62237025  0.18743168  0.13920624  1
  H  H163  1  0.37762975  0.68743168  0.36079376  1
  C  C164  1  0.42569698  0.19144366  0.73159018  1
  C  C165  1  0.57430302  0.69144366  0.76840982  1
  C  C166  1  0.57430302  0.80855634  0.26840982  1
  C  C167  1  0.42569698  0.30855634  0.23159018  1
  C  C168  1  0.12786668  0.31132439  0.68325584  1
  C  C169  1  0.87213332  0.81132439  0.81674416  1
  C  C170  1  0.87213332  0.68867561  0.31674416  1
  C  C171  1  0.12786668  0.18867561  0.18325584  1
  C  C172  1  0.24758236  0.52853867  0.60473068  1
  C  C173  1  0.75241764  0.02853867  0.89526932  1
  C  C174  1  0.75241764  0.47146133  0.39526932  1
  C  C175  1  0.24758236  0.97146133  0.10473068  1
  C  C176  1  0.37795487  0.52377379  0.69530681  1
  C  C177  1  0.62204513  0.02377379  0.80469319  1
  C  C178  1  0.62204513  0.47622621  0.30469319  1
  C  C179  1  0.37795487  0.97622621  0.19530681  1
