# generated using pymatgen
data_Mn(SbS2)2
_symmetry_space_group_name_H-M   'P 1'
_cell_length_a   3.83749717
_cell_length_b   11.50733149
_cell_length_c   14.69260003
_cell_angle_alpha   90.00000000
_cell_angle_beta   90.00000000
_cell_angle_gamma   90.00000000
_symmetry_Int_Tables_number   1
_chemical_formula_structural   Mn(SbS2)2
_chemical_formula_sum   'Mn4 Sb8 S16'
_cell_volume   648.81569692
_cell_formula_units_Z   4
loop_
 _symmetry_equiv_pos_site_id
 _symmetry_equiv_pos_as_xyz
  1  'x, y, z'
loop_
 _atom_site_type_symbol
 _atom_site_label
 _atom_site_symmetry_multiplicity
 _atom_site_fract_x
 _atom_site_fract_y
 _atom_site_fract_z
 _atom_site_occupancy
  S  S0  1  0.75000000  0.27542022  0.01158760  1
  S  S1  1  0.25000000  0.04275422  0.09667482  1
  S  S2  1  0.75000000  0.95724578  0.90332518  1
  S  S3  1  0.25000000  0.54275422  0.40332518  1
  S  S4  1  0.75000000  0.19878304  0.73005344  1
  S  S5  1  0.25000000  0.80121696  0.26994656  1
  S  S6  1  0.75000000  0.69878304  0.76994656  1
  S  S7  1  0.25000000  0.30121696  0.23005344  1
  S  S8  1  0.75000000  0.57646651  0.18320636  1
  S  S9  1  0.25000000  0.42353349  0.81679364  1
  S  S10  1  0.75000000  0.07646651  0.31679364  1
  S  S11  1  0.25000000  0.92353349  0.68320636  1
  S  S12  1  0.75000000  0.77542022  0.48841240  1
  S  S13  1  0.25000000  0.22457978  0.51158760  1
  S  S14  1  0.25000000  0.72457978  0.98841240  1
  S  S15  1  0.75000000  0.45724578  0.59667482  1
  Mn  Mn16  1  0.75000000  0.68221015  0.33377429  1
  Mn  Mn17  1  0.25000000  0.81778985  0.83377429  1
  Mn  Mn18  1  0.75000000  0.18221015  0.16622571  1
  Mn  Mn19  1  0.25000000  0.31778985  0.66622571  1
  Sb  Sb20  1  0.75000000  0.85780059  0.05612884  1
  Sb  Sb21  1  0.25000000  0.14219941  0.94387116  1
  Sb  Sb22  1  0.75000000  0.35780059  0.44387116  1
  Sb  Sb23  1  0.25000000  0.64219941  0.55612884  1
  Sb  Sb24  1  0.75000000  0.04308049  0.61638342  1
  Sb  Sb25  1  0.25000000  0.95691951  0.38361658  1
  Sb  Sb26  1  0.75000000  0.54308049  0.88361658  1
  Sb  Sb27  1  0.25000000  0.45691951  0.11638342  1
