# generated using pymatgen
data_Na2Nd2Ti3O10
_symmetry_space_group_name_H-M   'P 1'
_cell_length_a   3.85099523
_cell_length_b   3.85099524
_cell_length_c   14.64115217
_cell_angle_alpha   97.55701489
_cell_angle_beta   97.55701491
_cell_angle_gamma   90.00000001
_symmetry_Int_Tables_number   1
_chemical_formula_structural   Na2Nd2Ti3O10
_chemical_formula_sum   'Na2 Nd2 Ti3 O10'
_cell_volume   213.34223782
_cell_formula_units_Z   1
loop_
 _symmetry_equiv_pos_site_id
 _symmetry_equiv_pos_as_xyz
  1  'x, y, z'
loop_
 _atom_site_type_symbol
 _atom_site_label
 _atom_site_symmetry_multiplicity
 _atom_site_fract_x
 _atom_site_fract_y
 _atom_site_fract_z
 _atom_site_occupancy
  O  O0  1  0.86821755  0.36821755  0.73643510  1
  O  O1  1  0.36821755  0.86821755  0.73643510  1
  O  O2  1  0.13178245  0.63178245  0.26356490  1
  O  O3  1  0.63178245  0.13178245  0.26356490  1
  O  O4  1  0.79202811  0.79202811  0.58405622  1
  O  O5  1  0.20797189  0.20797189  0.41594378  1
  O  O6  1  0.00000000  0.50000000  0.00000000  1
  O  O7  1  0.06734931  0.06734931  0.13469861  1
  O  O8  1  0.93265069  0.93265069  0.86530139  1
  O  O9  1  0.50000000  0.00000000  0.00000000  1
  Na  Na10  1  0.71201924  0.71201924  0.42403849  1
  Na  Na11  1  0.28798076  0.28798076  0.57596151  1
  Ti  Ti12  1  0.85326358  0.85326358  0.70652717  1
  Ti  Ti13  1  0.14673642  0.14673642  0.29347283  1
  Ti  Ti14  1  0.00000000  0.00000000  0.00000000  1
  Nd  Nd15  1  0.57526103  0.57526103  0.15052205  1
  Nd  Nd16  1  0.42473897  0.42473897  0.84947795  1
