# generated using pymatgen
data_K2PdN2(ClO2)2
_symmetry_space_group_name_H-M   'P 1'
_cell_length_a   4.53928101
_cell_length_b   7.80966302
_cell_length_c   8.17142009
_cell_angle_alpha   127.06211089
_cell_angle_beta   86.38341141
_cell_angle_gamma   103.17330977
_symmetry_Int_Tables_number   1
_chemical_formula_structural   K2PdN2(ClO2)2
_chemical_formula_sum   'K2 Pd1 N2 Cl2 O4'
_cell_volume   224.04524319
_cell_formula_units_Z   1
loop_
 _symmetry_equiv_pos_site_id
 _symmetry_equiv_pos_as_xyz
  1  'x, y, z'
loop_
 _atom_site_type_symbol
 _atom_site_label
 _atom_site_symmetry_multiplicity
 _atom_site_fract_x
 _atom_site_fract_y
 _atom_site_fract_z
 _atom_site_occupancy
  K  K0  1  0.12155439  0.65792335  0.32027333  1
  K  K1  1  0.87612985  0.34086099  0.68126380  1
  Pd  Pd2  1  0.49812331  0.99908732  0.00079680  1
  N  N3  1  0.29671285  0.14422251  0.27540538  1
  N  N4  1  0.69953400  0.85516493  0.72754624  1
  Cl  Cl5  1  0.46512699  0.68436547  0.98211072  1
  Cl  Cl6  1  0.53451539  0.31278826  0.01743352  1
  O  O7  1  0.15951569  0.29011413  0.33165045  1
  O  O8  1  0.66752703  0.90256959  0.60809974  1
  O  O9  1  0.31107715  0.08598668  0.38831605  1
  O  O10  1  0.85468135  0.72103178  0.67900497  1
