# generated using pymatgen
data_NiPO4
_symmetry_space_group_name_H-M   'P 1'
_cell_length_a   9.94654836
_cell_length_b   10.05901102
_cell_length_c   17.16648505
_cell_angle_alpha   89.44856926
_cell_angle_beta   73.15950127
_cell_angle_gamma   60.36915915
_symmetry_Int_Tables_number   1
_chemical_formula_structural   NiPO4
_chemical_formula_sum   'Ni16 P16 O64'
_cell_volume   1410.37040038
_cell_formula_units_Z   16
loop_
 _symmetry_equiv_pos_site_id
 _symmetry_equiv_pos_as_xyz
  1  'x, y, z'
loop_
 _atom_site_type_symbol
 _atom_site_label
 _atom_site_symmetry_multiplicity
 _atom_site_fract_x
 _atom_site_fract_y
 _atom_site_fract_z
 _atom_site_occupancy
  Ni  Ni0  1  0.05791328  0.44257061  0.81288205  1
  Ni  Ni1  1  0.06218959  0.18007607  0.56172311  1
  Ni  Ni2  1  0.56145596  0.99647675  0.81242870  1
  Ni  Ni3  1  0.55771539  0.50173424  0.81293058  1
  Ni  Ni4  1  0.68905212  0.18551042  0.06172721  1
  Ni  Ni5  1  0.69601123  0.68007607  0.06172311  1
  Ni  Ni6  1  0.62762078  0.00173424  0.31293058  1
  Ni  Ni7  1  0.05576893  0.94526712  0.81456692  1
  Ni  Ni8  1  0.62416388  0.12398834  0.56175175  1
  Ni  Ni9  1  0.12963859  0.49647675  0.31242870  1
  Ni  Ni10  1  0.12414178  0.62159177  0.56165461  1
  Ni  Ni11  1  0.19261184  0.12159177  0.06165461  1
  Ni  Ni12  1  0.19009603  0.62398834  0.06175175  1
  Ni  Ni13  1  0.18663406  0.94257061  0.31288205  1
  Ni  Ni14  1  0.56371024  0.68551042  0.56172721  1
  Ni  Ni15  1  0.68439704  0.44526712  0.31456692  1
  P  P16  1  0.25110893  0.18328062  0.37457130  1
  P  P17  1  0.31751869  0.81106570  0.12481321  1
  P  P18  1  0.24660241  0.31106570  0.62481321  1
  P  P19  1  0.18913413  0.62757629  0.87447902  1
  P  P20  1  0.68877019  0.37263167  0.62319446  1
  P  P21  1  0.30821773  0.62526703  0.37462888  1
  P  P22  1  0.75176034  0.68532075  0.37372926  1
  P  P23  1  0.68918966  0.18532075  0.87372926  1
  P  P24  1  0.69103916  0.68328062  0.87457130  1
  P  P25  1  0.19018222  0.86863691  0.62435919  1
  P  P26  1  0.81540467  0.87263167  0.12319446  1
  P  P27  1  0.31218355  0.31714595  0.12486176  1
  P  P28  1  0.19188635  0.12526703  0.87462888  1
  P  P29  1  0.81682168  0.36863691  0.12435919  1
  P  P30  1  0.74580874  0.81714595  0.62486176  1
  P  P31  1  0.80881056  0.12757629  0.37447902  1
  O  O32  1  0.81733807  0.27452155  0.35364779  1
  O  O33  1  0.97646018  0.00726752  0.38310977  1
  O  O34  1  0.16725573  0.66072135  0.45510237  1
  O  O35  1  0.20690344  0.12394327  0.45588487  1
  O  O36  1  0.27570397  0.56235761  0.30355744  1
  O  O37  1  0.19945462  0.90795010  0.70911425  1
  O  O38  1  0.17309641  0.41459907  0.20611479  1
  O  O39  1  0.98111106  0.23689729  0.13139918  1
  O  O40  1  0.35645169  0.81961105  0.55682249  1
  O  O41  1  0.55429214  0.17105589  0.85320271  1
  O  O42  1  0.32267731  0.16154354  0.10392599  1
  O  O43  1  0.85580797  0.57898640  0.80379398  1
  O  O44  1  0.70618972  0.91459907  0.70611479  1
  O  O45  1  0.15059246  0.73689729  0.63139918  1
  O  O46  1  0.47540049  0.50586092  0.38400935  1
  O  O47  1  0.21437479  0.66263476  0.95491908  1
  O  O48  1  0.91185315  0.66154354  0.60392599  1
  O  O49  1  0.77505060  0.06629887  0.30326985  1
  O  O50  1  0.27566895  0.41177913  0.05345203  1
  O  O51  1  0.26141165  0.07898640  0.30379398  1
  O  O52  1  0.41375931  0.15668236  0.60234839  1
  O  O53  1  0.68348003  0.40795010  0.20911425  1
  O  O54  1  0.70535461  0.62716074  0.45529212  1
  O  O55  1  0.55326939  0.67380758  0.85417212  1
  O  O56  1  0.41875090  0.17380758  0.35417212  1
  O  O57  1  0.18334836  0.90267265  0.20891380  1
  O  O58  1  0.13316253  0.50726752  0.88310977  1
  O  O59  1  0.77331903  0.81488783  0.05487590  1
  O  O60  1  0.35538067  0.56629887  0.80326985  1
  O  O61  1  0.67661136  0.91628369  0.20598763  1
  O  O62  1  0.55649590  0.51350008  0.59718109  1
  O  O63  1  0.70111733  0.41628369  0.70598763  1
  O  O64  1  0.71219153  0.12716074  0.95529212  1
  O  O65  1  0.05520968  0.00970092  0.59979212  1
  O  O66  1  0.12008556  0.35676385  0.38133043  1
  O  O67  1  0.97914190  0.74386467  0.13259005  1
  O  O68  1  0.32720993  0.65668236  0.10234839  1
  O  O69  1  0.05449259  0.77452155  0.85364779  1
  O  O70  1  0.48421071  0.77429715  0.13221529  1
  O  O71  1  0.92144927  0.67105589  0.35320271  1
  O  O72  1  0.25932282  0.41061751  0.55612905  1
  O  O73  1  0.20506418  0.40267265  0.70891380  1
  O  O74  1  0.75794444  0.58282298  0.30362413  1
  O  O75  1  0.64440238  0.24386467  0.63259005  1
  O  O76  1  0.71326842  0.62394327  0.95588487  1
  O  O77  1  0.27393062  0.91061751  0.05612905  1
  O  O78  1  0.64182016  0.85676385  0.88133043  1
  O  O79  1  0.63685493  0.35946666  0.88070432  1
  O  O80  1  0.10927685  0.27429715  0.63221529  1
  O  O81  1  0.85691723  0.31488783  0.55487590  1
  O  O82  1  0.31702594  0.77181718  0.35315042  1
  O  O83  1  0.85560845  0.08282298  0.80362413  1
  O  O84  1  0.35837998  0.06235761  0.80355744  1
  O  O85  1  0.05800646  0.27181718  0.85315042  1
  O  O86  1  0.60937582  0.77831059  0.63387015  1
  O  O87  1  0.62297308  0.85946666  0.38070432  1
  O  O88  1  0.76711476  0.31961105  0.05682249  1
  O  O89  1  0.47844344  0.27831059  0.13387015  1
  O  O90  1  0.13472924  0.00586092  0.88400935  1
  O  O91  1  0.21692055  0.16072135  0.95510237  1
  O  O92  1  0.83529629  0.50970092  0.09979212  1
  O  O93  1  0.75909988  0.91177913  0.55345203  1
  O  O94  1  0.66807137  0.16263476  0.45491908  1
  O  O95  1  0.83282293  0.01350008  0.09718109  1
