# generated using pymatgen
data_Al(HO)3
_symmetry_space_group_name_H-M   'P 1'
_cell_length_a   8.84788313
_cell_length_b   5.06911212
_cell_length_c   9.71417284
_cell_angle_alpha   89.28153207
_cell_angle_beta   93.01923148
_cell_angle_gamma   90.03908814
_symmetry_Int_Tables_number   1
_chemical_formula_structural   Al(HO)3
_chemical_formula_sum   'Al8 H24 O24'
_cell_volume   435.05052534
_cell_formula_units_Z   8
loop_
 _symmetry_equiv_pos_site_id
 _symmetry_equiv_pos_as_xyz
  1  'x, y, z'
loop_
 _atom_site_type_symbol
 _atom_site_label
 _atom_site_symmetry_multiplicity
 _atom_site_fract_x
 _atom_site_fract_y
 _atom_site_fract_z
 _atom_site_occupancy
  Al  Al0  1  0.33200097  0.01769974  0.50483246  1
  Al  Al1  1  0.84320324  0.48085252  0.98964621  1
  Al  Al2  1  0.65574730  0.98401768  0.50184161  1
  Al  Al3  1  0.17814588  0.51375811  0.00233508  1
  Al  Al4  1  0.16249530  0.52204882  0.50305263  1
  Al  Al5  1  0.67585491  0.97908557  0.99790182  1
  Al  Al6  1  0.82983129  0.48042626  0.49722123  1
  Al  Al7  1  0.34010095  0.01951778  0.00888543  1
  H  H8  1  0.30398179  0.71263453  0.70861880  1
  H  H9  1  0.85929465  0.79779844  0.19297041  1
  H  H10  1  0.65842102  0.30098968  0.29741275  1
  H  H11  1  0.20216735  0.21413971  0.79905575  1
  H  H12  1  0.90089810  0.01459655  0.60450032  1
  H  H13  1  0.32089978  0.32179257  0.21346371  1
  H  H14  1  0.07801969  0.94544937  0.38344304  1
  H  H15  1  0.68193814  0.67486108  0.79110613  1
  H  H16  1  0.99510276  0.62536614  0.70447372  1
  H  H17  1  0.49721437  0.66495192  0.11747237  1
  H  H18  1  0.00553537  0.38549929  0.29679066  1
  H  H19  1  0.52699181  0.32869282  0.90048444  1
  H  H20  1  0.50788737  0.12167768  0.71026317  1
  H  H21  1  0.03492523  0.16462885  0.09644692  1
  H  H22  1  0.48106834  0.89277505  0.29656123  1
  H  H23  1  0.99100509  0.82871361  0.89111692  1
  H  H24  1  0.10321880  0.09485788  0.62175563  1
  H  H25  1  0.79614259  0.22854120  0.17848944  1
  H  H26  1  0.71955732  0.73545846  0.30998649  1
  H  H27  1  0.42049045  0.64082729  0.88620795  1
  H  H28  1  0.58558137  0.55902004  0.60246217  1
  H  H29  1  0.19207775  0.81839854  0.20746969  1
  H  H30  1  0.40878019  0.43565349  0.40191541  1
  H  H31  1  0.80982843  0.17616256  0.78705812  1
  O  O32  1  0.31087163  0.70298683  0.60777408  1
  O  O33  1  0.83156349  0.78954698  0.09485815  1
  O  O34  1  0.67309679  0.29997163  0.39774937  1
  O  O35  1  0.19370532  0.20536291  0.89983258  1
  O  O36  1  0.82039905  0.14840625  0.60510696  1
  O  O37  1  0.33509568  0.33123381  0.11287239  1
  O  O38  1  0.17148931  0.84257950  0.39168359  1
  O  O39  1  0.67302917  0.66074358  0.89308260  1
  O  O40  1  0.99110989  0.64600245  0.60206052  1
  O  O41  1  0.51244994  0.85643975  0.11225932  1
  O  O42  1  0.99886551  0.36756494  0.39761067  1
  O  O43  1  0.50664308  0.13904620  0.90078622  1
  O  O44  1  0.50634909  0.13149604  0.60886017  1
  O  O45  1  0.01698974  0.35494242  0.10516855  1
  O  O46  1  0.48265347  0.86994748  0.39759393  1
  O  O47  1  0.00130370  0.63638440  0.88590635  1
  O  O48  1  0.19234288  0.20550414  0.61544667  1
  O  O49  1  0.71472510  0.28476896  0.11305579  1
  O  O50  1  0.79185475  0.79273026  0.38284794  1
  O  O51  1  0.31856310  0.71106443  0.89336448  1
  O  O52  1  0.68162537  0.65634450  0.60911860  1
  O  O53  1  0.19276905  0.82722503  0.10551065  1
  O  O54  1  0.31208439  0.34097703  0.39740900  1
  O  O55  1  0.81640490  0.16898124  0.88918772  1
