# generated using pymatgen
data_H2SO4
_symmetry_space_group_name_H-M   'P 1'
_cell_length_a   4.74754515
_cell_length_b   4.74754515
_cell_length_c   9.08371566
_cell_angle_alpha   72.30556859
_cell_angle_beta   107.69443141
_cell_angle_gamma   119.02547729
_symmetry_Int_Tables_number   1
_chemical_formula_structural   H2SO4
_chemical_formula_sum   'H4 S2 O8'
_cell_volume   167.51998201
_cell_formula_units_Z   2
loop_
 _symmetry_equiv_pos_site_id
 _symmetry_equiv_pos_as_xyz
  1  'x, y, z'
loop_
 _atom_site_type_symbol
 _atom_site_label
 _atom_site_symmetry_multiplicity
 _atom_site_fract_x
 _atom_site_fract_y
 _atom_site_fract_z
 _atom_site_occupancy
  H  H0  1  0.69896228  0.53366181  0.60971173  1
  H  H1  1  0.46633819  0.30103772  0.10971173  1
  H  H2  1  0.24662378  0.72758880  0.83173185  1
  H  H3  1  0.27241120  0.75337622  0.33173185  1
  S  S4  1  0.87176922  0.90728443  0.74473197  1
  S  S5  1  0.09271557  0.12823078  0.24473197  1
  O  O6  1  0.68252285  0.68280227  0.86344569  1
  O  O7  1  0.72791600  0.76348345  0.58821694  1
  O  O8  1  0.23651655  0.27208400  0.08821694  1
  O  O9  1  0.31719773  0.31747715  0.36344569  1
  O  O10  1  0.23202318  0.93971653  0.79532629  1
  O  O11  1  0.91116826  0.23971329  0.69707153  1
  O  O12  1  0.76028671  0.08883174  0.19707153  1
  O  O13  1  0.06028347  0.76797682  0.29532629  1
