# generated using pymatgen
data_Sr(H8O5)2
_symmetry_space_group_name_H-M   'P 1'
_cell_length_a   6.35460677
_cell_length_b   6.47435093
_cell_length_c   11.31805527
_cell_angle_alpha   89.56559733
_cell_angle_beta   90.95531022
_cell_angle_gamma   88.24308396
_symmetry_Int_Tables_number   1
_chemical_formula_structural   Sr(H8O5)2
_chemical_formula_sum   'Sr2 H32 O20'
_cell_volume   465.34805920
_cell_formula_units_Z   2
loop_
 _symmetry_equiv_pos_site_id
 _symmetry_equiv_pos_as_xyz
  1  'x, y, z'
loop_
 _atom_site_type_symbol
 _atom_site_label
 _atom_site_symmetry_multiplicity
 _atom_site_fract_x
 _atom_site_fract_y
 _atom_site_fract_z
 _atom_site_occupancy
  Sr  Sr0  1  0.99580534  0.99211672  0.26104840  1
  Sr  Sr1  1  0.98502311  0.99497620  0.73953557  1
  H  H2  1  0.03097183  0.44270789  0.37418565  1
  H  H3  1  0.27160120  0.38097963  0.35829758  1
  H  H4  1  0.72150520  0.59861628  0.35308395  1
  H  H5  1  0.85168346  0.67524349  0.46590583  1
  H  H6  1  0.59957440  0.26689341  0.35291884  1
  H  H7  1  0.54628590  0.02648803  0.37260902  1
  H  H8  1  0.39586165  0.71169982  0.35394164  1
  H  H9  1  0.32257383  0.85399214  0.46321636  1
  H  H10  1  0.70882148  0.39069831  0.85023632  1
  H  H11  1  0.96886052  0.36149581  0.86945883  1
  H  H12  1  0.04129717  0.59543476  0.86082628  1
  H  H13  1  0.29885105  0.60499173  0.84874664  1
  H  H14  1  0.42212011  0.05708492  0.86244487  1
  H  H15  1  0.27664783  0.15291130  0.95934557  1
  H  H16  1  0.61068054  0.73151116  0.84142803  1
  H  H17  1  0.69452975  0.85918448  0.95266706  1
  H  H18  1  0.95959787  0.54709465  0.62786146  1
  H  H19  1  0.71533350  0.61022967  0.64362061  1
  H  H20  1  0.27094424  0.39552027  0.65336540  1
  H  H21  1  0.14029449  0.32175104  0.53994654  1
  H  H22  1  0.38708080  0.73318556  0.64295977  1
  H  H23  1  0.43647809  0.97293788  0.62411216  1
  H  H24  1  0.59502233  0.28465119  0.64540591  1
  H  H25  1  0.66567525  0.14935535  0.53259336  1
  H  H26  1  0.28130106  0.63036182  0.14633902  1
  H  H27  1  0.15229845  0.71953773  0.03385073  1
  H  H28  1  0.69141217  0.36199468  0.15023790  1
  H  H29  1  0.83046086  0.27830553  0.04287148  1
  H  H30  1  0.60312191  0.71790089  0.14591594  1
  H  H31  1  0.62819261  0.96905056  0.12626331  1
  H  H32  1  0.35310597  0.02986505  0.12429159  1
  H  H33  1  0.37076624  0.28146604  0.14818587  1
  O  O34  1  0.49511477  0.48858298  0.31898880  1
  O  O35  1  0.51923875  0.52667471  0.81281568  1
  O  O36  1  0.49903928  0.51468442  0.68146550  1
  O  O37  1  0.48692065  0.49373326  0.18691828  1
  O  O38  1  0.13303785  0.32273101  0.38461026  1
  O  O39  1  0.86002454  0.66079299  0.37818923  1
  O  O40  1  0.66355709  0.12587819  0.37836680  1
  O  O41  1  0.33789763  0.85579072  0.37515065  1
  O  O42  1  0.83586087  0.29316028  0.87936248  1
  O  O43  1  0.15932674  0.68541840  0.87159689  1
  O  O44  1  0.28268879  0.12601150  0.87348583  1
  O  O45  1  0.67496149  0.87192116  0.86614399  1
  O  O46  1  0.85847398  0.66871890  0.62160899  1
  O  O47  1  0.13162706  0.33582157  0.62785820  1
  O  O48  1  0.32108502  0.87223106  0.61573255  1
  O  O49  1  0.65222832  0.14318958  0.62037225  1
  O  O50  1  0.17035911  0.73742349  0.12019394  1
  O  O51  1  0.80472085  0.25605376  0.12789909  1
  O  O52  1  0.69629977  0.83247646  0.11825702  1
  O  O53  1  0.27872325  0.16451255  0.11931803  1
