# generated using pymatgen
data_La2ZnIrO6
_symmetry_space_group_name_H-M   'P 1'
_cell_length_a   5.59016237
_cell_length_b   5.82285370
_cell_length_c   7.97055310
_cell_angle_alpha   90.00000000
_cell_angle_beta   90.09488011
_cell_angle_gamma   90.00000000
_symmetry_Int_Tables_number   1
_chemical_formula_structural   La2ZnIrO6
_chemical_formula_sum   'La4 Zn2 Ir2 O12'
_cell_volume   259.44670801
_cell_formula_units_Z   2
loop_
 _symmetry_equiv_pos_site_id
 _symmetry_equiv_pos_as_xyz
  1  'x, y, z'
loop_
 _atom_site_type_symbol
 _atom_site_label
 _atom_site_symmetry_multiplicity
 _atom_site_fract_x
 _atom_site_fract_y
 _atom_site_fract_z
 _atom_site_occupancy
  O  O0  1  0.90418442  0.52806805  0.75347754  1
  O  O1  1  0.59581558  0.02806805  0.74652246  1
  O  O2  1  0.09581558  0.47193195  0.24652246  1
  O  O3  1  0.40418442  0.97193195  0.25347754  1
  O  O4  1  0.79700749  0.80218042  0.44980386  1
  O  O5  1  0.70299251  0.30218042  0.05019614  1
  O  O6  1  0.20299251  0.19781958  0.55019614  1
  O  O7  1  0.29700749  0.69781958  0.94980386  1
  O  O8  1  0.19018165  0.20891178  0.94812105  1
  O  O9  1  0.30981835  0.70891178  0.55187895  1
  O  O10  1  0.80981835  0.79108822  0.05187895  1
  O  O11  1  0.69018165  0.29108822  0.44812105  1
  Zn  Zn12  1  0.00000000  0.50000000  0.50000000  1
  Zn  Zn13  1  0.50000000  0.00000000  0.00000000  1
  La  La14  1  0.51495274  0.55951811  0.24897739  1
  La  La15  1  0.98504726  0.05951811  0.25102261  1
  La  La16  1  0.01495274  0.94048189  0.74897739  1
  La  La17  1  0.48504726  0.44048189  0.75102261  1
  Ir  Ir18  1  0.00000000  0.50000000  0.00000000  1
  Ir  Ir19  1  0.50000000  0.00000000  0.50000000  1
