# generated using pymatgen
data_Ba(H2O3)2
_symmetry_space_group_name_H-M   'P 1'
_cell_length_a   5.24962902
_cell_length_b   6.04943689
_cell_length_c   8.69011526
_cell_angle_alpha   82.10065721
_cell_angle_beta   93.02379329
_cell_angle_gamma   110.05401554
_symmetry_Int_Tables_number   1
_chemical_formula_structural   Ba(H2O3)2
_chemical_formula_sum   'Ba2 H8 O12'
_cell_volume   256.77755827
_cell_formula_units_Z   2
loop_
 _symmetry_equiv_pos_site_id
 _symmetry_equiv_pos_as_xyz
  1  'x, y, z'
loop_
 _atom_site_type_symbol
 _atom_site_label
 _atom_site_symmetry_multiplicity
 _atom_site_fract_x
 _atom_site_fract_y
 _atom_site_fract_z
 _atom_site_occupancy
  Ba  Ba0  1  0.84208706  0.85743817  0.78688838  1
  Ba  Ba1  1  0.15654746  0.21490031  0.20920767  1
  H  H2  1  0.34732049  0.75807036  0.05333135  1
  H  H3  1  0.24554083  0.50985749  0.64095463  1
  H  H4  1  0.72071182  0.28803849  0.72875797  1
  H  H5  1  0.66514989  0.26131199  0.43893586  1
  H  H6  1  0.84420430  0.65293075  0.15251162  1
  H  H7  1  0.56319114  0.46712753  0.46629712  1
  H  H8  1  0.41262866  0.71688936  0.50818131  1
  H  H9  1  0.64458287  0.36377164  0.96959872  1
  O  O10  1  0.27255262  0.00819536  0.58732720  1
  O  O11  1  0.84553301  0.24700074  0.93890789  1
  O  O12  1  0.81618420  0.02786790  0.45983498  1
  O  O13  1  0.19695493  0.83361443  0.05469209  1
  O  O14  1  0.40266386  0.05208328  0.72302404  1
  O  O15  1  0.90274526  0.36681900  0.77587468  1
  O  O16  1  0.62536832  0.93108468  0.35347225  1
  O  O17  1  0.04098285  0.69143421  0.19444690  1
  O  O18  1  0.42339140  0.59006137  0.59149382  1
  O  O19  1  0.49213964  0.44262338  0.95812141  1
  O  O20  1  0.63290975  0.40331350  0.38494332  1
  O  O21  1  0.56513964  0.63048604  0.06424078  1
