# generated using pymatgen
data_SiC
_symmetry_space_group_name_H-M   'P 1'
_cell_length_a   27.83553999
_cell_length_b   27.83553996
_cell_length_c   27.83554000
_cell_angle_alpha   6.38025146
_cell_angle_beta   6.38025205
_cell_angle_gamma   6.38025273
_symmetry_Int_Tables_number   1
_chemical_formula_structural   SiC
_chemical_formula_sum   'Si11 C11'
_cell_volume   230.89401660
_cell_formula_units_Z   11
loop_
 _symmetry_equiv_pos_site_id
 _symmetry_equiv_pos_as_xyz
  1  'x, y, z'
loop_
 _atom_site_type_symbol
 _atom_site_label
 _atom_site_symmetry_multiplicity
 _atom_site_fract_x
 _atom_site_fract_y
 _atom_site_fract_z
 _atom_site_occupancy
  Si  Si0  1  0.09088065  0.09088065  0.09088065  1
  Si  Si1  1  0.63632883  0.63632883  0.63632883  1
  Si  Si2  1  0.81813368  0.81813368  0.81813368  1
  Si  Si3  1  0.45452755  0.45452755  0.45452755  1
  Si  Si4  1  0.57570671  0.57570671  0.57570671  1
  Si  Si5  1  0.39389144  0.39389144  0.39389144  1
  Si  Si6  1  0.99997091  0.99997091  0.99997091  1
  Si  Si7  1  0.18178949  0.18178949  0.18178949  1
  Si  Si8  1  0.69695301  0.69695301  0.69695301  1
  Si  Si9  1  0.27269843  0.27269843  0.27269843  1
  Si  Si10  1  0.87876810  0.87876810  0.87876810  1
  C  C11  1  0.20462315  0.20462315  0.20462315  1
  C  C12  1  0.90154136  0.90154136  0.90154136  1
  C  C13  1  0.11371511  0.11371511  0.11371511  1
  C  C14  1  0.84090020  0.84090020  0.84090020  1
  C  C15  1  0.71972191  0.71972191  0.71972191  1
  C  C16  1  0.65908035  0.65908035  0.65908035  1
  C  C17  1  0.29553156  0.29553156  0.29553156  1
  C  C18  1  0.41666108  0.41666108  0.41666108  1
  C  C19  1  0.02280879  0.02280879  0.02280879  1
  C  C20  1  0.59847711  0.59847711  0.59847711  1
  C  C21  1  0.47729657  0.47729657  0.47729657  1
