# generated using pymatgen
data_H5ClO6
_symmetry_space_group_name_H-M   'P 1'
_cell_length_a   6.86266773
_cell_length_b   10.57751325
_cell_length_c   7.41915907
_cell_angle_alpha   90.00000000
_cell_angle_beta   90.00000000
_cell_angle_gamma   90.00000000
_symmetry_Int_Tables_number   1
_chemical_formula_structural   H5ClO6
_chemical_formula_sum   'H20 Cl4 O24'
_cell_volume   538.55645155
_cell_formula_units_Z   4
loop_
 _symmetry_equiv_pos_site_id
 _symmetry_equiv_pos_as_xyz
  1  'x, y, z'
loop_
 _atom_site_type_symbol
 _atom_site_label
 _atom_site_symmetry_multiplicity
 _atom_site_fract_x
 _atom_site_fract_y
 _atom_site_fract_z
 _atom_site_occupancy
  H  H0  1  0.50702847  0.10709263  0.22628830  1
  H  H1  1  0.47942946  0.95485472  0.26930694  1
  H  H2  1  0.00702847  0.39290737  0.27371170  1
  H  H3  1  0.97942946  0.54514528  0.23069306  1
  H  H4  1  0.49297153  0.60709263  0.77371170  1
  H  H5  1  0.52057054  0.45485472  0.73069306  1
  H  H6  1  0.99297153  0.89290737  0.72628830  1
  H  H7  1  0.02057054  0.04514528  0.76930694  1
  H  H8  1  0.48676279  0.00210710  0.03636006  1
  H  H9  1  0.62949340  0.00950849  0.80649894  1
  H  H10  1  0.40753742  0.98661072  0.78348181  1
  H  H11  1  0.90753742  0.51338928  0.71651819  1
  H  H12  1  0.12949340  0.49049151  0.69350106  1
  H  H13  1  0.98676279  0.49789290  0.46363994  1
  H  H14  1  0.59246258  0.48661072  0.21651819  1
  H  H15  1  0.51323721  0.50210710  0.96363994  1
  H  H16  1  0.37050660  0.50950849  0.19350106  1
  H  H17  1  0.87050660  0.99049151  0.30649894  1
  H  H18  1  0.01323721  0.99789290  0.53636006  1
  H  H19  1  0.09246258  0.01338928  0.28348181  1
  Cl  Cl20  1  0.56953611  0.24168581  0.50888099  1
  Cl  Cl21  1  0.06953611  0.25831419  0.99111901  1
  Cl  Cl22  1  0.43046389  0.74168581  0.49111901  1
  Cl  Cl23  1  0.93046389  0.75831419  0.00888099  1
  O  O24  1  0.60256419  0.23019683  0.31203885  1
  O  O25  1  0.10256419  0.26980317  0.18796115  1
  O  O26  1  0.39743581  0.73019683  0.68796115  1
  O  O27  1  0.89743581  0.76980317  0.81203885  1
  O  O28  1  0.75368670  0.23605100  0.60314787  1
  O  O29  1  0.25368670  0.26394900  0.89685213  1
  O  O30  1  0.24631330  0.73605100  0.39685213  1
  O  O31  1  0.74631330  0.76394900  0.10314787  1
  O  O32  1  0.44047103  0.13997203  0.56516871  1
  O  O33  1  0.94047103  0.36002797  0.93483129  1
  O  O34  1  0.55952897  0.63997203  0.43483129  1
  O  O35  1  0.05952897  0.86002797  0.06516871  1
  O  O36  1  0.52340458  0.86567066  0.45853006  1
  O  O37  1  0.02340458  0.63432934  0.04146994  1
  O  O38  1  0.47659542  0.36567066  0.54146994  1
  O  O39  1  0.97659542  0.13432934  0.95853006  1
  O  O40  1  0.45035749  0.02383464  0.18019426  1
  O  O41  1  0.95035749  0.47616536  0.31980574  1
  O  O42  1  0.54964251  0.52383464  0.81980574  1
  O  O43  1  0.04964251  0.97616536  0.68019426  1
  O  O44  1  0.51622403  0.97254943  0.86605662  1
  O  O45  1  0.01622403  0.52745057  0.63394338  1
  O  O46  1  0.48377597  0.47254943  0.13394338  1
  O  O47  1  0.98377597  0.02745057  0.36605662  1
