# generated using pymatgen
data_H5IO6
_symmetry_space_group_name_H-M   'P 1'
_cell_length_a   5.36253746
_cell_length_b   18.98557358
_cell_length_c   5.09823726
_cell_angle_alpha   89.17566885
_cell_angle_beta   109.31836420
_cell_angle_gamma   90.65846503
_symmetry_Int_Tables_number   1
_chemical_formula_structural   H5IO6
_chemical_formula_sum   'H20 I4 O24'
_cell_volume   489.76724660
_cell_formula_units_Z   4
loop_
 _symmetry_equiv_pos_site_id
 _symmetry_equiv_pos_as_xyz
  1  'x, y, z'
loop_
 _atom_site_type_symbol
 _atom_site_label
 _atom_site_symmetry_multiplicity
 _atom_site_fract_x
 _atom_site_fract_y
 _atom_site_fract_z
 _atom_site_occupancy
  H  H0  1  0.16353296  0.50132129  0.82859648  1
  H  H1  1  0.67619976  0.99449857  0.33799747  1
  H  H2  1  0.84599007  0.49231087  0.16986836  1
  H  H3  1  0.34546845  0.99914646  0.66532545  1
  H  H4  1  0.73379995  0.60855946  0.02665133  1
  H  H5  1  0.79058268  0.11233974  0.45647682  1
  H  H6  1  0.33570240  0.56147297  0.49148967  1
  H  H7  1  0.83033741  0.93327084  0.00805449  1
  H  H8  1  0.67187613  0.43466889  0.49909484  1
  H  H9  1  0.19396651  0.05911592  0.00973309  1
  H  H10  1  0.01486920  0.71221702  0.23964422  1
  H  H11  1  0.54875391  0.75842222  0.70105674  1
  H  H12  1  0.75559667  0.26018969  0.71798981  1
  H  H13  1  0.27253217  0.23476808  0.21174424  1
  H  H14  1  0.12232039  0.86469591  0.53948312  1
  H  H15  1  0.38409401  0.36495977  0.95687748  1
  H  H16  1  0.02891656  0.72212163  0.73083588  1
  H  H17  1  0.54492567  0.81104201  0.11136340  1
  H  H18  1  0.97195580  0.31107706  0.40539195  1
  H  H19  1  0.48786363  0.18087233  0.91199752  1
  I  I20  1  0.20438109  0.62096705  0.03679924  1
  I  I21  1  0.66699507  0.87610187  0.55032762  1
  I  I22  1  0.84047498  0.37593195  0.95491881  1
  I  I23  1  0.31999814  0.12084783  0.46044561  1
  O  O24  1  0.20725782  0.54984666  0.77005395  1
  O  O25  1  0.72464496  0.94595114  0.29422445  1
  O  O26  1  0.80445417  0.44325317  0.22266849  1
  O  O27  1  0.31039585  0.04777835  0.72626140  1
  O  O28  1  0.88900197  0.57430549  0.06556994  1
  O  O29  1  0.37309497  0.91835239  0.57872394  1
  O  O30  1  0.13662395  0.41659737  0.91715371  1
  O  O31  1  0.63009162  0.07786467  0.42098605  1
  O  O32  1  0.40857924  0.56160731  0.33389850  1
  O  O33  1  0.91005977  0.92372945  0.85981245  1
  O  O34  1  0.60347603  0.43081257  0.65924330  1
  O  O35  1  0.11647658  0.06149760  0.16324519  1
  O  O36  1  0.18528414  0.68846260  0.31392787  1
  O  O37  1  0.64034160  0.79977190  0.80626152  1
  O  O38  1  0.86305058  0.30199593  0.70126132  1
  O  O39  1  0.37389910  0.19199373  0.20256099  1
  O  O40  1  0.49129090  0.66264624  0.98673342  1
  O  O41  1  0.97031450  0.82928007  0.51202409  1
  O  O42  1  0.53653509  0.32982746  0.99536359  1
  O  O43  1  0.02869119  0.16143549  0.49358444  1
  O  O44  1  0.94680952  0.67697539  0.75428203  1
  O  O45  1  0.45457452  0.81968501  0.25075152  1
  O  O46  1  0.05198373  0.31561370  0.25417180  1
  O  O47  1  0.56345453  0.17572988  0.75828443  1
