# generated using pymatgen
data_Mn2GeS4
_symmetry_space_group_name_H-M   'P 1'
_cell_length_a   6.02910354
_cell_length_b   7.38706067
_cell_length_c   12.76598835
_cell_angle_alpha   90.00627525
_cell_angle_beta   90.03439263
_cell_angle_gamma   89.98771719
_symmetry_Int_Tables_number   1
_chemical_formula_structural   Mn2GeS4
_chemical_formula_sum   'Mn8 Ge4 S16'
_cell_volume   568.56321935
_cell_formula_units_Z   4
loop_
 _symmetry_equiv_pos_site_id
 _symmetry_equiv_pos_as_xyz
  1  'x, y, z'
loop_
 _atom_site_type_symbol
 _atom_site_label
 _atom_site_symmetry_multiplicity
 _atom_site_fract_x
 _atom_site_fract_y
 _atom_site_fract_z
 _atom_site_occupancy
  Mn  Mn0  1  0.50184032  0.25061179  0.22947907  1
  Mn  Mn1  1  0.99874553  0.25008627  0.72870690  1
  Mn  Mn2  1  0.49573813  0.75063163  0.76972137  1
  Mn  Mn3  1  0.49970973  0.00113086  0.50056613  1
  Mn  Mn4  1  0.00462322  0.74964544  0.26898704  1
  Mn  Mn5  1  -0.00008089  0.00167648  0.00106680  1
  Mn  Mn6  1  0.99927917  0.49789909  0.00123724  1
  Mn  Mn7  1  0.50052514  0.49860191  0.50058667  1
  Ge  Ge8  1  0.91787973  0.75011476  0.58919960  1
  Ge  Ge9  1  0.08280403  0.24962962  0.40981906  1
  Ge  Ge10  1  0.41581425  0.25011890  0.91029470  1
  Ge  Ge11  1  0.58331353  0.75073344  0.09048303  1
  S  S12  1  0.75078691  0.98815736  0.66733624  1
  S  S13  1  0.74315916  0.75020687  0.93041214  1
  S  S14  1  0.78465690  0.25012196  0.90689081  1
  S  S15  1  0.71367570  0.24959050  0.40665397  1
  S  S16  1  0.75032110  0.98914005  0.16818240  1
  S  S17  1  0.24534311  0.01434257  0.83189949  1
  S  S18  1  0.25340953  0.48529932  0.33173639  1
  S  S19  1  0.28720271  0.74967858  0.59275607  1
  S  S20  1  0.75679643  0.74953673  0.42938461  1
  S  S21  1  0.75139074  0.51213631  0.66745666  1
  S  S22  1  0.21432084  0.74967047  0.09270460  1
  S  S23  1  0.24532227  0.48561847  0.83181991  1
  S  S24  1  0.25622092  0.24976024  0.07148709  1
  S  S25  1  0.75031995  0.51230018  0.16843202  1
  S  S26  1  0.25317006  0.01367366  0.33194979  1
  S  S27  1  0.24371178  0.24988656  0.57075021  1
