# generated using pymatgen
data_Al(HO)3
_symmetry_space_group_name_H-M   'P 1'
_cell_length_a   6.64414913
_cell_length_b   7.64023851
_cell_length_c   7.84852983
_cell_angle_alpha   110.75754850
_cell_angle_beta   139.79250233
_cell_angle_gamma   88.81490600
_symmetry_Int_Tables_number   1
_chemical_formula_structural   Al(HO)3
_chemical_formula_sum   'Al4 H12 O12'
_cell_volume   218.91159442
_cell_formula_units_Z   4
loop_
 _symmetry_equiv_pos_site_id
 _symmetry_equiv_pos_as_xyz
  1  'x, y, z'
loop_
 _atom_site_type_symbol
 _atom_site_label
 _atom_site_symmetry_multiplicity
 _atom_site_fract_x
 _atom_site_fract_y
 _atom_site_fract_z
 _atom_site_occupancy
  Al  Al0  1  0.46318411  0.83169123  0.30133172  1
  Al  Al1  1  0.52505837  0.16915921  0.69182542  1
  Al  Al2  1  0.97678766  0.66175390  0.64574850  1
  Al  Al3  1  0.00462642  0.33074358  0.34099104  1
  H  H4  1  0.98337047  0.89804369  0.53505743  1
  H  H5  1  0.95429893  0.96325344  0.15720489  1
  H  H6  1  0.57620120  0.51797300  0.89219001  1
  H  H7  1  0.39911494  0.47868690  0.09004463  1
  H  H8  1  0.19224475  0.69766031  0.48402775  1
  H  H9  1  0.82165461  0.29231217  0.52536511  1
  H  H10  1  0.34420380  0.14197875  0.26557362  1
  H  H11  1  0.66763591  0.86177459  0.72461660  1
  H  H12  1  0.62189486  0.89928036  0.12155352  1
  H  H13  1  0.35083579  0.13461041  0.88575997  1
  H  H14  1  0.16563567  0.39065482  0.15124294  1
  H  H15  1  0.81134107  0.60667441  0.83255063  1
  O  O16  1  0.95631626  0.91499681  0.64569455  1
  O  O17  1  0.02846971  0.07111188  0.32951563  1
  O  O18  1  0.50191663  0.42682095  0.71353876  1
  O  O19  1  0.47375073  0.56748458  0.26907353  1
  O  O20  1  0.03385157  0.60065165  0.43044176  1
  O  O21  1  0.95573793  0.39463228  0.56201724  1
  O  O22  1  0.52518248  0.11507579  0.43011112  1
  O  O23  1  0.46998181  0.88479373  0.56290676  1
  O  O24  1  0.45136420  0.79091503  0.04367828  1
  O  O25  1  0.53373714  0.20627384  0.94701578  1
  O  O26  1  0.00349664  0.28050105  0.08258496  1
  O  O27  1  0.97178937  0.72226763  0.90587184  1
