# generated using pymatgen
data_Ba(HO)2
_symmetry_space_group_name_H-M   'P 1'
_cell_length_a   9.30348823
_cell_length_b   7.92372562
_cell_length_c   7.19180559
_cell_angle_alpha   87.50799964
_cell_angle_beta   96.09279880
_cell_angle_gamma   89.12571893
_symmetry_Int_Tables_number   1
_chemical_formula_structural   Ba(HO)2
_chemical_formula_sum   'Ba8 H16 O16'
_cell_volume   526.56888744
_cell_formula_units_Z   8
loop_
 _symmetry_equiv_pos_site_id
 _symmetry_equiv_pos_as_xyz
  1  'x, y, z'
loop_
 _atom_site_type_symbol
 _atom_site_label
 _atom_site_symmetry_multiplicity
 _atom_site_fract_x
 _atom_site_fract_y
 _atom_site_fract_z
 _atom_site_occupancy
  Ba  Ba0  1  0.90656311  0.13694823  0.24050199  1
  Ba  Ba1  1  0.39841442  0.36702712  0.72097502  1
  Ba  Ba2  1  0.09828505  0.89787916  0.77359153  1
  Ba  Ba3  1  0.62164962  0.62671705  0.25510068  1
  Ba  Ba4  1  0.33472210  0.02100761  0.30748540  1
  Ba  Ba5  1  0.83231020  0.45463557  0.79518779  1
  Ba  Ba6  1  0.68066495  0.95814873  0.72822089  1
  Ba  Ba7  1  0.18446020  0.53066644  0.18437276  1
  H  H8  1  0.62186103  0.03023573  0.19409071  1
  H  H9  1  0.11549575  0.50813663  0.66591502  1
  H  H10  1  0.38749482  0.96661320  0.82174988  1
  H  H11  1  0.89227535  0.60292176  0.13020955  1
  H  H12  1  0.16614591  0.77210998  0.42786838  1
  H  H13  1  0.56188288  0.64549112  0.70302687  1
  H  H14  1  0.81714650  0.21312723  0.57020226  1
  H  H15  1  0.33450743  0.27408321  0.07125852  1
  H  H16  1  0.96836561  0.82115024  0.14985664  1
  H  H17  1  0.38198134  0.73874625  0.57582989  1
  H  H18  1  0.12221941  0.25617397  0.91685406  1
  H  H19  1  0.60049214  0.26948472  0.40836279  1
  H  H20  1  0.40430293  0.74081179  0.94815124  1
  H  H21  1  0.89565282  0.74412690  0.48024363  1
  H  H22  1  0.59144827  0.24699360  0.03766481  1
  H  H23  1  0.09531219  0.26266436  0.53436125  1
  O  O24  1  0.62571377  0.97115571  0.31783350  1
  O  O25  1  0.12916148  0.52766780  0.79992039  1
  O  O26  1  0.38487190  0.01480294  0.69258772  1
  O  O27  1  0.88712318  0.48142326  0.16905741  1
  O  O28  1  0.08477294  0.84925707  0.38293778  1
  O  O29  1  0.58067512  0.63653984  0.83978440  1
  O  O30  1  0.90868298  0.15519049  0.62420595  1
  O  O31  1  0.41982206  0.33883545  0.11755404  1
  O  O32  1  0.90654649  0.82310051  0.02913212  1
  O  O33  1  0.37434909  0.66795686  0.46736280  1
  O  O34  1  0.14401377  0.17505413  0.02272365  1
  O  O35  1  0.63766623  0.33467812  0.51432681  1
  O  O36  1  0.34142420  0.79894763  0.02786172  1
  O  O37  1  0.82077654  0.71693058  0.56224960  1
  O  O38  1  0.67302421  0.19846717  0.97869782  1
  O  O39  1  0.17309803  0.29214785  0.45747570  1
