# generated using pymatgen
data_As5Pb3S10
_symmetry_space_group_name_H-M   'P 1'
_cell_length_a   8.17179442
_cell_length_b   8.74002427
_cell_length_c   25.77954068
_cell_angle_alpha   95.17254520
_cell_angle_beta   90.00000000
_cell_angle_gamma   90.00000000
_symmetry_Int_Tables_number   1
_chemical_formula_structural   As5Pb3S10
_chemical_formula_sum   'As20 Pb12 S40'
_cell_volume   1833.72017767
_cell_formula_units_Z   4
loop_
 _symmetry_equiv_pos_site_id
 _symmetry_equiv_pos_as_xyz
  1  'x, y, z'
loop_
 _atom_site_type_symbol
 _atom_site_label
 _atom_site_symmetry_multiplicity
 _atom_site_fract_x
 _atom_site_fract_y
 _atom_site_fract_z
 _atom_site_occupancy
  As  As0  1  0.16240947  0.83691920  0.54727365  1
  As  As1  1  0.83759053  0.16308080  0.45272635  1
  As  As2  1  0.33759053  0.33691920  0.04727365  1
  As  As3  1  0.69463596  0.07455397  0.93251280  1
  As  As4  1  0.34305003  0.10469467  0.85176056  1
  As  As5  1  0.50815817  0.84119864  0.45218605  1
  As  As6  1  0.99184183  0.34119864  0.95218605  1
  As  As7  1  0.00815817  0.65880136  0.04781395  1
  As  As8  1  0.85059706  0.96905323  0.66063678  1
  As  As9  1  0.64940294  0.46905323  0.16063678  1
  As  As10  1  0.65694997  0.89530533  0.14823944  1
  As  As11  1  0.80536404  0.57455397  0.43251280  1
  As  As12  1  0.30536404  0.92544603  0.06748720  1
  As  As13  1  0.15694997  0.60469467  0.35176056  1
  As  As14  1  0.19463596  0.42544603  0.56748720  1
  As  As15  1  0.49184183  0.15880136  0.54781395  1
  As  As16  1  0.66240947  0.66308080  0.95272635  1
  As  As17  1  0.35059706  0.53094677  0.83936322  1
  As  As18  1  0.14940294  0.03094677  0.33936322  1
  As  As19  1  0.84305003  0.39530533  0.64823944  1
  Pb  Pb20  1  0.77360701  0.28579870  0.30131796  1
  Pb  Pb21  1  0.73717851  0.26581248  0.79081226  1
  Pb  Pb22  1  0.08671542  0.82314544  0.92082036  1
  Pb  Pb23  1  0.58671542  0.67685456  0.57917964  1
  Pb  Pb24  1  0.23717851  0.23418752  0.70918774  1
  Pb  Pb25  1  0.26282149  0.73418752  0.20918774  1
  Pb  Pb26  1  0.41328458  0.32314544  0.42082036  1
  Pb  Pb27  1  0.76282149  0.76581248  0.29081226  1
  Pb  Pb28  1  0.22639299  0.71420130  0.69868204  1
  Pb  Pb29  1  0.27360701  0.21420130  0.19868204  1
  Pb  Pb30  1  0.72639299  0.78579870  0.80131796  1
  Pb  Pb31  1  0.91328458  0.17685456  0.07917964  1
  S  S32  1  0.18496890  0.30755959  0.82471340  1
  S  S33  1  0.48084598  0.14292668  0.08854459  1
  S  S34  1  0.00292168  0.00230921  0.26460725  1
  S  S35  1  0.67047839  0.32959824  0.50658615  1
  S  S36  1  0.48708058  0.03591971  0.77815196  1
  S  S37  1  0.17047839  0.17040176  0.99341385  1
  S  S38  1  0.84424455  0.59710158  0.88876453  1
  S  S39  1  0.47027212  0.73956281  0.10150470  1
  S  S40  1  0.81639086  0.42184941  0.01444122  1
  S  S41  1  0.67564181  0.79036823  0.68278360  1
  S  S42  1  0.87534462  0.03074406  0.86638308  1
  S  S43  1  0.32952161  0.67040176  0.49341385  1
  S  S44  1  0.31503110  0.80755959  0.32471340  1
  S  S45  1  0.49707832  0.50230921  0.76460725  1
  S  S46  1  0.17564181  0.70963177  0.81721640  1
  S  S47  1  0.68496890  0.19244041  0.67528660  1
  S  S48  1  0.01915402  0.64292668  0.58854459  1
  S  S49  1  0.31639086  0.07815059  0.48555878  1
  S  S50  1  0.82435819  0.29036823  0.18278360  1
  S  S51  1  0.51915402  0.85707332  0.91145541  1
  S  S52  1  0.32435819  0.20963177  0.31721640  1
  S  S53  1  0.98708058  0.46408029  0.72184804  1
  S  S54  1  0.18360914  0.57815059  0.98555878  1
  S  S55  1  0.65575545  0.09710158  0.38876453  1
  S  S56  1  0.02972788  0.23956281  0.60150470  1
  S  S57  1  0.50292168  0.49769079  0.23539275  1
  S  S58  1  0.15575545  0.40289842  0.11123547  1
  S  S59  1  0.97027212  0.76043719  0.39849530  1
  S  S60  1  0.62465538  0.53074406  0.36638308  1
  S  S61  1  0.82952161  0.82959824  0.00658615  1
  S  S62  1  0.99707832  0.99769079  0.73539275  1
  S  S63  1  0.12465538  0.96925594  0.13361692  1
  S  S64  1  0.37534462  0.46925594  0.63361692  1
  S  S65  1  0.34424455  0.90289842  0.61123547  1
  S  S66  1  0.52972788  0.26043719  0.89849530  1
  S  S67  1  0.51291942  0.96408029  0.22184804  1
  S  S68  1  0.81503110  0.69244041  0.17528660  1
  S  S69  1  0.98084598  0.35707332  0.41145541  1
  S  S70  1  0.68360914  0.92184941  0.51444122  1
  S  S71  1  0.01291942  0.53591971  0.27815196  1
