# generated using pymatgen
data_UTl2Cr2O10
_symmetry_space_group_name_H-M   'P 1'
_cell_length_a   10.83731051
_cell_length_b   13.63247328
_cell_length_c   14.07158980
_cell_angle_alpha   90.00000000
_cell_angle_beta   90.00000000
_cell_angle_gamma   90.00000000
_symmetry_Int_Tables_number   1
_chemical_formula_structural   UTl2Cr2O10
_chemical_formula_sum   'U8 Tl16 Cr16 O80'
_cell_volume   2078.92747359
_cell_formula_units_Z   8
loop_
 _symmetry_equiv_pos_site_id
 _symmetry_equiv_pos_as_xyz
  1  'x, y, z'
loop_
 _atom_site_type_symbol
 _atom_site_label
 _atom_site_symmetry_multiplicity
 _atom_site_fract_x
 _atom_site_fract_y
 _atom_site_fract_z
 _atom_site_occupancy
  U  U0  1  0.65573049  0.75996290  0.51759890  1
  U  U1  1  0.34426951  0.24003710  0.01759890  1
  U  U2  1  0.84426951  0.75996290  0.01759890  1
  U  U3  1  0.15573049  0.24003710  0.51759890  1
  U  U4  1  0.83881691  0.26753404  0.86736053  1
  U  U5  1  0.33881691  0.73246596  0.86736053  1
  U  U6  1  0.66118309  0.26753404  0.36736053  1
  U  U7  1  0.16118309  0.73246596  0.36736053  1
  Tl  Tl8  1  0.97386342  0.05430124  0.04704735  1
  Tl  Tl9  1  0.75602804  0.91587590  0.76302226  1
  Tl  Tl10  1  0.28176062  0.55709063  0.58876340  1
  Tl  Tl11  1  0.74397196  0.91587590  0.26302226  1
  Tl  Tl12  1  0.52613658  0.05430124  0.54704735  1
  Tl  Tl13  1  0.02613658  0.94569876  0.54704735  1
  Tl  Tl14  1  0.49405570  0.57224433  0.31664882  1
  Tl  Tl15  1  0.50594430  0.42775567  0.81664882  1
  Tl  Tl16  1  0.00594430  0.57224433  0.81664882  1
  Tl  Tl17  1  0.78176062  0.44290937  0.58876340  1
  Tl  Tl18  1  0.24397196  0.08412410  0.26302226  1
  Tl  Tl19  1  0.21823938  0.55709063  0.08876340  1
  Tl  Tl20  1  0.99405570  0.42775567  0.31664882  1
  Tl  Tl21  1  0.25602804  0.08412410  0.76302226  1
  Tl  Tl22  1  0.47386342  0.94569876  0.04704735  1
  Tl  Tl23  1  0.71823938  0.44290937  0.08876340  1
  Cr  Cr24  1  0.04689057  0.33764125  0.08751349  1
  Cr  Cr25  1  0.15527252  0.81675160  0.11082016  1
  Cr  Cr26  1  0.93821074  0.10941618  0.34262070  1
  Cr  Cr27  1  0.65527252  0.18324840  0.11082016  1
  Cr  Cr28  1  0.56178926  0.10941618  0.84262070  1
  Cr  Cr29  1  0.06178926  0.89058382  0.84262070  1
  Cr  Cr30  1  0.16504490  0.33627789  0.78370727  1
  Cr  Cr31  1  0.45310943  0.33764125  0.58751349  1
  Cr  Cr32  1  0.66504490  0.66372211  0.78370727  1
  Cr  Cr33  1  0.43821074  0.89058382  0.34262070  1
  Cr  Cr34  1  0.34472748  0.81675160  0.61082016  1
  Cr  Cr35  1  0.84472748  0.18324840  0.61082016  1
  Cr  Cr36  1  0.33495510  0.33627789  0.28370727  1
  Cr  Cr37  1  0.54689057  0.66235875  0.08751349  1
  Cr  Cr38  1  0.83495510  0.66372211  0.28370727  1
  Cr  Cr39  1  0.95310943  0.66235875  0.58751349  1
  O  O40  1  0.23287933  0.14223312  0.04111980  1
  O  O41  1  0.23188916  0.44072819  0.75823426  1
  O  O42  1  0.97643021  0.05501641  0.24256600  1
  O  O43  1  0.45509404  0.33890745  0.99750807  1
  O  O44  1  0.48777032  0.55481818  0.11902747  1
  O  O45  1  0.98777032  0.44518182  0.11902747  1
  O  O46  1  0.55694224  0.73022997  0.18236536  1
  O  O47  1  0.15689854  0.26711430  0.68511004  1
  O  O48  1  0.59480687  0.14496744  0.35709443  1
  O  O49  1  0.76712067  0.85776688  0.54111980  1
  O  O50  1  0.40519313  0.85503256  0.85709443  1
  O  O51  1  0.54215450  0.28188991  0.50493288  1
  O  O52  1  0.95509404  0.66109255  0.99750807  1
  O  O53  1  0.07152370  0.13634797  0.40201815  1
  O  O54  1  0.02154810  0.35917372  0.82424278  1
  O  O55  1  0.95784550  0.28188991  0.00493288  1
  O  O56  1  0.84310146  0.73288570  0.18511004  1
  O  O57  1  0.54490596  0.66109255  0.49750807  1
  O  O58  1  0.14675095  0.78771570  0.82281613  1
  O  O59  1  0.94305776  0.73022997  0.68236536  1
  O  O60  1  0.26712067  0.14223312  0.54111980  1
  O  O61  1  0.05694224  0.26977003  0.18236536  1
  O  O62  1  0.73287933  0.85776688  0.04111980  1
  O  O63  1  0.76811084  0.55927181  0.25823426  1
  O  O64  1  0.00758861  0.85120278  0.08803164  1
  O  O65  1  0.71736764  0.23113284  0.01304214  1
  O  O66  1  0.26779227  0.91421195  0.64228116  1
  O  O67  1  0.02356979  0.94498359  0.74256600  1
  O  O68  1  0.57152370  0.86365203  0.40201815  1
  O  O69  1  0.26811084  0.44072819  0.25823426  1
  O  O70  1  0.77176939  0.38997648  0.87996290  1
  O  O71  1  0.34310146  0.26711430  0.18511004  1
  O  O72  1  0.27176939  0.61002352  0.87996290  1
  O  O73  1  0.49241139  0.85120278  0.58803164  1
  O  O74  1  0.52154810  0.64082628  0.82424278  1
  O  O75  1  0.45784550  0.71811009  0.00493288  1
  O  O76  1  0.23220773  0.91421195  0.14228116  1
  O  O77  1  0.04215450  0.71811009  0.50493288  1
  O  O78  1  0.80825410  0.64084218  0.54401621  1
  O  O79  1  0.28263236  0.76886716  0.51304214  1
  O  O80  1  0.35324905  0.78771570  0.32281613  1
  O  O81  1  0.97845190  0.64082628  0.32424278  1
  O  O82  1  0.35680620  0.96758832  0.40615901  1
  O  O83  1  0.64319380  0.03241168  0.90615901  1
  O  O84  1  0.90519313  0.14496744  0.85709443  1
  O  O85  1  0.25340976  0.27524267  0.36631401  1
  O  O86  1  0.65689854  0.73288570  0.68511004  1
  O  O87  1  0.04490596  0.33890745  0.49750807  1
  O  O88  1  0.85680620  0.03241168  0.40615901  1
  O  O89  1  0.14319380  0.96758832  0.90615901  1
  O  O90  1  0.44305776  0.26977003  0.68236536  1
  O  O91  1  0.64675095  0.21228430  0.82281613  1
  O  O92  1  0.69174590  0.64084218  0.04401621  1
  O  O93  1  0.99241139  0.14879722  0.58803164  1
  O  O94  1  0.75340976  0.72475733  0.36631401  1
  O  O95  1  0.72823061  0.38997648  0.37996290  1
  O  O96  1  0.15956781  0.72940175  0.19735469  1
  O  O97  1  0.24659024  0.27524267  0.86631401  1
  O  O98  1  0.01222968  0.55481818  0.61902747  1
  O  O99  1  0.19174590  0.35915782  0.04401621  1
  O  O100  1  0.73220773  0.08578805  0.14228116  1
  O  O101  1  0.74659024  0.72475733  0.86631401  1
  O  O102  1  0.30825410  0.35915782  0.54401621  1
  O  O103  1  0.51222968  0.44518182  0.61902747  1
  O  O104  1  0.47845190  0.35917372  0.32424278  1
  O  O105  1  0.09480687  0.85503256  0.35709443  1
  O  O106  1  0.84043219  0.27059825  0.69735469  1
  O  O107  1  0.73188916  0.55927181  0.75823426  1
  O  O108  1  0.52356979  0.05501641  0.74256600  1
  O  O109  1  0.85324905  0.21228430  0.32281613  1
  O  O110  1  0.47643021  0.94498359  0.24256600  1
  O  O111  1  0.92847630  0.86365203  0.90201815  1
  O  O112  1  0.65956781  0.27059825  0.19735469  1
  O  O113  1  0.78263236  0.23113284  0.51304214  1
  O  O114  1  0.22823061  0.61002352  0.37996290  1
  O  O115  1  0.76779227  0.08578805  0.64228116  1
  O  O116  1  0.21736764  0.76886716  0.01304214  1
  O  O117  1  0.34043219  0.72940175  0.69735469  1
  O  O118  1  0.50758861  0.14879722  0.08803164  1
  O  O119  1  0.42847630  0.13634797  0.90201815  1
