# generated using pymatgen
data_Li(NiO2)2
_symmetry_space_group_name_H-M   'P 1'
_cell_length_a   5.75783598
_cell_length_b   5.75783610
_cell_length_c   5.75783557
_cell_angle_alpha   59.99999737
_cell_angle_beta   59.99999666
_cell_angle_gamma   60.00000177
_symmetry_Int_Tables_number   1
_chemical_formula_structural   Li(NiO2)2
_chemical_formula_sum   'Li2 Ni4 O8'
_cell_volume   134.97795196
_cell_formula_units_Z   2
loop_
 _symmetry_equiv_pos_site_id
 _symmetry_equiv_pos_as_xyz
  1  'x, y, z'
loop_
 _atom_site_type_symbol
 _atom_site_label
 _atom_site_symmetry_multiplicity
 _atom_site_fract_x
 _atom_site_fract_y
 _atom_site_fract_z
 _atom_site_occupancy
  Li  Li0  1  0.12500100  0.12500000  0.12500000  1
  Li  Li1  1  0.87500000  0.87499900  0.87500100  1
  O  O2  1  0.73671165  0.73671165  0.28986506  1
  O  O3  1  0.73671165  0.73671165  0.73671165  1
  O  O4  1  0.26328935  0.26328835  0.71013394  1
  O  O5  1  0.26328935  0.71013494  0.26328835  1
  O  O6  1  0.26328935  0.26328835  0.26328835  1
  O  O7  1  0.71013494  0.26328835  0.26328835  1
  O  O8  1  0.73671265  0.28986406  0.73671265  1
  O  O9  1  0.28986606  0.73671165  0.73671265  1
  Ni  Ni10  1  0.49999900  0.50000100  0.50000000  1
  Ni  Ni11  1  0.50000100  0.00000000  0.50000000  1
  Ni  Ni12  1  0.00000100  0.50000100  0.50000000  1
  Ni  Ni13  1  0.49999900  0.50000100  0.00000000  1
