# generated using pymatgen
data_V2Zn2O7
_symmetry_space_group_name_H-M   'P 1'
_cell_length_a   5.08239730
_cell_length_b   5.42635242
_cell_length_c   5.42635242
_cell_angle_alpha   106.35747066
_cell_angle_beta   98.24782588
_cell_angle_gamma   98.24782588
_symmetry_Int_Tables_number   1
_chemical_formula_structural   V2Zn2O7
_chemical_formula_sum   'V2 Zn2 O7'
_cell_volume   139.42098146
_cell_formula_units_Z   1
loop_
 _symmetry_equiv_pos_site_id
 _symmetry_equiv_pos_as_xyz
  1  'x, y, z'
loop_
 _atom_site_type_symbol
 _atom_site_label
 _atom_site_symmetry_multiplicity
 _atom_site_fract_x
 _atom_site_fract_y
 _atom_site_fract_z
 _atom_site_occupancy
  O  O0  1  0.22206449  0.42825556  0.42825556  1
  O  O1  1  0.77793551  0.57174444  0.57174444  1
  O  O2  1  0.29402055  0.94516441  0.61086943  1
  O  O3  1  0.70597945  0.38913057  0.05483559  1
  O  O4  1  0.00000000  0.00000000  0.00000000  1
  O  O5  1  0.29402055  0.61086943  0.94516441  1
  O  O6  1  0.70597945  0.05483559  0.38913057  1
  V  V7  1  0.89532745  0.24285987  0.24285987  1
  V  V8  1  0.10467255  0.75714013  0.75714013  1
  Zn  Zn9  1  0.50000000  0.31509457  0.68490543  1
  Zn  Zn10  1  0.50000000  0.68490543  0.31509457  1
