# generated using pymatgen
data_Fe21HO32
_symmetry_space_group_name_H-M   'P 1'
_cell_length_a   8.56353316
_cell_length_b   8.56353316
_cell_length_c   17.07410625
_cell_angle_alpha   90.00000000
_cell_angle_beta   90.00000000
_cell_angle_gamma   89.74569931
_symmetry_Int_Tables_number   1
_chemical_formula_structural   Fe21HO32
_chemical_formula_sum   'Fe42 H2 O64'
_cell_volume   1252.10188452
_cell_formula_units_Z   2
loop_
 _symmetry_equiv_pos_site_id
 _symmetry_equiv_pos_as_xyz
  1  'x, y, z'
loop_
 _atom_site_type_symbol
 _atom_site_label
 _atom_site_symmetry_multiplicity
 _atom_site_fract_x
 _atom_site_fract_y
 _atom_site_fract_z
 _atom_site_occupancy
  Fe  Fe0  1  0.00056668  0.00056668  0.00067585  1
  Fe  Fe1  1  -0.00056668  -0.00056668  0.50067585  1
  Fe  Fe2  1  -0.00081411  0.49892637  0.25053164  1
  Fe  Fe3  1  0.00081411  0.50107363  0.75053164  1
  Fe  Fe4  1  0.12796779  0.12796779  0.31263413  1
  Fe  Fe5  1  0.13266903  0.62035355  0.06638137  1
  Fe  Fe6  1  0.13161990  0.13161990  0.80989989  1
  Fe  Fe7  1  0.13300264  0.61828491  0.56691188  1
  Fe  Fe8  1  0.13171962  0.38098434  0.43400655  1
  Fe  Fe9  1  0.13349125  0.86755132  0.19070268  1
  Fe  Fe10  1  0.13255437  0.37941077  0.93473818  1
  Fe  Fe11  1  0.13244868  0.86650875  0.69070268  1
  Fe  Fe12  1  0.24889191  0.24889191  0.12709247  1
  Fe  Fe13  1  0.24416908  0.24416908  0.62291253  1
  Fe  Fe14  1  0.24895531  0.75000615  0.37721867  1
  Fe  Fe15  1  0.24999385  0.75104469  0.87721867  1
  Fe  Fe16  1  0.38171509  0.86699736  0.06691188  1
  Fe  Fe17  1  0.37941077  0.13255437  0.93473818  1
  Fe  Fe18  1  0.37964645  0.86733097  0.56638137  1
  Fe  Fe19  1  0.38098434  0.13171962  0.43400655  1
  Fe  Fe20  1  0.52016624  0.52016624  0.25522433  1
  Fe  Fe21  1  0.47983376  0.47983376  0.75522433  1
  Fe  Fe22  1  0.49892637  -0.00081411  0.25053164  1
  Fe  Fe23  1  0.50054305  0.50054305  -0.00209535  1
  Fe  Fe24  1  0.50107363  0.00081411  0.75053164  1
  Fe  Fe25  1  0.49945695  0.49945695  0.49790465  1
  Fe  Fe26  1  0.62035355  0.13266903  0.06638137  1
  Fe  Fe27  1  0.61828491  0.13300264  0.56691188  1
  Fe  Fe28  1  0.61901566  0.86828038  0.93400655  1
  Fe  Fe29  1  0.62058923  0.86744563  0.43473818  1
  Fe  Fe30  1  0.75000615  0.24895531  0.37721867  1
  Fe  Fe31  1  0.75583092  0.75583092  0.12291253  1
  Fe  Fe32  1  0.75104469  0.24999385  0.87721867  1
  Fe  Fe33  1  0.75110809  0.75110809  0.62709247  1
  Fe  Fe34  1  0.86755132  0.13349125  0.19070268  1
  Fe  Fe35  1  0.86699736  0.38171509  0.06691188  1
  Fe  Fe36  1  0.86650875  0.13244868  0.69070268  1
  Fe  Fe37  1  0.86733097  0.37964645  0.56638137  1
  Fe  Fe38  1  0.86828038  0.61901566  0.93400655  1
  Fe  Fe39  1  0.86744563  0.62058923  0.43473818  1
  Fe  Fe40  1  0.86838010  0.86838010  0.30989989  1
  Fe  Fe41  1  0.87203221  0.87203221  0.81263413  1
  H  H42  1  0.32796668  0.32796668  0.25726934  1
  H  H43  1  0.67203332  0.67203332  0.75726934  1
  O  O44  1  0.11652685  0.11652685  0.19161379  1
  O  O45  1  0.11031696  0.11031696  0.69073094  1
  O  O46  1  0.11124669  0.38283636  0.55635135  1
  O  O47  1  0.11854065  0.38137955  0.05994844  1
  O  O48  1  0.13253846  0.13253846  0.93471875  1
  O  O49  1  0.11156195  0.63749637  0.68145314  1
  O  O50  1  0.13107795  0.13107795  0.43501860  1
  O  O51  1  0.11453065  0.35976100  0.31863804  1
  O  O52  1  0.11003590  0.63846538  0.18125851  1
  O  O53  1  0.13345221  0.86781404  0.06632504  1
  O  O54  1  0.11087013  0.36034213  0.81951544  1
  O  O55  1  0.11248228  0.61644037  0.94299478  1
  O  O56  1  0.13218596  0.86654779  0.56632504  1
  O  O57  1  0.11249893  0.61863810  0.44444896  1
  O  O58  1  0.11491692  0.88694457  0.30956682  1
  O  O59  1  0.11305543  0.88508308  0.80956682  1
  O  O60  1  0.38137955  0.11854065  0.05994844  1
  O  O61  1  0.36481784  0.36481784  0.20535965  1
  O  O62  1  0.38283636  0.11124669  0.55635135  1
  O  O63  1  0.35976100  0.11453065  0.31863804  1
  O  O64  1  0.35985694  0.35985694  0.44600539  1
  O  O65  1  0.36773179  0.36773179  0.68052474  1
  O  O66  1  0.36168805  0.36168805  0.94524857  1
  O  O67  1  0.36140794  0.63714683  0.05630909  1
  O  O68  1  0.36250363  0.88843805  0.18145314  1
  O  O69  1  0.38355963  0.88751772  0.44299478  1
  O  O70  1  0.36034213  0.11087013  0.81951544  1
  O  O71  1  0.37369779  0.63014263  0.31753263  1
  O  O72  1  0.36285317  0.63859206  0.55630909  1
  O  O73  1  0.36153462  0.88996410  0.68125851  1
  O  O74  1  0.38136190  0.88750107  0.94444896  1
  O  O75  1  0.36985737  0.62630221  0.81753263  1
  O  O76  1  0.63846538  0.11003590  0.18125851  1
  O  O77  1  0.63714683  0.36140794  0.05630909  1
  O  O78  1  0.63014263  0.37369779  0.31753263  1
  O  O79  1  0.63226821  0.63226821  0.18052474  1
  O  O80  1  0.63749637  0.11156195  0.68145314  1
  O  O81  1  0.61644037  0.11248228  0.94299478  1
  O  O82  1  0.61863810  0.11249893  0.44444896  1
  O  O83  1  0.63859206  0.36285317  0.55630909  1
  O  O84  1  0.62630221  0.36985737  0.81753263  1
  O  O85  1  0.63831195  0.63831195  0.44524857  1
  O  O86  1  0.63518216  0.63518216  0.70535965  1
  O  O87  1  0.64014306  0.64014306  0.94600539  1
  O  O88  1  0.61716364  0.88875331  0.05635135  1
  O  O89  1  0.63965787  0.88912987  0.31951544  1
  O  O90  1  0.61862045  0.88145935  0.55994844  1
  O  O91  1  0.64023900  0.88546935  0.81863804  1
  O  O92  1  0.86654779  0.13218596  0.56632504  1
  O  O93  1  0.86781404  0.13345221  0.06632504  1
  O  O94  1  0.88694457  0.11491692  0.30956682  1
  O  O95  1  0.88508308  0.11305543  0.80956682  1
  O  O96  1  0.88843805  0.36250363  0.18145314  1
  O  O97  1  0.88875331  0.61716364  0.05635135  1
  O  O98  1  0.88912987  0.63965787  0.31951544  1
  O  O99  1  0.88145935  0.61862045  0.55994844  1
  O  O100  1  0.88996410  0.36153462  0.68125851  1
  O  O101  1  0.88546935  0.64023900  0.81863804  1
  O  O102  1  0.88750107  0.38136190  0.94444896  1
  O  O103  1  0.88751772  0.38355963  0.44299478  1
  O  O104  1  0.88968304  0.88968304  0.19073094  1
  O  O105  1  0.88347315  0.88347315  0.69161379  1
  O  O106  1  0.86892205  0.86892205  0.93501860  1
  O  O107  1  0.86746154  0.86746154  0.43471875  1
