# generated using pymatgen
data_VBi(PbO3)2
_symmetry_space_group_name_H-M   'P 1'
_cell_length_a   5.80228200
_cell_length_b   10.09110879
_cell_length_c   12.39029101
_cell_angle_alpha   90.00000000
_cell_angle_beta   90.00000000
_cell_angle_gamma   90.00000000
_symmetry_Int_Tables_number   1
_chemical_formula_structural   VBi(PbO3)2
_chemical_formula_sum   'V4 Bi4 Pb8 O24'
_cell_volume   725.46961474
_cell_formula_units_Z   4
loop_
 _symmetry_equiv_pos_site_id
 _symmetry_equiv_pos_as_xyz
  1  'x, y, z'
loop_
 _atom_site_type_symbol
 _atom_site_label
 _atom_site_symmetry_multiplicity
 _atom_site_fract_x
 _atom_site_fract_y
 _atom_site_fract_z
 _atom_site_occupancy
  V  V0  1  0.25000000  0.47338759  0.20732395  1
  V  V1  1  0.75000000  0.97338759  0.29267605  1
  V  V2  1  0.75000000  0.52661241  0.79267605  1
  V  V3  1  0.25000000  0.02661241  0.70732395  1
  Bi  Bi4  1  0.75000000  0.49945574  0.41057722  1
  Bi  Bi5  1  0.25000000  0.50054426  0.58942278  1
  Bi  Bi6  1  0.75000000  0.00054426  0.91057722  1
  Bi  Bi7  1  0.25000000  0.99945574  0.08942278  1
  Pb  Pb8  1  0.25000000  0.26200256  0.87425647  1
  Pb  Pb9  1  0.75000000  0.73799744  0.12574353  1
  Pb  Pb10  1  0.75000000  0.20264056  0.59858381  1
  Pb  Pb11  1  0.25000000  0.23799744  0.37425647  1
  Pb  Pb12  1  0.75000000  0.29735944  0.09858381  1
  Pb  Pb13  1  0.25000000  0.70264056  0.90141619  1
  Pb  Pb14  1  0.75000000  0.76200256  0.62574353  1
  Pb  Pb15  1  0.25000000  0.79735944  0.40141619  1
  O  O16  1  0.75000000  0.11065990  0.20959018  1
  O  O17  1  0.25000000  0.50734562  0.07386913  1
  O  O18  1  0.99211269  0.86389290  0.01203878  1
  O  O19  1  0.49211269  0.13610710  0.98796122  1
  O  O20  1  0.00788731  0.36389290  0.48796122  1
  O  O21  1  0.49211269  0.36389290  0.48796122  1
  O  O22  1  0.50788731  0.63610710  0.51203878  1
  O  O23  1  0.99211269  0.63610710  0.51203878  1
  O  O24  1  0.98759679  0.62865873  0.75442112  1
  O  O25  1  0.48759679  0.37134127  0.24557888  1
  O  O26  1  0.48759679  0.12865873  0.74557888  1
  O  O27  1  0.25000000  0.99265438  0.57386913  1
  O  O28  1  0.01240321  0.37134127  0.24557888  1
  O  O29  1  0.75000000  0.49265438  0.92613087  1
  O  O30  1  0.98759679  0.87134127  0.25442112  1
  O  O31  1  0.25000000  0.61065990  0.29040982  1
  O  O32  1  0.75000000  0.38934010  0.70959018  1
  O  O33  1  0.25000000  0.88934010  0.79040982  1
  O  O34  1  0.51240321  0.87134127  0.25442112  1
  O  O35  1  0.75000000  0.00734562  0.42613087  1
  O  O36  1  0.51240321  0.62865873  0.75442112  1
  O  O37  1  0.01240321  0.12865873  0.74557888  1
  O  O38  1  0.00788731  0.13610710  0.98796122  1
  O  O39  1  0.50788731  0.86389290  0.01203878  1
