# generated using pymatgen
data_K2Pt(CN)4
_symmetry_space_group_name_H-M   'P 1'
_cell_length_a   7.13175255
_cell_length_b   9.16920062
_cell_length_c   13.83887445
_cell_angle_alpha   90.00000000
_cell_angle_beta   90.00000000
_cell_angle_gamma   90.00000000
_symmetry_Int_Tables_number   1
_chemical_formula_structural   K2Pt(CN)4
_chemical_formula_sum   'K8 Pt4 C16 N16'
_cell_volume   904.95818097
_cell_formula_units_Z   4
loop_
 _symmetry_equiv_pos_site_id
 _symmetry_equiv_pos_as_xyz
  1  'x, y, z'
loop_
 _atom_site_type_symbol
 _atom_site_label
 _atom_site_symmetry_multiplicity
 _atom_site_fract_x
 _atom_site_fract_y
 _atom_site_fract_z
 _atom_site_occupancy
  K  K0  1  0.20142396  0.35297634  0.90463491  1
  K  K1  1  0.29857604  0.64702366  0.40463491  1
  K  K2  1  0.79857604  0.64702366  0.09536509  1
  K  K3  1  0.29857604  0.85297634  0.09536509  1
  K  K4  1  0.70142396  0.14702366  0.90463491  1
  K  K5  1  0.20142396  0.14702366  0.59536509  1
  K  K6  1  0.79857604  0.85297634  0.40463491  1
  K  K7  1  0.70142396  0.35297634  0.59536509  1
  Pt  Pt8  1  0.59138437  0.75000000  0.75000000  1
  Pt  Pt9  1  0.90861563  0.25000000  0.25000000  1
  Pt  Pt10  1  0.09138437  0.75000000  0.75000000  1
  Pt  Pt11  1  0.40861563  0.25000000  0.25000000  1
  C  C12  1  0.40873325  0.04277960  0.29462948  1
  C  C13  1  0.40873325  0.45722040  0.20537052  1
  C  C14  1  0.09126675  0.54277960  0.70537052  1
  C  C15  1  0.59126675  0.95722040  0.70537052  1
  C  C16  1  0.90835137  0.31469489  0.11332156  1
  C  C17  1  0.90835137  0.18530511  0.38667844  1
  C  C18  1  0.40835137  0.31469489  0.38667844  1
  C  C19  1  0.90873325  0.45722040  0.29462948  1
  C  C20  1  0.59164863  0.81469489  0.88667844  1
  C  C21  1  0.09164863  0.81469489  0.61332156  1
  C  C22  1  0.59126675  0.54277960  0.79462948  1
  C  C23  1  0.09126675  0.95722040  0.79462948  1
  C  C24  1  0.09164863  0.68530511  0.88667844  1
  C  C25  1  0.40835137  0.18530511  0.11332156  1
  C  C26  1  0.90873325  0.04277960  0.20537052  1
  C  C27  1  0.59164863  0.68530511  0.61332156  1
  N  N28  1  0.08989040  0.42051195  0.67982756  1
  N  N29  1  0.90524095  0.14731375  0.46773552  1
  N  N30  1  0.91010960  0.92051195  0.17982756  1
  N  N31  1  0.90524095  0.35268625  0.03226448  1
  N  N32  1  0.58989040  0.07948805  0.67982756  1
  N  N33  1  0.09475905  0.64731375  0.96773552  1
  N  N34  1  0.59475905  0.64731375  0.53226448  1
  N  N35  1  0.91010960  0.57948805  0.32017244  1
  N  N36  1  0.59475905  0.85268625  0.96773552  1
  N  N37  1  0.58989040  0.42051195  0.82017244  1
  N  N38  1  0.08989040  0.07948805  0.82017244  1
  N  N39  1  0.40524095  0.14731375  0.03226448  1
  N  N40  1  0.40524095  0.35268625  0.46773552  1
  N  N41  1  0.41010960  0.57948805  0.17982756  1
  N  N42  1  0.09475905  0.85268625  0.53226448  1
  N  N43  1  0.41010960  0.92051195  0.32017244  1
