# generated using pymatgen
data_Na2Cu3(SiO3)4
_symmetry_space_group_name_H-M   'P 1'
_cell_length_a   7.62885747
_cell_length_b   10.40484904
_cell_length_c   13.72625861
_cell_angle_alpha   90.00000000
_cell_angle_beta   90.00000000
_cell_angle_gamma   90.00000000
_symmetry_Int_Tables_number   1
_chemical_formula_structural   Na2Cu3(SiO3)4
_chemical_formula_sum   'Na8 Cu12 Si16 O48'
_cell_volume   1089.55074401
_cell_formula_units_Z   4
loop_
 _symmetry_equiv_pos_site_id
 _symmetry_equiv_pos_as_xyz
  1  'x, y, z'
loop_
 _atom_site_type_symbol
 _atom_site_label
 _atom_site_symmetry_multiplicity
 _atom_site_fract_x
 _atom_site_fract_y
 _atom_site_fract_z
 _atom_site_occupancy
  Na  Na0  1  0.03935314  0.75000000  0.16808195  1
  Na  Na1  1  0.18800810  0.75000000  0.48362361  1
  Na  Na2  1  0.46064686  0.25000000  0.66808195  1
  Na  Na3  1  0.81199190  0.25000000  0.51637639  1
  Na  Na4  1  0.31199190  0.25000000  0.98362361  1
  Na  Na5  1  0.53935314  0.75000000  0.33191805  1
  Na  Na6  1  0.96064686  0.25000000  0.83191805  1
  Na  Na7  1  0.68800810  0.75000000  0.01637639  1
  Cu  Cu8  1  0.26566798  0.25000000  0.21844725  1
  Cu  Cu9  1  0.25257498  0.75000000  0.94294729  1
  Cu  Cu10  1  0.74742502  0.25000000  0.05705271  1
  Cu  Cu11  1  0.24742502  0.25000000  0.44294729  1
  Cu  Cu12  1  0.00000000  0.50000000  0.00000000  1
  Cu  Cu13  1  0.75257498  0.75000000  0.55705271  1
  Cu  Cu14  1  0.73433202  0.75000000  0.78155275  1
  Cu  Cu15  1  0.50000000  0.50000000  0.50000000  1
  Cu  Cu16  1  0.50000000  0.00000000  0.50000000  1
  Cu  Cu17  1  0.76566798  0.25000000  0.28155275  1
  Cu  Cu18  1  0.00000000  0.00000000  0.00000000  1
  Cu  Cu19  1  0.23433202  0.75000000  0.71844725  1
  Si  Si20  1  0.81974875  0.96905144  0.37617226  1
  Si  Si21  1  0.27933891  0.47518641  0.83756371  1
  Si  Si22  1  0.31974875  0.96905144  0.12382774  1
  Si  Si23  1  0.72066109  0.52481359  0.16243629  1
  Si  Si24  1  0.68025125  0.03094856  0.87617226  1
  Si  Si25  1  0.31974875  0.53094856  0.12382774  1
  Si  Si26  1  0.77933891  0.47518641  0.66243629  1
  Si  Si27  1  0.22066109  0.97518641  0.33756371  1
  Si  Si28  1  0.27933891  0.02481359  0.83756371  1
  Si  Si29  1  0.22066109  0.52481359  0.33756371  1
  Si  Si30  1  0.18025125  0.46905144  0.62382774  1
  Si  Si31  1  0.81974875  0.53094856  0.37617226  1
  Si  Si32  1  0.72066109  0.97518641  0.16243629  1
  Si  Si33  1  0.77933891  0.02481359  0.66243629  1
  Si  Si34  1  0.18025125  0.03094856  0.62382774  1
  Si  Si35  1  0.68025125  0.46905144  0.87617226  1
  O  O36  1  0.79044050  0.37777363  0.38147926  1
  O  O37  1  0.97155168  0.42582997  0.61965012  1
  O  O38  1  0.73540049  0.13207068  0.17033711  1
  O  O39  1  0.73647579  0.91119231  0.27290740  1
  O  O40  1  0.23540049  0.36792932  0.32966289  1
  O  O41  1  0.23647579  0.58880769  0.22709260  1
  O  O42  1  0.70955950  0.87777363  0.88147926  1
  O  O43  1  0.21730702  0.60726400  0.03495905  1
  O  O44  1  0.70955950  0.62222637  0.88147926  1
  O  O45  1  0.86974360  0.90780178  0.09603085  1
  O  O46  1  0.23647579  0.91119231  0.22709260  1
  O  O47  1  0.52844832  0.57417003  0.11965012  1
  O  O48  1  0.73647579  0.58880769  0.27290740  1
  O  O49  1  0.26459951  0.63207068  0.82966289  1
  O  O50  1  0.47155168  0.07417003  0.88034988  1
  O  O51  1  0.86974360  0.59219822  0.09603085  1
  O  O52  1  0.63025640  0.09219822  0.59603085  1
  O  O53  1  0.29044050  0.37777363  0.11852074  1
  O  O54  1  0.76459951  0.63207068  0.67033711  1
  O  O55  1  0.13025640  0.40780178  0.90396915  1
  O  O56  1  0.23540049  0.13207068  0.32966289  1
  O  O57  1  0.76352421  0.08880769  0.77290740  1
  O  O58  1  0.21730702  0.89273600  0.03495905  1
  O  O59  1  0.02844832  0.57417003  0.38034988  1
  O  O60  1  0.71730702  0.60726400  0.46504095  1
  O  O61  1  0.78269298  0.39273600  0.96504095  1
  O  O62  1  0.36974360  0.90780178  0.40396915  1
  O  O63  1  0.76352421  0.41119231  0.77290740  1
  O  O64  1  0.20955950  0.62222637  0.61852074  1
  O  O65  1  0.26352421  0.08880769  0.72709260  1
  O  O66  1  0.97155168  0.07417003  0.61965012  1
  O  O67  1  0.28269298  0.10726400  0.53495905  1
  O  O68  1  0.26459951  0.86792932  0.82966289  1
  O  O69  1  0.36974360  0.59219822  0.40396915  1
  O  O70  1  0.26352421  0.41119231  0.72709260  1
  O  O71  1  0.76459951  0.86792932  0.67033711  1
  O  O72  1  0.13025640  0.09219822  0.90396915  1
  O  O73  1  0.29044050  0.12222637  0.11852074  1
  O  O74  1  0.78269298  0.10726400  0.96504095  1
  O  O75  1  0.63025640  0.40780178  0.59603085  1
  O  O76  1  0.02844832  0.92582997  0.38034988  1
  O  O77  1  0.79044050  0.12222637  0.38147926  1
  O  O78  1  0.28269298  0.39273600  0.53495905  1
  O  O79  1  0.47155168  0.42582997  0.88034988  1
  O  O80  1  0.71730702  0.89273600  0.46504095  1
  O  O81  1  0.73540049  0.36792932  0.17033711  1
  O  O82  1  0.52844832  0.92582997  0.11965012  1
  O  O83  1  0.20955950  0.87777363  0.61852074  1
