# generated using pymatgen
data_Cu4Bi5PbS11
_symmetry_space_group_name_H-M   'P 1'
_cell_length_a   3.95347246
_cell_length_b   9.07417293
_cell_length_c   27.19403940
_cell_angle_alpha   92.14437491
_cell_angle_beta   90.00000000
_cell_angle_gamma   102.58231644
_symmetry_Int_Tables_number   1
_chemical_formula_structural   Cu4Bi5PbS11
_chemical_formula_sum   'Cu8 Bi10 Pb2 S22'
_cell_volume   951.44306214
_cell_formula_units_Z   2
loop_
 _symmetry_equiv_pos_site_id
 _symmetry_equiv_pos_as_xyz
  1  'x, y, z'
loop_
 _atom_site_type_symbol
 _atom_site_label
 _atom_site_symmetry_multiplicity
 _atom_site_fract_x
 _atom_site_fract_y
 _atom_site_fract_z
 _atom_site_occupancy
  Cu  Cu0  1  0.62900193  0.25800386  0.42213059  1
  Cu  Cu1  1  0.69536383  0.39072767  0.78750445  1
  Cu  Cu2  1  0.30463617  0.60927233  0.21249555  1
  Cu  Cu3  1  0.20156791  0.40313581  0.02620119  1
  Cu  Cu4  1  0.50888312  0.01776625  0.76664374  1
  Cu  Cu5  1  0.49111688  0.98223375  0.23335626  1
  Cu  Cu6  1  0.79843209  0.59686419  0.97379881  1
  Cu  Cu7  1  0.37099807  0.74199614  0.57786941  1
  Bi  Bi8  1  0.68470471  0.36940941  0.55224852  1
  Bi  Bi9  1  0.05921193  0.11842386  0.65544690  1
  Bi  Bi10  1  0.82892955  0.65785910  0.70529817  1
  Bi  Bi11  1  0.62759415  0.25518831  0.15039552  1
  Bi  Bi12  1  0.17107045  0.34214090  0.29470183  1
  Bi  Bi13  1  0.37240585  0.74481169  0.84960448  1
  Bi  Bi14  1  0.87174693  0.74349385  0.10010008  1
  Bi  Bi15  1  0.94078807  0.88157614  0.34455310  1
  Bi  Bi16  1  0.31529529  0.63059059  0.44775148  1
  Bi  Bi17  1  0.12825307  0.25650615  0.89989992  1
  Pb  Pb18  1  0.50000000  0.00000000  0.00000000  1
  Pb  Pb19  1  0.00000000  0.00000000  0.50000000  1
  S  S20  1  0.15409277  0.30818554  0.46609958  1
  S  S21  1  0.01185724  0.02371449  0.07698959  1
  S  S22  1  0.06113055  0.12226110  0.22743516  1
  S  S23  1  0.73567992  0.47135984  0.22218708  1
  S  S24  1  0.40387995  0.80775989  0.65818331  1
  S  S25  1  0.46231440  0.92462881  0.42558864  1
  S  S26  1  0.59612005  0.19224011  0.34181669  1
  S  S27  1  0.26432008  0.52864016  0.77781292  1
  S  S28  1  0.20980554  0.41961109  0.11015602  1
  S  S29  1  0.98814276  0.97628551  0.92301041  1
  S  S30  1  0.33832348  0.67664696  0.01150754  1
  S  S31  1  0.40669818  0.81339635  0.16379795  1
  S  S32  1  0.79019446  0.58038891  0.88984398  1
  S  S33  1  0.59330182  0.18660365  0.83620205  1
  S  S34  1  0.38992154  0.77984308  0.28508861  1
  S  S35  1  0.93886945  0.87773890  0.77256484  1
  S  S36  1  0.66167652  0.32335304  0.98849246  1
  S  S37  1  0.20145908  0.40291816  0.62093190  1
  S  S38  1  0.53768560  0.07537119  0.57441136  1
  S  S39  1  0.79854092  0.59708184  0.37906810  1
  S  S40  1  0.61007846  0.22015692  0.71491139  1
  S  S41  1  0.84590723  0.69181446  0.53390042  1
