# generated using pymatgen
data_LiBi(PO3)4
_symmetry_space_group_name_H-M   'P 1'
_cell_length_a   10.63170586
_cell_length_b   9.20154779
_cell_length_c   10.37744992
_cell_angle_alpha   90.00000000
_cell_angle_beta   104.18417184
_cell_angle_gamma   90.00000000
_symmetry_Int_Tables_number   1
_chemical_formula_structural   LiBi(PO3)4
_chemical_formula_sum   'Li4 Bi4 P16 O48'
_cell_volume   984.25619706
_cell_formula_units_Z   4
loop_
 _symmetry_equiv_pos_site_id
 _symmetry_equiv_pos_as_xyz
  1  'x, y, z'
loop_
 _atom_site_type_symbol
 _atom_site_label
 _atom_site_symmetry_multiplicity
 _atom_site_fract_x
 _atom_site_fract_y
 _atom_site_fract_z
 _atom_site_occupancy
  Li  Li0  1  0.65767390  0.56581577  0.50062748  1
  Li  Li1  1  0.84232610  0.06581577  0.99937252  1
  Li  Li2  1  0.34232610  0.43418423  0.49937252  1
  Li  Li3  1  0.15767390  0.93418423  0.00062748  1
  Bi  Bi4  1  0.00618033  0.71658575  0.19648442  1
  Bi  Bi5  1  0.99381967  0.28341425  0.80351558  1
  Bi  Bi6  1  0.49381967  0.21658575  0.30351558  1
  Bi  Bi7  1  0.50618033  0.78341425  0.69648442  1
  P  P8  1  0.76176822  0.49196395  0.25980983  1
  P  P9  1  0.15220370  0.10232122  0.26074268  1
  P  P10  1  0.65220370  0.39767878  0.76074268  1
  P  P11  1  0.18540970  0.89576402  0.48977199  1
  P  P12  1  0.81459030  0.10423598  0.51022801  1
  P  P13  1  0.04078460  0.66860489  0.84194390  1
  P  P14  1  0.34779630  0.60232122  0.23925732  1
  P  P15  1  0.31459030  0.39576402  0.01022801  1
  P  P16  1  0.68540970  0.60423598  0.98977199  1
  P  P17  1  0.95921540  0.33139511  0.15805610  1
  P  P18  1  0.45921540  0.16860489  0.65805610  1
  P  P19  1  0.54078460  0.83139511  0.34194390  1
  P  P20  1  0.73823178  0.99196395  0.24019017  1
  P  P21  1  0.84779630  0.89767878  0.73925732  1
  P  P22  1  0.23823178  0.50803605  0.74019017  1
  P  P23  1  0.26176822  0.00803605  0.75980983  1
  O  O24  1  0.32360572  0.84514940  0.51914239  1
  O  O25  1  0.67639428  0.15485060  0.48085761  1
  O  O26  1  0.58225286  0.76052376  0.47756779  1
  O  O27  1  0.03818502  0.46855591  0.17624305  1
  O  O28  1  0.60846035  0.51946978  0.66218110  1
  O  O29  1  0.31680564  0.55695104  0.64607864  1
  O  O30  1  0.68319436  0.44304896  0.35392136  1
  O  O31  1  0.83044997  0.35077815  0.21288195  1
  O  O32  1  0.26584851  0.19154835  0.24641010  1
  O  O33  1  0.84292524  0.04139552  0.37417362  1
  O  O34  1  0.23415149  0.69154835  0.25358990  1
  O  O35  1  0.07617624  0.79700321  0.42373990  1
  O  O36  1  0.17639428  0.34514940  0.98085761  1
  O  O37  1  0.42382376  0.29700321  0.07626010  1
  O  O38  1  0.53818502  0.03144409  0.67624305  1
  O  O39  1  0.36239912  0.89181641  0.80854256  1
  O  O40  1  0.91774714  0.26052376  0.02243221  1
  O  O41  1  0.67277928  0.45226794  0.90974795  1
  O  O42  1  0.18319436  0.05695104  0.85392136  1
  O  O43  1  0.66955003  0.85077815  0.28711805  1
  O  O44  1  0.86239912  0.60818359  0.30854256  1
  O  O45  1  0.81680564  0.94304896  0.14607864  1
  O  O46  1  0.13760088  0.39181641  0.69145744  1
  O  O47  1  0.15707476  0.95860448  0.62582638  1
  O  O48  1  0.76584851  0.30845165  0.74641010  1
  O  O49  1  0.65707476  0.54139552  0.12582638  1
  O  O50  1  0.10846035  0.98053022  0.16218110  1
  O  O51  1  0.57617624  0.70299679  0.92373990  1
  O  O52  1  0.16955003  0.64922185  0.78711805  1
  O  O53  1  0.82722072  0.95226794  0.59025205  1
  O  O54  1  0.46736773  0.71126445  0.23889352  1
  O  O55  1  0.41774714  0.23947624  0.52243221  1
  O  O56  1  0.03263227  0.21126445  0.26110648  1
  O  O57  1  0.32722072  0.54773206  0.09025205  1
  O  O58  1  0.89153965  0.01946978  0.83781890  1
  O  O59  1  0.92382376  0.20299679  0.57626010  1
  O  O60  1  0.39153965  0.48053022  0.33781890  1
  O  O61  1  0.33044997  0.14922185  0.71288195  1
  O  O62  1  0.82360572  0.65485060  0.01914239  1
  O  O63  1  0.96736773  0.78873555  0.73889352  1
  O  O64  1  0.17277928  0.04773206  0.40974795  1
  O  O65  1  0.63760088  0.10818359  0.19145744  1
  O  O66  1  0.53263227  0.28873555  0.76110648  1
  O  O67  1  0.96181498  0.53144409  0.82375695  1
  O  O68  1  0.73415149  0.80845165  0.75358990  1
  O  O69  1  0.08225286  0.73947624  0.97756779  1
  O  O70  1  0.46181498  0.96855591  0.32375695  1
  O  O71  1  0.34292524  0.45860448  0.87417362  1
