# generated using pymatgen
data_ZrPbO3
_symmetry_space_group_name_H-M   'P 1'
_cell_length_a   6.04234133
_cell_length_b   8.38609945
_cell_length_c   11.95611930
_cell_angle_alpha   90.00000000
_cell_angle_beta   90.00000000
_cell_angle_gamma   90.00000000
_symmetry_Int_Tables_number   1
_chemical_formula_structural   ZrPbO3
_chemical_formula_sum   'Zr8 Pb8 O24'
_cell_volume   605.83659507
_cell_formula_units_Z   8
loop_
 _symmetry_equiv_pos_site_id
 _symmetry_equiv_pos_as_xyz
  1  'x, y, z'
loop_
 _atom_site_type_symbol
 _atom_site_label
 _atom_site_symmetry_multiplicity
 _atom_site_fract_x
 _atom_site_fract_y
 _atom_site_fract_z
 _atom_site_occupancy
  Zr  Zr0  1  0.74137758  0.24580788  0.38021988  1
  Zr  Zr1  1  0.24137758  0.24580788  0.11978012  1
  Zr  Zr2  1  0.25862242  0.24580788  0.61978012  1
  Zr  Zr3  1  0.25906895  0.74783720  0.61954553  1
  Zr  Zr4  1  0.24093105  0.74783720  0.11954553  1
  Zr  Zr5  1  0.74093105  0.74783720  0.38045447  1
  Zr  Zr6  1  0.75906895  0.74783720  0.88045447  1
  Zr  Zr7  1  0.75862242  0.24580788  0.88021988  1
  Pb  Pb8  1  0.30926802  0.01140663  0.86310980  1
  Pb  Pb9  1  0.69073198  0.01140663  0.13689020  1
  Pb  Pb10  1  0.80926802  0.01140663  0.63689020  1
  Pb  Pb11  1  0.30765526  0.51068691  0.85777065  1
  Pb  Pb12  1  0.69234474  0.51068691  0.14222935  1
  Pb  Pb13  1  0.19073198  0.01140663  0.36310980  1
  Pb  Pb14  1  0.80765526  0.51068691  0.64222935  1
  Pb  Pb15  1  0.19234474  0.51068691  0.35777065  1
  O  O16  1  0.00000000  0.22641415  0.00000000  1
  O  O17  1  0.45351572  0.24837686  0.76453192  1
  O  O18  1  0.53343375  0.72469516  0.24060396  1
  O  O19  1  0.21015396  0.49146240  0.62408860  1
  O  O20  1  0.95351572  0.24837686  0.73546808  1
  O  O21  1  0.00000000  0.20709030  0.50000000  1
  O  O22  1  0.78984604  0.49146240  0.37591140  1
  O  O23  1  0.54648428  0.24837686  0.23546808  1
  O  O24  1  0.50000000  0.20709030  0.00000000  1
  O  O25  1  0.71643756  0.99251089  0.85045894  1
  O  O26  1  0.03343375  0.72469516  0.25939604  1
  O  O27  1  0.00000000  0.75020431  0.50000000  1
  O  O28  1  0.71015396  0.49146240  0.87591140  1
  O  O29  1  0.21643756  0.99251089  0.64954106  1
  O  O30  1  0.04648428  0.24837686  0.26453192  1
  O  O31  1  0.50000000  0.22641415  0.50000000  1
  O  O32  1  0.46656625  0.72469516  0.75939604  1
  O  O33  1  0.78356244  0.99251089  0.35045894  1
  O  O34  1  0.50000000  0.75020431  0.00000000  1
  O  O35  1  0.28984604  0.49146240  0.12408860  1
  O  O36  1  0.28356244  0.99251089  0.14954106  1
  O  O37  1  0.50000000  0.75072336  0.50000000  1
  O  O38  1  0.96656625  0.72469516  0.74060396  1
  O  O39  1  0.00000000  0.75072336  0.00000000  1
