# generated using pymatgen
data_UW3O11
_symmetry_space_group_name_H-M   'P 1'
_cell_length_a   14.19261275
_cell_length_b   7.62296232
_cell_length_c   3.92663983
_cell_angle_alpha   90.00000000
_cell_angle_beta   90.00000000
_cell_angle_gamma   90.00000000
_symmetry_Int_Tables_number   1
_chemical_formula_structural   UW3O11
_chemical_formula_sum   'U2 W6 O22'
_cell_volume   424.82219025
_cell_formula_units_Z   2
loop_
 _symmetry_equiv_pos_site_id
 _symmetry_equiv_pos_as_xyz
  1  'x, y, z'
loop_
 _atom_site_type_symbol
 _atom_site_label
 _atom_site_symmetry_multiplicity
 _atom_site_fract_x
 _atom_site_fract_y
 _atom_site_fract_z
 _atom_site_occupancy
  U  U0  1  0.01769728  0.50000000  0.00000000  1
  U  U1  1  0.98230272  0.00000000  0.00000000  1
  W  W2  1  0.50000000  0.25000000  0.00000000  1
  W  W3  1  0.50000000  0.75000000  0.00000000  1
  W  W4  1  0.76741283  0.25101187  0.00000000  1
  W  W5  1  0.76741283  0.74898813  0.00000000  1
  W  W6  1  0.23258717  0.75101187  0.00000000  1
  W  W7  1  0.23258717  0.24898813  0.00000000  1
  O  O8  1  0.03792008  0.50000000  0.50000000  1
  O  O9  1  0.96207992  0.00000000  0.50000000  1
  O  O10  1  0.50000000  0.25000000  0.50000000  1
  O  O11  1  0.50000000  0.75000000  0.50000000  1
  O  O12  1  0.77126486  0.24957811  0.50000000  1
  O  O13  1  0.77126486  0.75042189  0.50000000  1
  O  O14  1  0.22873514  0.74957811  0.50000000  1
  O  O15  1  0.22873514  0.25042189  0.50000000  1
  O  O16  1  0.75143782  0.50000000  0.00000000  1
  O  O17  1  0.24856218  0.00000000  0.00000000  1
  O  O18  1  0.52106086  0.50000000  0.00000000  1
  O  O19  1  0.47893914  0.00000000  0.00000000  1
  O  O20  1  0.19425275  0.50000000  0.00000000  1
  O  O21  1  0.80574725  0.00000000  0.00000000  1
  O  O22  1  0.91002017  0.28843779  0.00000000  1
  O  O23  1  0.91002017  0.71156221  0.00000000  1
  O  O24  1  0.08997983  0.78843779  0.00000000  1
  O  O25  1  0.08997983  0.21156221  0.00000000  1
  O  O26  1  0.63748603  0.20795212  0.00000000  1
  O  O27  1  0.63748603  0.79204788  0.00000000  1
  O  O28  1  0.36251397  0.70795212  0.00000000  1
  O  O29  1  0.36251397  0.29204788  0.00000000  1
