# generated using pymatgen
data_K2PtN4(ClO4)2
_symmetry_space_group_name_H-M   'P 1'
_cell_length_a   7.60145121
_cell_length_b   8.79722391
_cell_length_c   9.76146107
_cell_angle_alpha   90.00000000
_cell_angle_beta   90.00000000
_cell_angle_gamma   108.26430635
_symmetry_Int_Tables_number   1
_chemical_formula_structural   K2PtN4(ClO4)2
_chemical_formula_sum   'K4 Pt2 N8 Cl4 O16'
_cell_volume   619.87946498
_cell_formula_units_Z   2
loop_
 _symmetry_equiv_pos_site_id
 _symmetry_equiv_pos_as_xyz
  1  'x, y, z'
loop_
 _atom_site_type_symbol
 _atom_site_label
 _atom_site_symmetry_multiplicity
 _atom_site_fract_x
 _atom_site_fract_y
 _atom_site_fract_z
 _atom_site_occupancy
  K  K0  1  0.15906132  0.83343620  0.54674917  1
  K  K1  1  0.65906132  0.33343620  0.95325083  1
  K  K2  1  0.84093868  0.16656380  0.45325083  1
  K  K3  1  0.34093868  0.66656380  0.04674917  1
  Pt  Pt4  1  0.00000000  0.00000000  0.00000000  1
  Pt  Pt5  1  0.50000000  0.50000000  0.50000000  1
  N  N6  1  0.61226980  0.75346348  0.47334538  1
  N  N7  1  0.61395157  0.46235306  0.30352977  1
  N  N8  1  0.88604843  0.03764694  0.80352977  1
  N  N9  1  0.11395157  0.96235306  0.19647023  1
  N  N10  1  0.88773020  0.74653652  0.97334538  1
  N  N11  1  0.38773020  0.24653652  0.52665462  1
  N  N12  1  0.11226980  0.25346348  0.02665462  1
  N  N13  1  0.38604843  0.53764694  0.69647023  1
  Cl  Cl14  1  0.77683033  0.49674672  0.60822605  1
  Cl  Cl15  1  0.72316967  0.00325328  0.10822605  1
  Cl  Cl16  1  0.27683033  0.99674672  0.89177395  1
  Cl  Cl17  1  0.22316967  0.50325328  0.39177395  1
  O  O18  1  0.72911073  0.67835211  0.01511573  1
  O  O19  1  0.51702535  0.82887457  0.41938472  1
  O  O20  1  0.51338738  0.45051985  0.20148668  1
  O  O21  1  0.22911073  0.17835211  0.48488427  1
  O  O22  1  0.01338738  0.95051985  0.29851332  1
  O  O23  1  0.22948011  0.55132216  0.70418695  1
  O  O24  1  0.27051989  0.94867784  0.20418695  1
  O  O25  1  0.98661262  0.04948015  0.70148668  1
  O  O26  1  0.98297465  0.67112543  0.91938472  1
  O  O27  1  0.48661262  0.54948015  0.79851332  1
  O  O28  1  0.72948011  0.05132216  0.79581305  1
  O  O29  1  0.01702535  0.32887457  0.08061528  1
  O  O30  1  0.77088927  0.82164789  0.51511573  1
  O  O31  1  0.27088927  0.32164789  0.98488427  1
  O  O32  1  0.77051989  0.44867784  0.29581305  1
  O  O33  1  0.48297465  0.17112543  0.58061528  1
