# generated using pymatgen
data_Hg12SbBr(ClO3)2
_symmetry_space_group_name_H-M   'P 1'
_cell_length_a   14.36482478
_cell_length_b   14.36482634
_cell_length_c   9.94116292
_cell_angle_alpha   90.00016311
_cell_angle_beta   89.99996055
_cell_angle_gamma   120.00008787
_symmetry_Int_Tables_number   1
_chemical_formula_structural   Hg12SbBr(ClO3)2
_chemical_formula_sum   'Hg36 Sb3 Br3 Cl6 O18'
_cell_volume   1776.51202422
_cell_formula_units_Z   3
loop_
 _symmetry_equiv_pos_site_id
 _symmetry_equiv_pos_as_xyz
  1  'x, y, z'
loop_
 _atom_site_type_symbol
 _atom_site_label
 _atom_site_symmetry_multiplicity
 _atom_site_fract_x
 _atom_site_fract_y
 _atom_site_fract_z
 _atom_site_occupancy
  Hg  Hg0  1  0.83894816  0.36975870  0.27380244  1
  Hg  Hg1  1  0.96422783  0.50211916  0.93972067  1
  Hg  Hg2  1  0.29215250  0.49121397  0.60753839  1
  Hg  Hg3  1  0.49788116  0.46210663  0.93972041  1
  Hg  Hg4  1  0.87568303  0.69558509  0.60041786  1
  Hg  Hg5  1  0.21323010  0.84417003  0.29228710  1
  Hg  Hg6  1  0.45825151  0.84823079  0.06565299  1
  Hg  Hg7  1  0.30441210  0.18009669  0.60041908  1
  Hg  Hg8  1  0.36716455  0.22274583  0.05592771  1
  Hg  Hg9  1  0.02885395  0.48663959  0.38807984  1
  Hg  Hg10  1  0.15177042  0.61002320  0.06565585  1
  Hg  Hg11  1  0.70584173  0.86528964  0.69844334  1
  Hg  Hg12  1  0.38997797  0.54174677  0.06565640  1
  Hg  Hg13  1  0.77725227  0.14441806  0.05592755  1
  Hg  Hg14  1  0.18501323  0.09149873  0.92456617  1
  Hg  Hg15  1  0.63094001  0.78677131  0.29228536  1
  Hg  Hg16  1  0.81990082  0.12431593  0.60042081  1
  Hg  Hg17  1  0.85558005  0.63283534  0.05592769  1
  Hg  Hg18  1  0.53080929  0.16105078  0.27380123  1
  Hg  Hg19  1  0.51336229  0.54221507  0.38807985  1
  Hg  Hg20  1  0.53789151  0.03577198  0.93971960  1
  Hg  Hg21  1  0.15583033  0.36906027  0.29228599  1
  Hg  Hg22  1  0.74724795  0.51987263  0.73851912  1
  Hg  Hg23  1  0.13470994  0.84055205  0.69844180  1
  Hg  Hg24  1  0.19905971  0.70784461  0.60753720  1
  Hg  Hg25  1  0.50878513  0.80094132  0.60754077  1
  Hg  Hg26  1  0.13688964  0.96827353  0.38470013  1
  Hg  Hg27  1  0.90648636  0.81498623  0.92456715  1
  Hg  Hg28  1  0.03172572  0.16861654  0.38470161  1
  Hg  Hg29  1  0.45778569  0.97114815  0.38808060  1
  Hg  Hg30  1  0.63024115  0.46918893  0.27380143  1
  Hg  Hg31  1  0.48012493  0.22737345  0.73851765  1
  Hg  Hg32  1  0.83138320  0.86310962  0.38470038  1
  Hg  Hg33  1  0.77262477  0.25275018  0.73851752  1
  Hg  Hg34  1  0.15944701  0.29415858  0.69844165  1
  Hg  Hg35  1  0.90850088  0.09351603  0.92456652  1
  Sb  Sb36  1  0.33334642  0.66667398  0.32649093  1
  Sb  Sb37  1  0.66666493  0.33333291  0.00535779  1
  Sb  Sb38  1  0.99999906  0.00000061  0.66015425  1
  Br  Br39  1  0.00000042  0.99999974  0.17193961  1
  Br  Br40  1  0.33333336  0.66666594  0.82266359  1
  Br  Br41  1  0.66666604  0.33333339  0.49128546  1
  Cl  Cl42  1  0.76143058  0.08980943  0.33001136  1
  Cl  Cl43  1  0.53095326  0.53961119  0.67205830  1
  Cl  Cl44  1  0.91018736  0.67161914  0.33001071  1
  Cl  Cl45  1  0.32838018  0.23857141  0.33001009  1
  Cl  Cl46  1  0.46038654  0.99134172  0.67205744  1
  Cl  Cl47  1  0.00865895  0.46904433  0.67205600  1
  O  O48  1  0.46581134  0.72353974  0.20111086  1
  O  O49  1  0.27646280  0.74227004  0.20111188  1
  O  O50  1  0.61469292  0.41007163  0.87856005  1
  O  O51  1  0.95658336  0.87126666  0.53634819  1
  O  O52  1  0.86855370  0.92261142  0.78652456  1
  O  O53  1  0.79537791  0.38530735  0.87856264  1
  O  O54  1  0.58992711  0.20462053  0.87856260  1
  O  O55  1  0.05406056  0.13144617  0.78652403  1
  O  O56  1  0.40272396  0.60385752  0.44854021  1
  O  O57  1  0.39614551  0.79886743  0.44853849  1
  O  O58  1  0.71219311  0.25050884  0.13136092  1
  O  O59  1  0.74948978  0.46168430  0.13136059  1
  O  O60  1  0.25773164  0.53419308  0.20111191  1
  O  O61  1  0.53831612  0.28780554  0.13136039  1
  O  O62  1  0.12873053  0.08531802  0.53634707  1
  O  O63  1  0.20113741  0.59727915  0.44853610  1
  O  O64  1  0.91468327  0.04341247  0.53635224  1
  O  O65  1  0.07738497  0.94594092  0.78652192  1
