# generated using pymatgen
data_CsHO
_symmetry_space_group_name_H-M   'P 1'
_cell_length_a   4.46863617
_cell_length_b   13.18941088
_cell_length_c   4.41278272
_cell_angle_alpha   90.00000000
_cell_angle_beta   90.00000000
_cell_angle_gamma   90.00000000
_symmetry_Int_Tables_number   1
_chemical_formula_structural   CsHO
_chemical_formula_sum   'Cs4 H4 O4'
_cell_volume   260.08358211
_cell_formula_units_Z   4
loop_
 _symmetry_equiv_pos_site_id
 _symmetry_equiv_pos_as_xyz
  1  'x, y, z'
loop_
 _atom_site_type_symbol
 _atom_site_label
 _atom_site_symmetry_multiplicity
 _atom_site_fract_x
 _atom_site_fract_y
 _atom_site_fract_z
 _atom_site_occupancy
  Cs  Cs0  1  0.99243617  0.65033647  0.25137798  1
  Cs  Cs1  1  0.50756383  0.34966353  0.75137798  1
  Cs  Cs2  1  0.49243617  0.84966353  0.74862202  1
  Cs  Cs3  1  0.00756383  0.15033647  0.24862202  1
  H  H4  1  0.99669416  0.94532995  0.35585587  1
  H  H5  1  0.50330584  0.05467005  0.85585587  1
  H  H6  1  0.49669416  0.55467005  0.64414413  1
  H  H7  1  0.00330584  0.44532995  0.14414413  1
  O  O8  1  0.99884155  0.88399882  0.23431784  1
  O  O9  1  0.50115845  0.11600118  0.73431784  1
  O  O10  1  0.49884155  0.61600118  0.76568216  1
  O  O11  1  0.00115845  0.38399882  0.26568216  1
