# generated using pymatgen
data_Be2PH5O7
_symmetry_space_group_name_H-M   'P 1'
_cell_length_a   6.84109354
_cell_length_b   11.89954931
_cell_length_c   8.15742784
_cell_angle_alpha   90.00000000
_cell_angle_beta   110.74596027
_cell_angle_gamma   90.00000000
_symmetry_Int_Tables_number   1
_chemical_formula_structural   Be2PH5O7
_chemical_formula_sum   'Be8 P4 H20 O28'
_cell_volume   621.00527840
_cell_formula_units_Z   4
loop_
 _symmetry_equiv_pos_site_id
 _symmetry_equiv_pos_as_xyz
  1  'x, y, z'
loop_
 _atom_site_type_symbol
 _atom_site_label
 _atom_site_symmetry_multiplicity
 _atom_site_fract_x
 _atom_site_fract_y
 _atom_site_fract_z
 _atom_site_occupancy
  Be  Be0  1  0.45153879  0.31779367  0.01933272  1
  Be  Be1  1  0.95153879  0.18220633  0.51933272  1
  Be  Be2  1  0.54846121  0.68220633  0.98066728  1
  Be  Be3  1  0.04846121  0.81779367  0.48066728  1
  Be  Be4  1  0.23480959  0.07214205  0.11521374  1
  Be  Be5  1  0.73480959  0.42785795  0.61521374  1
  Be  Be6  1  0.76519041  0.92785795  0.88478626  1
  Be  Be7  1  0.26519041  0.57214205  0.38478626  1
  P  P8  1  0.21155802  0.16577220  0.77861543  1
  P  P9  1  0.71155802  0.33422780  0.27861543  1
  P  P10  1  0.78844198  0.83422780  0.22138457  1
  P  P11  1  0.28844198  0.66577220  0.72138457  1
  H  H12  1  0.62099112  0.11744623  0.37311184  1
  H  H13  1  0.12099112  0.38255377  0.87311184  1
  H  H14  1  0.37900888  0.88255377  0.62688816  1
  H  H15  1  0.87900888  0.61744623  0.12688816  1
  H  H16  1  0.27264274  0.48598191  0.94301870  1
  H  H17  1  0.77264274  0.01401809  0.44301870  1
  H  H18  1  0.72735726  0.51401809  0.05698130  1
  H  H19  1  0.22735726  0.98598191  0.55698130  1
  H  H20  1  0.13711724  0.46590131  0.16369106  1
  H  H21  1  0.63711724  0.03409869  0.66369106  1
  H  H22  1  0.86288276  0.53409869  0.83630894  1
  H  H23  1  0.36288276  0.96590131  0.33630894  1
  H  H24  1  0.00414290  0.18028596  0.22039268  1
  H  H25  1  0.50414290  0.31971404  0.72039168  1
  H  H26  1  0.99585710  0.81971404  0.77960832  1
  H  H27  1  0.49585710  0.68028596  0.27960732  1
  H  H28  1  0.92213599  0.05708369  0.14052822  1
  H  H29  1  0.42213599  0.44291631  0.64052822  1
  H  H30  1  0.07786401  0.94291631  0.85947178  1
  H  H31  1  0.57786401  0.55708369  0.35947178  1
  O  O32  1  0.41490475  0.23638114  0.85363398  1
  O  O33  1  0.91490475  0.26361886  0.35363398  1
  O  O34  1  0.58509525  0.76361886  0.14636602  1
  O  O35  1  0.08509525  0.73638114  0.64636602  1
  O  O36  1  0.20934164  0.07718189  0.91638092  1
  O  O37  1  0.70934164  0.42281811  0.41638092  1
  O  O38  1  0.79065836  0.92281811  0.08361908  1
  O  O39  1  0.29065836  0.57718189  0.58361908  1
  O  O40  1  0.60629664  0.99913435  0.75967452  1
  O  O41  1  0.10629664  0.50086565  0.25967452  1
  O  O42  1  0.39370336  0.00086565  0.24032548  1
  O  O43  1  0.89370336  0.49913435  0.74032548  1
  O  O44  1  0.17822991  0.10969848  0.59695848  1
  O  O45  1  0.67822991  0.39030152  0.09695848  1
  O  O46  1  0.82177009  0.89030152  0.40304152  1
  O  O47  1  0.32177009  0.60969848  0.90304152  1
  O  O48  1  0.51243444  0.25797069  0.21732558  1
  O  O49  1  0.01243444  0.24202931  0.71732558  1
  O  O50  1  0.48756556  0.74202931  0.78267442  1
  O  O51  1  0.98756556  0.75797069  0.28267442  1
  O  O52  1  0.24890650  0.90424680  0.52977866  1
  O  O53  1  0.74890650  0.59575320  0.02977866  1
  O  O54  1  0.75109350  0.09575320  0.47022134  1
  O  O55  1  0.25109350  0.40424680  0.97022134  1
  O  O56  1  0.47355456  0.61699549  0.35092123  1
  O  O57  1  0.97355456  0.88300451  0.85092123  1
  O  O58  1  0.52644544  0.38300451  0.64907877  1
  O  O59  1  0.02644544  0.11699549  0.14907877  1
