# generated using pymatgen
data_Ce9(Ni13P6)2
_symmetry_space_group_name_H-M   'P 1'
_cell_length_a   14.36983567
_cell_length_b   14.36983533
_cell_length_c   3.84758823
_cell_angle_alpha   90.00000000
_cell_angle_beta   90.00000000
_cell_angle_gamma   120.00000076
_symmetry_Int_Tables_number   1
_chemical_formula_structural   Ce9(Ni13P6)2
_chemical_formula_sum   'Ce9 Ni26 P12'
_cell_volume   688.05445162
_cell_formula_units_Z   1
loop_
 _symmetry_equiv_pos_site_id
 _symmetry_equiv_pos_as_xyz
  1  'x, y, z'
loop_
 _atom_site_type_symbol
 _atom_site_label
 _atom_site_symmetry_multiplicity
 _atom_site_fract_x
 _atom_site_fract_y
 _atom_site_fract_z
 _atom_site_occupancy
  Ce  Ce0  1  0.48345987  0.24172994  0.50000000  1
  Ce  Ce1  1  0.42576315  0.57423685  0.00000000  1
  Ce  Ce2  1  0.14847370  0.57423685  0.00000000  1
  Ce  Ce3  1  0.14217998  0.28435996  0.00000000  1
  Ce  Ce4  1  0.71564004  0.85782002  0.00000000  1
  Ce  Ce5  1  0.14217998  0.85782002  0.00000000  1
  Ce  Ce6  1  0.75827006  0.51654013  0.50000000  1
  Ce  Ce7  1  0.42576315  0.85152630  0.00000000  1
  Ce  Ce8  1  0.75827006  0.24172994  0.50000000  1
  Ni  Ni9  1  0.95380547  0.33859336  0.00000000  1
  Ni  Ni10  1  0.25671406  0.04395041  0.50000000  1
  Ni  Ni11  1  0.05667297  0.11334594  0.50000000  1
  Ni  Ni12  1  0.93566255  0.06433745  0.00000000  1
  Ni  Ni13  1  0.38478789  0.33859336  0.00000000  1
  Ni  Ni14  1  0.66140664  0.61521211  0.00000000  1
  Ni  Ni15  1  0.52275403  0.04550806  0.50000000  1
  Ni  Ni16  1  0.95604959  0.74328594  0.50000000  1
  Ni  Ni17  1  0.12867490  0.06433745  0.00000000  1
  Ni  Ni18  1  0.95604959  0.21276365  0.50000000  1
  Ni  Ni19  1  0.95449194  0.47724597  0.50000000  1
  Ni  Ni20  1  0.05667297  0.94332703  0.50000000  1
  Ni  Ni21  1  0.25671406  0.21276365  0.50000000  1
  Ni  Ni22  1  0.52610361  0.76305180  0.50000000  1
  Ni  Ni23  1  0.52275403  0.47724597  0.50000000  1
  Ni  Ni24  1  0.66140664  0.04619453  0.00000000  1
  Ni  Ni25  1  0.23694820  0.76305180  0.50000000  1
  Ni  Ni26  1  0.78723635  0.74328594  0.50000000  1
  Ni  Ni27  1  0.38478789  0.04619453  0.00000000  1
  Ni  Ni28  1  0.95380547  0.61521211  0.00000000  1
  Ni  Ni29  1  0.93566255  0.87132510  0.00000000  1
  Ni  Ni30  1  0.66666700  0.33333300  0.00000000  1
  Ni  Ni31  1  0.88665406  0.94332703  0.50000000  1
  Ni  Ni32  1  0.78723635  0.04395041  0.50000000  1
  Ni  Ni33  1  0.33333300  0.66666700  0.50000000  1
  Ni  Ni34  1  0.23694820  0.47389639  0.50000000  1
  P  P35  1  0.57394854  0.42605146  0.00000000  1
  P  P36  1  0.84830537  0.15169463  0.00000000  1
  P  P37  1  0.30338925  0.15169463  0.00000000  1
  P  P38  1  0.33588516  0.94384411  0.50000000  1
  P  P39  1  0.57394854  0.14789708  0.00000000  1
  P  P40  1  0.84830537  0.69661075  0.00000000  1
  P  P41  1  0.33588516  0.39204105  0.50000000  1
  P  P42  1  0.60795895  0.66411484  0.50000000  1
  P  P43  1  0.85210292  0.42605146  0.00000000  1
  P  P44  1  0.05615589  0.39204105  0.50000000  1
  P  P45  1  0.05615589  0.66411484  0.50000000  1
  P  P46  1  0.60795895  0.94384411  0.50000000  1
