# generated using pymatgen
data_Ba2Sn2F11
_symmetry_space_group_name_H-M   'P 1'
_cell_length_a   7.80426833
_cell_length_b   7.80426767
_cell_length_c   15.00167249
_cell_angle_alpha   90.00000000
_cell_angle_beta   90.00000000
_cell_angle_gamma   119.99999573
_symmetry_Int_Tables_number   1
_chemical_formula_structural   Ba2Sn2F11
_chemical_formula_sum   'Ba6 Sn6 F33'
_cell_volume   791.28818229
_cell_formula_units_Z   3
loop_
 _symmetry_equiv_pos_site_id
 _symmetry_equiv_pos_as_xyz
  1  'x, y, z'
loop_
 _atom_site_type_symbol
 _atom_site_label
 _atom_site_symmetry_multiplicity
 _atom_site_fract_x
 _atom_site_fract_y
 _atom_site_fract_z
 _atom_site_occupancy
  Ba  Ba0  1  0.51640656  0.14707972  0.65734170  1
  Ba  Ba1  1  0.14461555  0.41359962  0.80925589  1
  Ba  Ba2  1  0.63067416  0.48359344  0.99067470  1
  Ba  Ba3  1  0.58640038  0.73101593  0.47592189  1
  Ba  Ba4  1  0.26898407  0.85538445  0.14258889  1
  Ba  Ba5  1  0.85292028  0.36932584  0.32400770  1
  Sn  Sn6  1  0.54139387  0.96951911  0.89790829  1
  Sn  Sn7  1  0.83825130  0.79766032  0.72724920  1
  Sn  Sn8  1  0.20233968  0.04059098  0.39391520  1
  Sn  Sn9  1  0.42812624  0.45860613  0.23124129  1
  Sn  Sn10  1  0.95940902  0.16174870  0.06058220  1
  Sn  Sn11  1  0.03048089  0.57187376  0.56457429  1
  F  F12  1  0.66373717  0.05814967  0.04737914  1
  F  F13  1  0.42296594  0.67766549  0.94473491  1
  F  F14  1  0.39441349  0.33626283  0.38071214  1
  F  F15  1  0.15489506  0.48361832  0.46652889  1
  F  F16  1  0.55148201  0.28525744  0.18238958  1
  F  F17  1  0.94300637  0.58586277  0.18816454  1
  F  F18  1  0.51638168  0.67127673  0.13319589  1
  F  F19  1  0.41413723  0.35714460  0.85483154  1
  F  F20  1  0.73377543  0.44851799  0.51572258  1
  F  F21  1  0.25338536  0.28812994  0.08026968  1
  F  F22  1  0.32872327  0.84510494  0.79986289  1
  F  F23  1  0.94185033  0.60558651  0.71404614  1
  F  F24  1  0.35238328  0.02173412  0.97332173  1
  F  F25  1  0.99897467  0.42668108  0.02093617  1
  F  F26  1  0.66935084  0.64761672  0.30665473  1
  F  F27  1  0.32233451  0.74530145  0.61140091  1
  F  F28  1  0.95602020  0.11608267  0.92843147  1
  F  F29  1  0.03474358  0.74661464  0.41360268  1
  F  F30  1  0.95657826  0.05959016  0.40575494  1
  F  F31  1  0.97826588  0.33064916  0.63998773  1
  F  F32  1  0.10301190  0.04342174  0.73908894  1
  F  F33  1  0.57331892  0.57229360  0.68760317  1
  F  F34  1  0.42770640  0.00102533  0.35426917  1
  F  F35  1  0.16006246  0.04397980  0.26176447  1
  F  F36  1  0.71187006  0.96525642  0.74693668  1
  F  F37  1  0.71474156  0.26622457  0.84905658  1
  F  F38  1  0.25469855  0.57703406  0.27806791  1
  F  F39  1  0.82192219  0.73198130  0.85640089  1
  F  F40  1  0.91005910  0.17807781  0.18973389  1
  F  F41  1  0.94040984  0.89698810  0.07242194  1
  F  F42  1  0.64285540  0.05699363  0.52149754  1
  F  F43  1  0.88391733  0.83993754  0.59509747  1
  F  F44  1  0.26801870  0.08994090  0.52306689  1
