# generated using pymatgen
data_Ta2CuO6
_symmetry_space_group_name_H-M   'P 1'
_cell_length_a   7.54650250
_cell_length_b   7.60782156
_cell_length_c   7.56585321
_cell_angle_alpha   90.00000929
_cell_angle_beta   90.00000205
_cell_angle_gamma   90.00001324
_symmetry_Int_Tables_number   1
_chemical_formula_structural   Ta2CuO6
_chemical_formula_sum   'Ta8 Cu4 O24'
_cell_volume   434.37412692
_cell_formula_units_Z   4
loop_
 _symmetry_equiv_pos_site_id
 _symmetry_equiv_pos_as_xyz
  1  'x, y, z'
loop_
 _atom_site_type_symbol
 _atom_site_label
 _atom_site_symmetry_multiplicity
 _atom_site_fract_x
 _atom_site_fract_y
 _atom_site_fract_z
 _atom_site_occupancy
  Ta  Ta0  1  0.25202795  0.75040571  0.74409850  1
  Ta  Ta1  1  0.25202791  0.24959419  0.74409859  1
  Ta  Ta2  1  0.25202807  0.75040581  0.25590175  1
  Ta  Ta3  1  0.25202758  0.24959441  0.25590162  1
  Ta  Ta4  1  0.74797219  0.75040591  0.74409844  1
  Ta  Ta5  1  0.74797211  0.24959417  0.74409840  1
  Ta  Ta6  1  0.74797234  0.75040544  0.25590150  1
  Ta  Ta7  1  0.74797165  0.24959410  0.25590168  1
  Cu  Cu8  1  0.00000030  0.49999976  0.99999978  1
  Cu  Cu9  1  0.00000027  0.00000058  0.49999909  1
  Cu  Cu10  1  0.50000006  0.99999991  0.00000002  1
  Cu  Cu11  1  0.49999990  0.50000058  0.99999974  1
  O  O12  1  0.99999993  0.31191604  0.18022451  1
  O  O13  1  0.00000017  0.68808393  0.18022459  1
  O  O14  1  0.18006034  0.99999987  0.69214556  1
  O  O15  1  0.18006018  0.00000009  0.30785466  1
  O  O16  1  0.20240164  0.30647793  0.50000011  1
  O  O17  1  0.20240158  0.69352190  0.50000002  1
  O  O18  1  0.30866756  0.17935336  0.00000017  1
  O  O19  1  0.30866743  0.82064657  0.99999991  1
  O  O20  1  0.31486462  0.50000014  0.18773219  1
  O  O21  1  0.31486480  0.49999998  0.81226784  1
  O  O22  1  0.49999976  0.20393535  0.30210050  1
  O  O23  1  0.49999999  0.79606469  0.69789950  1
  O  O24  1  0.50000003  0.20393507  0.69789939  1
  O  O25  1  0.50000024  0.79606440  0.30210043  1
  O  O26  1  0.68513530  0.50000002  0.81226790  1
  O  O27  1  0.68513526  0.50000006  0.18773218  1
  O  O28  1  0.69133262  0.17935333  0.00000010  1
  O  O29  1  0.69133278  0.82064655  0.00000019  1
  O  O30  1  0.79759831  0.30647815  0.50000007  1
  O  O31  1  0.79759852  0.69352198  0.50000003  1
  O  O32  1  0.81993926  0.00000006  0.69214569  1
  O  O33  1  0.81993933  0.00000004  0.30785446  1
  O  O34  1  -0.00000002  0.31191582  0.81977543  1
  O  O35  1  0.00000007  0.68808410  0.81977546  1
