# generated using pymatgen
data_Ca2Al11Si13Ag7O48
_symmetry_space_group_name_H-M   'P 1'
_cell_length_a   12.94690859
_cell_length_b   12.22018229
_cell_length_c   12.17337955
_cell_angle_alpha   90.06293035
_cell_angle_beta   89.42536639
_cell_angle_gamma   89.86799810
_symmetry_Int_Tables_number   1
_chemical_formula_structural   Ca2Al11Si13Ag7O48
_chemical_formula_sum   'Ca2 Al11 Si13 Ag7 O48'
_cell_volume   1925.89081063
_cell_formula_units_Z   1
loop_
 _symmetry_equiv_pos_site_id
 _symmetry_equiv_pos_as_xyz
  1  'x, y, z'
loop_
 _atom_site_type_symbol
 _atom_site_label
 _atom_site_symmetry_multiplicity
 _atom_site_fract_x
 _atom_site_fract_y
 _atom_site_fract_z
 _atom_site_occupancy
  Ca  Ca0  1  0.77335105  0.81963350  0.18628275  1
  Ca  Ca1  1  0.77718613  0.82118989  0.81548308  1
  Al  Al2  1  0.37342305  0.19505281  0.00000331  1
  Al  Al3  1  0.37444502  0.80426016  0.99933487  1
  Al  Al4  1  0.37482862  0.00149322  0.80358215  1
  Al  Al5  1  0.61949117  0.18963218  0.00327897  1
  Al  Al6  1  0.60969437  0.99845340  0.19920795  1
  Al  Al7  1  0.60810246  0.80436148  0.00226981  1
  Al  Al8  1  0.61413168  0.99932051  0.80491516  1
  Al  Al9  1  0.83279912  0.99825437  0.63739832  1
  Al  Al10  1  0.82520598  0.37000300  0.00020666  1
  Al  Al11  1  0.83194564  0.64111612  0.00094710  1
  Al  Al12  1  0.82986202  0.99825292  0.36237970  1
  Si  Si13  1  0.00513993  0.63132918  0.81121642  1
  Si  Si14  1  0.00705701  0.81394231  0.62961689  1
  Si  Si15  1  0.17896980  0.00117320  0.62506339  1
  Si  Si16  1  0.17320961  0.62971008  0.99959922  1
  Si  Si17  1  0.17572202  0.37235758  0.99944258  1
  Si  Si18  1  0.17775944  0.00153100  0.36667369  1
  Si  Si19  1  0.37174281  0.00156616  0.19222842  1
  Si  Si20  1  0.00306054  0.18534650  0.62962904  1
  Si  Si21  1  0.00184585  0.18443874  0.36716738  1
  Si  Si22  1  0.99796572  0.37039552  0.18636780  1
  Si  Si23  1  0.00429655  0.36926357  0.81395931  1
  Si  Si24  1  0.99923347  0.62957138  0.18970952  1
  Si  Si25  1  0.00549380  0.81509532  0.36671428  1
  Ag  Ag26  1  0.21193203  0.80991532  0.80378929  1
  Ag  Ag27  1  0.20861503  0.19097953  0.80385370  1
  Ag  Ag28  1  0.21154364  0.79937167  0.19138143  1
  Ag  Ag29  1  0.20819231  0.20176791  0.19172208  1
  Ag  Ag30  1  0.56955627  0.42342859  0.00150988  1
  Ag  Ag31  1  0.78735859  0.18566035  0.81502936  1
  Ag  Ag32  1  0.78403908  0.18623339  0.18655722  1
  O  O33  1  0.99524615  0.50007457  0.22094409  1
  O  O34  1  0.01754345  0.29944486  0.69944626  1
  O  O35  1  0.02188385  0.69802263  0.30297286  1
  O  O36  1  0.00275983  0.78901885  0.49776859  1
  O  O37  1  0.02262469  0.69752781  0.69520977  1
  O  O38  1  0.10721821  0.11068290  0.65331045  1
  O  O39  1  0.09892087  0.65275309  0.10877568  1
  O  O40  1  0.10831916  0.11155668  0.33774188  1
  O  O41  1  0.10236618  0.34760195  0.10947032  1
  O  O42  1  0.10679237  0.65949658  0.88759338  1
  O  O43  1  0.11131208  0.88799072  0.65148273  1
  O  O44  1  0.10993625  0.34227803  0.88680114  1
  O  O45  1  0.11097477  0.88884557  0.33887239  1
  O  O46  1  0.20388004  0.50126938  0.99543863  1
  O  O47  1  0.20716248  0.00236687  0.49441314  1
  O  O48  1  0.27748334  0.30058479  0.01076299  1
  O  O49  1  0.27772581  0.00307500  0.69868907  1
  O  O50  1  0.27025548  0.70722781  0.01154217  1
  O  O51  1  0.27913485  0.00285119  0.29073515  1
  O  O52  1  0.34752039  0.11355187  0.12106590  1
  O  O53  1  0.34244674  0.11942900  0.88344158  1
  O  O54  1  0.34867677  0.89034576  0.11988110  1
  O  O55  1  0.34303090  0.88398952  0.88421709  1
  O  O56  1  0.49587453  0.25333455  0.00273211  1
  O  O57  1  0.49526799  0.00478221  0.74520548  1
  O  O58  1  0.49124229  0.73647533  0.00173416  1
  O  O59  1  0.48168415  0.00364763  0.25029224  1
  O  O60  1  0.63843062  0.11697912  0.12531932  1
  O  O61  1  0.64659325  0.11426481  0.88495963  1
  O  O62  1  0.62335198  0.87545056  0.12594850  1
  O  O63  1  0.62894917  0.87755432  0.88173473  1
  O  O64  1  0.73103972  0.97747185  0.72663462  1
  O  O65  1  0.71024578  0.29879048  0.00353851  1
  O  O66  1  0.73648282  0.74060514  0.00317408  1
  O  O67  1  0.72381754  0.97785646  0.27944215  1
  O  O68  1  0.80123946  0.50736904  0.99884738  1
  O  O69  1  0.82121527  0.99544517  0.49988574  1
  O  O70  1  0.90271081  0.12018412  0.67399909  1
  O  O71  1  0.90255048  0.11827365  0.32346366  1
  O  O72  1  0.89663020  0.33251749  0.12169584  1
  O  O73  1  0.90278028  0.33210864  0.88168810  1
  O  O74  1  0.89647320  0.67582572  0.12959081  1
  O  O75  1  0.90232687  0.67695799  0.87498235  1
  O  O76  1  0.90400037  0.87514407  0.31882650  1
  O  O77  1  0.90567105  0.87470772  0.67824070  1
  O  O78  1  0.00143533  0.21379352  0.49803296  1
  O  O79  1  0.01495329  0.29896239  0.29859921  1
  O  O80  1  0.00441910  0.50041170  0.78433503  1
