# generated using pymatgen
data_La2PbF8
_symmetry_space_group_name_H-M   'P 1'
_cell_length_a   4.12180617
_cell_length_b   12.76742879
_cell_length_c   7.23983631
_cell_angle_alpha   31.41689588
_cell_angle_beta   55.69856089
_cell_angle_gamma   61.46697949
_symmetry_Int_Tables_number   1
_chemical_formula_structural   La2PbF8
_chemical_formula_sum   'La2 Pb1 F8'
_cell_volume   164.05408752
_cell_formula_units_Z   1
loop_
 _symmetry_equiv_pos_site_id
 _symmetry_equiv_pos_as_xyz
  1  'x, y, z'
loop_
 _atom_site_type_symbol
 _atom_site_label
 _atom_site_symmetry_multiplicity
 _atom_site_fract_x
 _atom_site_fract_y
 _atom_site_fract_z
 _atom_site_occupancy
  La  La0  1  0.03079142  0.32569308  0.00000221  1
  La  La1  1  0.00908142  0.65713938  0.00190843  1
  Pb  Pb2  1  0.99618132  0.01146426  0.96712339  1
  F  F3  1  0.42733846  0.14556225  0.37536355  1
  F  F4  1  0.26456733  0.63022807  0.30339851  1
  F  F5  1  0.68811457  0.33632337  0.37815114  1
  F  F6  1  0.23771099  0.01805933  0.24775106  1
  F  F7  1  0.41084040  0.53712266  0.80121063  1
  F  F8  1  0.82622922  0.34767894  0.68436748  1
  F  F9  1  0.69589191  0.73974557  0.69388660  1
  F  F10  1  0.74925296  0.91765009  0.88283701  1
