# generated using pymatgen
data_La(Mo3Se4)2
_symmetry_space_group_name_H-M   'P 1'
_cell_length_a   6.84882681
_cell_length_b   6.84882654
_cell_length_c   6.84882631
_cell_angle_alpha   88.63767044
_cell_angle_beta   88.63767046
_cell_angle_gamma   88.63767716
_symmetry_Int_Tables_number   1
_chemical_formula_structural   La(Mo3Se4)2
_chemical_formula_sum   'La1 Mo6 Se8'
_cell_volume   320.98579496
_cell_formula_units_Z   1
loop_
 _symmetry_equiv_pos_site_id
 _symmetry_equiv_pos_as_xyz
  1  'x, y, z'
loop_
 _atom_site_type_symbol
 _atom_site_label
 _atom_site_symmetry_multiplicity
 _atom_site_fract_x
 _atom_site_fract_y
 _atom_site_fract_z
 _atom_site_occupancy
  La  La0  1  0.00000000  0.00000000  0.00000000  1
  Mo  Mo1  1  0.43848270  0.76259844  0.57718062  1
  Mo  Mo2  1  0.57718062  0.43848270  0.76259844  1
  Mo  Mo3  1  0.76259844  0.57718062  0.43848270  1
  Mo  Mo4  1  0.23740156  0.42281938  0.56151730  1
  Mo  Mo5  1  0.42281938  0.56151730  0.23740156  1
  Mo  Mo6  1  0.56151730  0.23740156  0.42281938  1
  Se  Se7  1  0.24662876  0.62165250  0.87906144  1
  Se  Se8  1  0.62165250  0.87906144  0.24662876  1
  Se  Se9  1  0.75720885  0.75720885  0.75720885  1
  Se  Se10  1  0.87906144  0.24662876  0.62165250  1
  Se  Se11  1  0.12093856  0.75337124  0.37834750  1
  Se  Se12  1  0.24279115  0.24279115  0.24279115  1
  Se  Se13  1  0.37834750  0.12093856  0.75337124  1
  Se  Se14  1  0.75337124  0.37834750  0.12093856  1
