# generated using pymatgen
data_Li11TiSb5
_symmetry_space_group_name_H-M   'P 1'
_cell_length_a   4.56548934
_cell_length_b   23.27145679
_cell_length_c   12.36134586
_cell_angle_alpha   18.76091668
_cell_angle_beta   56.35786883
_cell_angle_gamma   60.62916806
_symmetry_Int_Tables_number   1
_chemical_formula_structural   Li11TiSb5
_chemical_formula_sum   'Li11 Ti1 Sb5'
_cell_volume   348.78545779
_cell_formula_units_Z   1
loop_
 _symmetry_equiv_pos_site_id
 _symmetry_equiv_pos_as_xyz
  1  'x, y, z'
loop_
 _atom_site_type_symbol
 _atom_site_label
 _atom_site_symmetry_multiplicity
 _atom_site_fract_x
 _atom_site_fract_y
 _atom_site_fract_z
 _atom_site_occupancy
  Li  Li0  1  0.26779940  0.32551852  0.27893620  1
  Li  Li1  1  0.25951981  0.56430935  0.21980453  1
  Li  Li2  1  0.50460505  0.30434456  0.48968903  1
  Li  Li3  1  0.75607007  0.05532746  0.73707418  1
  Li  Li4  1  0.27244914  0.77223638  0.19797328  1
  Li  Li5  1  0.73358015  0.23613163  0.78406052  1
  Li  Li6  1  0.48270052  0.70686482  0.50009162  1
  Li  Li7  1  0.22173016  0.93476844  0.29423249  1
  Li  Li8  1  0.76874906  0.46876031  0.70623344  1
  Li  Li9  1  0.72891784  0.66337200  0.74176811  1
  Li  Li10  1  0.75983572  0.82831069  0.77959171  1
  Ti  Ti11  1  0.23840587  0.15261472  0.25337154  1
  Sb  Sb12  1  0.99301213  0.99487716  0.01319665  1
  Sb  Sb13  1  0.97425763  0.19650041  0.02299423  1
  Sb  Sb14  1  0.01843788  0.40547056  0.97859049  1
  Sb  Sb15  1  0.01389497  0.82209323  0.95391463  1
  Sb  Sb16  1  0.00603461  0.56849975  0.04847734  1
