# generated using pymatgen
data_SbH7F11
_symmetry_space_group_name_H-M   'P 1'
_cell_length_a   6.49523594
_cell_length_b   7.17574011
_cell_length_c   33.14786001
_cell_angle_alpha   114.13017766
_cell_angle_beta   112.97607804
_cell_angle_gamma   90.17320840
_symmetry_Int_Tables_number   1
_chemical_formula_structural   SbH7F11
_chemical_formula_sum   'Sb5 H35 F55'
_cell_volume   1273.56488762
_cell_formula_units_Z   5
loop_
 _symmetry_equiv_pos_site_id
 _symmetry_equiv_pos_as_xyz
  1  'x, y, z'
loop_
 _atom_site_type_symbol
 _atom_site_label
 _atom_site_symmetry_multiplicity
 _atom_site_fract_x
 _atom_site_fract_y
 _atom_site_fract_z
 _atom_site_occupancy
  Sb  Sb0  1  0.04964378  0.05861200  0.80168918  1
  Sb  Sb1  1  0.12549827  0.07661971  0.62732673  1
  Sb  Sb2  1  0.09891535  0.09136224  0.42258250  1
  Sb  Sb3  1  0.98406862  0.01833665  0.20682705  1
  Sb  Sb4  1  0.81085970  0.89041237  0.98631770  1
  H  H5  1  0.66730576  0.42141360  0.90803344  1
  H  H6  1  0.86911938  0.56081810  0.75836480  1
  H  H7  1  0.74811547  0.76817495  0.68327594  1
  H  H8  1  0.26583672  0.88739386  0.91213503  1
  H  H9  1  0.89356687  0.54150027  0.54911252  1
  H  H10  1  0.45281144  0.88976700  0.77069352  1
  H  H11  1  0.24006993  0.07785833  0.07625732  1
  H  H12  1  0.42968635  0.41734978  0.81033626  1
  H  H13  1  0.77854561  0.86997417  0.50762775  1
  H  H14  1  0.32703982  0.77484336  0.70020287  1
  H  H15  1  0.88423189  0.39163492  0.33774875  1
  H  H16  1  0.39776020  0.84210061  0.57041571  1
  H  H17  1  0.49356165  0.14072919  0.89426939  1
  H  H18  1  0.62718715  0.44576647  0.61629111  1
  H  H19  1  0.64732150  0.86630771  0.31057246  1
  H  H20  1  0.24011271  0.73766895  0.49893924  1
  H  H21  1  0.14031795  0.54420425  0.89756474  1
  H  H22  1  0.83288706  0.50717194  0.15426795  1
  H  H23  1  0.56988704  0.82869428  0.39778031  1
  H  H24  1  0.57576779  0.30325098  0.71517226  1
  H  H25  1  0.65393867  0.58767033  0.43763512  1
  H  H26  1  0.57994222  0.78160185  0.10962266  1
  H  H27  1  0.33902358  0.68616875  0.29007637  1
  H  H28  1  0.07804157  0.53270792  0.67425845  1
  H  H29  1  0.15402168  0.73383534  0.13544652  1
  H  H30  1  0.66164164  0.35005424  0.55124008  1
  H  H31  1  0.61788689  0.51203775  0.20635855  1
  H  H32  1  0.94672928  0.89175836  0.91384344  1
  H  H33  1  0.63459133  0.21023765  0.25111587  1
  H  H34  1  0.93131018  0.56191114  0.43369488  1
  H  H35  1  0.58332379  0.23541555  0.09731110  1
  H  H36  1  0.43824975  0.23590653  0.28690459  1
  H  H37  1  0.35714009  0.44411857  0.98385122  1
  H  H38  1  0.98500755  0.59149976  0.27367590  1
  H  H39  1  0.28727884  0.64024189  0.09316482  1
  F  F40  1  0.07647825  0.78803185  0.98365174  1
  F  F41  1  0.14764669  0.41470386  0.89911743  1
  F  F42  1  0.35415789  0.05460620  0.88772972  1
  F  F43  1  0.98479665  0.69219329  0.78346363  1
  F  F44  1  0.01713527  0.42007094  0.67841753  1
  F  F45  1  0.43484277  0.64933928  0.08467488  1
  F  F46  1  0.36092424  0.18432466  0.69755315  1
  F  F47  1  0.33385376  0.96523001  0.79901424  1
  F  F48  1  0.52037711  0.97319385  0.97097178  1
  F  F49  1  0.73193862  0.36726483  0.72271324  1
  F  F50  1  0.02295467  0.65339025  0.56224120  1
  F  F51  1  0.90045001  0.19544475  0.45170606  1
  F  F52  1  0.29946577  0.34364594  0.99022719  1
  F  F53  1  0.12095923  0.79214618  0.89727792  1
  F  F54  1  0.30151095  0.08812733  0.48115823  1
  F  F55  1  0.38397505  0.95860721  0.61312474  1
  F  F56  1  0.52906985  0.83784702  0.74817976  1
  F  F57  1  0.82898635  0.95055126  0.92426427  1
  F  F58  1  0.69223618  0.37955685  0.52730652  1
  F  F59  1  0.03629977  0.39657746  0.34091836  1
  F  F60  1  0.23839904  0.61840761  0.29784891  1
  F  F61  1  0.18531420  0.32108288  0.80736661  1
  F  F62  1  0.64033023  0.63903318  0.92441493  1
  F  F63  1  0.57853023  0.46324646  0.81433071  1
  F  F64  1  0.17273634  0.72818762  0.67324634  1
  F  F65  1  0.24303936  0.11441003  0.27489438  1
  F  F66  1  0.21266781  0.86555305  0.38885175  1
  F  F67  1  0.41962495  0.76038131  0.53946742  1
  F  F68  1  0.91353555  0.95104368  0.72945095  1
  F  F69  1  0.58521951  0.31429197  0.29214699  1
  F  F70  1  0.90239910  0.73066876  0.19983621  1
  F  F71  1  0.50092745  0.46729769  0.17381333  1
  F  F72  1  0.23395126  0.30745067  0.62075734  1
  F  F73  1  0.62697164  0.66128768  0.65313089  1
  F  F74  1  0.62302108  0.31769163  0.58905750  1
  F  F75  1  0.10483010  0.72767978  0.46819078  1
  F  F76  1  0.09131548  0.01614586  0.07195870  1
  F  F77  1  0.20040457  0.88390337  0.17979226  1
  F  F78  1  0.68396002  0.80101978  0.38605456  1
  F  F79  1  0.88485607  0.99350785  0.53607654  1
  F  F80  1  0.80269102  0.38599027  0.12355885  1
  F  F81  1  0.73311602  0.74454447  0.01644706  1
  F  F82  1  0.26278776  0.32472278  0.42912805  1
  F  F83  1  0.78046785  0.46266818  0.41008799  1
  F  F84  1  0.59726803  0.69738688  0.45808465  1
  F  F85  1  0.50173737  0.80153999  0.28247906  1
  F  F86  1  0.45490037  0.11698342  0.07445157  1
  F  F87  1  0.65479839  0.12270524  0.22076008  1
  F  F88  1  0.86888509  0.03775065  0.35888485  1
  F  F89  1  0.67443888  0.27254751  0.89666878  1
  F  F90  1  0.08622672  0.26400633  0.20329637  1
  F  F91  1  0.81891991  0.57277290  0.26205678  1
  F  F92  1  0.74573169  0.91691881  0.13432610  1
  F  F93  1  0.12507336  0.62336641  0.10109069  1
  F  F94  1  0.93082341  0.17751792  0.01456037  1
