# generated using pymatgen
data_Nb17Ir3S40
_symmetry_space_group_name_H-M   'P 1'
_cell_length_a   3.43740435
_cell_length_b   33.89901202
_cell_length_c   21.06836891
_cell_angle_alpha   35.92909841
_cell_angle_beta   114.07216182
_cell_angle_gamma   120.46464563
_symmetry_Int_Tables_number   1
_chemical_formula_structural   Nb17Ir3S40
_chemical_formula_sum   'Nb17 Ir3 S40'
_cell_volume   1241.64867101
_cell_formula_units_Z   1
loop_
 _symmetry_equiv_pos_site_id
 _symmetry_equiv_pos_as_xyz
  1  'x, y, z'
loop_
 _atom_site_type_symbol
 _atom_site_label
 _atom_site_symmetry_multiplicity
 _atom_site_fract_x
 _atom_site_fract_y
 _atom_site_fract_z
 _atom_site_occupancy
  Nb  Nb0  1  0.95611001  0.93850442  0.50543516  1
  Nb  Nb1  1  0.00000000  0.85000000  0.50000000  1
  Nb  Nb2  1  0.04388999  0.76149558  0.49456484  1
  Nb  Nb3  1  0.99945921  0.90070497  0.99837374  1
  Nb  Nb4  1  0.00054079  0.79929503  0.00162626  1
  Nb  Nb5  1  0.04821533  0.55996715  0.49935183  1
  Nb  Nb6  1  0.00069246  0.60024706  0.99978287  1
  Nb  Nb7  1  0.95351494  0.44144354  0.49851890  1
  Nb  Nb8  1  0.00098445  0.69975413  0.00088552  1
  Nb  Nb9  1  0.99824679  0.39939045  0.00051781  1
  Nb  Nb10  1  0.95178467  0.14003285  0.50064817  1
  Nb  Nb11  1  -0.00212414  0.49895339  0.00124356  1
  Nb  Nb12  1  0.04648506  0.25855646  0.50148110  1
  Nb  Nb13  1  0.00175321  0.30060955  0.99948219  1
  Nb  Nb14  1  0.00212414  0.20104661  0.99875644  1
  Nb  Nb15  1  -0.00069246  0.09975294  0.00021713  1
  Nb  Nb16  1  0.99901555  0.00024587  0.99911448  1
  Ir  Ir17  1  0.96010295  0.64023407  0.50357304  1
  Ir  Ir18  1  0.00000000  0.35000000  0.50000000  1
  Ir  Ir19  1  0.03989705  0.05976593  0.49642696  1
  S  S20  1  0.66794039  -0.00358061  0.87433658  1
  S  S21  1  0.35329781  0.97021974  0.60088045  1
  S  S22  1  0.66459243  0.89459173  0.87665271  1
  S  S23  1  0.33344650  0.84981274  0.63375393  1
  S  S24  1  0.66838319  0.79523249  0.87688750  1
  S  S25  1  0.33725307  0.75291575  0.62907054  1
  S  S26  1  0.66837273  0.69557509  0.87619812  1
  S  S27  1  0.66274693  0.94708425  0.37092946  1
  S  S28  1  0.31747664  0.66190193  0.60318760  1
  S  S29  1  0.33161681  0.90476751  0.12311250  1
  S  S30  1  0.66655350  0.85018726  0.36624607  1
  S  S31  1  0.66624192  0.59487743  0.87674111  1
  S  S32  1  0.34160259  0.55374140  0.62915903  1
  S  S33  1  0.33540757  0.80540827  0.12334729  1
  S  S34  1  0.64670219  0.72978026  0.39911955  1
  S  S35  1  0.66795653  0.49513008  0.87692165  1
  S  S36  1  0.33026824  0.46119926  0.60970958  1
  S  S37  1  0.33205961  0.70358061  0.12566342  1
  S  S38  1  0.66836830  0.39600805  0.87533043  1
  S  S39  1  0.66888227  0.64943756  0.36867698  1
  S  S40  1  0.33206035  0.60391557  0.12499379  1
  S  S41  1  0.31800419  0.34949168  0.62821913  1
  S  S42  1  0.66906326  0.29651799  0.87458852  1
  S  S43  1  0.65858244  0.53777985  0.38787249  1
  S  S44  1  0.33243522  0.50464218  0.12369053  1
  S  S45  1  0.36256704  0.26079935  0.62342892  1
  S  S46  1  0.63743296  0.43920065  0.37657108  1
  S  S47  1  0.66756478  0.19535782  0.87630947  1
  S  S48  1  0.33093674  0.40348201  0.12541148  1
  S  S49  1  0.34141756  0.16222015  0.61212751  1
  S  S50  1  0.66793965  0.09608443  0.87500621  1
  S  S51  1  0.68199581  0.35050832  0.37178087  1
  S  S52  1  0.33111773  0.05056244  0.63132302  1
  S  S53  1  0.33163170  0.30399195  0.12466957  1
  S  S54  1  0.66973176  0.23880074  0.39029042  1
  S  S55  1  0.33204347  0.20486992  0.12307835  1
  S  S56  1  0.65839741  0.14625860  0.37084097  1
  S  S57  1  0.33375808  0.10512257  0.12325889  1
  S  S58  1  0.68252336  0.03809807  0.39681240  1
  S  S59  1  0.33162727  0.00442491  0.12380188  1
