# generated using pymatgen
data_KBiO3
_symmetry_space_group_name_H-M   'P 1'
_cell_length_a   8.99007991
_cell_length_b   8.75448170
_cell_length_c   26.22768654
_cell_angle_alpha   107.95279736
_cell_angle_beta   109.59581102
_cell_angle_gamma   109.95299769
_symmetry_Int_Tables_number   1
_chemical_formula_structural   KBiO3
_chemical_formula_sum   'K18 Bi18 O54'
_cell_volume   1606.24971076
_cell_formula_units_Z   18
loop_
 _symmetry_equiv_pos_site_id
 _symmetry_equiv_pos_as_xyz
  1  'x, y, z'
loop_
 _atom_site_type_symbol
 _atom_site_label
 _atom_site_symmetry_multiplicity
 _atom_site_fract_x
 _atom_site_fract_y
 _atom_site_fract_z
 _atom_site_occupancy
  K  K0  1  0.35511567  0.36299550  0.78321927  1
  K  K1  1  0.73186470  0.70341038  0.90393979  1
  K  K2  1  0.32870989  0.01718031  0.65853473  1
  K  K3  1  0.23263997  0.26394377  0.42875498  1
  K  K4  1  0.99769011  0.00199196  0.84285106  1
  K  K5  1  0.99754291  0.49774371  0.99906253  1
  K  K6  1  0.62294279  0.61773010  0.53868069  1
  K  K7  1  0.31536455  0.98848926  0.32878687  1
  K  K8  1  0.67892158  0.99768277  0.66531429  1
  K  K9  1  0.31465769  0.33077759  0.10841459  1
  K  K10  1  0.99365888  0.41168833  0.66334838  1
  K  K11  1  0.70299712  0.67555477  0.23073173  1
  K  K12  1  0.31580338  0.99583274  0.99692182  1
  K  K13  1  0.99678070  0.80046571  0.68794793  1
  K  K14  1  0.69126840  0.99606668  0.34012940  1
  K  K15  1  0.00118097  0.99754908  0.16519769  1
  K  K16  1  0.00344542  0.47761050  0.33436107  1
  K  K17  1  0.69355180  0.01586799  0.00764428  1
  Bi  Bi18  1  0.16119762  0.66129658  0.83251257  1
  Bi  Bi19  1  0.34202323  0.50023183  0.94704689  1
  Bi  Bi20  1  0.15262782  0.66493999  0.49854700  1
  Bi  Bi21  1  0.49804243  0.84105016  0.77816266  1
  Bi  Bi22  1  0.33662798  0.49678292  0.61130761  1
  Bi  Bi23  1  0.49712411  0.15942633  0.88482151  1
  Bi  Bi24  1  0.15625447  0.65512241  0.16526966  1
  Bi  Bi25  1  0.66186353  0.50608450  0.71924618  1
  Bi  Bi26  1  0.50620175  0.84188521  0.44806232  1
  Bi  Bi27  1  0.34001927  0.49393188  0.28058643  1
  Bi  Bi28  1  0.49859218  0.15923288  0.55112034  1
  Bi  Bi29  1  0.84355519  0.34056852  0.83293883  1
  Bi  Bi30  1  0.66307102  0.50283786  0.38820327  1
  Bi  Bi31  1  0.49977909  0.83953327  0.11432825  1
  Bi  Bi32  1  0.50076684  0.15594650  0.22078178  1
  Bi  Bi33  1  0.84672422  0.33870870  0.50185085  1
  Bi  Bi34  1  0.65990608  0.49955438  0.05307241  1
  Bi  Bi35  1  0.84299401  0.33753050  0.16812201  1
  O  O36  1  0.00194301  0.64223575  0.87937890  1
  O  O37  1  0.05102487  0.33869674  0.90524035  1
  O  O38  1  0.28487010  0.95118178  0.88701280  1
  O  O39  1  0.38104702  0.66401202  0.90170740  1
  O  O40  1  0.28128343  0.62566286  0.77603602  1
  O  O41  1  0.33298944  0.28694772  0.87303832  1
  O  O42  1  0.05381933  0.32928730  0.57136537  1
  O  O43  1  0.33506208  0.71779981  0.68167598  1
  O  O44  1  0.28467407  0.95639012  0.55232138  1
  O  O45  1  0.99943128  0.36267999  0.45310545  1
  O  O46  1  0.62831661  0.99274768  0.87794575  1
  O  O47  1  0.36276168  0.00837790  0.78417140  1
  O  O48  1  0.36865228  0.36768842  0.66975122  1
  O  O49  1  0.37363961  0.67559625  0.57229867  1
  O  O50  1  0.65421987  0.27869949  0.98237536  1
  O  O51  1  0.29371349  0.62141804  0.44799518  1
  O  O52  1  0.65496558  0.70401124  0.79323212  1
  O  O53  1  0.36858627  0.31982529  0.54217942  1
  O  O54  1  0.05130077  0.32893148  0.23780876  1
  O  O55  1  0.71086871  0.37841429  0.88633736  1
  O  O56  1  0.62840734  0.33768948  0.76304859  1
  O  O57  1  0.27868559  0.94561304  0.21874474  1
  O  O58  1  0.34204532  0.71319698  0.34940237  1
  O  O59  1  0.64138529  0.65379644  0.66713657  1
  O  O60  1  0.99584926  0.35541666  0.11875847  1
  O  O61  1  0.63062632  0.99272835  0.54820466  1
  O  O62  1  0.37306707  0.00936647  0.45223497  1
  O  O63  1  0.36402761  0.35396031  0.33534417  1
  O  O64  1  0.71809018  0.04886145  0.77829390  1
  O  O65  1  0.64997703  0.28008820  0.65059923  1
  O  O66  1  0.37436986  0.65969112  0.23540400  1
  O  O67  1  0.66143159  0.70871699  0.45817793  1
  O  O68  1  0.27820681  0.61904149  0.10867016  1
  O  O69  1  0.95296056  0.66974662  0.76023261  1
  O  O70  1  0.34377381  0.29053439  0.20756326  1
  O  O71  1  0.73427965  0.38100085  0.56193012  1
  O  O72  1  0.62462759  0.34185033  0.43435144  1
  O  O73  1  0.34561389  0.72014052  0.01571100  1
  O  O74  1  0.00063782  0.36243955  0.78526723  1
  O  O75  1  0.62733551  0.98365501  0.21376440  1
  O  O76  1  0.63355651  0.63342324  0.32951458  1
  O  O77  1  0.37465224  0.01142294  0.12059661  1
  O  O78  1  0.36359331  0.35643981  0.00110855  1
  O  O79  1  0.00361812  0.63946389  0.54805488  1
  O  O80  1  0.71066872  0.04900688  0.44488966  1
  O  O81  1  0.65011822  0.26955421  0.31824285  1
  O  O82  1  0.94765280  0.65641739  0.42379060  1
  O  O83  1  0.65453742  0.70082118  0.12543832  1
  O  O84  1  0.72109933  0.37472332  0.22460908  1
  O  O85  1  0.62249039  0.32893042  0.09606555  1
  O  O86  1  0.63625102  0.63882826  0.99724468  1
  O  O87  1  0.99765201  0.63672098  0.21252671  1
  O  O88  1  0.71682909  0.04599409  0.11346673  1
  O  O89  1  0.94720584  0.66126945  0.09347958  1
