# generated using pymatgen
data_Ca(CeTe2)2
_symmetry_space_group_name_H-M   'P 1'
_cell_length_a   8.30215695
_cell_length_b   8.30215724
_cell_length_c   8.30215711
_cell_angle_alpha   109.77696753
_cell_angle_beta   109.77696815
_cell_angle_gamma   108.86144067
_symmetry_Int_Tables_number   1
_chemical_formula_structural   Ca(CeTe2)2
_chemical_formula_sum   'Ca2 Ce4 Te8'
_cell_volume   440.46774234
_cell_formula_units_Z   2
loop_
 _symmetry_equiv_pos_site_id
 _symmetry_equiv_pos_as_xyz
  1  'x, y, z'
loop_
 _atom_site_type_symbol
 _atom_site_label
 _atom_site_symmetry_multiplicity
 _atom_site_fract_x
 _atom_site_fract_y
 _atom_site_fract_z
 _atom_site_occupancy
  Ca  Ca0  1  0.62500000  0.37500000  0.25000000  1
  Ca  Ca1  1  0.87500000  0.12500000  0.75000000  1
  Ce  Ce2  1  0.12328050  0.75000000  0.87328050  1
  Ce  Ce3  1  0.25000000  0.62328050  0.37328050  1
  Ce  Ce4  1  0.37671950  0.25000000  0.62671950  1
  Ce  Ce5  1  0.75000000  0.87671950  0.12671950  1
  Te  Te6  1  0.00268086  0.85514195  0.50213191  1
  Te  Te7  1  0.00054896  0.35301005  0.49786809  1
  Te  Te8  1  0.49731914  -0.00054896  0.85246109  1
  Te  Te9  1  0.14485805  0.14698995  0.14753891  1
  Te  Te10  1  0.35514195  0.50268086  0.00213191  1
  Te  Te11  1  0.64698995  0.64485805  0.64753891  1
  Te  Te12  1  0.49945104  0.99731914  0.35246109  1
  Te  Te13  1  0.85301005  0.50054896  0.99786809  1
