# generated using pymatgen
data_NdPb6F15
_symmetry_space_group_name_H-M   'P 1'
_cell_length_a   4.17854597
_cell_length_b   4.17854586
_cell_length_c   29.71707621
_cell_angle_alpha   60.58744637
_cell_angle_beta   60.58744852
_cell_angle_gamma   60.43940905
_symmetry_Int_Tables_number   1
_chemical_formula_structural   NdPb6F15
_chemical_formula_sum   'Nd1 Pb6 F15'
_cell_volume   371.35378091
_cell_formula_units_Z   1
loop_
 _symmetry_equiv_pos_site_id
 _symmetry_equiv_pos_as_xyz
  1  'x, y, z'
loop_
 _atom_site_type_symbol
 _atom_site_label
 _atom_site_symmetry_multiplicity
 _atom_site_fract_x
 _atom_site_fract_y
 _atom_site_fract_z
 _atom_site_occupancy
  Nd  Nd0  1  0.07587766  0.07587766  0.84013742  1
  Pb  Pb1  1  0.06750197  0.06750197  0.98504006  1
  Pb  Pb2  1  0.01714368  0.01714368  0.13446425  1
  Pb  Pb3  1  0.01668527  0.01668527  0.27693975  1
  Pb  Pb4  1  0.01942947  0.01942947  0.42010679  1
  Pb  Pb5  1  0.00481148  0.00481148  0.70511723  1
  Pb  Pb6  1  0.02333282  0.02333282  0.56277638  1
  F  F7  1  0.26042609  0.26042609  0.17115707  1
  F  F8  1  0.76309004  0.76309004  0.09935218  1
  F  F9  1  0.26886044  0.26886044  0.31201279  1
  F  F10  1  0.77183319  0.77183319  0.23826042  1
  F  F11  1  0.27302237  0.27302237  0.45472734  1
  F  F12  1  0.77185423  0.77185423  0.38294109  1
  F  F13  1  0.26924603  0.26924603  0.59954231  1
  F  F14  1  0.77334449  0.77334449  0.52603444  1
  F  F15  1  0.30035479  0.30035479  0.74190993  1
  F  F16  1  0.30000490  0.30000490  0.88761326  1
  F  F17  1  0.79306304  0.79306304  0.66520997  1
  F  F18  1  0.55310953  0.55310953  0.78821824  1
  F  F19  1  0.75516996  0.75516996  0.83765900  1
  F  F20  1  0.32885713  0.32885713  0.01631264  1
  F  F21  1  0.84298142  0.84298142  0.93989445  1
