# generated using pymatgen
data_NaLiLa2Ti4O12
_symmetry_space_group_name_H-M   'P 1'
_cell_length_a   5.49325275
_cell_length_b   11.17280285
_cell_length_c   9.71782845
_cell_angle_alpha   29.42995648
_cell_angle_beta   55.47496590
_cell_angle_gamma   60.50711821
_symmetry_Int_Tables_number   1
_chemical_formula_structural   NaLiLa2Ti4O12
_chemical_formula_sum   'Na1 Li1 La2 Ti4 O12'
_cell_volume   241.44653771
_cell_formula_units_Z   1
loop_
 _symmetry_equiv_pos_site_id
 _symmetry_equiv_pos_as_xyz
  1  'x, y, z'
loop_
 _atom_site_type_symbol
 _atom_site_label
 _atom_site_symmetry_multiplicity
 _atom_site_fract_x
 _atom_site_fract_y
 _atom_site_fract_z
 _atom_site_occupancy
  Na  Na0  1  0.80162530  0.51074267  0.67701551  1
  Li  Li1  1  0.37959602  0.48462661  0.13192526  1
  La  La2  1  0.26704333  0.00047933  0.22609792  1
  La  La3  1  0.76352918  0.99718180  0.73758726  1
  Ti  Ti4  1  0.02109986  0.00345598  0.97266258  1
  Ti  Ti5  1  0.51812911  0.49444853  0.48427142  1
  Ti  Ti6  1  0.01732132  0.50160787  0.98031836  1
  Ti  Ti7  1  0.51880314  0.99380051  0.48655447  1
  O  O8  1  0.27751432  0.25249718  0.22819927  1
  O  O9  1  0.24916255  0.06031510  0.69167012  1
  O  O10  1  0.21783252  0.25531789  0.77788277  1
  O  O11  1  0.29708658  0.78131508  0.19875231  1
  O  O12  1  0.79162541  0.22591159  0.25556083  1
  O  O13  1  0.24519479  0.55288775  0.70213387  1
  O  O14  1  0.74689423  0.44712814  0.30589778  1
  O  O15  1  0.20573873  0.76050079  0.77150101  1
  O  O16  1  0.70100636  0.23465537  0.79460041  1
  O  O17  1  0.76966913  0.75659106  0.22400450  1
  O  O18  1  0.74905439  0.94595944  0.30887745  1
  O  O19  1  0.71207377  0.74057734  0.79448792  1
