# generated using pymatgen
data_Ta22(CuS12)3
_symmetry_space_group_name_H-M   'P 1'
_cell_length_a   13.30023906
_cell_length_b   13.30023919
_cell_length_c   119.63271875
_cell_angle_alpha   14.39967200
_cell_angle_beta   14.39966999
_cell_angle_gamma   14.38856952
_symmetry_Int_Tables_number   1
_chemical_formula_structural   Ta22(CuS12)3
_chemical_formula_sum   'Ta22 Cu3 S36'
_cell_volume   1138.82300237
_cell_formula_units_Z   1
loop_
 _symmetry_equiv_pos_site_id
 _symmetry_equiv_pos_as_xyz
  1  'x, y, z'
loop_
 _atom_site_type_symbol
 _atom_site_label
 _atom_site_symmetry_multiplicity
 _atom_site_fract_x
 _atom_site_fract_y
 _atom_site_fract_z
 _atom_site_occupancy
  Ta  Ta0  1  0.09349701  0.09349701  0.00624701  1
  Ta  Ta1  1  0.08453377  0.08453377  0.11956654  1
  Ta  Ta2  1  0.08371838  0.08371838  0.23081789  1
  Ta  Ta3  1  0.92537047  0.92537047  0.10050490  1
  Ta  Ta4  1  0.07263402  0.07263402  0.34449270  1
  Ta  Ta5  1  0.92006143  0.92006143  0.21291791  1
  Ta  Ta6  1  0.08689173  0.08689173  0.45235607  1
  Ta  Ta7  1  0.91371861  0.91371861  0.32534219  1
  Ta  Ta8  1  0.96732131  0.96732131  0.56268327  1
  Ta  Ta9  1  0.07903576  0.07903576  0.56558614  1
  Ta  Ta10  1  0.90633552  0.90633552  0.43829245  1
  Ta  Ta11  1  0.03429788  0.03429788  0.65919544  1
  Ta  Ta12  1  0.07910826  0.07910826  0.67708795  1
  Ta  Ta13  1  0.91545341  0.91545341  0.54647741  1
  Ta  Ta14  1  0.08206416  0.08206416  0.78746031  1
  Ta  Ta15  1  0.91759973  0.91759973  0.65705923  1
  Ta  Ta16  1  0.03236531  0.03236531  0.88183412  1
  Ta  Ta17  1  0.96573721  0.96573721  0.78523993  1
  Ta  Ta18  1  0.08410553  0.08410553  0.89808167  1
  Ta  Ta19  1  0.92046320  0.92046320  0.76745393  1
  Ta  Ta20  1  0.92048619  0.92048619  0.87899754  1
  Ta  Ta21  1  0.91488423  0.91488423  0.99172725  1
  Cu  Cu22  1  0.85664895  0.85664895  0.09111780  1
  Cu  Cu23  1  0.84492061  0.84492061  0.20479750  1
  Cu  Cu24  1  0.83657372  0.83657372  0.31785271  1
  S  S25  1  0.22272049  0.22272049  0.02082023  1
  S  S26  1  0.28987332  0.28987332  0.03269194  1
  S  S27  1  0.21462310  0.21462310  0.13383109  1
  S  S28  1  0.29187638  0.29187638  0.14313968  1
  S  S29  1  0.71669718  0.71669718  0.07730909  1
  S  S30  1  0.79659646  0.79659646  0.08566324  1
  S  S31  1  0.20878914  0.20878914  0.24629212  1
  S  S32  1  0.28674737  0.28674737  0.25544465  1
  S  S33  1  0.71209024  0.71209024  0.18931708  1
  S  S34  1  0.78919663  0.78919663  0.19849390  1
  S  S35  1  0.19542468  0.19542468  0.36042166  1
  S  S36  1  0.28466944  0.28466944  0.36695298  1
  S  S37  1  0.70922164  0.70922164  0.30132306  1
  S  S38  1  0.78657202  0.78657202  0.31021087  1
  S  S39  1  0.21189779  0.21189779  0.46801061  1
  S  S40  1  0.28056705  0.28056705  0.47984002  1
  S  S41  1  0.70862146  0.70862146  0.41201634  1
  S  S42  1  0.78551859  0.78551859  0.42167847  1
  S  S43  1  0.21003234  0.21003234  0.57887609  1
  S  S44  1  0.29333890  0.29333890  0.58698940  1
  S  S45  1  0.70670389  0.70670389  0.52304709  1
  S  S46  1  0.78788997  0.78788997  0.53194767  1
  S  S47  1  0.21322181  0.21322181  0.68933557  1
  S  S48  1  0.29588672  0.29588672  0.69860885  1
  S  S49  1  0.70517881  0.70517881  0.63555776  1
  S  S50  1  0.79004814  0.79004814  0.64327143  1
  S  S51  1  0.20933520  0.20933520  0.80131328  1
  S  S52  1  0.29444822  0.29444822  0.80896861  1
  S  S53  1  0.70387249  0.70387249  0.74588157  1
  S  S54  1  0.78642189  0.78642189  0.75519070  1
  S  S55  1  0.21400184  0.21400184  0.91207141  1
  S  S56  1  0.29280120  0.29280120  0.92156121  1
  S  S57  1  0.70658275  0.70658275  0.85747847  1
  S  S58  1  0.78965815  0.78965815  0.86564987  1
  S  S59  1  0.71950136  0.71950136  0.96463730  1
  S  S60  1  0.78654693  0.78654693  0.97685684  1
