# generated using pymatgen
data_Li10Ge(PS6)2
_symmetry_space_group_name_H-M   'P 1'
_cell_length_a   8.78764647
_cell_length_b   8.78764647
_cell_length_c   12.65754627
_cell_angle_alpha   90.00000000
_cell_angle_beta   90.00000000
_cell_angle_gamma   90.00000000
_symmetry_Int_Tables_number   1
_chemical_formula_structural   Li10Ge(PS6)2
_chemical_formula_sum   'Li20 Ge2 P4 S24'
_cell_volume   977.45028417
_cell_formula_units_Z   2
loop_
 _symmetry_equiv_pos_site_id
 _symmetry_equiv_pos_as_xyz
  1  'x, y, z'
loop_
 _atom_site_type_symbol
 _atom_site_label
 _atom_site_symmetry_multiplicity
 _atom_site_fract_x
 _atom_site_fract_y
 _atom_site_fract_z
 _atom_site_occupancy
  Li  Li0  1  0.22869772  0.77294992  0.29456267  1
  Li  Li1  1  0.77130228  0.22705008  0.29456267  1
  Li  Li2  1  0.27294992  0.27130228  0.79456267  1
  Li  Li3  1  0.72705008  0.72869772  0.79456267  1
  Li  Li4  1  0.22869772  0.22705008  0.29456267  1
  Li  Li5  1  0.77130228  0.77294992  0.29456267  1
  Li  Li6  1  0.27294992  0.72869772  0.79456267  1
  Li  Li7  1  0.72705008  0.27130228  0.79456267  1
  Li  Li8  1  0.00000000  0.50000000  0.93973034  1
  Li  Li9  1  0.00000000  0.50000000  0.43973034  1
  Li  Li10  1  0.50000000  0.00000000  0.54801979  1
  Li  Li11  1  0.50000000  0.00000000  0.04801979  1
  Li  Li12  1  0.25631839  0.22477220  0.03666268  1
  Li  Li13  1  0.74368161  0.77522780  0.03666268  1
  Li  Li14  1  0.27522780  0.75631839  0.53666268  1
  Li  Li15  1  0.72477220  0.24368161  0.53666268  1
  Li  Li16  1  0.27522780  0.24368161  0.53666268  1
  Li  Li17  1  0.72477220  0.75631839  0.53666268  1
  Li  Li18  1  0.25631839  0.77522780  0.03666268  1
  Li  Li19  1  0.74368161  0.22477220  0.03666268  1
  Ge  Ge20  1  0.50000000  0.00000000  0.80102826  1
  Ge  Ge21  1  0.50000000  0.00000000  0.30102826  1
  P  P22  1  0.00000000  0.50000000  0.68605123  1
  P  P23  1  0.00000000  0.50000000  0.18605123  1
  P  P24  1  0.00000000  0.00000000  0.50407276  1
  P  P25  1  0.50000000  0.50000000  0.00407276  1
  S  S26  1  0.00000000  0.19443147  0.41207068  1
  S  S27  1  0.00000000  0.80556853  0.41207068  1
  S  S28  1  0.30556853  0.50000000  0.91207068  1
  S  S29  1  0.69443147  0.50000000  0.91207068  1
  S  S30  1  0.50000000  0.68984842  0.09705721  1
  S  S31  1  0.50000000  0.31015158  0.09705721  1
  S  S32  1  0.18984842  0.00000000  0.59705721  1
  S  S33  1  0.81015158  0.00000000  0.59705721  1
  S  S34  1  0.00000000  0.30470830  0.09409571  1
  S  S35  1  0.00000000  0.69529170  0.09409571  1
  S  S36  1  0.19529170  0.50000000  0.59409571  1
  S  S37  1  0.80470830  0.50000000  0.59409571  1
  S  S38  1  0.50000000  0.79000178  0.40324162  1
  S  S39  1  0.50000000  0.20999822  0.40324162  1
  S  S40  1  0.29000178  0.00000000  0.90324162  1
  S  S41  1  0.70999822  0.00000000  0.90324162  1
  S  S42  1  0.00000000  0.69195012  0.77706866  1
  S  S43  1  0.00000000  0.30804988  0.77706866  1
  S  S44  1  0.80804988  0.50000000  0.27706866  1
  S  S45  1  0.19195012  0.50000000  0.27706866  1
  S  S46  1  0.50000000  0.20737844  0.69816573  1
  S  S47  1  0.50000000  0.79262156  0.69816573  1
  S  S48  1  0.70737844  0.00000000  0.19816573  1
  S  S49  1  0.29262156  0.00000000  0.19816573  1
