# generated using pymatgen
data_BaNb8O14
_symmetry_space_group_name_H-M   'P 1'
_cell_length_a   9.67372247
_cell_length_b   10.45045858
_cell_length_c   13.20147306
_cell_angle_alpha   113.53619494
_cell_angle_beta   90.00000000
_cell_angle_gamma   90.00000000
_symmetry_Int_Tables_number   1
_chemical_formula_structural   BaNb8O14
_chemical_formula_sum   'Ba4 Nb32 O56'
_cell_volume   1223.57263891
_cell_formula_units_Z   4
loop_
 _symmetry_equiv_pos_site_id
 _symmetry_equiv_pos_as_xyz
  1  'x, y, z'
loop_
 _atom_site_type_symbol
 _atom_site_label
 _atom_site_symmetry_multiplicity
 _atom_site_fract_x
 _atom_site_fract_y
 _atom_site_fract_z
 _atom_site_occupancy
  Ba  Ba0  1  0.98580746  0.65152897  0.27191903  1
  Ba  Ba1  1  0.01419254  0.34847103  0.72808097  1
  Ba  Ba2  1  0.51419254  0.15152897  0.27191903  1
  Ba  Ba3  1  0.48580746  0.84847103  0.72808097  1
  Nb  Nb4  1  0.11651573  0.34112599  0.00265755  1
  Nb  Nb5  1  0.11643598  0.71793856  0.75895432  1
  Nb  Nb6  1  0.11842275  0.95441069  0.24226370  1
  Nb  Nb7  1  0.11192206  0.90899330  0.63413521  1
  Nb  Nb8  1  0.12306843  0.25177753  0.36264255  1
  Nb  Nb9  1  0.12489688  0.14066207  0.13208903  1
  Nb  Nb10  1  0.12226090  0.01253480  0.86572822  1
  Nb  Nb11  1  0.15402796  0.57404620  0.49304315  1
  Nb  Nb12  1  0.34597204  0.07404620  0.49304315  1
  Nb  Nb13  1  0.37510312  0.64066207  0.13208903  1
  Nb  Nb14  1  0.37773910  0.51253480  0.86572822  1
  Nb  Nb15  1  0.37693157  0.75177753  0.36264255  1
  Nb  Nb16  1  0.38807794  0.40899330  0.63413521  1
  Nb  Nb17  1  0.38157725  0.45441069  0.24226370  1
  Nb  Nb18  1  0.38356402  0.21793856  0.75895432  1
  Nb  Nb19  1  0.38348427  0.84112599  0.00265755  1
  Nb  Nb20  1  0.61651573  0.15887401  0.99734245  1
  Nb  Nb21  1  0.61643598  0.78206144  0.24104568  1
  Nb  Nb22  1  0.61842275  0.54558931  0.75773630  1
  Nb  Nb23  1  0.61192206  0.59100670  0.36586479  1
  Nb  Nb24  1  0.62306843  0.24822247  0.63735745  1
  Nb  Nb25  1  0.62226090  0.48746520  0.13427178  1
  Nb  Nb26  1  0.62489688  0.35933793  0.86791097  1
  Nb  Nb27  1  0.65402796  0.92595380  0.50695685  1
  Nb  Nb28  1  0.84597204  0.42595380  0.50695685  1
  Nb  Nb29  1  0.87510312  0.85933793  0.86791097  1
  Nb  Nb30  1  0.87773910  0.98746520  0.13427178  1
  Nb  Nb31  1  0.87693157  0.74822247  0.63735745  1
  Nb  Nb32  1  0.88807794  0.09100670  0.36586479  1
  Nb  Nb33  1  0.88157725  0.04558931  0.75773630  1
  Nb  Nb34  1  0.88356402  0.28206144  0.24104568  1
  Nb  Nb35  1  0.88348427  0.65887401  0.99734245  1
  O  O36  1  0.00000000  0.00000000  0.00000000  1
  O  O37  1  0.00000000  0.50000000  0.00000000  1
  O  O38  1  0.98706648  0.26351682  0.49256924  1
  O  O39  1  0.01293352  0.73648318  0.50743076  1
  O  O40  1  -0.00029930  0.06803701  0.63776243  1
  O  O41  1  0.00097144  0.43456116  0.38268643  1
  O  O42  1  0.00697868  0.31467937  0.12561083  1
  O  O43  1  0.00631188  0.19337614  0.87631440  1
  O  O44  1  0.22813424  0.17959710  0.99873990  1
  O  O45  1  0.24682423  0.78002339  0.24878772  1
  O  O46  1  0.24445886  0.53194659  0.74987213  1
  O  O47  1  0.24560270  0.35161014  0.87330465  1
  O  O48  1  0.24164976  0.47506909  0.12008264  1
  O  O49  1  0.25590333  0.09281205  0.36840419  1
  O  O50  1  0.23825081  0.71974014  0.62250182  1
  O  O51  1  0.25721337  0.91695025  0.50228015  1
  O  O52  1  0.24278663  0.41695025  0.50228015  1
  O  O53  1  0.24409667  0.59281205  0.36840419  1
  O  O54  1  0.26174919  0.21974014  0.62250182  1
  O  O55  1  0.25835024  0.97506909  0.12008264  1
  O  O56  1  0.25439730  0.85161014  0.87330465  1
  O  O57  1  0.25317577  0.28002339  0.24878772  1
  O  O58  1  0.25554114  0.03194659  0.74987213  1
  O  O59  1  0.27186576  0.67959710  0.99873990  1
  O  O60  1  0.49368812  0.69337614  0.87631440  1
  O  O61  1  0.49302132  0.81467937  0.12561083  1
  O  O62  1  0.50029930  0.56803701  0.63776243  1
  O  O63  1  0.49902856  0.93456116  0.38268643  1
  O  O64  1  0.50000000  0.50000000  0.00000000  1
  O  O65  1  0.50000000  0.00000000  0.00000000  1
  O  O66  1  0.48706648  0.23648318  0.50743076  1
  O  O67  1  0.51293352  0.76351682  0.49256924  1
  O  O68  1  0.50097144  0.06543884  0.61731357  1
  O  O69  1  0.49970070  0.43196299  0.36223757  1
  O  O70  1  0.50697868  0.18532063  0.87438917  1
  O  O71  1  0.50631188  0.30662386  0.12368560  1
  O  O72  1  0.72813424  0.32040290  0.00126010  1
  O  O73  1  0.74682423  0.71997661  0.75121228  1
  O  O74  1  0.74445886  0.96805341  0.25012787  1
  O  O75  1  0.74560270  0.14838986  0.12669535  1
  O  O76  1  0.74164976  0.02493091  0.87991736  1
  O  O77  1  0.73825081  0.78025986  0.37749818  1
  O  O78  1  0.75590333  0.40718795  0.63159581  1
  O  O79  1  0.75721337  0.58304975  0.49771985  1
  O  O80  1  0.74278663  0.08304975  0.49771985  1
  O  O81  1  0.76174919  0.28025986  0.37749818  1
  O  O82  1  0.74409667  0.90718795  0.63159581  1
  O  O83  1  0.75439730  0.64838986  0.12669535  1
  O  O84  1  0.75835024  0.52493091  0.87991736  1
  O  O85  1  0.75317577  0.21997661  0.75121228  1
  O  O86  1  0.75554114  0.46805341  0.25012787  1
  O  O87  1  0.77186576  0.82040290  0.00126010  1
  O  O88  1  0.99302132  0.68532063  0.87438917  1
  O  O89  1  0.99368812  0.80662386  0.12368560  1
  O  O90  1  0.99902856  0.56543884  0.61731357  1
  O  O91  1  0.00029930  0.93196299  0.36223757  1
