# generated using pymatgen
data_Nb14S5
_symmetry_space_group_name_H-M   'P 1'
_cell_length_a   3.40444129
_cell_length_b   18.67755272
_cell_length_c   19.98921723
_cell_angle_alpha   90.00000000
_cell_angle_beta   90.00000000
_cell_angle_gamma   90.00000000
_symmetry_Int_Tables_number   1
_chemical_formula_structural   Nb14S5
_chemical_formula_sum   'Nb56 S20'
_cell_volume   1271.04699350
_cell_formula_units_Z   4
loop_
 _symmetry_equiv_pos_site_id
 _symmetry_equiv_pos_as_xyz
  1  'x, y, z'
loop_
 _atom_site_type_symbol
 _atom_site_label
 _atom_site_symmetry_multiplicity
 _atom_site_fract_x
 _atom_site_fract_y
 _atom_site_fract_z
 _atom_site_occupancy
  Nb  Nb0  1  0.25000000  0.96660944  0.45586669  1
  Nb  Nb1  1  0.25000000  0.00940751  0.77332404  1
  Nb  Nb2  1  0.25000000  0.44777427  0.38492918  1
  Nb  Nb3  1  0.75000000  0.89733884  0.36435001  1
  Nb  Nb4  1  0.75000000  0.36171323  0.98066580  1
  Nb  Nb5  1  0.75000000  0.54991707  0.44942256  1
  Nb  Nb6  1  0.25000000  0.10266116  0.63564999  1
  Nb  Nb7  1  0.75000000  0.32873194  0.34847439  1
  Nb  Nb8  1  0.25000000  0.75576713  0.79604379  1
  Nb  Nb9  1  0.25000000  0.93003059  0.62143723  1
  Nb  Nb10  1  0.25000000  0.20024032  0.32278007  1
  Nb  Nb11  1  0.25000000  0.45008293  0.55057744  1
  Nb  Nb12  1  0.25000000  0.35876842  0.24233437  1
  Nb  Nb13  1  0.75000000  0.06996941  0.37856277  1
  Nb  Nb14  1  0.75000000  0.55222573  0.61507082  1
  Nb  Nb15  1  0.75000000  0.14123158  0.74233437  1
  Nb  Nb16  1  0.75000000  0.21931983  0.58153931  1
  Nb  Nb17  1  0.75000000  0.05222573  0.88492918  1
  Nb  Nb18  1  0.75000000  0.04991707  0.05057744  1
  Nb  Nb19  1  0.75000000  0.53339056  0.95586669  1
  Nb  Nb20  1  0.75000000  0.86171323  0.51933420  1
  Nb  Nb21  1  0.75000000  0.79975968  0.67721993  1
  Nb  Nb22  1  0.75000000  0.38228193  0.66619179  1
  Nb  Nb23  1  0.75000000  0.99059249  0.22667596  1
  Nb  Nb24  1  0.75000000  0.20183738  0.96593061  1
  Nb  Nb25  1  0.25000000  0.63828677  0.01933420  1
  Nb  Nb26  1  0.25000000  0.17126806  0.84847439  1
  Nb  Nb27  1  0.25000000  0.61771807  0.33380821  1
  Nb  Nb28  1  0.25000000  0.94777427  0.11507082  1
  Nb  Nb29  1  0.25000000  0.13828677  0.48066580  1
  Nb  Nb30  1  0.75000000  0.29975968  0.82278007  1
  Nb  Nb31  1  0.75000000  0.03339056  0.54413331  1
  Nb  Nb32  1  0.25000000  0.95008293  0.94942256  1
  Nb  Nb33  1  0.75000000  0.24423287  0.20395621  1
  Nb  Nb34  1  0.75000000  0.49059249  0.27332404  1
  Nb  Nb35  1  0.25000000  0.70024032  0.17721993  1
  Nb  Nb36  1  0.25000000  0.28068017  0.08153931  1
  Nb  Nb37  1  0.25000000  0.29816262  0.46593061  1
  Nb  Nb38  1  0.75000000  0.70183738  0.53406939  1
  Nb  Nb39  1  0.25000000  0.43003059  0.87856277  1
  Nb  Nb40  1  0.25000000  0.46660944  0.04413331  1
  Nb  Nb41  1  0.25000000  0.67126806  0.65152561  1
  Nb  Nb42  1  0.25000000  0.50940751  0.72667596  1
  Nb  Nb43  1  0.75000000  0.71931983  0.91846069  1
  Nb  Nb44  1  0.75000000  0.39733884  0.13564999  1
  Nb  Nb45  1  0.75000000  0.56996941  0.12143723  1
  Nb  Nb46  1  0.25000000  0.60266116  0.86435001  1
  Nb  Nb47  1  0.75000000  0.88228193  0.83380821  1
  Nb  Nb48  1  0.25000000  0.85876842  0.25766563  1
  Nb  Nb49  1  0.25000000  0.78068017  0.41846069  1
  Nb  Nb50  1  0.25000000  0.79816262  0.03406939  1
  Nb  Nb51  1  0.25000000  0.11771807  0.16619179  1
  Nb  Nb52  1  0.75000000  0.82873194  0.15152561  1
  Nb  Nb53  1  0.25000000  0.25576713  0.70395621  1
  Nb  Nb54  1  0.75000000  0.64123158  0.75766563  1
  Nb  Nb55  1  0.75000000  0.74423287  0.29604379  1
  S  S56  1  0.25000000  0.59734486  0.53339434  1
  S  S57  1  0.75000000  0.40265514  0.46660566  1
  S  S58  1  0.25000000  0.87976594  0.73903097  1
  S  S59  1  0.25000000  0.37976594  0.76096903  1
  S  S60  1  0.25000000  0.78975554  0.57957352  1
  S  S61  1  0.25000000  0.09734486  0.96660566  1
  S  S62  1  0.75000000  0.62023406  0.23903097  1
  S  S63  1  0.75000000  0.90265514  0.03339434  1
  S  S64  1  0.75000000  0.67724215  0.41096986  1
  S  S65  1  0.75000000  0.17724215  0.08903014  1
  S  S66  1  0.75000000  0.01454299  0.67754610  1
  S  S67  1  0.25000000  0.98545701  0.32245390  1
  S  S68  1  0.25000000  0.28975554  0.92042648  1
  S  S69  1  0.25000000  0.48545701  0.17754610  1
  S  S70  1  0.75000000  0.71024446  0.07957352  1
  S  S71  1  0.75000000  0.21024446  0.42042648  1
  S  S72  1  0.25000000  0.82275785  0.91096986  1
  S  S73  1  0.25000000  0.32275785  0.58903014  1
  S  S74  1  0.75000000  0.12023406  0.26096903  1
  S  S75  1  0.75000000  0.51454299  0.82245390  1
