# generated using pymatgen
data_CuH12N2(OF2)2
_symmetry_space_group_name_H-M   'P 1'
_cell_length_a   7.13983290
_cell_length_b   7.13983290
_cell_length_c   7.33736354
_cell_angle_alpha   75.04659959
_cell_angle_beta   104.95340041
_cell_angle_gamma   99.30007702
_symmetry_Int_Tables_number   1
_chemical_formula_structural   CuH12N2(OF2)2
_chemical_formula_sum   'Cu2 H24 N4 O4 F8'
_cell_volume   347.32055653
_cell_formula_units_Z   2
loop_
 _symmetry_equiv_pos_site_id
 _symmetry_equiv_pos_as_xyz
  1  'x, y, z'
loop_
 _atom_site_type_symbol
 _atom_site_label
 _atom_site_symmetry_multiplicity
 _atom_site_fract_x
 _atom_site_fract_y
 _atom_site_fract_z
 _atom_site_occupancy
  Cu  Cu0  1  0.19967408  0.19967408  0.25000000  1
  Cu  Cu1  1  0.80032592  0.80032592  0.75000000  1
  H  H2  1  0.63283506  0.15369557  0.91793931  1
  H  H3  1  0.15369557  0.63283506  0.58206069  1
  H  H4  1  0.36716494  0.84630443  0.08206069  1
  H  H5  1  0.84630443  0.36716494  0.41793931  1
  H  H6  1  0.53630822  0.19544847  0.09085984  1
  H  H7  1  0.19544847  0.53630822  0.40914016  1
  H  H8  1  0.46369178  0.80455153  0.90914016  1
  H  H9  1  0.80455153  0.46369178  0.59085984  1
  H  H10  1  0.77584494  0.26413327  0.09953371  1
  H  H11  1  0.26413327  0.77584494  0.40046629  1
  H  H12  1  0.22415506  0.73586673  0.90046629  1
  H  H13  1  0.73586673  0.22415506  0.59953371  1
  H  H14  1  0.60937402  0.38611758  0.91850575  1
  H  H15  1  0.38611758  0.60937402  0.58149425  1
  H  H16  1  0.39062598  0.61388242  0.08149425  1
  H  H17  1  0.61388242  0.39062598  0.41850575  1
  H  H18  1  0.08601465  0.16470107  0.89359431  1
  H  H19  1  0.16470107  0.08601465  0.60640569  1
  H  H20  1  0.91398535  0.83529893  0.10640569  1
  H  H21  1  0.83529893  0.91398535  0.39359431  1
  H  H22  1  0.09619425  0.39677115  0.88872157  1
  H  H23  1  0.39677115  0.09619425  0.61127843  1
  H  H24  1  0.90380575  0.60322885  0.11127843  1
  H  H25  1  0.60322885  0.90380575  0.38872157  1
  N  N26  1  0.63941611  0.24904546  0.00845440  1
  N  N27  1  0.24904546  0.63941611  0.49154560  1
  N  N28  1  0.36058389  0.75095454  0.99154560  1
  N  N29  1  0.75095454  0.36058389  0.50845440  1
  O  O30  1  0.14723172  0.26833529  0.96597227  1
  O  O31  1  0.26833529  0.14723172  0.53402773  1
  O  O32  1  0.85276828  0.73166471  0.03402773  1
  O  O33  1  0.73166471  0.85276828  0.46597227  1
  F  F34  1  0.41155732  0.41155732  0.25000000  1
  F  F35  1  0.58844268  0.58844268  0.75000000  1
  F  F36  1  0.98756705  0.98756705  0.25000000  1
  F  F37  1  0.01243295  0.01243295  0.75000000  1
  F  F38  1  0.96706661  0.41058168  0.25050891  1
  F  F39  1  0.41058168  0.96706661  0.24949109  1
  F  F40  1  0.03293339  0.58941832  0.74949109  1
  F  F41  1  0.58941832  0.03293339  0.75050891  1
