# generated using pymatgen
data_Bi9Rh2Br3
_symmetry_space_group_name_H-M   'P 1'
_cell_length_a   9.43783056
_cell_length_b   13.88328103
_cell_length_c   20.24333996
_cell_angle_alpha   90.00000000
_cell_angle_beta   100.98004893
_cell_angle_gamma   90.00000000
_symmetry_Int_Tables_number   1
_chemical_formula_structural   Bi9Rh2Br3
_chemical_formula_sum   'Bi54 Rh12 Br18'
_cell_volume   2603.88862330
_cell_formula_units_Z   6
loop_
 _symmetry_equiv_pos_site_id
 _symmetry_equiv_pos_as_xyz
  1  'x, y, z'
loop_
 _atom_site_type_symbol
 _atom_site_label
 _atom_site_symmetry_multiplicity
 _atom_site_fract_x
 _atom_site_fract_y
 _atom_site_fract_z
 _atom_site_occupancy
  Bi  Bi0  1  0.29769578  0.25000000  0.36068974  1
  Bi  Bi1  1  0.47289406  0.63475733  0.39511907  1
  Bi  Bi2  1  0.49252492  0.46601236  0.11641166  1
  Bi  Bi3  1  0.79679001  0.13470223  0.26186674  1
  Bi  Bi4  1  0.94184942  0.53102006  0.39126233  1
  Bi  Bi5  1  0.47289406  0.86524267  0.39511907  1
  Bi  Bi6  1  0.50747508  0.53398764  0.88358834  1
  Bi  Bi7  1  0.96977894  0.75000000  0.30304925  1
  Bi  Bi8  1  0.25445880  0.46768313  0.94457970  1
  Bi  Bi9  1  0.47533619  0.25000000  0.88658916  1
  Bi  Bi10  1  0.24687578  0.46281494  0.44734240  1
  Bi  Bi11  1  0.03430130  0.96444154  0.21564334  1
  Bi  Bi12  1  0.96569870  0.46444154  0.78435666  1
  Bi  Bi13  1  0.21356841  0.75000000  0.44483445  1
  Bi  Bi14  1  0.03430130  0.53555846  0.21564334  1
  Bi  Bi15  1  0.75312422  0.53718506  0.55265760  1
  Bi  Bi16  1  0.06569237  0.25000000  0.21768643  1
  Bi  Bi17  1  0.20320999  0.86529777  0.73813326  1
  Bi  Bi18  1  0.75312422  0.96281494  0.55265760  1
  Bi  Bi19  1  0.05815058  0.46897994  0.60873767  1
  Bi  Bi20  1  0.25445880  0.03231687  0.94457970  1
  Bi  Bi21  1  0.66432116  0.96546692  0.72289618  1
  Bi  Bi22  1  0.03154579  0.75000000  0.60900238  1
  Bi  Bi23  1  0.93430763  0.75000000  0.78231357  1
  Bi  Bi24  1  0.66432116  0.53453308  0.72289618  1
  Bi  Bi25  1  0.96569870  0.03555846  0.78435666  1
  Bi  Bi26  1  0.49252492  0.03398764  0.11641166  1
  Bi  Bi27  1  0.79679001  0.36529777  0.26186674  1
  Bi  Bi28  1  0.28955665  0.75000000  0.93881188  1
  Bi  Bi29  1  0.52710594  0.13475733  0.60488093  1
  Bi  Bi30  1  0.71044335  0.25000000  0.06118812  1
  Bi  Bi31  1  0.33567884  0.03453308  0.27710382  1
  Bi  Bi32  1  0.78183330  0.36520741  0.93384110  1
  Bi  Bi33  1  0.78183330  0.13479259  0.93384110  1
  Bi  Bi34  1  0.21816670  0.63479259  0.06615890  1
  Bi  Bi35  1  0.78643159  0.25000000  0.55516555  1
  Bi  Bi36  1  0.94184942  0.96897994  0.39126233  1
  Bi  Bi37  1  0.29437729  0.75000000  0.26895899  1
  Bi  Bi38  1  0.03022106  0.25000000  0.69695075  1
  Bi  Bi39  1  0.74554120  0.96768313  0.05542030  1
  Bi  Bi40  1  0.70562271  0.25000000  0.73104101  1
  Bi  Bi41  1  0.21816670  0.86520741  0.06615890  1
  Bi  Bi42  1  0.35645292  0.25000000  0.03030036  1
  Bi  Bi43  1  0.50747508  0.96601236  0.88358834  1
  Bi  Bi44  1  0.52466381  0.75000000  0.11341084  1
  Bi  Bi45  1  0.52710594  0.36524267  0.60488093  1
  Bi  Bi46  1  0.20320999  0.63470223  0.73813326  1
  Bi  Bi47  1  0.74554120  0.53231687  0.05542030  1
  Bi  Bi48  1  0.05815058  0.03102006  0.60873767  1
  Bi  Bi49  1  0.64354708  0.75000000  0.96969964  1
  Bi  Bi50  1  0.33567884  0.46546692  0.27710382  1
  Bi  Bi51  1  0.70230422  0.75000000  0.63931026  1
  Bi  Bi52  1  0.96845421  0.25000000  0.39099762  1
  Bi  Bi53  1  0.24687578  0.03718506  0.44734240  1
  Rh  Rh54  1  0.53479854  0.39880823  0.98897047  1
  Rh  Rh55  1  0.18089932  0.60049635  0.34282096  1
  Rh  Rh56  1  0.46520146  0.89880823  0.01102953  1
  Rh  Rh57  1  0.08707533  0.10026459  0.32036930  1
  Rh  Rh58  1  0.46520146  0.60119177  0.01102953  1
  Rh  Rh59  1  0.91292467  0.89973541  0.67963070  1
  Rh  Rh60  1  0.53479854  0.10119177  0.98897047  1
  Rh  Rh61  1  0.81910068  0.10049635  0.65717904  1
  Rh  Rh62  1  0.08707533  0.39973541  0.32036930  1
  Rh  Rh63  1  0.81910068  0.39950365  0.65717904  1
  Rh  Rh64  1  0.18089932  0.89950365  0.34282096  1
  Rh  Rh65  1  0.91292467  0.60026459  0.67963070  1
  Br  Br66  1  0.35595980  0.39614640  0.73929245  1
  Br  Br67  1  0.64404020  0.89614640  0.26070755  1
  Br  Br68  1  0.57486984  0.75000000  0.79987455  1
  Br  Br69  1  0.64404020  0.60385360  0.26070755  1
  Br  Br70  1  0.89687355  0.75000000  0.12768807  1
  Br  Br71  1  0.10312645  0.25000000  0.87231193  1
  Br  Br72  1  0.06247685  0.10604947  0.07408439  1
  Br  Br73  1  0.93752315  0.60604947  0.92591561  1
  Br  Br74  1  0.17236364  0.25000000  0.54284078  1
  Br  Br75  1  0.36410344  0.60485800  0.58857564  1
  Br  Br76  1  0.63589656  0.10485800  0.41142436  1
  Br  Br77  1  0.82763636  0.75000000  0.45715922  1
  Br  Br78  1  0.35595980  0.10385360  0.73929245  1
  Br  Br79  1  0.93752315  0.89395053  0.92591561  1
  Br  Br80  1  0.42513016  0.25000000  0.20012545  1
  Br  Br81  1  0.06247685  0.39395053  0.07408439  1
  Br  Br82  1  0.63589656  0.39514200  0.41142436  1
  Br  Br83  1  0.36410344  0.89514200  0.58857564  1
