# generated using pymatgen
data_Ce2Mg17
_symmetry_space_group_name_H-M   'P 1'
_cell_length_a   10.31898312
_cell_length_b   10.31898319
_cell_length_c   10.15651633
_cell_angle_alpha   90.00000000
_cell_angle_beta   90.00000000
_cell_angle_gamma   119.99999979
_symmetry_Int_Tables_number   1
_chemical_formula_structural   Ce2Mg17
_chemical_formula_sum   'Ce4 Mg34'
_cell_volume   936.58934034
_cell_formula_units_Z   2
loop_
 _symmetry_equiv_pos_site_id
 _symmetry_equiv_pos_as_xyz
  1  'x, y, z'
loop_
 _atom_site_type_symbol
 _atom_site_label
 _atom_site_symmetry_multiplicity
 _atom_site_fract_x
 _atom_site_fract_y
 _atom_site_fract_z
 _atom_site_occupancy
  Ce  Ce0  1  0.00000000  0.00000000  0.25000000  1
  Ce  Ce1  1  0.00000000  0.00000000  0.75000000  1
  Ce  Ce2  1  0.66666700  0.33333300  0.25000000  1
  Ce  Ce3  1  0.33333300  0.66666700  0.75000000  1
  Mg  Mg4  1  0.50000000  0.00000000  0.50000000  1
  Mg  Mg5  1  0.50000000  0.50000000  0.50000000  1
  Mg  Mg6  1  0.83476066  0.16523934  0.49789874  1
  Mg  Mg7  1  0.33047868  0.16523934  0.00210126  1
  Mg  Mg8  1  0.16523934  0.33047868  0.50210126  1
  Mg  Mg9  1  0.66709638  0.66223095  0.75000000  1
  Mg  Mg10  1  0.66666700  0.33333300  0.89470415  1
  Mg  Mg11  1  0.33333300  0.66666700  0.39470415  1
  Mg  Mg12  1  0.66952132  0.83476066  0.99789874  1
  Mg  Mg13  1  0.33776905  0.33290362  0.75000000  1
  Mg  Mg14  1  0.00486543  0.33776905  0.25000000  1
  Mg  Mg15  1  0.83476066  0.16523934  0.00210126  1
  Mg  Mg16  1  0.66223095  0.99513457  0.25000000  1
  Mg  Mg17  1  0.99513457  0.66223095  0.75000000  1
  Mg  Mg18  1  0.33047868  0.16523934  0.49789874  1
  Mg  Mg19  1  0.83476066  0.66952132  0.49789874  1
  Mg  Mg20  1  0.16523934  0.33047868  0.99789874  1
  Mg  Mg21  1  0.83476066  0.66952132  0.00210126  1
  Mg  Mg22  1  0.66666700  0.33333300  0.60529585  1
  Mg  Mg23  1  0.66952132  0.83476066  0.50210126  1
  Mg  Mg24  1  0.00000000  0.50000000  0.00000000  1
  Mg  Mg25  1  0.33290362  0.99513457  0.25000000  1
  Mg  Mg26  1  0.33290362  0.33776905  0.25000000  1
  Mg  Mg27  1  0.33333300  0.66666700  0.10529585  1
  Mg  Mg28  1  0.16523934  0.83476066  0.50210126  1
  Mg  Mg29  1  0.00486543  0.66709638  0.25000000  1
  Mg  Mg30  1  0.66709638  0.00486543  0.75000000  1
  Mg  Mg31  1  0.16523934  0.83476066  0.99789874  1
  Mg  Mg32  1  0.66223095  0.66709638  0.25000000  1
  Mg  Mg33  1  0.50000000  0.50000000  0.00000000  1
  Mg  Mg34  1  0.99513457  0.33290362  0.75000000  1
  Mg  Mg35  1  0.33776905  0.00486543  0.75000000  1
  Mg  Mg36  1  0.00000000  0.50000000  0.50000000  1
  Mg  Mg37  1  0.50000000  0.00000000  0.00000000  1
