# generated using pymatgen
data_Ti7Fe13O30
_symmetry_space_group_name_H-M   'P 1'
_cell_length_a   5.54231840
_cell_length_b   27.91235643
_cell_length_c   15.02454922
_cell_angle_alpha   17.68709614
_cell_angle_beta   50.72151239
_cell_angle_gamma   55.17075120
_symmetry_Int_Tables_number   1
_chemical_formula_structural   Ti7Fe13O30
_chemical_formula_sum   'Ti7 Fe13 O30'
_cell_volume   541.52978056
_cell_formula_units_Z   1
loop_
 _symmetry_equiv_pos_site_id
 _symmetry_equiv_pos_as_xyz
  1  'x, y, z'
loop_
 _atom_site_type_symbol
 _atom_site_label
 _atom_site_symmetry_multiplicity
 _atom_site_fract_x
 _atom_site_fract_y
 _atom_site_fract_z
 _atom_site_occupancy
  Ti  Ti0  1  0.85714315  0.04022976  0.83269692  1
  Ti  Ti1  1  0.13587352  0.76859738  0.15017618  1
  Ti  Ti2  1  0.85023699  0.23941404  0.83662880  1
  Ti  Ti3  1  0.85007653  0.42586098  0.85911204  1
  Ti  Ti4  1  0.35842771  0.92911800  0.35330292  1
  Ti  Ti5  1  0.86746889  0.62399431  0.85696885  1
  Ti  Ti6  1  0.84734734  0.82418303  0.86546238  1
  Fe  Fe7  1  0.14461469  0.17056581  0.14894420  1
  Fe  Fe8  1  0.36392840  0.13112636  0.34925838  1
  Fe  Fe9  1  0.14926572  0.37098768  0.14567717  1
  Fe  Fe10  1  0.35644991  0.32557832  0.36153327  1
  Fe  Fe11  1  0.64266498  0.06768166  0.64938573  1
  Fe  Fe12  1  0.15035603  0.56906997  0.14808657  1
  Fe  Fe13  1  0.35940704  0.52595038  0.35933852  1
  Fe  Fe14  1  0.63889686  0.27674713  0.63567029  1
  Fe  Fe15  1  0.34281949  0.72926766  0.35782628  1
  Fe  Fe16  1  0.64147770  0.46982976  0.64970909  1
  Fe  Fe17  1  0.14947241  0.97088723  0.14522466  1
  Fe  Fe18  1  0.65856886  0.67294202  0.63634719  1
  Fe  Fe19  1  0.64578182  0.87092422  0.64513758  1
  O  O20  1  0.73018180  0.05455105  0.08030863  1
  O  O21  1  0.57287390  0.08948102  0.24048433  1
  O  O22  1  0.04837894  0.16960324  0.45880853  1
  O  O23  1  0.76178972  0.27053475  0.04911369  1
  O  O24  1  0.56868638  0.30494829  0.21460788  1
  O  O25  1  0.04870348  0.36961695  0.45808836  1
  O  O26  1  0.94378737  0.01612708  0.56799911  1
  O  O27  1  0.44988846  0.09916919  0.77044923  1
  O  O28  1  0.76454252  0.47948415  0.03444137  1
  O  O29  1  0.21454514  0.12459814  0.96712824  1
  O  O30  1  0.56883203  0.50451904  0.21277158  1
  O  O31  1  0.05921993  0.58488816  0.42742274  1
  O  O32  1  0.94725530  0.21460185  0.57398845  1
  O  O33  1  0.44985945  0.30277078  0.76880655  1
  O  O34  1  0.76625677  0.67746340  0.03468622  1
  O  O35  1  0.21851342  0.33286867  0.95209806  1
  O  O36  1  0.56788692  0.70430151  0.21804832  1
  O  O37  1  0.06872057  0.77365599  0.44301248  1
  O  O38  1  0.94979785  0.41745501  0.56905457  1
  O  O39  1  0.44239009  0.51616888  0.74452531  1
  O  O40  1  0.75781270  0.85476775  0.07460463  1
  O  O41  1  0.22355338  0.53487180  0.95103773  1
  O  O42  1  0.55679359  0.90152842  0.22951649  1
  O  O43  1  0.06428038  0.97324451  0.43527348  1
  O  O44  1  0.97276685  0.61967837  0.55642526  1
  O  O45  1  0.43367677  0.72560416  0.72964283  1
  O  O46  1  0.23690547  0.74052217  0.93544938  1
  O  O47  1  0.94562983  0.82020356  0.56773993  1
  O  O48  1  0.44368120  0.89738736  0.77629685  1
  O  O49  1  0.21251171  0.92242906  0.97168275  1
