# generated using pymatgen
data_Ba2Sm2Fe4O11
_symmetry_space_group_name_H-M   'P 1'
_cell_length_a   3.94164052
_cell_length_b   8.05248978
_cell_length_c   15.76706339
_cell_angle_alpha   89.99990945
_cell_angle_beta   89.99987030
_cell_angle_gamma   90.00001486
_symmetry_Int_Tables_number   1
_chemical_formula_structural   Ba2Sm2Fe4O11
_chemical_formula_sum   'Ba4 Sm4 Fe8 O22'
_cell_volume   500.44690740
_cell_formula_units_Z   2
loop_
 _symmetry_equiv_pos_site_id
 _symmetry_equiv_pos_as_xyz
  1  'x, y, z'
loop_
 _atom_site_type_symbol
 _atom_site_label
 _atom_site_symmetry_multiplicity
 _atom_site_fract_x
 _atom_site_fract_y
 _atom_site_fract_z
 _atom_site_occupancy
  Ba  Ba0  1  0.50004645  0.24998395  0.75000164  1
  Ba  Ba1  1  0.49995854  0.74999372  0.24999611  1
  Ba  Ba2  1  0.50004569  0.25000584  0.24999522  1
  Ba  Ba3  1  0.49994996  0.75001592  0.75000132  1
  Sm  Sm4  1  0.50080756  0.72852958  0.99999060  1
  Sm  Sm5  1  0.49918589  0.22854245  0.50001042  1
  Sm  Sm6  1  0.49919091  0.27146942  0.99999160  1
  Sm  Sm7  1  0.50081292  0.77145984  0.50001038  1
  Fe  Fe8  1  0.00000054  0.49999869  0.37608300  1
  Fe  Fe9  1  -0.00000001  0.00000130  0.87609273  1
  Fe  Fe10  1  0.00000375  0.50000009  0.12291039  1
  Fe  Fe11  1  0.00000100  0.50000211  0.87708235  1
  Fe  Fe12  1  -0.00000390  0.00000213  0.37709505  1
  Fe  Fe13  1  0.00000169  0.00000076  0.62291273  1
  Fe  Fe14  1  0.00000216  0.99999770  0.12392548  1
  Fe  Fe15  1  0.99999666  0.50000054  0.62392265  1
  O  O16  1  0.00006235  0.24121079  0.89704705  1
  O  O17  1  0.00006243  0.25879150  0.60295583  1
  O  O18  1  0.99999853  0.50000061  0.74748841  1
  O  O19  1  0.49999921  0.00000139  0.90966298  1
  O  O20  1  0.49999959  0.50000137  0.88395544  1
  O  O21  1  0.00006115  0.25879061  0.39705226  1
  O  O22  1  0.99993693  0.74120746  0.60295829  1
  O  O23  1  0.00000130  0.00000137  0.75252150  1
  O  O24  1  0.50000183  0.49999637  0.11602627  1
  O  O25  1  0.49999985  0.49999700  0.40970417  1
  O  O26  1  0.00000145  0.00000007  0.24748733  1
  O  O27  1  0.50000015  0.00000055  0.38396208  1
  O  O28  1  0.00006378  0.24120419  0.10294559  1
  O  O29  1  0.00000078  0.49999907  0.25251762  1
  O  O30  1  -0.00000021  0.50000208  -0.00000279  1
  O  O31  1  0.99993309  0.75879331  0.89704767  1
  O  O32  1  0.50000153  -0.00000013  0.61603747  1
  O  O33  1  0.49999725  0.50000139  0.59032123  1
  O  O34  1  0.00000563  0.99999934  0.50000472  1
  O  O35  1  0.99993688  0.74120856  0.39705466  1
  O  O36  1  0.99993714  0.75879157  0.10294824  1
  O  O37  1  0.49999957  0.99999749  0.09028228  1
