# generated using pymatgen
data_LiVO2
_symmetry_space_group_name_H-M   'P 1'
_cell_length_a   5.84071330
_cell_length_b   12.01317432
_cell_length_c   10.49409799
_cell_angle_alpha   29.12663165
_cell_angle_beta   56.17878775
_cell_angle_gamma   60.90770526
_symmetry_Int_Tables_number   1
_chemical_formula_structural   LiVO2
_chemical_formula_sum   'Li8 V8 O16'
_cell_volume   297.75040154
_cell_formula_units_Z   8
loop_
 _symmetry_equiv_pos_site_id
 _symmetry_equiv_pos_as_xyz
  1  'x, y, z'
loop_
 _atom_site_type_symbol
 _atom_site_label
 _atom_site_symmetry_multiplicity
 _atom_site_fract_x
 _atom_site_fract_y
 _atom_site_fract_z
 _atom_site_occupancy
  Li  Li0  1  0.12742778  0.25330773  0.12081736  1
  Li  Li1  1  0.12500063  0.49998264  0.12501714  1
  Li  Li2  1  0.12256908  0.25330849  0.62256957  1
  Li  Li3  1  0.12500032  0.49998683  0.62501285  1
  Li  Li4  1  0.62570166  0.74669761  0.12916995  1
  Li  Li5  1  0.62500077  0.50000065  0.62499891  1
  Li  Li6  1  0.62430458  0.74669779  0.62742931  1
  Li  Li7  1  0.62500089  0.00000037  0.62499955  1
  V  V8  1  0.12499881  -0.00000874  0.12501145  1
  V  V9  1  0.62499973  0.99995408  0.12504533  1
  V  V10  1  0.11907017  0.73989106  0.13590016  1
  V  V11  1  0.62058105  0.26012462  0.11410179  1
  V  V12  1  0.62499956  0.50001951  0.12498247  1
  V  V13  1  0.13091985  0.73988528  0.63432841  1
  V  V14  1  0.62941731  0.26012006  0.61565322  1
  V  V15  1  0.12500270  0.99994575  0.62505534  1
  O  O16  1  0.37366903  0.99996652  0.37629964  1
  O  O17  1  0.38886411  0.24463864  0.36443156  1
  O  O18  1  0.39294006  0.50003117  0.35699267  1
  O  O19  1  0.89119890  0.00004122  0.35875056  1
  O  O20  1  0.86113751  0.24463776  0.39629452  1
  O  O21  1  0.39068106  0.24058180  0.87201474  1
  O  O22  1  0.36590394  0.75944091  0.37791109  1
  O  O23  1  0.37782949  0.49998685  0.87218071  1
  O  O24  1  0.87217233  0.49998246  0.37784901  1
  O  O25  1  0.88409345  0.75944328  0.35320120  1
  O  O26  1  0.85931740  0.24058685  0.89681490  1
  O  O27  1  0.35704429  0.75535524  0.88552903  1
  O  O28  1  0.35880293  0.00004145  0.89116650  1
  O  O29  1  0.85706175  0.50003181  0.89294351  1
  O  O30  1  0.89295635  0.75534712  0.85376745  1
  O  O31  1  0.87633249  0.99997321  0.87376009  1
