# generated using pymatgen
data_P5HC(NCl6)3
_symmetry_space_group_name_H-M   'P 1'
_cell_length_a   13.84122577
_cell_length_b   13.84122577
_cell_length_c   15.41892557
_cell_angle_alpha   90.00000000
_cell_angle_beta   90.00000000
_cell_angle_gamma   106.21353889
_symmetry_Int_Tables_number   1
_chemical_formula_structural   P5HC(NCl6)3
_chemical_formula_sum   'P20 H4 C4 N12 Cl72'
_cell_volume   2836.46521945
_cell_formula_units_Z   4
loop_
 _symmetry_equiv_pos_site_id
 _symmetry_equiv_pos_as_xyz
  1  'x, y, z'
loop_
 _atom_site_type_symbol
 _atom_site_label
 _atom_site_symmetry_multiplicity
 _atom_site_fract_x
 _atom_site_fract_y
 _atom_site_fract_z
 _atom_site_occupancy
  P  P0  1  0.43615672  0.43615672  0.28894043  1
  P  P1  1  0.56384328  0.56384328  0.71105957  1
  P  P2  1  0.06384328  0.06384328  0.78894043  1
  P  P3  1  0.93615672  0.93615672  0.21105957  1
  P  P4  1  0.25749445  0.25749445  0.23756022  1
  P  P5  1  0.74250555  0.74250555  0.76243978  1
  P  P6  1  0.24250555  0.24250555  0.73756022  1
  P  P7  1  0.75749445  0.75749445  0.26243978  1
  P  P8  1  0.35911166  0.61449842  0.27187814  1
  P  P9  1  0.38550158  0.64088834  0.72812186  1
  P  P10  1  0.88550158  0.14088834  0.77187814  1
  P  P11  1  0.85911166  0.11449842  0.22812186  1
  P  P12  1  0.64088834  0.38550158  0.72812186  1
  P  P13  1  0.61449842  0.35911166  0.27187814  1
  P  P14  1  0.11449842  0.85911166  0.22812186  1
  P  P15  1  0.14088834  0.88550158  0.77187814  1
  P  P16  1  0.00000000  0.50000000  0.50000000  1
  P  P17  1  0.50000000  0.00000000  0.50000000  1
  P  P18  1  0.00000000  0.50000000  0.00000000  1
  P  P19  1  0.50000000  0.00000000  0.00000000  1
  H  H20  1  0.00011453  0.00011453  0.60096446  1
  H  H21  1  0.99988547  0.99988547  0.39903554  1
  H  H22  1  0.49988547  0.49988547  0.10096446  1
  H  H23  1  0.50011453  0.50011453  0.89903554  1
  C  C24  1  0.03081361  0.03081361  0.53731740  1
  C  C25  1  0.96918639  0.96918639  0.46268260  1
  C  C26  1  0.46918639  0.46918639  0.03731740  1
  C  C27  1  0.53081361  0.53081361  0.96268260  1
  N  N28  1  0.35000914  0.35000914  0.24399248  1
  N  N29  1  0.64999086  0.64999086  0.75600752  1
  N  N30  1  0.14999086  0.14999086  0.74399248  1
  N  N31  1  0.85000914  0.85000914  0.25600752  1
  N  N32  1  0.43165291  0.54676728  0.26349692  1
  N  N33  1  0.45323272  0.56834709  0.73650308  1
  N  N34  1  0.95323272  0.06834709  0.76349692  1
  N  N35  1  0.93165291  0.04676728  0.23650308  1
  N  N36  1  0.56834709  0.45323272  0.73650308  1
  N  N37  1  0.54676728  0.43165291  0.26349692  1
  N  N38  1  0.04676728  0.93165291  0.23650308  1
  N  N39  1  0.06834709  0.95323272  0.76349692  1
  Cl  Cl40  1  0.41839471  0.41839471  0.41962679  1
  Cl  Cl41  1  0.58160529  0.58160529  0.58037321  1
  Cl  Cl42  1  0.08160529  0.08160529  0.91962679  1
  Cl  Cl43  1  0.91839471  0.91839471  0.08037321  1
  Cl  Cl44  1  0.19989051  0.19989051  0.35139181  1
  Cl  Cl45  1  0.80010949  0.80010949  0.64860819  1
  Cl  Cl46  1  0.30010949  0.30010949  0.85139181  1
  Cl  Cl47  1  0.69989051  0.69989051  0.14860819  1
  Cl  Cl48  1  0.14377244  0.28517390  0.17236330  1
  Cl  Cl49  1  0.71482610  0.85622756  0.82763670  1
  Cl  Cl50  1  0.21482610  0.35622756  0.67236330  1
  Cl  Cl51  1  0.64377244  0.78517390  0.32763670  1
  Cl  Cl52  1  0.85622756  0.71482610  0.82763670  1
  Cl  Cl53  1  0.28517390  0.14377244  0.17236330  1
  Cl  Cl54  1  0.78517390  0.64377244  0.32763670  1
  Cl  Cl55  1  0.35622756  0.21482610  0.67236330  1
  Cl  Cl56  1  0.36830789  0.68586140  0.38564658  1
  Cl  Cl57  1  0.31413860  0.63169211  0.61435342  1
  Cl  Cl58  1  0.81413860  0.13169211  0.88564658  1
  Cl  Cl59  1  0.86830789  0.18586140  0.11435342  1
  Cl  Cl60  1  0.63169211  0.31413860  0.61435342  1
  Cl  Cl61  1  0.68586140  0.36830789  0.38564658  1
  Cl  Cl62  1  0.18586140  0.86830789  0.11435342  1
  Cl  Cl63  1  0.13169211  0.81413860  0.88564658  1
  Cl  Cl64  1  0.21339661  0.54579892  0.25579270  1
  Cl  Cl65  1  0.45420108  0.78660339  0.74420730  1
  Cl  Cl66  1  0.95420108  0.28660339  0.75579270  1
  Cl  Cl67  1  0.71339661  0.04579892  0.24420730  1
  Cl  Cl68  1  0.78660339  0.45420108  0.74420730  1
  Cl  Cl69  1  0.54579892  0.21339661  0.25579270  1
  Cl  Cl70  1  0.04579892  0.71339661  0.24420730  1
  Cl  Cl71  1  0.28660339  0.95420108  0.75579270  1
  Cl  Cl72  1  0.39251718  0.72370951  0.18374654  1
  Cl  Cl73  1  0.27629049  0.60748282  0.81625346  1
  Cl  Cl74  1  0.77629049  0.10748282  0.68374654  1
  Cl  Cl75  1  0.89251718  0.22370951  0.31625346  1
  Cl  Cl76  1  0.60748282  0.27629049  0.81625346  1
  Cl  Cl77  1  0.72370951  0.39251718  0.18374654  1
  Cl  Cl78  1  0.22370951  0.89251718  0.31625346  1
  Cl  Cl79  1  0.10748282  0.77629049  0.68374654  1
  Cl  Cl80  1  0.96105170  0.48813358  0.36266279  1
  Cl  Cl81  1  0.51186642  0.03894830  0.63733721  1
  Cl  Cl82  1  0.01186642  0.53894830  0.86266279  1
  Cl  Cl83  1  0.46105170  0.98813358  0.13733721  1
  Cl  Cl84  1  0.03894830  0.51186642  0.63733721  1
  Cl  Cl85  1  0.48813358  0.96105170  0.36266279  1
  Cl  Cl86  1  0.98813358  0.46105170  0.13733721  1
  Cl  Cl87  1  0.53894830  0.01186642  0.86266279  1
  Cl  Cl88  1  0.11969168  0.43062955  0.47469151  1
  Cl  Cl89  1  0.56937045  0.88030832  0.52530849  1
  Cl  Cl90  1  0.06937045  0.38030832  0.97469151  1
  Cl  Cl91  1  0.61969168  0.93062955  0.02530849  1
  Cl  Cl92  1  0.88030832  0.56937045  0.52530849  1
  Cl  Cl93  1  0.43062955  0.11969168  0.47469151  1
  Cl  Cl94  1  0.93062955  0.61969168  0.02530849  1
  Cl  Cl95  1  0.38030832  0.06937045  0.97469151  1
  Cl  Cl96  1  0.10375598  0.64723166  0.47737139  1
  Cl  Cl97  1  0.35276834  0.89624402  0.52262861  1
  Cl  Cl98  1  0.85276834  0.39624402  0.97737139  1
  Cl  Cl99  1  0.60375598  0.14723166  0.02262861  1
  Cl  Cl100  1  0.89624402  0.35276834  0.52262861  1
  Cl  Cl101  1  0.64723166  0.10375598  0.47737139  1
  Cl  Cl102  1  0.14723166  0.60375598  0.02262861  1
  Cl  Cl103  1  0.39624402  0.85276834  0.97737139  1
  Cl  Cl104  1  0.02618404  0.15827085  0.53158736  1
  Cl  Cl105  1  0.84172915  0.97381596  0.46841264  1
  Cl  Cl106  1  0.34172915  0.47381596  0.03158736  1
  Cl  Cl107  1  0.52618404  0.65827085  0.96841264  1
  Cl  Cl108  1  0.97381596  0.84172915  0.46841264  1
  Cl  Cl109  1  0.15827085  0.02618404  0.53158736  1
  Cl  Cl110  1  0.65827085  0.52618404  0.96841264  1
  Cl  Cl111  1  0.47381596  0.34172915  0.03158736  1
