# generated using pymatgen
data_Li3V4P9O32
_symmetry_space_group_name_H-M   'P 1'
_cell_length_a   13.77768768
_cell_length_b   13.77768768
_cell_length_c   6.34549313
_cell_angle_alpha   90.00000000
_cell_angle_beta   90.00000000
_cell_angle_gamma   90.00000000
_symmetry_Int_Tables_number   1
_chemical_formula_structural   Li3V4P9O32
_chemical_formula_sum   'Li6 V8 P18 O64'
_cell_volume   1204.53118893
_cell_formula_units_Z   2
loop_
 _symmetry_equiv_pos_site_id
 _symmetry_equiv_pos_as_xyz
  1  'x, y, z'
loop_
 _atom_site_type_symbol
 _atom_site_label
 _atom_site_symmetry_multiplicity
 _atom_site_fract_x
 _atom_site_fract_y
 _atom_site_fract_z
 _atom_site_occupancy
  Li  Li0  1  0.50000000  0.00000000  0.35810862  1
  Li  Li1  1  0.00000000  0.50000000  0.14189138  1
  Li  Li2  1  0.50000000  0.00000000  0.85810862  1
  Li  Li3  1  0.50000000  0.50000000  0.50000000  1
  Li  Li4  1  0.00000000  0.50000000  0.64189138  1
  Li  Li5  1  0.00000000  0.00000000  0.00000000  1
  V  V6  1  0.80357039  0.11820362  0.37780599  1
  V  V7  1  0.30357039  0.38179638  0.12219401  1
  V  V8  1  0.11820362  0.19642961  0.62219401  1
  V  V9  1  0.88179638  0.80357039  0.62219401  1
  V  V10  1  0.19642961  0.88179638  0.37780599  1
  V  V11  1  0.38179638  0.69642961  0.87780599  1
  V  V12  1  0.61820362  0.30357039  0.87780599  1
  V  V13  1  0.69642961  0.61820362  0.12219401  1
  P  P14  1  0.24662488  0.89413921  0.86765293  1
  P  P15  1  0.55989918  0.80426856  0.11211975  1
  P  P16  1  0.44010082  0.19573144  0.11211975  1
  P  P17  1  0.94010082  0.30426856  0.38788025  1
  P  P18  1  0.69573144  0.94010082  0.61211975  1
  P  P19  1  0.05989918  0.69573144  0.38788025  1
  P  P20  1  0.50000000  0.50000000  0.00000000  1
  P  P21  1  0.30426856  0.05989918  0.61211975  1
  P  P22  1  0.00000000  0.00000000  0.50000000  1
  P  P23  1  0.25337512  0.39413921  0.63234707  1
  P  P24  1  0.10586079  0.24662488  0.13234707  1
  P  P25  1  0.19573144  0.55989918  0.88788025  1
  P  P26  1  0.39413921  0.74662488  0.36765293  1
  P  P27  1  0.89413921  0.75337512  0.13234707  1
  P  P28  1  0.60586079  0.25337512  0.36765293  1
  P  P29  1  0.80426856  0.44010082  0.88788025  1
  P  P30  1  0.74662488  0.60586079  0.63234707  1
  P  P31  1  0.75337512  0.10586079  0.86765293  1
  O  O32  1  0.25081752  0.00515610  0.43090472  1
  O  O33  1  0.99491080  0.27759234  0.16964545  1
  O  O34  1  0.25419776  0.15936689  0.63821745  1
  O  O35  1  0.68852319  0.60234179  0.42806151  1
  O  O36  1  0.24580224  0.65936689  0.86178255  1
  O  O37  1  0.36672359  0.68021051  0.18402412  1
  O  O38  1  0.81978949  0.13327641  0.68402412  1
  O  O39  1  0.49484390  0.24918248  0.93090472  1
  O  O40  1  0.66503734  0.16012862  0.38184507  1
  O  O41  1  0.74580224  0.84063311  0.63821745  1
  O  O42  1  0.33987138  0.83496266  0.88184507  1
  O  O43  1  0.56372762  0.56258046  0.14926154  1
  O  O44  1  0.93627238  0.06258046  0.35073846  1
  O  O45  1  0.68021051  0.63327641  0.81597588  1
  O  O46  1  0.75081752  0.49484390  0.06909528  1
  O  O47  1  0.16012862  0.33496266  0.61815493  1
  O  O48  1  0.39765821  0.68852319  0.57193849  1
  O  O49  1  0.50515610  0.75081752  0.93090472  1
  O  O50  1  0.93741954  0.93627238  0.64926154  1
  O  O51  1  0.74918248  0.99484390  0.43090472  1
  O  O52  1  0.72240766  0.99491080  0.83035455  1
  O  O53  1  0.86672359  0.81978949  0.31597588  1
  O  O54  1  0.34063311  0.24580224  0.13821745  1
  O  O55  1  0.56258046  0.43627238  0.85073846  1
  O  O56  1  0.24918248  0.50515610  0.06909528  1
  O  O57  1  0.65936689  0.75419776  0.13821745  1
  O  O58  1  0.18021051  0.86672359  0.68402412  1
  O  O59  1  0.83987138  0.66503734  0.61815493  1
  O  O60  1  0.99484390  0.25081752  0.56909528  1
  O  O61  1  0.31147681  0.39765821  0.42806151  1
  O  O62  1  0.63327641  0.31978949  0.18402412  1
  O  O63  1  0.89765821  0.81147681  0.92806151  1
  O  O64  1  0.66012862  0.16503734  0.88184507  1
  O  O65  1  0.84063311  0.25419776  0.36178255  1
  O  O66  1  0.18852319  0.89765821  0.07193849  1
  O  O67  1  0.81147681  0.10234179  0.07193849  1
  O  O68  1  0.43627238  0.43741954  0.14926154  1
  O  O69  1  0.50508920  0.77759234  0.33035455  1
  O  O70  1  0.05923571  0.58721869  0.40804450  1
  O  O71  1  0.75419776  0.34063311  0.86178255  1
  O  O72  1  0.58721869  0.94076429  0.59195550  1
  O  O73  1  0.43741954  0.56372762  0.85073846  1
  O  O74  1  0.91278131  0.44076429  0.90804450  1
  O  O75  1  0.08721869  0.55923571  0.90804450  1
  O  O76  1  0.13327641  0.18021051  0.31597588  1
  O  O77  1  0.83496266  0.66012862  0.11815493  1
  O  O78  1  0.10234179  0.18852319  0.92806151  1
  O  O79  1  0.60234179  0.31147681  0.57193849  1
  O  O80  1  0.77759234  0.49491080  0.66964545  1
  O  O81  1  0.06258046  0.06372762  0.64926154  1
  O  O82  1  0.55923571  0.91278131  0.09195550  1
  O  O83  1  0.22240766  0.50508920  0.66964545  1
  O  O84  1  0.49491080  0.22240766  0.33035455  1
  O  O85  1  0.06372762  0.93741954  0.35073846  1
  O  O86  1  0.15936689  0.74580224  0.36178255  1
  O  O87  1  0.94076429  0.41278131  0.40804450  1
  O  O88  1  0.16503734  0.33987138  0.11815493  1
  O  O89  1  0.27759234  0.00508920  0.83035455  1
  O  O90  1  0.33496266  0.83987138  0.38184507  1
  O  O91  1  0.31978949  0.36672359  0.81597588  1
  O  O92  1  0.41278131  0.05923571  0.59195550  1
  O  O93  1  0.00508920  0.72240766  0.16964545  1
  O  O94  1  0.00515610  0.74918248  0.56909528  1
  O  O95  1  0.44076429  0.08721869  0.09195550  1
