# generated using pymatgen
data_LiCrP2O7
_symmetry_space_group_name_H-M   'P 1'
_cell_length_a   7.18109052
_cell_length_b   7.95038221
_cell_length_c   9.52197365
_cell_angle_alpha   90.00000000
_cell_angle_beta   110.84614037
_cell_angle_gamma   90.00000000
_symmetry_Int_Tables_number   1
_chemical_formula_structural   LiCrP2O7
_chemical_formula_sum   'Li4 Cr4 P8 O28'
_cell_volume   508.04596046
_cell_formula_units_Z   4
loop_
 _symmetry_equiv_pos_site_id
 _symmetry_equiv_pos_as_xyz
  1  'x, y, z'
loop_
 _atom_site_type_symbol
 _atom_site_label
 _atom_site_symmetry_multiplicity
 _atom_site_fract_x
 _atom_site_fract_y
 _atom_site_fract_z
 _atom_site_occupancy
  Li  Li0  1  0.69774936  0.97979019  0.22078315  1
  Li  Li1  1  0.30225064  0.47979019  0.27921685  1
  Li  Li2  1  0.69774936  0.52020981  0.72078315  1
  Li  Li3  1  0.30225064  0.02020981  0.77921685  1
  Cr  Cr4  1  0.25957541  0.00450618  0.24734706  1
  Cr  Cr5  1  0.25957541  0.49549382  0.74734706  1
  Cr  Cr6  1  0.74042459  0.50450618  0.25265294  1
  Cr  Cr7  1  0.74042459  0.99549382  0.75265294  1
  P  P8  1  0.33084961  0.71024389  0.04792276  1
  P  P9  1  0.33084961  0.78975611  0.54792276  1
  P  P10  1  0.66915039  0.21024389  0.45207724  1
  P  P11  1  0.08393329  0.25913671  0.45465327  1
  P  P12  1  0.66915039  0.28975611  0.95207724  1
  P  P13  1  0.91606671  0.75913671  0.04534673  1
  P  P14  1  0.08393329  0.24086329  0.95465327  1
  P  P15  1  0.91606671  0.74086329  0.54534673  1
  O  O16  1  0.62123667  0.39244811  0.39560817  1
  O  O17  1  0.68435640  0.20062870  0.61564818  1
  O  O18  1  0.12008258  0.65926496  0.06395085  1
  O  O19  1  0.54148352  0.07844790  0.34341674  1
  O  O20  1  0.87991742  0.34073504  0.93604915  1
  O  O21  1  0.20024129  0.13448636  0.39955506  1
  O  O22  1  0.19353663  0.28731998  0.62271674  1
  O  O23  1  0.97298506  0.92015345  0.14162784  1
  O  O24  1  0.31564360  0.79937130  0.38435182  1
  O  O25  1  0.45851648  0.92155210  0.65658326  1
  O  O26  1  0.19353663  0.21268002  0.12271674  1
  O  O27  1  0.62123667  0.10755189  0.89560817  1
  O  O28  1  0.20024129  0.36551364  0.89955506  1
  O  O29  1  0.54148352  0.42155210  0.84341674  1
  O  O30  1  0.79975871  0.86551364  0.60044494  1
  O  O31  1  0.79975871  0.63448636  0.10044494  1
  O  O32  1  0.97298506  0.57984655  0.64162784  1
  O  O33  1  0.45851648  0.57844790  0.15658326  1
  O  O34  1  0.31564360  0.70062870  0.88435182  1
  O  O35  1  0.12008258  0.84073504  0.56395085  1
  O  O36  1  0.80646337  0.71268002  0.37728326  1
  O  O37  1  0.80646337  0.78731998  0.87728326  1
  O  O38  1  0.02701494  0.42015345  0.35837216  1
  O  O39  1  0.68435640  0.29937130  0.11564818  1
  O  O40  1  0.02701494  0.07984655  0.85837216  1
  O  O41  1  0.37876333  0.60755189  0.60439183  1
  O  O42  1  0.37876333  0.89244811  0.10439183  1
  O  O43  1  0.87991742  0.15926496  0.43604915  1
