# generated using pymatgen
data_Li2Mn(PO3)5
_symmetry_space_group_name_H-M   'P 1'
_cell_length_a   5.21204125
_cell_length_b   13.51719937
_cell_length_c   8.67130361
_cell_angle_alpha   90.00000000
_cell_angle_beta   101.59821188
_cell_angle_gamma   90.00000000
_symmetry_Int_Tables_number   1
_chemical_formula_structural   Li2Mn(PO3)5
_chemical_formula_sum   'Li4 Mn2 P10 O30'
_cell_volume   598.43852174
_cell_formula_units_Z   2
loop_
 _symmetry_equiv_pos_site_id
 _symmetry_equiv_pos_as_xyz
  1  'x, y, z'
loop_
 _atom_site_type_symbol
 _atom_site_label
 _atom_site_symmetry_multiplicity
 _atom_site_fract_x
 _atom_site_fract_y
 _atom_site_fract_z
 _atom_site_occupancy
  Li  Li0  1  0.06198243  0.38450604  0.10640192  1
  Li  Li1  1  0.06198243  0.11549396  0.10640192  1
  Li  Li2  1  0.93801757  0.88450604  0.89359808  1
  Li  Li3  1  0.93801757  0.61549396  0.89359808  1
  Mn  Mn4  1  0.50000000  0.50000000  0.50000000  1
  Mn  Mn5  1  0.50000000  0.00000000  0.50000000  1
  P  P6  1  0.66225140  0.57698763  0.18681877  1
  P  P7  1  0.01715685  0.86033577  0.48914802  1
  P  P8  1  0.45822995  0.75000000  0.98906326  1
  P  P9  1  0.33774860  0.42301237  0.81318123  1
  P  P10  1  0.66225140  0.92301237  0.18681877  1
  P  P11  1  0.54177005  0.25000000  0.01093674  1
  P  P12  1  0.33774860  0.07698763  0.81318123  1
  P  P13  1  0.98284315  0.13966423  0.51085198  1
  P  P14  1  0.01715685  0.63966423  0.48914802  1
  P  P15  1  0.98284315  0.36033577  0.51085198  1
  O  O16  1  0.19586556  0.46830983  0.92839045  1
  O  O17  1  0.86449171  0.85632906  0.31013860  1
  O  O18  1  0.69432901  0.12401829  0.50931952  1
  O  O19  1  0.01568900  0.25000000  0.45544907  1
  O  O20  1  0.86449171  0.64367094  0.31013860  1
  O  O21  1  0.13550829  0.14367094  0.68986140  1
  O  O22  1  0.48270666  0.00809399  0.72163617  1
  O  O23  1  0.28818599  0.25000000  0.06649675  1
  O  O24  1  0.98431100  0.75000000  0.54455093  1
  O  O25  1  0.13550829  0.35632906  0.68986140  1
  O  O26  1  0.88001364  0.57570458  0.58858673  1
  O  O27  1  0.19617620  0.75000000  0.88048581  1
  O  O28  1  0.11998636  0.42429542  0.41141327  1
  O  O29  1  0.71181401  0.75000000  0.93350325  1
  O  O30  1  0.69432901  0.37598171  0.50931952  1
  O  O31  1  0.30567099  0.87598171  0.49068048  1
  O  O32  1  0.51729334  0.50809399  0.27836383  1
  O  O33  1  0.48270666  0.49190601  0.72163617  1
  O  O34  1  0.54974431  0.34262530  0.89009703  1
  O  O35  1  0.80413444  0.53169017  0.07160955  1
  O  O36  1  0.11998636  0.07570458  0.41141327  1
  O  O37  1  0.51729334  0.99190601  0.27836383  1
  O  O38  1  0.88001364  0.92429542  0.58858673  1
  O  O39  1  0.45025569  0.65737470  0.10990297  1
  O  O40  1  0.45025569  0.84262530  0.10990297  1
  O  O41  1  0.19586556  0.03169017  0.92839045  1
  O  O42  1  0.30567099  0.62401829  0.49068048  1
  O  O43  1  0.80413444  0.96830983  0.07160955  1
  O  O44  1  0.54974431  0.15737470  0.89009703  1
  O  O45  1  0.80382380  0.25000000  0.11951419  1
