# generated using pymatgen
data_LiMn2(PO4)3
_symmetry_space_group_name_H-M   'P 1'
_cell_length_a   8.60612293
_cell_length_b   8.60612311
_cell_length_c   8.43002035
_cell_angle_alpha   90.25881512
_cell_angle_beta   60.49643085
_cell_angle_gamma   121.46814026
_symmetry_Int_Tables_number   1
_chemical_formula_structural   LiMn2(PO4)3
_chemical_formula_sum   'Li2 Mn4 P6 O24'
_cell_volume   435.83628553
_cell_formula_units_Z   2
loop_
 _symmetry_equiv_pos_site_id
 _symmetry_equiv_pos_as_xyz
  1  'x, y, z'
loop_
 _atom_site_type_symbol
 _atom_site_label
 _atom_site_symmetry_multiplicity
 _atom_site_fract_x
 _atom_site_fract_y
 _atom_site_fract_z
 _atom_site_occupancy
  Li  Li0  1  0.98008719  0.02864865  0.65383199  1
  Li  Li1  1  0.81751936  0.36608082  0.15383199  1
  Mn  Mn2  1  0.27856111  0.85086305  0.36393094  1
  Mn  Mn3  1  0.71733224  0.14943598  0.63676450  1
  Mn  Mn4  1  0.28520601  0.35750695  0.86393094  1
  Mn  Mn5  1  0.71379951  0.64590326  0.13676450  1
  P  P6  1  0.50439438  0.74865293  0.96736896  1
  P  P7  1  0.78397811  0.52823666  0.46736896  1
  P  P8  1  0.78389943  0.03725625  0.25633099  1
  P  P9  1  0.21890888  0.47438223  0.53267412  1
  P  P10  1  0.20641276  0.95976957  0.75633099  1
  P  P11  1  0.49294365  0.24841700  0.03267412  1
  O  O12  1  0.82031916  0.36750752  0.45475418  1
  O  O13  1  0.18122457  0.63194389  0.53953299  1
  O  O14  1  0.32852312  0.27924244  0.03953299  1
  O  O15  1  0.79673837  0.04361438  0.43303295  1
  O  O16  1  0.65110612  0.40848655  0.07678372  1
  O  O17  1  0.42444344  0.00012196  0.70136669  1
  O  O18  1  0.18203607  0.12430846  0.79986990  1
  O  O19  1  0.97278758  0.23596064  0.08528618  1
  O  O20  1  0.98633831  0.72584636  0.42370461  1
  O  O21  1  0.79851136  0.87418987  0.20136669  1
  O  O22  1  0.35044903  0.58995708  0.92370461  1
  O  O23  1  0.34464020  0.05478893  0.19199988  1
  O  O24  1  0.17875418  0.94192625  0.58528618  1
  O  O25  1  0.74982999  0.53206152  0.30426109  1
  O  O26  1  0.57582164  0.01809303  0.29986990  1
  O  O27  1  0.65589724  0.25905195  0.83261805  1
  O  O28  1  0.59105479  0.48649281  0.66600327  1
  O  O29  1  0.34750392  0.74294194  0.16600327  1
  O  O30  1  0.40833100  0.51148571  0.33261805  1
  O  O31  1  0.01472973  0.27211015  0.57678372  1
  O  O32  1  0.66367839  0.94590892  0.80426109  1
  O  O33  1  0.67773830  0.72492665  0.95475418  1
  O  O34  1  0.25321119  0.46335993  0.69199988  1
  O  O35  1  0.02335268  0.77022868  0.93303295  1
