# generated using pymatgen
data_Li2V(PO3)4
_symmetry_space_group_name_H-M   'P 1'
_cell_length_a   9.47620547
_cell_length_b   10.29417941
_cell_length_c   9.25270242
_cell_angle_alpha   90.00000000
_cell_angle_beta   91.84492652
_cell_angle_gamma   90.00000000
_symmetry_Int_Tables_number   1
_chemical_formula_structural   Li2V(PO3)4
_chemical_formula_sum   'Li8 V4 P16 O48'
_cell_volume   902.13100755
_cell_formula_units_Z   4
loop_
 _symmetry_equiv_pos_site_id
 _symmetry_equiv_pos_as_xyz
  1  'x, y, z'
loop_
 _atom_site_type_symbol
 _atom_site_label
 _atom_site_symmetry_multiplicity
 _atom_site_fract_x
 _atom_site_fract_y
 _atom_site_fract_z
 _atom_site_occupancy
  Li  Li0  1  0.99899903  0.82574785  0.39699524  1
  Li  Li1  1  0.00100097  0.17425215  0.60300476  1
  Li  Li2  1  0.50100097  0.32574785  0.60300476  1
  Li  Li3  1  0.99707418  0.17735904  0.89735475  1
  Li  Li4  1  0.49899903  0.67425215  0.39699524  1
  Li  Li5  1  0.00292582  0.82264096  0.10264525  1
  Li  Li6  1  0.50292582  0.67735904  0.10264525  1
  Li  Li7  1  0.49707418  0.32264096  0.89735475  1
  V  V8  1  0.98279711  0.80362004  0.74691042  1
  V  V9  1  0.51720289  0.30362004  0.25308958  1
  V  V10  1  0.48279711  0.69637996  0.74691042  1
  V  V11  1  0.01720289  0.19637996  0.25308958  1
  P  P12  1  0.73193165  0.02596540  0.24012108  1
  P  P13  1  0.70479933  0.88741690  0.95054304  1
  P  P14  1  0.29520067  0.11258310  0.04945696  1
  P  P15  1  0.76806835  0.52596540  0.75987892  1
  P  P16  1  0.69653459  0.10270233  0.73102210  1
  P  P17  1  0.29835213  0.10495893  0.48094814  1
  P  P18  1  0.23193165  0.47403460  0.24012108  1
  P  P19  1  0.19653459  0.39729767  0.73102210  1
  P  P20  1  0.20479933  0.61258310  0.95054304  1
  P  P21  1  0.79520067  0.38741690  0.04945696  1
  P  P22  1  0.70164787  0.89504107  0.51905186  1
  P  P23  1  0.80346541  0.60270233  0.26897790  1
  P  P24  1  0.20164787  0.60495893  0.51905186  1
  P  P25  1  0.30346541  0.89729767  0.26897790  1
  P  P26  1  0.26806835  0.97403460  0.75987892  1
  P  P27  1  0.79835213  0.39504107  0.48094814  1
  O  O28  1  0.14192465  0.12301243  0.44819437  1
  O  O29  1  0.34502977  0.96272296  0.42363663  1
  O  O30  1  0.65497023  0.03727704  0.57636337  1
  O  O31  1  0.63751333  0.37372742  0.06107406  1
  O  O32  1  0.86248667  0.87372742  0.93892594  1
  O  O33  1  0.10909986  0.97896113  0.75440249  1
  O  O34  1  0.17265036  0.58267256  0.34959528  1
  O  O35  1  0.38946760  0.23080498  0.05914286  1
  O  O36  1  0.66195127  0.15270068  0.26277019  1
  O  O37  1  0.39954362  0.20997342  0.43781195  1
  O  O38  1  0.88946760  0.26919502  0.05914286  1
  O  O39  1  0.66705679  0.96445655  0.09363351  1
  O  O40  1  0.85807535  0.87698757  0.55180563  1
  O  O41  1  0.16195127  0.34729932  0.26277019  1
  O  O42  1  0.13751333  0.12627258  0.06107406  1
  O  O43  1  0.61053240  0.76919502  0.94085714  1
  O  O44  1  0.82734964  0.41732744  0.65040472  1
  O  O45  1  0.11053240  0.73080498  0.94085714  1
  O  O46  1  0.64725155  0.62162872  0.25336922  1
  O  O47  1  0.67265036  0.91732744  0.34959528  1
  O  O48  1  0.64241758  0.98580680  0.83156307  1
  O  O49  1  0.39090014  0.47896113  0.24559751  1
  O  O50  1  0.83804873  0.65270068  0.73722981  1
  O  O51  1  0.36248667  0.62627258  0.93892594  1
  O  O52  1  0.10045638  0.70997342  0.56218805  1
  O  O53  1  0.60909986  0.52103887  0.75440249  1
  O  O54  1  0.85758242  0.48580680  0.16843693  1
  O  O55  1  0.39894242  0.78300833  0.24909635  1
  O  O56  1  0.89894242  0.71699167  0.24909635  1
  O  O57  1  0.35274845  0.37837128  0.74663078  1
  O  O58  1  0.35807535  0.62301243  0.55180563  1
  O  O59  1  0.60105758  0.21699167  0.75090365  1
  O  O60  1  0.14725155  0.87837128  0.25336922  1
  O  O61  1  0.32734964  0.08267256  0.65040472  1
  O  O62  1  0.16705679  0.53554345  0.09363351  1
  O  O63  1  0.89954362  0.29002658  0.43781195  1
  O  O64  1  0.14241758  0.51419320  0.83156307  1
  O  O65  1  0.33804873  0.84729932  0.73722981  1
  O  O66  1  0.83294321  0.46445655  0.90636649  1
  O  O67  1  0.10105758  0.28300833  0.75090365  1
  O  O68  1  0.84502977  0.53727704  0.42363663  1
  O  O69  1  0.33294321  0.03554345  0.90636649  1
  O  O70  1  0.35758242  0.01419320  0.16843693  1
  O  O71  1  0.89090014  0.02103887  0.24559751  1
  O  O72  1  0.15497023  0.46272296  0.57636337  1
  O  O73  1  0.64192465  0.37698757  0.44819437  1
  O  O74  1  0.85274845  0.12162872  0.74663078  1
  O  O75  1  0.60045638  0.79002658  0.56218805  1
