# generated using pymatgen
data_Li2FeP2O7
_symmetry_space_group_name_H-M   'P 1'
_cell_length_a   6.58504481
_cell_length_b   10.44376828
_cell_length_c   9.31066039
_cell_angle_alpha   66.64297302
_cell_angle_beta   107.28986490
_cell_angle_gamma   91.49387134
_symmetry_Int_Tables_number   1
_chemical_formula_structural   Li2FeP2O7
_chemical_formula_sum   'Li8 Fe4 P8 O28'
_cell_volume   558.19980664
_cell_formula_units_Z   4
loop_
 _symmetry_equiv_pos_site_id
 _symmetry_equiv_pos_as_xyz
  1  'x, y, z'
loop_
 _atom_site_type_symbol
 _atom_site_label
 _atom_site_symmetry_multiplicity
 _atom_site_fract_x
 _atom_site_fract_y
 _atom_site_fract_z
 _atom_site_occupancy
  Li  Li0  1  0.86492894  0.10780699  0.89501149  1
  Li  Li1  1  0.04739678  0.49308518  0.18733740  1
  Li  Li2  1  0.16544204  0.96241798  0.48846296  1
  Li  Li3  1  0.35283280  0.62228790  0.92513652  1
  Li  Li4  1  0.63463528  0.37846767  0.07493451  1
  Li  Li5  1  0.59251733  0.02990443  0.50596236  1
  Li  Li6  1  0.93728824  0.49784706  0.83282973  1
  Li  Li7  1  0.16763108  0.87492543  0.10721224  1
  Fe  Fe8  1  0.35929464  0.26233882  0.50336001  1
  Fe  Fe9  1  0.72318030  0.78222132  0.09968939  1
  Fe  Fe10  1  0.62865712  0.74754664  0.48894206  1
  Fe  Fe11  1  0.28276047  0.22258892  0.89117652  1
  P  P12  1  0.08060694  0.20245250  0.17974084  1
  P  P13  1  0.69594545  0.05546871  0.19076259  1
  P  P14  1  0.31375078  0.94593563  0.80140218  1
  P  P15  1  0.87049318  0.30165477  0.54670290  1
  P  P16  1  0.55529327  0.53729704  0.28805753  1
  P  P17  1  0.43918144  0.46846812  0.70779125  1
  P  P18  1  0.11740378  0.70071674  0.44239141  1
  P  P19  1  0.92617944  0.80346962  0.80899339  1
  O  O20  1  0.73831651  0.98749775  0.08216625  1
  O  O21  1  0.36980797  0.46473553  0.85445967  1
  O  O22  1  0.37979346  0.03834089  0.65241998  1
  O  O23  1  0.27254964  0.01560022  0.90817789  1
  O  O24  1  0.24514398  0.54520839  0.54049847  1
  O  O25  1  0.35602120  0.46250052  0.30253705  1
  O  O26  1  0.02709122  0.71243975  0.26355690  1
  O  O27  1  0.69376593  0.20467996  0.52981121  1
  O  O28  1  0.45336688  0.80560480  0.90806029  1
  O  O29  1  0.71804389  0.82870995  0.67232045  1
  O  O30  1  0.74810520  0.45986876  0.45654216  1
  O  O31  1  0.62532607  0.53630232  0.14343892  1
  O  O32  1  0.91251990  0.86591739  0.93096464  1
  O  O33  1  0.03368463  0.30242854  0.45985938  1
  O  O34  1  0.63565164  0.54612746  0.69260698  1
  O  O35  1  0.28492027  0.17957312  0.31998391  1
  O  O36  1  0.03836690  0.65253611  0.89877592  1
  O  O37  1  0.08528678  0.90240056  0.71071415  1
  O  O38  1  0.97142998  0.28054567  0.72793574  1
  O  O39  1  0.96051884  0.35157911  0.08984238  1
  O  O40  1  0.95128142  0.70657292  0.52247718  1
  O  O41  1  0.28543063  0.80478417  0.45515435  1
  O  O42  1  0.45630401  0.31745545  0.71685148  1
  O  O43  1  0.55805037  0.19660230  0.08479551  1
  O  O44  1  0.62199007  0.96225615  0.33332233  1
  O  O45  1  0.53762182  0.68999380  0.27366155  1
  O  O46  1  0.10387513  0.14194438  0.05926414  1
  O  O47  1  0.92916434  0.09613357  0.27971386  1
