# generated using pymatgen
data_H10S(NO)4
_symmetry_space_group_name_H-M   'P 1'
_cell_length_a   5.20025057
_cell_length_b   11.08310250
_cell_length_c   11.05765428
_cell_angle_alpha   90.00000000
_cell_angle_beta   100.19363044
_cell_angle_gamma   90.00000000
_symmetry_Int_Tables_number   1
_chemical_formula_structural   H10S(NO)4
_chemical_formula_sum   'H40 S4 N16 O16'
_cell_volume   627.24720445
_cell_formula_units_Z   4
loop_
 _symmetry_equiv_pos_site_id
 _symmetry_equiv_pos_as_xyz
  1  'x, y, z'
loop_
 _atom_site_type_symbol
 _atom_site_label
 _atom_site_symmetry_multiplicity
 _atom_site_fract_x
 _atom_site_fract_y
 _atom_site_fract_z
 _atom_site_occupancy
  H  H0  1  0.25216932  0.10672279  0.83435160  1
  H  H1  1  0.74783068  0.60672279  0.66564840  1
  H  H2  1  0.74783068  0.89327721  0.16564840  1
  H  H3  1  0.25216932  0.39327721  0.33435160  1
  H  H4  1  0.31475130  0.96249272  0.87904548  1
  H  H5  1  0.68524870  0.46249272  0.62095452  1
  H  H6  1  0.68524870  0.03750728  0.12095452  1
  H  H7  1  0.31475130  0.53750728  0.37904548  1
  H  H8  1  0.40283002  0.01064883  0.74773448  1
  H  H9  1  0.59716998  0.51064883  0.75226552  1
  H  H10  1  0.59716998  0.98935117  0.25226552  1
  H  H11  1  0.40283002  0.48935117  0.24773448  1
  H  H12  1  0.23526412  0.50172191  0.60650331  1
  H  H13  1  0.76473588  0.00172191  0.89349669  1
  H  H14  1  0.76473588  0.49827809  0.39349669  1
  H  H15  1  0.23526412  0.99827809  0.10650331  1
  H  H16  1  0.30164826  0.64466342  0.63032224  1
  H  H17  1  0.69835174  0.14466342  0.86967776  1
  H  H18  1  0.69835174  0.35533658  0.36967776  1
  H  H19  1  0.30164826  0.85533658  0.13032224  1
  H  H20  1  0.17088813  0.57091241  0.91797359  1
  H  H21  1  0.82911187  0.07091241  0.58202641  1
  H  H22  1  0.82911187  0.42908759  0.08202641  1
  H  H23  1  0.17088813  0.92908759  0.41797359  1
  H  H24  1  0.32460586  0.64170547  0.04791884  1
  H  H25  1  0.67539414  0.14170547  0.45208116  1
  H  H26  1  0.67539414  0.35829453  0.95208116  1
  H  H27  1  0.32460586  0.85829453  0.54791884  1
  H  H28  1  0.13393813  0.72357411  0.93374803  1
  H  H29  1  0.86606187  0.22357411  0.56625197  1
  H  H30  1  0.86606187  0.27642589  0.06625197  1
  H  H31  1  0.13393813  0.77642589  0.43374803  1
  H  H32  1  0.43767390  0.73309126  0.82747053  1
  H  H33  1  0.56232610  0.23309126  0.67252947  1
  H  H34  1  0.56232610  0.26690874  0.17252947  1
  H  H35  1  0.43767390  0.76690874  0.32747053  1
  H  H36  1  0.63113092  0.70992072  0.95922200  1
  H  H37  1  0.36886908  0.20992072  0.54077800  1
  H  H38  1  0.36886908  0.29007928  0.04077800  1
  H  H39  1  0.63113092  0.79007928  0.45922200  1
  S  S40  1  0.12863959  0.34171426  0.78843833  1
  S  S41  1  0.87136041  0.84171426  0.71156167  1
  S  S42  1  0.87136041  0.65828574  0.21156167  1
  S  S43  1  0.12863959  0.15828574  0.28843833  1
  N  N44  1  0.38782364  0.03495987  0.83676391  1
  N  N45  1  0.61217636  0.53495987  0.66323609  1
  N  N46  1  0.61217636  0.96504013  0.16323609  1
  N  N47  1  0.38782364  0.46504013  0.33676391  1
  N  N48  1  0.26325043  0.65101919  0.95311124  1
  N  N49  1  0.73674957  0.15101919  0.54688876  1
  N  N50  1  0.73674957  0.34898081  0.04688876  1
  N  N51  1  0.26325043  0.84898081  0.45311124  1
  N  N52  1  0.36332080  0.56844684  0.59076997  1
  N  N53  1  0.63667920  0.06844684  0.90923003  1
  N  N54  1  0.63667920  0.43155316  0.40923003  1
  N  N55  1  0.36332080  0.93155316  0.09076997  1
  N  N56  1  0.49011432  0.66984828  0.89529815  1
  N  N57  1  0.50988568  0.16984828  0.60470185  1
  N  N58  1  0.50988568  0.33015172  0.10470185  1
  N  N59  1  0.49011432  0.83015172  0.39529815  1
  O  O60  1  0.42045266  0.34660002  0.80909387  1
  O  O61  1  0.57954734  0.84660002  0.69090613  1
  O  O62  1  0.57954734  0.65339998  0.19090613  1
  O  O63  1  0.42045266  0.15339998  0.30909387  1
  O  O64  1  0.02551999  0.35414493  0.65292393  1
  O  O65  1  0.97448001  0.85414493  0.84707607  1
  O  O66  1  0.97448001  0.64585507  0.34707607  1
  O  O67  1  0.02551999  0.14585507  0.15292393  1
  O  O68  1  0.04272200  0.22288790  0.83251540  1
  O  O69  1  0.95727800  0.72288790  0.66748460  1
  O  O70  1  0.95727800  0.77711210  0.16748460  1
  O  O71  1  0.04272200  0.27711210  0.33251540  1
  O  O72  1  0.02276010  0.44077209  0.85660816  1
  O  O73  1  0.97723990  0.94077209  0.64339184  1
  O  O74  1  0.97723990  0.55922791  0.14339184  1
  O  O75  1  0.02276010  0.05922791  0.35660816  1
