# generated using pymatgen
data_K2P2H2O7
_symmetry_space_group_name_H-M   'P 1'
_cell_length_a   8.24622765
_cell_length_b   8.31573096
_cell_length_c   11.28488741
_cell_angle_alpha   97.21515925
_cell_angle_beta   95.35364495
_cell_angle_gamma   88.89999453
_symmetry_Int_Tables_number   1
_chemical_formula_structural   K2P2H2O7
_chemical_formula_sum   'K8 P8 H8 O28'
_cell_volume   764.34468578
_cell_formula_units_Z   4
loop_
 _symmetry_equiv_pos_site_id
 _symmetry_equiv_pos_as_xyz
  1  'x, y, z'
loop_
 _atom_site_type_symbol
 _atom_site_label
 _atom_site_symmetry_multiplicity
 _atom_site_fract_x
 _atom_site_fract_y
 _atom_site_fract_z
 _atom_site_occupancy
  K  K0  1  0.75393146  0.29432374  0.94765696  1
  K  K1  1  0.24606854  0.70567626  0.05234304  1
  K  K2  1  0.28669788  0.11889918  0.92518082  1
  K  K3  1  0.71330212  0.88110082  0.07481918  1
  K  K4  1  0.39109098  0.29855107  0.57055073  1
  K  K5  1  0.60890902  0.70144893  0.42944927  1
  K  K6  1  0.18012431  0.77757952  0.54883471  1
  K  K7  1  0.81987569  0.22242048  0.45116529  1
  P  P8  1  0.62755334  0.00395657  0.70378432  1
  P  P9  1  0.37244666  0.99604343  0.29621568  1
  P  P10  1  0.94246902  0.86116202  0.80166202  1
  P  P11  1  0.05753098  0.13883798  0.19833798  1
  P  P12  1  0.78605881  0.54511565  0.71425597  1
  P  P13  1  0.21394119  0.45488435  0.28574403  1
  P  P14  1  0.48196969  0.71304964  0.78285391  1
  P  P15  1  0.51803031  0.28695036  0.21714609  1
  H  H16  1  0.27458106  0.47784470  0.82652357  1
  H  H17  1  0.72541894  0.52215530  0.17347643  1
  H  H18  1  0.10334316  0.44410755  0.86156753  1
  H  H19  1  0.89665684  0.55589245  0.13843247  1
  H  H20  1  0.06215006  0.11889945  0.65720400  1
  H  H21  1  0.93784994  0.88110055  0.34279600  1
  H  H22  1  0.02815188  0.30022812  0.67553012  1
  H  H23  1  0.97184812  0.69977188  0.32446988  1
  O  O24  1  0.77382907  0.96962576  0.80659846  1
  O  O25  1  0.22617093  0.03037424  0.19340154  1
  O  O26  1  0.68870240  0.01674642  0.58507031  1
  O  O27  1  0.31129760  0.98325358  0.41492969  1
  O  O28  1  0.52719279  0.13791016  0.76315848  1
  O  O29  1  0.47280721  0.86208984  0.23684152  1
  O  O30  1  0.06738660  0.95067992  0.74713659  1
  O  O31  1  0.93261340  0.04932008  0.25286341  1
  O  O32  1  0.97864052  0.81068149  0.92387702  1
  O  O33  1  0.02135948  0.18931851  0.07612298  1
  O  O34  1  0.88724644  0.70788103  0.70089968  1
  O  O35  1  0.11275356  0.29211897  0.29910032  1
  O  O36  1  0.70394512  0.48707312  0.59291062  1
  O  O37  1  0.29605488  0.51292688  0.40708938  1
  O  O38  1  0.89663880  0.43011745  0.77760694  1
  O  O39  1  0.10336120  0.56988255  0.22239306  1
  O  O40  1  0.35606689  0.59740452  0.71866317  1
  O  O41  1  0.64393311  0.40259548  0.28133683  1
  O  O42  1  0.45146442  0.80922036  0.90038560  1
  O  O43  1  0.54853558  0.19077964  0.09961440  1
  O  O44  1  0.52531810  0.83175071  0.68533296  1
  O  O45  1  0.47468190  0.16824929  0.31466704  1
  O  O46  1  0.65385344  0.61440030  0.80731800  1
  O  O47  1  0.34614656  0.38559970  0.19268200  1
  O  O48  1  0.21935574  0.43294952  0.88930455  1
  O  O49  1  0.78064426  0.56705048  0.11069545  1
  O  O50  1  0.08082196  0.21828852  0.62074999  1
  O  O51  1  0.91917804  0.78171148  0.37925001  1
