# generated using pymatgen
data_Hf(MoO4)2
_symmetry_space_group_name_H-M   'P 1'
_cell_length_a   7.02024148
_cell_length_b   7.02024146
_cell_length_c   7.55903930
_cell_angle_alpha   64.09818781
_cell_angle_beta   64.09818793
_cell_angle_gamma   70.36720171
_symmetry_Int_Tables_number   1
_chemical_formula_structural   Hf(MoO4)2
_chemical_formula_sum   'Hf2 Mo4 O16'
_cell_volume   296.55925112
_cell_formula_units_Z   2
loop_
 _symmetry_equiv_pos_site_id
 _symmetry_equiv_pos_as_xyz
  1  'x, y, z'
loop_
 _atom_site_type_symbol
 _atom_site_label
 _atom_site_symmetry_multiplicity
 _atom_site_fract_x
 _atom_site_fract_y
 _atom_site_fract_z
 _atom_site_occupancy
  Hf  Hf0  1  0.02049773  0.97950227  0.25000000  1
  Hf  Hf1  1  0.97950227  0.02049773  0.75000000  1
  Mo  Mo2  1  0.93761275  0.49308975  0.24179940  1
  Mo  Mo3  1  0.49308975  0.93761275  0.74179940  1
  Mo  Mo4  1  0.06238725  0.50691025  0.75820060  1
  Mo  Mo5  1  0.50691025  0.06238725  0.25820060  1
  O  O6  1  0.94748464  0.34467733  0.71220161  1
  O  O7  1  0.99599711  0.31367062  0.06226430  1
  O  O8  1  0.34467733  0.94748464  0.21220161  1
  O  O9  1  0.58394875  0.66672340  0.83461060  1
  O  O10  1  0.20403683  0.98015796  0.92228848  1
  O  O11  1  0.65532267  0.05251536  0.78779839  1
  O  O12  1  0.79596317  0.01984204  0.07771152  1
  O  O13  1  0.01984204  0.79596317  0.57771152  1
  O  O14  1  0.66672340  0.58394875  0.33461060  1
  O  O15  1  0.05251536  0.65532267  0.28779839  1
  O  O16  1  0.98015796  0.20403683  0.42228848  1
  O  O17  1  0.68632938  0.00400289  0.43773570  1
  O  O18  1  0.00400289  0.68632938  0.93773570  1
  O  O19  1  0.33327660  0.41605125  0.66538940  1
  O  O20  1  0.41605125  0.33327660  0.16538940  1
  O  O21  1  0.31367062  0.99599711  0.56226430  1
