# generated using pymatgen
data_SiH18C4N8(O2F3)2
_symmetry_space_group_name_H-M   'P 1'
_cell_length_a   9.34302425
_cell_length_b   9.34302425
_cell_length_c   17.99072796
_cell_angle_alpha   90.00000000
_cell_angle_beta   90.00000000
_cell_angle_gamma   90.00000000
_symmetry_Int_Tables_number   1
_chemical_formula_structural   SiH18C4N8(O2F3)2
_chemical_formula_sum   'Si4 H72 C16 N32 O16 F24'
_cell_volume   1570.44846259
_cell_formula_units_Z   4
loop_
 _symmetry_equiv_pos_site_id
 _symmetry_equiv_pos_as_xyz
  1  'x, y, z'
loop_
 _atom_site_type_symbol
 _atom_site_label
 _atom_site_symmetry_multiplicity
 _atom_site_fract_x
 _atom_site_fract_y
 _atom_site_fract_z
 _atom_site_occupancy
  Si  Si0  1  0.67839302  0.32160698  0.75000000  1
  Si  Si1  1  0.32160698  0.67839302  0.25000000  1
  Si  Si2  1  0.82160698  0.82160698  0.50000000  1
  Si  Si3  1  0.17839302  0.17839302  0.00000000  1
  H  H4  1  0.66444434  0.33555566  0.25000000  1
  H  H5  1  0.33555566  0.66444434  0.75000000  1
  H  H6  1  0.83555566  0.83555566  0.00000000  1
  H  H7  1  0.16444434  0.16444434  0.50000000  1
  H  H8  1  0.91752247  0.08247753  0.25000000  1
  H  H9  1  0.08247753  0.91752247  0.75000000  1
  H  H10  1  0.58247753  0.58247753  0.00000000  1
  H  H11  1  0.41752247  0.41752247  0.50000000  1
  H  H12  1  0.84512367  0.42355850  0.58612712  1
  H  H13  1  0.15487633  0.57644150  0.08612712  1
  H  H14  1  0.92355850  0.65487633  0.33612712  1
  H  H15  1  0.07644150  0.34512367  0.83612712  1
  H  H16  1  0.57644150  0.15487633  0.91387288  1
  H  H17  1  0.42355850  0.84512367  0.41387288  1
  H  H18  1  0.65487633  0.92355850  0.66387288  1
  H  H19  1  0.34512367  0.07644150  0.16387288  1
  H  H20  1  0.92242657  0.47392895  0.50279349  1
  H  H21  1  0.07757343  0.52607105  0.00279349  1
  H  H22  1  0.97392895  0.57757343  0.25279349  1
  H  H23  1  0.02607105  0.42242657  0.75279349  1
  H  H24  1  0.52607105  0.07757343  0.99720651  1
  H  H25  1  0.47392895  0.92242657  0.49720651  1
  H  H26  1  0.57757343  0.97392895  0.74720651  1
  H  H27  1  0.42242657  0.02607105  0.24720651  1
  H  H28  1  0.88891511  0.19997490  0.63625139  1
  H  H29  1  0.11108489  0.80002510  0.13625139  1
  H  H30  1  0.69997490  0.61108489  0.38625139  1
  H  H31  1  0.30002510  0.38891511  0.88625139  1
  H  H32  1  0.80002510  0.11108489  0.86374861  1
  H  H33  1  0.19997490  0.88891511  0.36374861  1
  H  H34  1  0.61108489  0.69997490  0.61374861  1
  H  H35  1  0.38891511  0.30002510  0.11374861  1
  H  H36  1  0.01425923  0.08542852  0.59551706  1
  H  H37  1  0.98574077  0.91457148  0.09551706  1
  H  H38  1  0.58542852  0.48574077  0.34551706  1
  H  H39  1  0.41457148  0.51425923  0.84551706  1
  H  H40  1  0.91457148  0.98574077  0.90448294  1
  H  H41  1  0.08542852  0.01425923  0.40448294  1
  H  H42  1  0.48574077  0.58542852  0.65448294  1
  H  H43  1  0.51425923  0.41457148  0.15448294  1
  H  H44  1  0.70662052  0.09992327  0.43609274  1
  H  H45  1  0.29337948  0.90007673  0.93609274  1
  H  H46  1  0.59992327  0.79337948  0.18609274  1
  H  H47  1  0.40007673  0.20662052  0.68609274  1
  H  H48  1  0.90007673  0.29337948  0.06390726  1
  H  H49  1  0.09992327  0.70662052  0.56390726  1
  H  H50  1  0.79337948  0.59992327  0.81390726  1
  H  H51  1  0.20662052  0.40007673  0.31390726  1
  H  H52  1  0.61472862  0.19710868  0.36684982  1
  H  H53  1  0.38527138  0.80289132  0.86684982  1
  H  H54  1  0.69710868  0.88527138  0.11684982  1
  H  H55  1  0.30289132  0.11472862  0.61684982  1
  H  H56  1  0.80289132  0.38527138  0.13315018  1
  H  H57  1  0.19710868  0.61472862  0.63315018  1
  H  H58  1  0.88527138  0.69710868  0.88315018  1
  H  H59  1  0.11472862  0.30289132  0.38315018  1
  H  H60  1  0.66129214  0.15400702  0.56074533  1
  H  H61  1  0.33870786  0.84599298  0.06074533  1
  H  H62  1  0.65400702  0.83870786  0.31074533  1
  H  H63  1  0.34599298  0.16129214  0.81074533  1
  H  H64  1  0.84599298  0.33870786  0.93925467  1
  H  H65  1  0.15400702  0.66129214  0.43925467  1
  H  H66  1  0.83870786  0.65400702  0.68925467  1
  H  H67  1  0.16129214  0.34599298  0.18925467  1
  H  H68  1  0.54859657  0.29463413  0.58527070  1
  H  H69  1  0.45140343  0.70536587  0.08527070  1
  H  H70  1  0.79463413  0.95140343  0.33527070  1
  H  H71  1  0.20536587  0.04859657  0.83527070  1
  H  H72  1  0.70536587  0.45140343  0.91472930  1
  H  H73  1  0.29463413  0.54859657  0.41472930  1
  H  H74  1  0.95140343  0.79463413  0.66472930  1
  H  H75  1  0.04859657  0.20536587  0.16472930  1
  C  C76  1  0.98557046  0.27739027  0.54191030  1
  C  C77  1  0.01442954  0.72260973  0.04191030  1
  C  C78  1  0.77739027  0.51442954  0.29191030  1
  C  C79  1  0.22260973  0.48557046  0.79191030  1
  C  C80  1  0.72260973  0.01442954  0.95808970  1
  C  C81  1  0.27739027  0.98557046  0.45808970  1
  C  C82  1  0.51442954  0.77739027  0.70808970  1
  C  C83  1  0.48557046  0.22260973  0.20808970  1
  C  C84  1  0.56783410  0.25693323  0.47273367  1
  C  C85  1  0.43216590  0.74306677  0.97273367  1
  C  C86  1  0.75693323  0.93216590  0.22273367  1
  C  C87  1  0.24306677  0.06783410  0.72273367  1
  C  C88  1  0.74306677  0.43216590  0.02726633  1
  C  C89  1  0.25693323  0.56783410  0.52726633  1
  C  C90  1  0.93216590  0.75693323  0.77726633  1
  C  C91  1  0.06783410  0.24306677  0.27726633  1
  N  N92  1  0.90717044  0.39759551  0.54190447  1
  N  N93  1  0.09282956  0.60240449  0.04190447  1
  N  N94  1  0.89759551  0.59282956  0.29190447  1
  N  N95  1  0.10240449  0.40717044  0.79190447  1
  N  N96  1  0.60240449  0.09282956  0.95809553  1
  N  N97  1  0.39759551  0.90717044  0.45809553  1
  N  N98  1  0.59282956  0.89759551  0.70809553  1
  N  N99  1  0.40717044  0.10240449  0.20809553  1
  N  N100  1  0.96633391  0.18314923  0.59680503  1
  N  N101  1  0.03366609  0.81685077  0.09680503  1
  N  N102  1  0.68314923  0.53366609  0.34680503  1
  N  N103  1  0.31685077  0.46633391  0.84680503  1
  N  N104  1  0.81685077  0.03366609  0.90319497  1
  N  N105  1  0.18314923  0.96633391  0.40319497  1
  N  N106  1  0.53366609  0.68314923  0.65319497  1
  N  N107  1  0.46633391  0.31685077  0.15319497  1
  N  N108  1  0.63653932  0.17886951  0.42158380  1
  N  N109  1  0.36346068  0.82113049  0.92158380  1
  N  N110  1  0.67886951  0.86346068  0.17158380  1
  N  N111  1  0.32113049  0.13653932  0.67158380  1
  N  N112  1  0.82113049  0.36346068  0.07841620  1
  N  N113  1  0.17886951  0.63653932  0.57841620  1
  N  N114  1  0.86346068  0.67886951  0.82841620  1
  N  N115  1  0.13653932  0.32113049  0.32841620  1
  N  N116  1  0.59044186  0.23070796  0.54500906  1
  N  N117  1  0.40955814  0.76929204  0.04500906  1
  N  N118  1  0.73070796  0.90955814  0.29500906  1
  N  N119  1  0.26929204  0.09044186  0.79500906  1
  N  N120  1  0.76929204  0.40955814  0.95499094  1
  N  N121  1  0.23070796  0.59044186  0.45499094  1
  N  N122  1  0.90955814  0.73070796  0.70499094  1
  N  N123  1  0.09044186  0.26929204  0.20499094  1
  O  O124  1  0.07761388  0.25733343  0.48891014  1
  O  O125  1  0.92238612  0.74266657  0.98891014  1
  O  O126  1  0.75733343  0.42238612  0.23891014  1
  O  O127  1  0.24266657  0.57761388  0.73891014  1
  O  O128  1  0.74266657  0.92238612  0.01108986  1
  O  O129  1  0.25733343  0.07761388  0.51108986  1
  O  O130  1  0.42238612  0.75733343  0.76108986  1
  O  O131  1  0.57761388  0.24266657  0.26108986  1
  O  O132  1  0.48061094  0.35588538  0.45090088  1
  O  O133  1  0.51938906  0.64411462  0.95090088  1
  O  O134  1  0.85588538  0.01938906  0.20090088  1
  O  O135  1  0.14411462  0.98061094  0.70090088  1
  O  O136  1  0.64411462  0.51938906  0.04909912  1
  O  O137  1  0.35588538  0.48061094  0.54909912  1
  O  O138  1  0.01938906  0.85588538  0.79909912  1
  O  O139  1  0.98061094  0.14411462  0.29909912  1
  F  F140  1  0.53515330  0.36252626  0.69326635  1
  F  F141  1  0.46484670  0.63747374  0.19326635  1
  F  F142  1  0.86252626  0.96484670  0.44326635  1
  F  F143  1  0.13747374  0.03515330  0.94326635  1
  F  F144  1  0.63747374  0.46484670  0.80673365  1
  F  F145  1  0.36252626  0.53515330  0.30673365  1
  F  F146  1  0.96484670  0.86252626  0.55673365  1
  F  F147  1  0.03515330  0.13747374  0.05673365  1
  F  F148  1  0.78949774  0.43163033  0.69791960  1
  F  F149  1  0.21050226  0.56836967  0.19791960  1
  F  F150  1  0.93163033  0.71050226  0.44791960  1
  F  F151  1  0.06836967  0.28949774  0.94791960  1
  F  F152  1  0.56836967  0.21050226  0.80208040  1
  F  F153  1  0.43163033  0.78949774  0.30208040  1
  F  F154  1  0.71050226  0.93163033  0.55208040  1
  F  F155  1  0.28949774  0.06836967  0.05208040  1
  F  F156  1  0.72101490  0.18068919  0.69298906  1
  F  F157  1  0.27898510  0.81931081  0.19298906  1
  F  F158  1  0.68068919  0.77898510  0.44298906  1
  F  F159  1  0.31931081  0.22101490  0.94298906  1
  F  F160  1  0.81931081  0.27898510  0.80701094  1
  F  F161  1  0.18068919  0.72101490  0.30701094  1
  F  F162  1  0.77898510  0.68068919  0.55701094  1
  F  F163  1  0.22101490  0.31931081  0.05701094  1
