# generated using pymatgen
data_CrP2H17N4O9
_symmetry_space_group_name_H-M   'P 1'
_cell_length_a   7.57404564
_cell_length_b   13.89442963
_cell_length_c   11.70582726
_cell_angle_alpha   90.00000000
_cell_angle_beta   93.56417961
_cell_angle_gamma   90.00000000
_symmetry_Int_Tables_number   1
_chemical_formula_structural   CrP2H17N4O9
_chemical_formula_sum   'Cr4 P8 H68 N16 O36'
_cell_volume   1229.50393152
_cell_formula_units_Z   4
loop_
 _symmetry_equiv_pos_site_id
 _symmetry_equiv_pos_as_xyz
  1  'x, y, z'
loop_
 _atom_site_type_symbol
 _atom_site_label
 _atom_site_symmetry_multiplicity
 _atom_site_fract_x
 _atom_site_fract_y
 _atom_site_fract_z
 _atom_site_occupancy
  Cr  Cr0  1  0.11357084  0.04482969  0.71804389  1
  Cr  Cr1  1  0.88642916  0.54482969  0.78195611  1
  Cr  Cr2  1  0.88642916  0.95517031  0.28195611  1
  Cr  Cr3  1  0.11357084  0.45517031  0.21804389  1
  P  P4  1  0.83930894  0.19221938  0.59479628  1
  P  P5  1  0.16069106  0.69221938  0.90520372  1
  P  P6  1  0.16069106  0.80778062  0.40520372  1
  P  P7  1  0.83930894  0.30778062  0.09479628  1
  P  P8  1  0.72910391  0.08695273  0.79781413  1
  P  P9  1  0.27089609  0.58695273  0.70218587  1
  P  P10  1  0.27089609  0.91304727  0.20218587  1
  P  P11  1  0.72910391  0.41304727  0.29781413  1
  H  H12  1  0.68733893  0.20584202  0.92808680  1
  H  H13  1  0.31266107  0.70584202  0.57191320  1
  H  H14  1  0.31266107  0.79415798  0.07191320  1
  H  H15  1  0.68733893  0.29415798  0.42808680  1
  H  H16  1  0.22422371  0.02167681  0.92966539  1
  H  H17  1  0.77577629  0.52167681  0.57033461  1
  H  H18  1  0.77577629  0.97832319  0.07033461  1
  H  H19  1  0.22422371  0.47832319  0.42966539  1
  H  H20  1  0.20670209  0.91124927  0.87227209  1
  H  H21  1  0.79329791  0.41124927  0.62772791  1
  H  H22  1  0.79329791  0.08875073  0.12772791  1
  H  H23  1  0.20670209  0.58875073  0.37227209  1
  H  H24  1  0.38350308  0.97996165  0.85108488  1
  H  H25  1  0.61649692  0.47996165  0.64891512  1
  H  H26  1  0.61649692  0.02003835  0.14891512  1
  H  H27  1  0.38350308  0.52003835  0.35108488  1
  H  H28  1  0.43388567  0.99868690  0.66160728  1
  H  H29  1  0.56611433  0.49868690  0.83839272  1
  H  H30  1  0.56611433  0.00131310  0.33839272  1
  H  H31  1  0.43388567  0.50131310  0.16160728  1
  H  H32  1  0.33114845  0.06253524  0.55531784  1
  H  H33  1  0.66885155  0.56253524  0.94468216  1
  H  H34  1  0.66885155  0.93746476  0.44468216  1
  H  H35  1  0.33114845  0.43746476  0.05531784  1
  H  H36  1  0.28909182  0.94365255  0.57145977  1
  H  H37  1  0.71090818  0.44365255  0.92854023  1
  H  H38  1  0.71090818  0.05634745  0.42854023  1
  H  H39  1  0.28909182  0.55634745  0.07145977  1
  H  H40  1  0.98726581  0.90446694  0.58584102  1
  H  H41  1  0.01273419  0.40446694  0.91415898  1
  H  H42  1  0.01273419  0.09553306  0.41415898  1
  H  H43  1  0.98726581  0.59553306  0.08584102  1
  H  H44  1  0.02920051  0.86047663  0.71900572  1
  H  H45  1  0.97079949  0.36047663  0.78099428  1
  H  H46  1  0.97079949  0.13952337  0.28099428  1
  H  H47  1  0.02920051  0.63952337  0.21900572  1
  H  H48  1  0.84730180  0.92443824  0.68710982  1
  H  H49  1  0.15269820  0.42443824  0.81289018  1
  H  H50  1  0.15269820  0.07556176  0.31289018  1
  H  H51  1  0.84730180  0.57556176  0.18710982  1
  H  H52  1  0.34922699  0.16368308  0.82700827  1
  H  H53  1  0.65077301  0.66368308  0.67299173  1
  H  H54  1  0.65077301  0.83631692  0.17299173  1
  H  H55  1  0.34922699  0.33631692  0.32700827  1
  H  H56  1  0.16245574  0.22018441  0.78944267  1
  H  H57  1  0.83754426  0.72018441  0.71055733  1
  H  H58  1  0.83754426  0.77981559  0.21055733  1
  H  H59  1  0.16245574  0.27981559  0.28944267  1
  H  H60  1  0.31009295  0.20192491  0.69410328  1
  H  H61  1  0.68990705  0.70192491  0.80589672  1
  H  H62  1  0.68990705  0.79807509  0.30589672  1
  H  H63  1  0.31009295  0.29807509  0.19410328  1
  H  H64  1  0.28715366  0.10375093  0.11307174  1
  H  H65  1  0.71284634  0.60375093  0.38692826  1
  H  H66  1  0.71284634  0.89624907  0.88692826  1
  H  H67  1  0.28715366  0.39624907  0.61307174  1
  H  H68  1  0.11620056  0.16296129  0.07351540  1
  H  H69  1  0.88379944  0.66296129  0.42648460  1
  H  H70  1  0.88379944  0.83703871  0.92648460  1
  H  H71  1  0.11620056  0.33703871  0.57351540  1
  H  H72  1  0.49013849  0.18238545  0.46688592  1
  H  H73  1  0.50986151  0.68238545  0.03311408  1
  H  H74  1  0.50986151  0.81761455  0.53311408  1
  H  H75  1  0.49013849  0.31761455  0.96688592  1
  H  H76  1  0.32339739  0.23929489  0.50097629  1
  H  H77  1  0.67660261  0.73929489  0.99902371  1
  H  H78  1  0.67660261  0.76070511  0.49902371  1
  H  H79  1  0.32339739  0.26070511  0.00097629  1
  N  N80  1  0.24941449  0.98072492  0.85926145  1
  N  N81  1  0.75058551  0.48072492  0.64073855  1
  N  N82  1  0.75058551  0.01927508  0.14073855  1
  N  N83  1  0.24941449  0.51927508  0.35926145  1
  N  N84  1  0.31610094  0.00731771  0.61365012  1
  N  N85  1  0.68389906  0.50731771  0.88634988  1
  N  N86  1  0.68389906  0.99268229  0.38634988  1
  N  N87  1  0.31610094  0.49268229  0.11365012  1
  N  N88  1  0.97887833  0.91778575  0.67182442  1
  N  N89  1  0.02112167  0.41778575  0.82817558  1
  N  N90  1  0.02112167  0.08221425  0.32817558  1
  N  N91  1  0.97887833  0.58221425  0.17182442  1
  N  N92  1  0.25276913  0.17196499  0.76237719  1
  N  N93  1  0.74723087  0.67196499  0.73762281  1
  N  N94  1  0.74723087  0.82803501  0.23762281  1
  N  N95  1  0.25276913  0.32803501  0.26237719  1
  O  O96  1  0.97632905  0.11036513  0.58655095  1
  O  O97  1  0.02367095  0.61036513  0.91344905  1
  O  O98  1  0.02367095  0.88963487  0.41344905  1
  O  O99  1  0.97632905  0.38963487  0.08655095  1
  O  O100  1  0.73116762  0.20039729  0.47998442  1
  O  O101  1  0.26883238  0.70039729  0.02001558  1
  O  O102  1  0.26883238  0.79960271  0.52001558  1
  O  O103  1  0.73116762  0.29960271  0.97998442  1
  O  O104  1  0.91749432  0.28623367  0.64109501  1
  O  O105  1  0.08250568  0.78623367  0.85890499  1
  O  O106  1  0.08250568  0.71376633  0.35890499  1
  O  O107  1  0.91749432  0.21376633  0.14109501  1
  O  O108  1  0.69350759  0.15360644  0.68428682  1
  O  O109  1  0.30649241  0.65360644  0.81571318  1
  O  O110  1  0.30649241  0.84639356  0.31571318  1
  O  O111  1  0.69350759  0.34639356  0.18428682  1
  O  O112  1  0.92849609  0.08304782  0.82576175  1
  O  O113  1  0.07150391  0.58304782  0.67423825  1
  O  O114  1  0.07150391  0.91695218  0.17423825  1
  O  O115  1  0.92849609  0.41695218  0.32576175  1
  O  O116  1  0.63732797  0.99086329  0.77680108  1
  O  O117  1  0.36267203  0.49086329  0.72319892  1
  O  O118  1  0.36267203  0.00913671  0.22319892  1
  O  O119  1  0.63732797  0.50913671  0.27680108  1
  O  O120  1  0.63463061  0.14085653  0.89455791  1
  O  O121  1  0.36536939  0.64085653  0.60544209  1
  O  O122  1  0.36536939  0.85914347  0.10544209  1
  O  O123  1  0.63463061  0.35914347  0.39455791  1
  O  O124  1  0.23615073  0.14530119  0.05095814  1
  O  O125  1  0.76384927  0.64530119  0.44904186  1
  O  O126  1  0.76384927  0.85469881  0.94904186  1
  O  O127  1  0.23615073  0.35469881  0.55095814  1
  O  O128  1  0.36050973  0.17691219  0.46932517  1
  O  O129  1  0.63949027  0.67691219  0.03067483  1
  O  O130  1  0.63949027  0.82308781  0.53067483  1
  O  O131  1  0.36050973  0.32308781  0.96932517  1
