# generated using pymatgen
data_H26Os2N12Cl4O9
_symmetry_space_group_name_H-M   'P 1'
_cell_length_a   7.15189392
_cell_length_b   7.15189392
_cell_length_c   26.00830219
_cell_angle_alpha   82.98233324
_cell_angle_beta   97.01766676
_cell_angle_gamma   122.82218884
_symmetry_Int_Tables_number   1
_chemical_formula_structural   H26Os2N12Cl4O9
_chemical_formula_sum   'H52 Os4 N24 Cl8 O18'
_cell_volume   1107.06378984
_cell_formula_units_Z   2
loop_
 _symmetry_equiv_pos_site_id
 _symmetry_equiv_pos_as_xyz
  1  'x, y, z'
loop_
 _atom_site_type_symbol
 _atom_site_label
 _atom_site_symmetry_multiplicity
 _atom_site_fract_x
 _atom_site_fract_y
 _atom_site_fract_z
 _atom_site_occupancy
  H  H0  1  0.51397977  0.58382249  0.77343771  1
  H  H1  1  0.58382249  0.51397977  0.72656229  1
  H  H2  1  0.48602023  0.41617751  0.22656229  1
  H  H3  1  0.41617751  0.48602023  0.27343771  1
  H  H4  1  0.86479580  0.90124092  0.80443265  1
  H  H5  1  0.90124092  0.86479580  0.69556735  1
  H  H6  1  0.13520420  0.09875908  0.19556735  1
  H  H7  1  0.09875908  0.13520420  0.30443265  1
  H  H8  1  0.82674744  0.39205717  0.86595357  1
  H  H9  1  0.39205717  0.82674744  0.63404643  1
  H  H10  1  0.17325256  0.60794283  0.13404643  1
  H  H11  1  0.60794283  0.17325256  0.36595357  1
  H  H12  1  0.11098969  0.15410737  0.94264425  1
  H  H13  1  0.15410737  0.11098969  0.55735575  1
  H  H14  1  0.88901031  0.84589263  0.05735575  1
  H  H15  1  0.84589263  0.88901031  0.44264425  1
  H  H16  1  0.32112855  0.73396504  0.96328000  1
  H  H17  1  0.73396504  0.32112855  0.53672000  1
  H  H18  1  0.67887145  0.26603496  0.03672000  1
  H  H19  1  0.26603496  0.67887145  0.46328000  1
  H  H20  1  0.01642459  0.13627578  0.83450343  1
  H  H21  1  0.13627578  0.01642459  0.66549657  1
  H  H22  1  0.98357541  0.86372422  0.16549657  1
  H  H23  1  0.86372422  0.98357541  0.33450343  1
  H  H24  1  0.02860197  0.54452277  0.82593129  1
  H  H25  1  0.54452277  0.02860197  0.67406871  1
  H  H26  1  0.97139803  0.45547723  0.17406871  1
  H  H27  1  0.45547723  0.97139803  0.32593129  1
  H  H28  1  0.34630773  0.23838071  0.91622400  1
  H  H29  1  0.23838071  0.34630773  0.58377600  1
  H  H30  1  0.65369227  0.76161929  0.08377600  1
  H  H31  1  0.76161929  0.65369227  0.41622400  1
  H  H32  1  0.30922234  0.65098040  0.90459373  1
  H  H33  1  0.65098040  0.30922234  0.59540627  1
  H  H34  1  0.69077766  0.34901960  0.09540627  1
  H  H35  1  0.34901960  0.69077766  0.40459373  1
  H  H36  1  0.76314975  0.93910538  0.85309191  1
  H  H37  1  0.93910538  0.76314975  0.64690809  1
  H  H38  1  0.23685025  0.06089462  0.14690809  1
  H  H39  1  0.06089462  0.23685025  0.35309191  1
  H  H40  1  0.79391826  0.54416304  0.81508294  1
  H  H41  1  0.54416304  0.79391826  0.68491706  1
  H  H42  1  0.20608174  0.45583696  0.18491706  1
  H  H43  1  0.45583696  0.20608174  0.31508294  1
  H  H44  1  0.28005335  0.07542023  0.97241686  1
  H  H45  1  0.07542023  0.28005335  0.52758314  1
  H  H46  1  0.71994665  0.92457977  0.02758314  1
  H  H47  1  0.92457977  0.71994665  0.47241686  1
  H  H48  1  0.09907257  0.49642453  0.94223582  1
  H  H49  1  0.49642453  0.09907257  0.55776418  1
  H  H50  1  0.90092743  0.50357547  0.05776418  1
  H  H51  1  0.50357547  0.90092743  0.44223582  1
  Os  Os52  1  0.04942457  0.81401223  0.89210252  1
  Os  Os53  1  0.81401223  0.04942457  0.60789748  1
  Os  Os54  1  0.95057543  0.18598777  0.10789748  1
  Os  Os55  1  0.18598777  0.95057543  0.39210252  1
  N  N56  1  0.82994335  0.68082083  0.93292899  1
  N  N57  1  0.68082083  0.82994335  0.56707101  1
  N  N58  1  0.17005665  0.31917917  0.06707101  1
  N  N59  1  0.31917917  0.17005665  0.43292899  1
  N  N60  1  0.90645321  0.96617598  0.84019959  1
  N  N61  1  0.96617598  0.90645321  0.65980041  1
  N  N62  1  0.09354679  0.03382402  0.15980041  1
  N  N63  1  0.03382402  0.09354679  0.34019959  1
  N  N64  1  0.90587885  0.54159448  0.84375685  1
  N  N65  1  0.54159448  0.90587885  0.65624315  1
  N  N66  1  0.09412115  0.45840552  0.15624315  1
  N  N67  1  0.45840552  0.09412115  0.34375685  1
  N  N68  1  0.21940197  0.10571264  0.93639845  1
  N  N69  1  0.10571264  0.21940197  0.56360155  1
  N  N70  1  0.78059803  0.89428736  0.06360155  1
  N  N71  1  0.89428736  0.78059803  0.43639845  1
  N  N72  1  0.21837222  0.66068032  0.93130277  1
  N  N73  1  0.66068032  0.21837222  0.56869723  1
  N  N74  1  0.78162778  0.33931968  0.06869723  1
  N  N75  1  0.33931968  0.78162778  0.43130277  1
  N  N76  1  0.34857181  0.00353727  0.79997513  1
  N  N77  1  0.00353727  0.34857181  0.70002487  1
  N  N78  1  0.65142819  0.99646273  0.20002487  1
  N  N79  1  0.99646273  0.65142819  0.29997513  1
  Cl  Cl80  1  0.79193819  0.15882855  0.94711976  1
  Cl  Cl81  1  0.15882855  0.79193819  0.55288024  1
  Cl  Cl82  1  0.20806181  0.84117145  0.05288024  1
  Cl  Cl83  1  0.84117145  0.20806181  0.44711976  1
  Cl  Cl84  1  0.35446676  0.50044174  0.84254644  1
  Cl  Cl85  1  0.50044174  0.35446676  0.65745356  1
  Cl  Cl86  1  0.64553324  0.49955826  0.15745356  1
  Cl  Cl87  1  0.49955826  0.64553324  0.34254644  1
  O  O88  1  0.68397340  0.59658358  0.96105661  1
  O  O89  1  0.59658358  0.68397340  0.53894339  1
  O  O90  1  0.31602660  0.40341642  0.03894339  1
  O  O91  1  0.40341642  0.31602660  0.46105661  1
  O  O92  1  0.33351198  0.98661054  0.85247168  1
  O  O93  1  0.98661054  0.33351198  0.64752832  1
  O  O94  1  0.66648802  0.01338946  0.14752832  1
  O  O95  1  0.01338946  0.66648802  0.35247168  1
  O  O96  1  0.17757601  0.93401480  0.77105405  1
  O  O97  1  0.93401480  0.17757601  0.72894595  1
  O  O98  1  0.82242399  0.06598520  0.22894595  1
  O  O99  1  0.06598520  0.82242399  0.27105405  1
  O  O100  1  0.53944178  0.09032353  0.78646448  1
  O  O101  1  0.09032353  0.53944178  0.71353552  1
  O  O102  1  0.46055822  0.90967647  0.21353552  1
  O  O103  1  0.90967647  0.46055822  0.28646448  1
  O  O104  1  0.63536138  0.63536138  0.75000000  1
  O  O105  1  0.36463862  0.36463862  0.25000000  1
