# generated using pymatgen
data_H6AuBrN2
_symmetry_space_group_name_H-M   'P 1'
_cell_length_a   7.07616574
_cell_length_b   11.60557828
_cell_length_c   13.27864540
_cell_angle_alpha   90.00000000
_cell_angle_beta   90.00000000
_cell_angle_gamma   90.00000000
_symmetry_Int_Tables_number   1
_chemical_formula_structural   H6AuBrN2
_chemical_formula_sum   'H48 Au8 Br8 N16'
_cell_volume   1090.48213534
_cell_formula_units_Z   8
loop_
 _symmetry_equiv_pos_site_id
 _symmetry_equiv_pos_as_xyz
  1  'x, y, z'
loop_
 _atom_site_type_symbol
 _atom_site_label
 _atom_site_symmetry_multiplicity
 _atom_site_fract_x
 _atom_site_fract_y
 _atom_site_fract_z
 _atom_site_occupancy
  H  H0  1  0.50782749  0.45891949  0.39694104  1
  H  H1  1  0.00782749  0.04108051  0.10305896  1
  H  H2  1  0.49217251  0.95891949  0.60305896  1
  H  H3  1  0.99217251  0.54108051  0.89694104  1
  H  H4  1  0.49217251  0.54108051  0.60305896  1
  H  H5  1  0.99217251  0.95891949  0.89694104  1
  H  H6  1  0.50782749  0.04108051  0.39694104  1
  H  H7  1  0.00782749  0.45891949  0.10305896  1
  H  H8  1  0.73869720  0.45822178  0.42627028  1
  H  H9  1  0.23869720  0.04177822  0.07372972  1
  H  H10  1  0.26130280  0.95822178  0.57372972  1
  H  H11  1  0.76130280  0.54177822  0.92627028  1
  H  H12  1  0.26130280  0.54177822  0.57372972  1
  H  H13  1  0.76130280  0.95822178  0.92627028  1
  H  H14  1  0.73869720  0.04177822  0.42627028  1
  H  H15  1  0.23869720  0.45822178  0.07372972  1
  H  H16  1  0.66822553  0.45816750  0.30533882  1
  H  H17  1  0.16822553  0.04183250  0.19466118  1
  H  H18  1  0.33177447  0.95816750  0.69466118  1
  H  H19  1  0.83177447  0.54183250  0.80533882  1
  H  H20  1  0.33177447  0.54183250  0.69466118  1
  H  H21  1  0.83177447  0.95816750  0.80533882  1
  H  H22  1  0.66822553  0.04183250  0.30533882  1
  H  H23  1  0.16822553  0.45816750  0.19466118  1
  H  H24  1  0.10857933  0.17788740  0.81734720  1
  H  H25  1  0.60857933  0.32211260  0.68265280  1
  H  H26  1  0.89142067  0.67788740  0.18265280  1
  H  H27  1  0.39142067  0.82211260  0.31734720  1
  H  H28  1  0.89142067  0.82211260  0.18265280  1
  H  H29  1  0.39142067  0.67788740  0.31734720  1
  H  H30  1  0.10857933  0.32211260  0.81734720  1
  H  H31  1  0.60857933  0.17788740  0.68265280  1
  H  H32  1  0.96285275  0.25000000  0.74035912  1
  H  H33  1  0.46285275  0.25000000  0.75964088  1
  H  H34  1  0.03714725  0.75000000  0.25964088  1
  H  H35  1  0.53714725  0.75000000  0.24035912  1
  H  H36  1  0.66801657  0.25000000  0.09653685  1
  H  H37  1  0.16801657  0.25000000  0.40346315  1
  H  H38  1  0.33198343  0.75000000  0.90346315  1
  H  H39  1  0.83198343  0.75000000  0.59653685  1
  H  H40  1  0.52903484  0.32267531  0.01740885  1
  H  H41  1  0.02903484  0.17732469  0.48259115  1
  H  H42  1  0.47096516  0.82267531  0.98259115  1
  H  H43  1  0.97096516  0.67732469  0.51740885  1
  H  H44  1  0.47096516  0.67732469  0.98259115  1
  H  H45  1  0.97096516  0.82267531  0.51740885  1
  H  H46  1  0.52903484  0.17732469  0.01740885  1
  H  H47  1  0.02903484  0.32267531  0.48259115  1
  Au  Au48  1  0.63577507  0.25000000  0.37795391  1
  Au  Au49  1  0.13577507  0.25000000  0.12204609  1
  Au  Au50  1  0.36422493  0.75000000  0.62204609  1
  Au  Au51  1  0.86422493  0.75000000  0.87795391  1
  Au  Au52  1  0.82070880  0.25000000  0.91971000  1
  Au  Au53  1  0.32070880  0.25000000  0.58029000  1
  Au  Au54  1  0.17929120  0.75000000  0.08029000  1
  Au  Au55  1  0.67929120  0.75000000  0.41971000  1
  Br  Br56  1  0.65810705  0.53392755  0.12777289  1
  Br  Br57  1  0.15810705  0.96607245  0.37222711  1
  Br  Br58  1  0.34189295  0.03392755  0.87222711  1
  Br  Br59  1  0.84189295  0.46607245  0.62777289  1
  Br  Br60  1  0.34189295  0.46607245  0.87222711  1
  Br  Br61  1  0.84189295  0.03392755  0.62777289  1
  Br  Br62  1  0.65810705  0.96607245  0.12777289  1
  Br  Br63  1  0.15810705  0.53392755  0.37222711  1
  N  N64  1  0.63892821  0.42702932  0.37668372  1
  N  N65  1  0.13892821  0.07297068  0.12331628  1
  N  N66  1  0.36107179  0.92702932  0.62331628  1
  N  N67  1  0.86107179  0.57297068  0.87668372  1
  N  N68  1  0.36107179  0.57297068  0.62331628  1
  N  N69  1  0.86107179  0.92702932  0.87668372  1
  N  N70  1  0.63892821  0.07297068  0.37668372  1
  N  N71  1  0.13892821  0.42702932  0.12331628  1
  N  N72  1  0.02314515  0.25000000  0.80994910  1
  N  N73  1  0.52314515  0.25000000  0.69005090  1
  N  N74  1  0.97685485  0.75000000  0.19005090  1
  N  N75  1  0.47685485  0.75000000  0.30994910  1
  N  N76  1  0.61109461  0.25000000  0.02604178  1
  N  N77  1  0.11109461  0.25000000  0.47395822  1
  N  N78  1  0.38890539  0.75000000  0.97395822  1
  N  N79  1  0.88890539  0.75000000  0.52604178  1
