# generated using pymatgen
data_KCdP3H8O13
_symmetry_space_group_name_H-M   'P 1'
_cell_length_a   7.54350397
_cell_length_b   11.51040450
_cell_length_c   14.59979931
_cell_angle_alpha   97.79570085
_cell_angle_beta   90.49362406
_cell_angle_gamma   82.30296218
_symmetry_Int_Tables_number   1
_chemical_formula_structural   KCdP3H8O13
_chemical_formula_sum   'K4 Cd4 P12 H32 O52'
_cell_volume   1244.59188719
_cell_formula_units_Z   4
loop_
 _symmetry_equiv_pos_site_id
 _symmetry_equiv_pos_as_xyz
  1  'x, y, z'
loop_
 _atom_site_type_symbol
 _atom_site_label
 _atom_site_symmetry_multiplicity
 _atom_site_fract_x
 _atom_site_fract_y
 _atom_site_fract_z
 _atom_site_occupancy
  K  K0  1  0.97313563  0.68222465  0.30742900  1
  K  K1  1  0.02686437  0.31777535  0.69257100  1
  K  K2  1  0.49730672  0.66117022  0.94213112  1
  K  K3  1  0.50269328  0.33882978  0.05786888  1
  Cd  Cd4  1  0.74549166  0.24775159  0.26182385  1
  Cd  Cd5  1  0.25450834  0.75224841  0.73817615  1
  Cd  Cd6  1  0.37309748  0.85777310  0.26210151  1
  Cd  Cd7  1  0.62690252  0.14222690  0.73789849  1
  P  P8  1  0.99815412  0.12758540  0.89489474  1
  P  P9  1  0.00184588  0.87241460  0.10510526  1
  P  P10  1  0.01495686  0.28582753  0.07309832  1
  P  P11  1  0.98504314  0.71417247  0.92690168  1
  P  P12  1  0.14245374  0.08854147  0.17840678  1
  P  P13  1  0.85754626  0.91145853  0.82159322  1
  P  P14  1  0.50807076  0.37616836  0.61197898  1
  P  P15  1  0.49192924  0.62383164  0.38802102  1
  P  P16  1  0.46259227  0.21640921  0.43714762  1
  P  P17  1  0.53740773  0.78359079  0.56285238  1
  P  P18  1  0.66474248  0.59111530  0.67492534  1
  P  P19  1  0.33525752  0.40888470  0.32507466  1
  H  H20  1  0.81804941  0.49982603  0.14877423  1
  H  H21  1  0.18195059  0.50017397  0.85122577  1
  H  H22  1  0.84805203  0.59127203  0.08078037  1
  H  H23  1  0.15194797  0.40872797  0.91921963  1
  H  H24  1  0.64185530  0.81660604  0.12441605  1
  H  H25  1  0.35814470  0.18339396  0.87558395  1
  H  H26  1  0.38240936  0.30947742  0.85196339  1
  H  H27  1  0.61759064  0.69052258  0.14803661  1
  H  H28  1  0.49319519  0.90088475  0.83419045  1
  H  H29  1  0.50680481  0.09911525  0.16580955  1
  H  H30  1  0.69287525  0.04759532  0.12204527  1
  H  H31  1  0.30712475  0.95240468  0.87795473  1
  H  H32  1  0.84313697  0.10929478  0.55954430  1
  H  H33  1  0.15686303  0.89070522  0.44045570  1
  H  H34  1  0.73342407  0.99678282  0.56620815  1
  H  H35  1  0.26657593  0.00321718  0.43379185  1
  H  H36  1  0.79223010  0.45235405  0.38642049  1
  H  H37  1  0.20776990  0.54764595  0.61357951  1
  H  H38  1  0.98197222  0.39612183  0.34770003  1
  H  H39  1  0.01802778  0.60387817  0.65229997  1
  H  H40  1  0.91150954  0.81765629  0.50777200  1
  H  H41  1  0.08849046  0.18234371  0.49222800  1
  H  H42  1  0.91646505  0.26432533  0.46940574  1
  H  H43  1  0.08353495  0.73567467  0.53059426  1
  H  H44  1  0.36883262  0.00012920  0.65498034  1
  H  H45  1  0.63116738  -0.00012920  0.34501966  1
  H  H46  1  0.63251406  0.89485951  0.40402420  1
  H  H47  1  0.36748594  0.10514049  0.59597580  1
  H  H48  1  0.79459172  0.47992875  0.91285671  1
  H  H49  1  0.20540828  0.52007125  0.08714329  1
  H  H50  1  0.74714637  0.35228552  0.88462818  1
  H  H51  1  0.25285363  0.64771448  0.11537182  1
  O  O52  1  0.80165842  0.89674314  0.10755974  1
  O  O53  1  0.19834158  0.10325686  0.89244026  1
  O  O54  1  0.10319541  0.81133583  0.17906624  1
  O  O55  1  0.89680459  0.18866417  0.82093376  1
  O  O56  1  0.07291798  0.80067773  0.00609083  1
  O  O57  1  0.92708202  0.19932227  0.99390917  1
  O  O58  1  0.87862255  0.63202830  0.96661656  1
  O  O59  1  0.12137745  0.36797170  0.03338344  1
  O  O60  1  0.86117223  0.33576254  0.13873510  1
  O  O61  1  0.13882777  0.66423746  0.86126490  1
  O  O62  1  0.16236516  0.19597992  0.12058301  1
  O  O63  1  0.83763484  0.80402008  0.87941699  1
  O  O64  1  0.67080629  0.95780013  0.79342308  1
  O  O65  1  0.32919371  0.04219987  0.20657692  1
  O  O66  1  0.00156320  0.12165660  0.25222591  1
  O  O67  1  0.99843680  0.87834340  0.74777409  1
  O  O68  1  0.07998201  0.99427885  0.09587540  1
  O  O69  1  0.92001799  0.00572115  0.90412460  1
  O  O70  1  0.30854379  0.40324716  0.62112081  1
  O  O71  1  0.69145621  0.59675284  0.37887919  1
  O  O72  1  0.61843181  0.31883484  0.68423904  1
  O  O73  1  0.38156819  0.68116516  0.31576096  1
  O  O74  1  0.43615046  0.69989715  0.48834500  1
  O  O75  1  0.56384954  0.30010285  0.51165500  1
  O  O76  1  0.64737938  0.86025760  0.51717742  1
  O  O77  1  0.35262062  0.13974240  0.48282258  1
  O  O78  1  0.60587422  0.15662466  0.36850450  1
  O  O79  1  0.39412578  0.84337534  0.63149550  1
  O  O80  1  0.31999319  0.30612929  0.38929650  1
  O  O81  1  0.68000681  0.69387071  0.61070350  1
  O  O82  1  0.47669972  0.36854324  0.25059027  1
  O  O83  1  0.52330028  0.63145676  0.74940973  1
  O  O84  1  0.14833852  0.44977287  0.29781116  1
  O  O85  1  0.85166148  0.55022713  0.70218884  1
  O  O86  1  0.59260425  0.49429156  0.59707141  1
  O  O87  1  0.40739575  0.50570844  0.40292859  1
  O  O88  1  0.80668884  0.58528379  0.14391380  1
  O  O89  1  0.19331116  0.41471621  0.85608620  1
  O  O90  1  0.54667029  0.76597538  0.13395611  1
  O  O91  1  0.45332971  0.23402462  0.86604389  1
  O  O92  1  0.38269313  0.87570848  0.85756839  1
  O  O93  1  0.61730687  0.12429152  0.14243161  1
  O  O94  1  0.21650361  0.93563602  0.39884073  1
  O  O95  1  0.78349639  0.06436398  0.60115927  1
  O  O96  1  0.12934131  0.62546065  0.62489856  1
  O  O97  1  0.87065869  0.37453935  0.37510144  1
  O  O98  1  0.96471891  0.20984276  0.51288971  1
  O  O99  1  0.03528109  0.79015724  0.48711029  1
  O  O100  1  0.37018058  0.08728117  0.66069610  1
  O  O101  1  0.62981942  0.91271883  0.33930390  1
  O  O102  1  0.70429210  0.42813162  0.92133103  1
  O  O103  1  0.29570790  0.57186838  0.07866897  1
