# generated using pymatgen
data_Fe21O23
_symmetry_space_group_name_H-M   'P 1'
_cell_length_a   70.67621161
_cell_length_b   20.14780195
_cell_length_c   8.11798601
_cell_angle_alpha   18.07424478
_cell_angle_beta   19.17989400
_cell_angle_gamma   7.61764435
_symmetry_Int_Tables_number   1
_chemical_formula_structural   Fe21O23
_chemical_formula_sum   'Fe21 O23'
_cell_volume   474.72321494
_cell_formula_units_Z   1
loop_
 _symmetry_equiv_pos_site_id
 _symmetry_equiv_pos_as_xyz
  1  'x, y, z'
loop_
 _atom_site_type_symbol
 _atom_site_label
 _atom_site_symmetry_multiplicity
 _atom_site_fract_x
 _atom_site_fract_y
 _atom_site_fract_z
 _atom_site_occupancy
  Fe  Fe0  1  0.03995132  0.00771572  0.00273479  1
  Fe  Fe1  1  0.08110263  0.01397298  0.02260766  1
  Fe  Fe2  1  0.12963902  0.98680721  0.03621596  1
  Fe  Fe3  1  0.17548068  0.00004287  0.99015258  1
  Fe  Fe4  1  0.22606628  0.96348407  0.01311557  1
  Fe  Fe5  1  0.24871591  0.04404462  0.99827319  1
  Fe  Fe6  1  0.29663729  0.01727739  0.01902635  1
  Fe  Fe7  1  0.35335427  0.99643099  0.96286168  1
  Fe  Fe8  1  0.39611391  0.99244744  0.97308503  1
  Fe  Fe9  1  0.43491583  0.00708512  0.98772570  1
  Fe  Fe10  1  0.52041813  0.00354543  0.99601538  1
  Fe  Fe11  1  0.56068807  0.00679693  0.02778845  1
  Fe  Fe12  1  0.60340047  0.00037344  0.03906886  1
  Fe  Fe13  1  0.65051173  0.01091778  0.98240371  1
  Fe  Fe14  1  0.70370386  0.97807803  0.99127419  1
  Fe  Fe15  1  0.73751847  0.00511487  0.00373647  1
  Fe  Fe16  1  0.77663435  0.01986161  0.99585936  1
  Fe  Fe17  1  0.82892276  0.98268181  0.01700953  1
  Fe  Fe18  1  0.87406467  0.99335058  0.98165655  1
  Fe  Fe19  1  0.91533105  0.00185856  0.97227251  1
  Fe  Fe20  1  0.95931348  0.99506592  -0.00543865  1
  O  O21  1  0.02084907  0.50901921  0.48413014  1
  O  O22  1  0.06577255  0.47139978  0.56154636  1
  O  O23  1  0.12433269  0.44815015  0.49954715  1
  O  O24  1  0.15487187  0.50235229  0.46813006  1
  O  O25  1  0.21192306  0.45389012  0.48291217  1
  O  O26  1  0.24661750  0.45722104  0.54330901  1
  O  O27  1  0.27292356  0.51157633  0.54620701  1
  O  O28  1  0.32693889  0.49680941  0.50812757  1
  O  O29  1  0.36433304  0.54244460  0.43850179  1
  O  O30  1  0.40337996  0.56152662  0.43633673  1
  O  O31  1  0.45088886  0.51933086  0.48452468  1
  O  O32  1  0.50016193  0.50194260  0.48990005  1
  O  O33  1  0.54079715  0.49681790  0.52434181  1
  O  O34  1  0.59842260  0.45130795  0.54411467  1
  O  O35  1  0.63513426  0.46945886  0.53018431  1
  O  O36  1  0.69321890  0.44570049  0.45749038  1
  O  O37  1  0.71959205  0.49081146  0.51010019  1
  O  O38  1  0.75826603  0.51429690  0.49839715  1
  O  O39  1  0.79221514  0.52900713  0.52471878  1
  O  O40  1  0.84742839  0.49870602  0.50519489  1
  O  O41  1  0.88188177  0.52454306  0.51310271  1
  O  O42  1  0.92874453  0.54351618  0.46152982  1
  O  O43  1  0.97056101  0.53321766  0.48020773  1
