# generated using pymatgen
data_Na3CaAl3Si3SO16
_symmetry_space_group_name_H-M   'P 1'
_cell_length_a   7.85365760
_cell_length_b   7.82867981
_cell_length_c   15.68949193
_cell_angle_alpha   109.27934547
_cell_angle_beta   109.60873251
_cell_angle_gamma   109.51049784
_symmetry_Int_Tables_number   1
_chemical_formula_structural   Na3CaAl3Si3SO16
_chemical_formula_sum   'Na6 Ca2 Al6 Si6 S2 O32'
_cell_volume   742.72061652
_cell_formula_units_Z   2
loop_
 _symmetry_equiv_pos_site_id
 _symmetry_equiv_pos_as_xyz
  1  'x, y, z'
loop_
 _atom_site_type_symbol
 _atom_site_label
 _atom_site_symmetry_multiplicity
 _atom_site_fract_x
 _atom_site_fract_y
 _atom_site_fract_z
 _atom_site_occupancy
  Na  Na0  1  0.01611897  0.01623375  0.82136111  1
  Na  Na1  1  0.99667275  0.99840657  0.29437409  1
  Na  Na2  1  0.36104944  0.35554602  0.17324341  1
  Na  Na3  1  0.99482593  0.60000400  0.49870442  1
  Na  Na4  1  0.62677427  0.00512179  0.00171419  1
  Na  Na5  1  0.00586585  0.63066027  0.00103943  1
  Ca  Ca6  1  0.37071321  0.37843924  0.69954736  1
  Ca  Ca7  1  0.64016039  0.99636293  0.50041181  1
  Al  Al8  1  0.24669803  0.50333442  0.87471333  1
  Al  Al9  1  0.50424437  0.24912757  0.87376213  1
  Al  Al10  1  0.49892145  0.74637529  0.62941183  1
  Al  Al11  1  0.25091513  0.74727047  0.24858481  1
  Al  Al12  1  0.75108102  0.50130725  0.63002447  1
  Al  Al13  1  0.75053249  0.25289158  0.24976720  1
  Si  Si14  1  0.24493711  0.75768916  0.75001353  1
  Si  Si15  1  0.25819108  0.50194536  0.37724259  1
  Si  Si16  1  0.75583332  0.24318759  0.74970415  1
  Si  Si17  1  0.50542757  0.25530803  0.37801361  1
  Si  Si18  1  0.50205212  0.75129115  0.12320912  1
  Si  Si19  1  0.75060552  0.50325420  0.12276983  1
  S  S20  1  0.00338329  0.01319378  0.50366840  1
  S  S21  1  0.98529982  0.98576977  0.99563947  1
  O  O22  1  0.98863994  0.40361292  0.84973294  1
  O  O23  1  0.00591617  0.71323855  0.70783007  1
  O  O24  1  0.27625929  0.59366809  0.78824446  1
  O  O25  1  0.99034247  0.00954848  0.59685601  1
  O  O26  1  0.00536167  0.20952217  0.50925048  1
  O  O27  1  0.28959966  0.71476749  0.65212388  1
  O  O28  1  0.30409306  0.30471827  0.83880413  1
  O  O29  1  0.01623234  0.40589005  0.34995503  1
  O  O30  1  0.99248450  0.69297058  0.20172477  1
  O  O31  1  0.41391306  0.01128433  0.35357439  1
  O  O32  1  0.41492413  0.69646686  0.49827231  1
  O  O33  1  0.40733369  0.99179397  0.84944739  1
  O  O34  1  0.19702521  0.01797104  0.50957957  1
  O  O35  1  0.30956106  0.60011743  0.30615417  1
  O  O36  1  0.79116853  0.79014126  0.90458299  1
  O  O37  1  0.99925586  0.99897462  0.09536801  1
  O  O38  1  0.98144976  0.17280233  0.99130927  1
  O  O39  1  0.31315011  0.70051413  0.14964084  1
  O  O40  1  0.58998525  0.27697856  0.78471968  1
  O  O41  1  0.31161840  0.30810335  0.35954737  1
  O  O42  1  0.57280964  0.57022519  0.64969181  1
  O  O43  1  0.72069509  0.28343325  0.64933096  1
  O  O44  1  0.41080442  0.70559817  0.00413526  1
  O  O45  1  0.17317976  0.98330124  0.99217611  1
  O  O46  1  0.69281222  0.39954411  0.49885425  1
  O  O47  1  0.71075686  0.00312471  0.70451921  1
  O  O48  1  0.80907517  0.82928135  0.40763235  1
  O  O49  1  0.59548226  0.29920232  0.30365078  1
  O  O50  1  0.59818751  0.59861178  0.14179488  1
  O  O51  1  0.69945973  0.31410040  0.14961454  1
  O  O52  1  0.69197736  0.99230108  0.20108045  1
  O  O53  1  0.70614270  0.41547174  0.00388137  1
