# generated using pymatgen
data_Na3Ca2Fe5(SiO3)10
_symmetry_space_group_name_H-M   'P 1'
_cell_length_a   26.74295836
_cell_length_b   13.67040235
_cell_length_c   9.44521876
_cell_angle_alpha   49.17665116
_cell_angle_beta   43.94686748
_cell_angle_gamma   28.36937853
_symmetry_Int_Tables_number   1
_chemical_formula_structural   Na3Ca2Fe5(SiO3)10
_chemical_formula_sum   'Na6 Ca4 Fe10 Si20 O60'
_cell_volume   1136.51070042
_cell_formula_units_Z   2
loop_
 _symmetry_equiv_pos_site_id
 _symmetry_equiv_pos_as_xyz
  1  'x, y, z'
loop_
 _atom_site_type_symbol
 _atom_site_label
 _atom_site_symmetry_multiplicity
 _atom_site_fract_x
 _atom_site_fract_y
 _atom_site_fract_z
 _atom_site_occupancy
  Na  Na0  1  0.12824300  0.66744732  0.27469856  1
  Na  Na1  1  0.31220820  0.69552849  0.30089092  1
  Na  Na2  1  0.51235147  0.69921045  0.29379198  1
  Na  Na3  1  0.72652350  0.65727450  0.30300745  1
  Na  Na4  1  0.88903468  0.30139962  0.67649258  1
  Na  Na5  1  0.91275617  0.69525431  0.29725710  1
  Ca  Ca6  1  0.08578623  0.31664479  0.69824448  1
  Ca  Ca7  1  0.28936112  0.30929389  0.69824135  1
  Ca  Ca8  1  0.48619539  0.30192890  0.69955027  1
  Ca  Ca9  1  0.67728031  0.32667441  0.72335711  1
  Fe  Fe10  1  0.02846947  0.10273756  0.88949430  1
  Fe  Fe11  1  0.22941993  0.09752490  0.90945276  1
  Fe  Fe12  1  0.16386714  0.90650717  0.10908614  1
  Fe  Fe13  1  0.43364420  0.08762999  0.91007137  1
  Fe  Fe14  1  0.37167489  0.89718086  0.10340884  1
  Fe  Fe15  1  0.63101532  0.09272749  0.90744802  1
  Fe  Fe16  1  0.57188364  0.89657668  0.09849015  1
  Fe  Fe17  1  0.83191501  0.09370683  0.91045018  1
  Fe  Fe18  1  0.77225659  0.89035639  0.11004080  1
  Fe  Fe19  1  0.96930931  0.90636090  0.08446355  1
  Si  Si20  1  0.09901047  0.20110387  0.37709326  1
  Si  Si21  1  0.16294705  0.37722374  0.20255217  1
  Si  Si22  1  0.30123218  0.19398507  0.38085114  1
  Si  Si23  1  0.03750798  0.62260410  0.80211420  1
  Si  Si24  1  0.36256834  0.38238727  0.19566609  1
  Si  Si25  1  0.10113171  0.80795136  0.61513647  1
  Si  Si26  1  0.50025781  0.19327585  0.37861740  1
  Si  Si27  1  0.23568347  0.62767735  0.79726053  1
  Si  Si28  1  0.56016850  0.37748855  0.20384757  1
  Si  Si29  1  0.29963048  0.80746719  0.61871626  1
  Si  Si30  1  0.69604616  0.19590864  0.38468219  1
  Si  Si31  1  0.43426907  0.62634550  0.80161638  1
  Si  Si32  1  0.75920198  0.37996168  0.19125238  1
  Si  Si33  1  0.50030479  0.80779196  0.62107915  1
  Si  Si34  1  0.90599435  0.10869570  0.38867154  1
  Si  Si35  1  0.63800547  0.61712105  0.80613028  1
  Si  Si36  1  0.95939505  0.37750764  0.21187680  1
  Si  Si37  1  0.70312808  0.80019044  0.62093199  1
  Si  Si38  1  0.83967361  0.63172531  0.78518478  1
  Si  Si39  1  0.89727934  0.82235939  0.62546704  1
  O  O40  1  0.02351046  0.02070568  0.18994116  1
  O  O41  1  0.08827446  0.19769027  0.03187903  1
  O  O42  1  0.07447485  0.10611783  0.60786511  1
  O  O43  1  0.22075232  0.03587997  0.19387331  1
  O  O44  1  0.09638102  0.32668836  0.37930840  1
  O  O45  1  0.07357782  0.60880179  0.11432899  1
  O  O46  1  0.28115374  0.20019063  0.03600568  1
  O  O47  1  0.18826162  0.35989270  0.34170220  1
  O  O48  1  0.01278699  0.63515968  0.66765052  1
  O  O49  1  0.26616864  0.11846410  0.62022586  1
  O  O50  1  0.41626725  0.03144936  0.20597196  1
  O  O51  1  0.13586212  0.38264460  0.87641527  1
  O  O52  1  0.29490101  0.33451359  0.36319290  1
  O  O53  1  0.10844673  0.66307426  0.63785574  1
  O  O54  1  0.27193758  0.61660402  0.10563446  1
  O  O55  1  0.48439350  0.20940937  0.02429854  1
  O  O56  1  0.13663192  0.88066285  0.37690925  1
  O  O57  1  0.38865919  0.36248408  0.33271589  1
  O  O58  1  0.21385032  0.63328996  0.66359610  1
  O  O59  1  0.46741750  0.11259953  0.61159349  1
  O  O60  1  0.61999041  0.03453758  0.19358790  1
  O  O61  1  0.11517568  0.81240369  0.95228822  1
  O  O62  1  0.32529374  0.39861893  0.89177869  1
  O  O63  1  0.48997460  0.33509073  0.37229196  1
  O  O64  1  0.30838920  0.66655929  0.63038558  1
  O  O65  1  0.47147806  0.61055359  0.10850596  1
  O  O66  1  0.67997823  0.19645359  0.04360393  1
  O  O67  1  0.17765883  0.97706917  0.79689250  1
  O  O68  1  0.32797319  0.89335834  0.38535373  1
  O  O69  1  0.58422159  0.35581044  0.34828320  1
  O  O70  1  0.40906792  0.64037897  0.66825291  1
  O  O71  1  0.66260314  0.12101437  0.62496725  1
  O  O72  1  0.81718934  0.02270869  0.22089270  1
  O  O73  1  0.30978742  0.81074356  0.96293923  1
  O  O74  1  0.52850372  0.38975705  0.88795359  1
  O  O75  1  0.68808147  0.34002806  0.36015554  1
  O  O76  1  0.50427734  0.66767392  0.64541532  1
  O  O77  1  0.67285134  0.61043922  0.10117712  1
  O  O78  1  0.88669063  0.20243069  0.02526573  1
  O  O79  1  0.37789232  0.97109871  0.80605459  1
  O  O80  1  0.52382023  0.90219384  0.39604399  1
  O  O81  1  0.78808838  0.34084856  0.34324576  1
  O  O82  1  0.61136919  0.63021372  0.67358440  1
  O  O83  1  0.86957577  0.09074031  0.62229033  1
  O  O84  1  0.51172996  0.79765239  0.96931915  1
  O  O85  1  0.72307676  0.38890016  0.90414855  1
  O  O86  1  0.89618632  0.33131934  0.37259775  1
  O  O87  1  0.70283408  0.66816867  0.64854239  1
  O  O88  1  0.87872879  0.60873892  0.09662836  1
  O  O89  1  0.58380247  0.97670514  0.78555128  1
  O  O90  1  0.72805875  0.88797901  0.38561981  1
  O  O91  1  0.99416636  0.36783023  0.31867426  1
  O  O92  1  0.81405545  0.64551969  0.65433032  1
  O  O93  1  0.72129416  0.80307628  0.95574089  1
  O  O94  1  0.93641878  0.39134325  0.86458595  1
  O  O95  1  0.90762003  0.68424131  0.62080749  1
  O  O96  1  0.77431617  0.98048879  0.80829354  1
  O  O97  1  0.91837774  0.94265716  0.40869944  1
  O  O98  1  0.91522559  0.79420699  0.97231063  1
  O  O99  1  0.98383633  0.97338790  0.78529063  1
