# generated using pymatgen
data_Cu2OF2
_symmetry_space_group_name_H-M   'P 1'
_cell_length_a   5.69927003
_cell_length_b   6.08806796
_cell_length_c   5.74574314
_cell_angle_alpha   70.83222858
_cell_angle_beta   72.00844999
_cell_angle_gamma   108.66631146
_symmetry_Int_Tables_number   1
_chemical_formula_structural   Cu2OF2
_chemical_formula_sum   'Cu4 O2 F4'
_cell_volume   158.16903314
_cell_formula_units_Z   2
loop_
 _symmetry_equiv_pos_site_id
 _symmetry_equiv_pos_as_xyz
  1  'x, y, z'
loop_
 _atom_site_type_symbol
 _atom_site_label
 _atom_site_symmetry_multiplicity
 _atom_site_fract_x
 _atom_site_fract_y
 _atom_site_fract_z
 _atom_site_occupancy
  Cu  Cu0  1  0.50076673  0.00201089  0.99697785  1
  Cu  Cu1  1  0.50283908  0.00236155  0.49572234  1
  Cu  Cu2  1  0.50238402  0.50113567  0.49690209  1
  Cu  Cu3  1  0.00166503  0.50096058  0.49895215  1
  O  O4  1  0.62644389  0.24956435  0.62361751  1
  O  O5  1  0.37840062  0.75337253  0.36920393  1
  F  F6  1  0.63143921  0.26292209  0.11031440  1
  F  F7  1  0.87835042  0.76320342  0.37382132  1
  F  F8  1  0.12395477  0.23824367  0.62680788  1
  F  F9  1  0.36951423  0.74376525  0.88206353  1
