# generated using pymatgen
data_Li3Nb3TeO12
_symmetry_space_group_name_H-M   'P 1'
_cell_length_a   5.52609284
_cell_length_b   5.19909116
_cell_length_c   7.62523023
_cell_angle_alpha   90.22313595
_cell_angle_beta   94.37350051
_cell_angle_gamma   89.72662274
_symmetry_Int_Tables_number   1
_chemical_formula_structural   Li3Nb3TeO12
_chemical_formula_sum   'Li3 Nb3 Te1 O12'
_cell_volume   218.43611792
_cell_formula_units_Z   1
loop_
 _symmetry_equiv_pos_site_id
 _symmetry_equiv_pos_as_xyz
  1  'x, y, z'
loop_
 _atom_site_type_symbol
 _atom_site_label
 _atom_site_symmetry_multiplicity
 _atom_site_fract_x
 _atom_site_fract_y
 _atom_site_fract_z
 _atom_site_occupancy
  Li  Li0  1  0.00207939  0.50271799  0.24731989  1
  Li  Li1  1  0.98958672  0.49388853  0.74908894  1
  Li  Li2  1  0.49851089  0.00288847  0.25566643  1
  Nb  Nb3  1  0.55975398  0.49781867  0.47139097  1
  Nb  Nb4  1  0.57017212  0.49127420  0.96618837  1
  Nb  Nb5  1  0.06191875  0.99823777  0.47150461  1
  Te  Te6  1  0.08140551  0.00065317  0.96386988  1
  O  O7  1  0.90396163  0.69629304  0.01616469  1
  O  O8  1  0.91173228  0.32186854  0.50755505  1
  O  O9  1  0.78315303  0.80846934  0.38718433  1
  O  O10  1  0.80164321  0.20755434  0.89128004  1
  O  O11  1  0.60742466  0.37808223  0.20119413  1
  O  O12  1  0.60071113  0.60097331  0.70854031  1
  O  O13  1  0.39057833  0.81678909  0.02060739  1
  O  O14  1  0.39850905  0.18385883  0.49315557  1
  O  O15  1  0.27919237  0.69605558  0.39025770  1
  O  O16  1  0.27244476  0.30210543  0.89045246  1
  O  O17  1  0.10437989  0.12989292  0.20088410  1
  O  O18  1  0.08529230  0.87260655  0.71728312  1
