# generated using pymatgen
data_ZnH2(CO2)2
_symmetry_space_group_name_H-M   'P 1'
_cell_length_a   7.79878770
_cell_length_b   13.80571884
_cell_length_c   12.75638565
_cell_angle_alpha   90.00000000
_cell_angle_beta   101.70005967
_cell_angle_gamma   90.00000000
_symmetry_Int_Tables_number   1
_chemical_formula_structural   ZnH2(CO2)2
_chemical_formula_sum   'Zn12 H24 C24 O48'
_cell_volume   1344.91609507
_cell_formula_units_Z   12
loop_
 _symmetry_equiv_pos_site_id
 _symmetry_equiv_pos_as_xyz
  1  'x, y, z'
loop_
 _atom_site_type_symbol
 _atom_site_label
 _atom_site_symmetry_multiplicity
 _atom_site_fract_x
 _atom_site_fract_y
 _atom_site_fract_z
 _atom_site_occupancy
  Zn  Zn0  1  0.50004572  0.98854189  0.10218371  1
  Zn  Zn1  1  0.49995428  0.48854189  0.89781629  1
  Zn  Zn2  1  0.80275569  0.88217244  0.99931991  1
  Zn  Zn3  1  0.19724431  0.38217244  0.00068009  1
  Zn  Zn4  1  0.09064530  0.00450456  0.92485701  1
  Zn  Zn5  1  0.90935470  0.50450456  0.07514299  1
  Zn  Zn6  1  0.27144874  0.23802962  0.42552206  1
  Zn  Zn7  1  0.72855126  0.73802962  0.57447794  1
  Zn  Zn8  1  0.63341437  0.12372292  0.52287035  1
  Zn  Zn9  1  0.36658563  0.62372292  0.47712965  1
  Zn  Zn10  1  0.98766163  0.25405782  0.58512920  1
  Zn  Zn11  1  0.01233837  0.75405782  0.41487080  1
  H  H12  1  0.67878432  0.86215817  0.28949766  1
  H  H13  1  0.32121568  0.36215817  0.71050234  1
  H  H14  1  0.47223485  0.87905108  0.79844611  1
  H  H15  1  0.52776515  0.37905108  0.20155389  1
  H  H16  1  0.26984857  0.07904740  0.24934412  1
  H  H17  1  0.73015143  0.57904740  0.75065588  1
  H  H18  1  0.87786424  0.17464885  0.04770735  1
  H  H19  1  0.12213576  0.67464885  0.95229265  1
  H  H20  1  0.41881256  0.20077812  0.08973007  1
  H  H21  1  0.58118744  0.70077812  0.91026993  1
  H  H22  1  0.95042674  0.86982385  0.71301825  1
  H  H23  1  0.04957326  0.36982385  0.28698175  1
  H  H24  1  0.14608464  0.79299400  0.15723478  1
  H  H25  1  0.85391536  0.29299400  0.84276522  1
  H  H26  1  0.26248783  0.08629103  0.70048430  1
  H  H27  1  0.73751217  0.58629103  0.29951570  1
  H  H28  1  0.06029083  0.47830234  0.53702240  1
  H  H29  1  0.93970917  0.97830234  0.46297760  1
  H  H30  1  0.54925190  0.41447979  0.49879536  1
  H  H31  1  0.45074810  0.91447979  0.50120464  1
  H  H32  1  0.79248776  0.12081492  0.30040695  1
  H  H33  1  0.20751224  0.62081492  0.69959305  1
  H  H34  1  0.76540032  0.07247380  0.77061173  1
  H  H35  1  0.23459968  0.57247380  0.22938827  1
  C  C36  1  0.77546983  0.85848634  0.23701572  1
  C  C37  1  0.22453017  0.35848634  0.76298428  1
  C  C38  1  0.41890513  0.91225057  0.86400112  1
  C  C39  1  0.58109487  0.41225057  0.13599888  1
  C  C40  1  0.40348603  0.07572360  0.29898649  1
  C  C41  1  0.59651397  0.57572360  0.70101351  1
  C  C42  1  0.80326639  0.10618803  0.04323891  1
  C  C43  1  0.19673361  0.60618803  0.95676109  1
  C  C44  1  0.29664313  0.17382731  0.03869912  1
  C  C45  1  0.70335687  0.67382731  0.96130088  1
  C  C46  1  0.84628264  0.85892847  0.75891350  1
  C  C47  1  0.15371736  0.35892847  0.24108650  1
  C  C48  1  0.19802271  0.85174667  0.11407582  1
  C  C49  1  0.80197729  0.35174667  0.88592418  1
  C  C50  1  0.31867188  0.11277391  0.63300523  1
  C  C51  1  0.68132812  0.61277391  0.36699477  1
  C  C52  1  0.15477025  0.43734221  0.50019863  1
  C  C53  1  0.84522975  0.93734221  0.49980137  1
  C  C54  1  0.62488685  0.34768548  0.52234257  1
  C  C55  1  0.37511315  0.84768548  0.47765743  1
  C  C56  1  0.89338319  0.15685952  0.36119949  1
  C  C57  1  0.10661681  0.65685952  0.63880051  1
  C  C58  1  0.87550664  0.10912482  0.74449095  1
  C  C59  1  0.12449336  0.60912482  0.25550905  1
  O  O60  1  0.73066125  0.90113843  0.14591284  1
  O  O61  1  0.26933875  0.40113843  0.85408716  1
  O  O62  1  0.91796765  0.81518155  0.26709196  1
  O  O63  1  0.08203235  0.31518155  0.73290804  1
  O  O64  1  0.52712479  0.92139710  0.95415292  1
  O  O65  1  0.47287521  0.42139710  0.04584708  1
  O  O66  1  0.26096268  0.93736848  0.84372216  1
  O  O67  1  0.73903732  0.43736848  0.15627784  1
  O  O68  1  0.52540126  0.03681285  0.26345163  1
  O  O69  1  0.47459874  0.53681285  0.73654837  1
  O  O70  1  0.42130470  0.11391308  0.39264382  1
  O  O71  1  0.57869530  0.61391308  0.60735618  1
  O  O72  1  0.66951741  0.10430603  0.08450990  1
  O  O73  1  0.33048259  0.60430603  0.91549010  1
  O  O74  1  0.86228075  0.03555471  0.99585865  1
  O  O75  1  0.13771925  0.53555471  0.00414135  1
  O  O76  1  0.28406167  0.08105314  0.02915047  1
  O  O77  1  0.71593833  0.58105314  0.97084953  1
  O  O78  1  0.18054761  0.23218171  0.99444760  1
  O  O79  1  0.81945239  0.73218171  0.00555240  1
  O  O80  1  0.87155501  0.90071350  0.85035711  1
  O  O81  1  0.12844499  0.40071350  0.14964289  1
  O  O82  1  0.71363891  0.80808130  0.71949274  1
  O  O83  1  0.28636109  0.30808130  0.28050726  1
  O  O84  1  0.08572126  0.89390279  0.04063615  1
  O  O85  1  0.91427874  0.39390279  0.95936385  1
  O  O86  1  0.35780053  0.87228615  0.14074738  1
  O  O87  1  0.64219947  0.37228615  0.85925262  1
  O  O88  1  0.22205785  0.17198287  0.56854095  1
  O  O89  1  0.77794215  0.67198287  0.43145905  1
  O  O90  1  0.46815001  0.08297853  0.62567131  1
  O  O91  1  0.53184999  0.58297853  0.37432869  1
  O  O92  1  0.12864811  0.34553061  0.49112579  1
  O  O93  1  0.87135189  0.84553061  0.50887421  1
  O  O94  1  0.27742322  0.48012808  0.46869850  1
  O  O95  1  0.72257678  0.98012808  0.53130150  1
  O  O96  1  0.53597559  0.26815006  0.51008684  1
  O  O97  1  0.46402441  0.76815006  0.48991316  1
  O  O98  1  0.78631796  0.35566983  0.55784375  1
  O  O99  1  0.21368204  0.85566983  0.44215625  1
  O  O100  1  0.84895638  0.17638829  0.45068468  1
  O  O101  1  0.15104362  0.67638829  0.54931532  1
  O  O102  1  0.03900779  0.17505074  0.33754104  1
  O  O103  1  0.96099221  0.67505074  0.66245896  1
  O  O104  1  0.83580047  0.15968990  0.65844595  1
  O  O105  1  0.16419953  0.65968990  0.34155405  1
  O  O106  1  0.02887771  0.09967072  0.79827140  1
  O  O107  1  0.97112229  0.59967072  0.20172860  1
