# generated using pymatgen
data_Rb6Ti2O7
_symmetry_space_group_name_H-M   'P 1'
_cell_length_a   9.93156860
_cell_length_b   9.92874499
_cell_length_c   9.96172262
_cell_angle_alpha   89.99451810
_cell_angle_beta   89.99007532
_cell_angle_gamma   119.94355161
_symmetry_Int_Tables_number   1
_chemical_formula_structural   Rb6Ti2O7
_chemical_formula_sum   'Rb12 Ti4 O14'
_cell_volume   851.18510291
_cell_formula_units_Z   2
loop_
 _symmetry_equiv_pos_site_id
 _symmetry_equiv_pos_as_xyz
  1  'x, y, z'
loop_
 _atom_site_type_symbol
 _atom_site_label
 _atom_site_symmetry_multiplicity
 _atom_site_fract_x
 _atom_site_fract_y
 _atom_site_fract_z
 _atom_site_occupancy
  Rb  Rb0  1  0.33330822  0.97110132  0.37382492  1
  Rb  Rb1  1  0.35014410  0.96303583  0.87273107  1
  Rb  Rb2  1  0.02925422  0.36241496  0.37372268  1
  Rb  Rb3  1  0.03705693  0.38700073  0.87283400  1
  Rb  Rb4  1  0.36246166  0.33320594  0.62626980  1
  Rb  Rb5  1  0.38720236  0.35023717  0.12725628  1
  Rb  Rb6  1  0.61289475  0.64977843  0.87273544  1
  Rb  Rb7  1  0.63761490  0.66690785  0.37371467  1
  Rb  Rb8  1  0.96299629  0.61302461  0.12724448  1
  Rb  Rb9  1  0.97074528  0.63754029  0.62631543  1
  Rb  Rb10  1  0.64974719  0.03695555  0.12721801  1
  Rb  Rb11  1  0.66668686  0.02891020  0.62612738  1
  Ti  Ti12  1  0.33324108  0.66684514  0.18046279  1
  Ti  Ti13  1  0.33308431  0.66658286  0.56638573  1
  Ti  Ti14  1  0.66670673  0.33309126  0.81954511  1
  Ti  Ti15  1  0.66686506  0.33344271  0.43361321  1
  O  O16  1  0.17588335  0.47812529  0.62171461  1
  O  O17  1  0.17508876  0.47874193  0.12504372  1
  O  O18  1  0.30320122  0.82515450  0.12517200  1
  O  O19  1  0.30185810  0.82392517  0.62175320  1
  O  O20  1  0.33323180  0.66669950  0.37304684  1
  O  O21  1  0.52150551  0.69759082  0.62173363  1
  O  O22  1  0.52142437  0.69671441  0.12498722  1
  O  O23  1  0.47853889  0.30322468  0.87502922  1
  O  O24  1  0.47845327  0.30241364  0.37822426  1
  O  O25  1  0.66667951  0.33329944  0.62695683  1
  O  O26  1  0.69816486  0.17615733  0.37822089  1
  O  O27  1  0.69672152  0.17475211  0.87477757  1
  O  O28  1  0.82485865  0.52120241  0.87500557  1
  O  O29  1  0.82408025  0.52192591  0.37833442  1
