# generated using pymatgen
data_LiAg2F4
_symmetry_space_group_name_H-M   'P 1'
_cell_length_a   9.95000100
_cell_length_b   7.27932191
_cell_length_c   5.58988080
_cell_angle_alpha   90.00000000
_cell_angle_beta   90.00000000
_cell_angle_gamma   90.00000000
_symmetry_Int_Tables_number   1
_chemical_formula_structural   LiAg2F4
_chemical_formula_sum   'Li4 Ag8 F16'
_cell_volume   404.87093142
_cell_formula_units_Z   4
loop_
 _symmetry_equiv_pos_site_id
 _symmetry_equiv_pos_as_xyz
  1  'x, y, z'
loop_
 _atom_site_type_symbol
 _atom_site_label
 _atom_site_symmetry_multiplicity
 _atom_site_fract_x
 _atom_site_fract_y
 _atom_site_fract_z
 _atom_site_occupancy
  Li  Li0  1  0.17633125  0.75000000  0.48354306  1
  Li  Li1  1  0.32366875  0.25000000  0.98354306  1
  Li  Li2  1  0.67633125  0.75000000  0.01645694  1
  Li  Li3  1  0.82366875  0.25000000  0.51645694  1
  Ag  Ag4  1  0.00000000  0.00000000  0.00000000  1
  Ag  Ag5  1  0.00000000  0.50000000  0.00000000  1
  Ag  Ag6  1  0.14935182  0.25000000  0.48216696  1
  Ag  Ag7  1  0.35064818  0.75000000  0.98216696  1
  Ag  Ag8  1  0.50000000  0.00000000  0.50000000  1
  Ag  Ag9  1  0.50000000  0.50000000  0.50000000  1
  Ag  Ag10  1  0.64935182  0.25000000  0.01783304  1
  Ag  Ag11  1  0.85064818  0.75000000  0.51783304  1
  F  F12  1  0.10831305  0.53917742  0.32247903  1
  F  F13  1  0.10831305  0.96082258  0.32247903  1
  F  F14  1  0.13061952  0.75000000  0.80942232  1
  F  F15  1  0.13574432  0.25000000  0.90786990  1
  F  F16  1  0.36425568  0.75000000  0.40786990  1
  F  F17  1  0.36938048  0.25000000  0.30942232  1
  F  F18  1  0.39168695  0.03917742  0.82247903  1
  F  F19  1  0.39168695  0.46082258  0.82247903  1
  F  F20  1  0.60831305  0.53917742  0.17752097  1
  F  F21  1  0.60831305  0.96082258  0.17752097  1
  F  F22  1  0.63061952  0.75000000  0.69057768  1
  F  F23  1  0.63574432  0.25000000  0.59213010  1
  F  F24  1  0.86425568  0.75000000  0.09213010  1
  F  F25  1  0.86938048  0.25000000  0.19057768  1
  F  F26  1  0.89168695  0.03917742  0.67752097  1
  F  F27  1  0.89168695  0.46082258  0.67752097  1
