# generated using pymatgen
data_La5MnRe3O16
_symmetry_space_group_name_H-M   'P 1'
_cell_length_a   5.70628396
_cell_length_b   5.70229508
_cell_length_c   10.26972854
_cell_angle_alpha   86.41965661
_cell_angle_beta   93.70126922
_cell_angle_gamma   89.49763470
_symmetry_Int_Tables_number   1
_chemical_formula_structural   La5MnRe3O16
_chemical_formula_sum   'La5 Mn1 Re3 O16'
_cell_volume   332.79047301
_cell_formula_units_Z   1
loop_
 _symmetry_equiv_pos_site_id
 _symmetry_equiv_pos_as_xyz
  1  'x, y, z'
loop_
 _atom_site_type_symbol
 _atom_site_label
 _atom_site_symmetry_multiplicity
 _atom_site_fract_x
 _atom_site_fract_y
 _atom_site_fract_z
 _atom_site_occupancy
  La  La0  1  0.02704409  0.48636369  0.20079868  1
  La  La1  1  0.97295591  0.51363631  0.79920132  1
  La  La2  1  0.50573773  0.96725153  0.20869674  1
  La  La3  1  0.49426227  0.03274847  0.79130326  1
  La  La4  1  0.00000000  0.00000000  0.50000000  1
  Mn  Mn5  1  0.50000000  0.50000000  0.00000000  1
  Re  Re6  1  0.44553813  0.55407307  0.60547641  1
  Re  Re7  1  0.55446187  0.44592693  0.39452359  1
  Re  Re8  1  0.00000000  0.00000000  0.00000000  1
  O  O9  1  0.30568221  0.68974477  0.43406346  1
  O  O10  1  0.69431779  0.31025523  0.56593654  1
  O  O11  1  0.22007346  0.77509281  0.67552414  1
  O  O12  1  0.77992654  0.22490719  0.32447586  1
  O  O13  1  0.54714224  0.45327969  0.79865203  1
  O  O14  1  0.45285776  0.54672031  0.20134797  1
  O  O15  1  0.92427188  0.07377152  0.81692747  1
  O  O16  1  0.07572812  0.92622848  0.18307253  1
  O  O17  1  0.22875106  0.29601904  0.63487624  1
  O  O18  1  0.77124894  0.70398096  0.36512376  1
  O  O19  1  0.69721160  0.77796023  0.63452527  1
  O  O20  1  0.30278840  0.22203977  0.36547473  1
  O  O21  1  0.81763016  0.69883329  0.99634158  1
  O  O22  1  0.18236984  0.30116671  0.00365842  1
  O  O23  1  0.71250441  0.17460182  0.03632923  1
  O  O24  1  0.28749559  0.82539818  0.96367077  1
