# generated using pymatgen
data_Na2H6PtC4N4O3
_symmetry_space_group_name_H-M   'P 1'
_cell_length_a   15.50620344
_cell_length_b   9.11242655
_cell_length_c   7.37148135
_cell_angle_alpha   95.06128627
_cell_angle_beta   92.69959599
_cell_angle_gamma   89.08727903
_symmetry_Int_Tables_number   1
_chemical_formula_structural   Na2H6PtC4N4O3
_chemical_formula_sum   'Na8 H24 Pt4 C16 N16 O12'
_cell_volume   1036.29873906
_cell_formula_units_Z   4
loop_
 _symmetry_equiv_pos_site_id
 _symmetry_equiv_pos_as_xyz
  1  'x, y, z'
loop_
 _atom_site_type_symbol
 _atom_site_label
 _atom_site_symmetry_multiplicity
 _atom_site_fract_x
 _atom_site_fract_y
 _atom_site_fract_z
 _atom_site_occupancy
  Na  Na0  1  0.75482734  0.75501088  0.54299088  1
  Na  Na1  1  0.24517266  0.24498912  0.45700912  1
  Na  Na2  1  0.80775792  0.43345424  0.23937335  1
  Na  Na3  1  0.19224208  0.56654576  0.76062665  1
  Na  Na4  1  0.68837187  0.07206226  0.30695143  1
  Na  Na5  1  0.31162813  0.92793774  0.69304857  1
  Na  Na6  1  0.00000000  0.50000000  0.00000000  1
  Na  Na7  1  0.50000000  0.00000000  0.00000000  1
  H  H8  1  0.93107528  0.63652703  0.46389111  1
  H  H9  1  0.06892472  0.36347297  0.53610889  1
  H  H10  1  0.89806157  0.52316252  0.58382526  1
  H  H11  1  0.10193843  0.47683748  0.41617474  1
  H  H12  1  0.81566494  0.59990208  0.92949296  1
  H  H13  1  0.18433506  0.40009792  0.07050704  1
  H  H14  1  0.85282777  0.70955345  0.08424236  1
  H  H15  1  0.14717223  0.29044655  0.91575764  1
  H  H16  1  0.27286735  0.65006943  0.43145890  1
  H  H17  1  0.72713265  0.34993057  0.56854110  1
  H  H18  1  0.18895996  0.73620812  0.44315639  1
  H  H19  1  0.81104004  0.26379188  0.55684361  1
  H  H20  1  0.31255582  0.76260862  0.01601223  1
  H  H21  1  0.68744418  0.23739138  0.98398777  1
  H  H22  1  0.22515955  0.84211830  0.01436743  1
  H  H23  1  0.77484045  0.15788170  0.98563257  1
  H  H24  1  0.57712989  0.86414296  0.48582255  1
  H  H25  1  0.42287011  0.13585704  0.51417745  1
  H  H26  1  0.61419347  0.98514225  0.62607486  1
  H  H27  1  0.38580653  0.01485775  0.37392514  1
  H  H28  1  0.64948896  0.79390480  0.09364683  1
  H  H29  1  0.35051104  0.20609520  0.90635317  1
  H  H30  1  0.68820049  0.89638591  0.96408260  1
  H  H31  1  0.31179951  0.10361409  0.03591740  1
  Pt  Pt32  1  0.98717357  0.01221395  0.75371640  1
  Pt  Pt33  1  0.01282643  0.98778605  0.24628360  1
  Pt  Pt34  1  0.51684999  0.48707101  0.75210035  1
  Pt  Pt35  1  0.48315001  0.51292899  0.24789965  1
  C  C36  1  0.95279487  0.22069346  0.72706602  1
  C  C37  1  0.04720513  0.77930654  0.27293398  1
  C  C38  1  0.02462257  0.80558058  0.78139207  1
  C  C39  1  0.97537743  0.19441942  0.21860793  1
  C  C40  1  0.86589853  0.96383095  0.80155673  1
  C  C41  1  0.13410147  0.03616905  0.19844327  1
  C  C42  1  0.10796271  0.05887323  0.70350482  1
  C  C43  1  0.89203729  0.94112677  0.29649518  1
  C  C44  1  0.64041305  0.54254530  0.76423917  1
  C  C45  1  0.35958695  0.45745470  0.23576083  1
  C  C46  1  0.39351253  0.43188374  0.73269586  1
  C  C47  1  0.60648747  0.56811626  0.26730414  1
  C  C48  1  0.55184592  0.27795766  0.76936702  1
  C  C49  1  0.44815408  0.72204234  0.23063298  1
  C  C50  1  0.48036887  0.69575810  0.73918787  1
  C  C51  1  0.51963113  0.30424190  0.26081213  1
  N  N52  1  0.93409984  0.34466031  0.71114691  1
  N  N53  1  0.06590016  0.65533969  0.28885309  1
  N  N54  1  0.04907664  0.68512359  0.79990790  1
  N  N55  1  0.95092336  0.31487641  0.20009210  1
  N  N56  1  0.79407888  0.93575788  0.82839725  1
  N  N57  1  0.20592112  0.06424212  0.17160275  1
  N  N58  1  0.17918370  0.08636632  0.67199542  1
  N  N59  1  0.82081630  0.91363368  0.32800458  1
  N  N60  1  0.71392789  0.57264156  0.76704798  1
  N  N61  1  0.28607211  0.42735844  0.23295202  1
  N  N62  1  0.32043694  0.39919569  0.71582786  1
  N  N63  1  0.67956306  0.60080431  0.28417214  1
  N  N64  1  0.57318244  0.15486034  0.78263378  1
  N  N65  1  0.42681756  0.84513966  0.21736622  1
  N  N66  1  0.45642214  0.81839027  0.73585499  1
  N  N67  1  0.54357786  0.18160973  0.26414501  1
  O  O68  1  0.87756426  0.59205753  0.49486219  1
  O  O69  1  0.12243574  0.40794247  0.50513781  1
  O  O70  1  0.85843020  0.60744060  0.03352835  1
  O  O71  1  0.14156980  0.39255940  0.96647165  1
  O  O72  1  0.24274486  0.72015646  0.51428192  1
  O  O73  1  0.75725514  0.27984354  0.48571808  1
  O  O74  1  0.26045578  0.77257056  0.93905070  1
  O  O75  1  0.73954422  0.22742944  0.06094930  1
  O  O76  1  0.63061677  0.91460496  0.52322154  1
  O  O77  1  0.36938323  0.08539504  0.47677846  1
  O  O78  1  0.64245692  0.89234763  0.05208288  1
  O  O79  1  0.35754308  0.10765237  0.94791712  1
