# generated using pymatgen
data_Zr3N2O3
_symmetry_space_group_name_H-M   'P 1'
_cell_length_a   4.05322174
_cell_length_b   5.76648879
_cell_length_c   10.82210164
_cell_angle_alpha   90.46420063
_cell_angle_beta   89.99436723
_cell_angle_gamma   110.40328788
_symmetry_Int_Tables_number   1
_chemical_formula_structural   Zr3N2O3
_chemical_formula_sum   'Zr6 N4 O6'
_cell_volume   237.06548894
_cell_formula_units_Z   2
loop_
 _symmetry_equiv_pos_site_id
 _symmetry_equiv_pos_as_xyz
  1  'x, y, z'
loop_
 _atom_site_type_symbol
 _atom_site_label
 _atom_site_symmetry_multiplicity
 _atom_site_fract_x
 _atom_site_fract_y
 _atom_site_fract_z
 _atom_site_occupancy
  Zr  Zr0  1  0.18060571  0.36519910  0.24818087  1
  Zr  Zr1  1  0.14114796  0.28520855  0.94071656  1
  Zr  Zr2  1  0.13561645  0.27038743  0.55496989  1
  Zr  Zr3  1  0.80356409  0.61111362  0.74849625  1
  Zr  Zr4  1  0.85227043  0.71080344  0.05441462  1
  Zr  Zr5  1  0.86040915  0.72546967  0.43997426  1
  N  N6  1  0.29408910  0.59322554  0.07776196  1
  N  N7  1  0.05081878  0.09071698  0.38427979  1
  N  N8  1  0.70271410  0.40656174  0.57429395  1
  N  N9  1  0.69921113  0.40116055  0.91943209  1
  O  O10  1  0.30538974  0.61571193  0.41945098  1
  O  O11  1  0.24279596  0.48784382  0.75101900  1
  O  O12  1  0.04161858  0.08738098  0.11269764  1
  O  O13  1  0.75099339  0.50807315  0.25617535  1
  O  O14  1  0.94824764  0.90848244  0.88392558  1
  O  O15  1  0.95564078  0.91104206  0.61901622  1
