# generated using pymatgen
data_LiLa4Ti3O12
_symmetry_space_group_name_H-M   'P 1'
_cell_length_a   5.58639770
_cell_length_b   5.62915174
_cell_length_c   7.91297224
_cell_angle_alpha   90.17829985
_cell_angle_beta   90.03814522
_cell_angle_gamma   90.27452537
_symmetry_Int_Tables_number   1
_chemical_formula_structural   LiLa4Ti3O12
_chemical_formula_sum   'Li1 La4 Ti3 O12'
_cell_volume   248.83258995
_cell_formula_units_Z   1
loop_
 _symmetry_equiv_pos_site_id
 _symmetry_equiv_pos_as_xyz
  1  'x, y, z'
loop_
 _atom_site_type_symbol
 _atom_site_label
 _atom_site_symmetry_multiplicity
 _atom_site_fract_x
 _atom_site_fract_y
 _atom_site_fract_z
 _atom_site_occupancy
  Li  Li0  1  0.50000000  0.00000000  0.50000000  1
  La  La1  1  0.00444784  0.03284791  0.26135412  1
  La  La2  1  0.48968095  0.54660649  0.26248856  1
  La  La3  1  0.51031905  0.45339351  0.73751144  1
  La  La4  1  0.99555216  0.96715209  0.73864588  1
  Ti  Ti5  1  0.00000000  0.50000000  0.00000000  1
  Ti  Ti6  1  0.00000000  0.50000000  0.50000000  1
  Ti  Ti7  1  0.50000000  0.00000000  0.00000000  1
  O  O8  1  0.07791061  0.51446863  0.75126521  1
  O  O9  1  0.21452073  0.78241028  0.04334428  1
  O  O10  1  0.19957493  0.78179879  0.45939845  1
  O  O11  1  0.28370099  0.28722530  0.04375599  1
  O  O12  1  0.27936623  0.30147907  0.45914200  1
  O  O13  1  0.41830707  0.01962739  0.76258501  1
  O  O14  1  0.58169293  0.98037261  0.23741499  1
  O  O15  1  0.72063377  0.69852093  0.54085800  1
  O  O16  1  0.71629901  0.71277470  0.95624401  1
  O  O17  1  0.80042507  0.21820121  0.54060155  1
  O  O18  1  0.78547927  0.21758972  0.95665572  1
  O  O19  1  0.92208939  0.48553137  0.24873479  1
