# generated using pymatgen
data_Li4Bi2O5
_symmetry_space_group_name_H-M   'P 1'
_cell_length_a   5.54080849
_cell_length_b   7.95685445
_cell_length_c   8.05254511
_cell_angle_alpha   86.94132806
_cell_angle_beta   110.91341588
_cell_angle_gamma   113.28768299
_symmetry_Int_Tables_number   1
_chemical_formula_structural   Li4Bi2O5
_chemical_formula_sum   'Li8 Bi4 O10'
_cell_volume   303.01278520
_cell_formula_units_Z   2
loop_
 _symmetry_equiv_pos_site_id
 _symmetry_equiv_pos_as_xyz
  1  'x, y, z'
loop_
 _atom_site_type_symbol
 _atom_site_label
 _atom_site_symmetry_multiplicity
 _atom_site_fract_x
 _atom_site_fract_y
 _atom_site_fract_z
 _atom_site_occupancy
  Li  Li0  1  0.04447944  0.18875077  0.52876619  1
  Li  Li1  1  0.49076861  0.01054633  0.34468280  1
  Li  Li2  1  0.44927517  0.64640879  0.66201443  1
  Li  Li3  1  0.42521658  0.32840401  0.98694404  1
  Li  Li4  1  0.57478342  0.67159599  0.01305596  1
  Li  Li5  1  0.55072483  0.35359121  0.33798557  1
  Li  Li6  1  0.50923139  0.98945367  0.65531720  1
  Li  Li7  1  0.95552056  0.81124923  0.47123381  1
  Bi  Bi8  1  0.10245151  0.87701982  0.87881405  1
  Bi  Bi9  1  0.16199224  0.59925108  0.24762350  1
  Bi  Bi10  1  0.83800776  0.40074892  0.75237650  1
  Bi  Bi11  1  0.89754849  0.12298018  0.12118595  1
  O  O12  1  0.27603649  0.48337220  0.82209144  1
  O  O13  1  0.19603492  0.35392710  0.35809727  1
  O  O14  1  0.22652774  0.05639260  0.70243660  1
  O  O15  1  0.29369602  0.78378169  0.46798433  1
  O  O16  1  0.71307386  0.88340256  0.87373692  1
  O  O17  1  0.28692614  0.11659744  0.12626308  1
  O  O18  1  0.70630398  0.21621831  0.53201567  1
  O  O19  1  0.77347226  0.94360740  0.29756340  1
  O  O20  1  0.80396508  0.64607290  0.64190273  1
  O  O21  1  0.72396351  0.51662780  0.17790856  1
