# generated using pymatgen
data_K5Se3
_symmetry_space_group_name_H-M   'P 1'
_cell_length_a   6.20099518
_cell_length_b   9.69918472
_cell_length_c   9.70061225
_cell_angle_alpha   95.86646573
_cell_angle_beta   108.63987226
_cell_angle_gamma   71.35728323
_symmetry_Int_Tables_number   1
_chemical_formula_structural   K5Se3
_chemical_formula_sum   'K10 Se6'
_cell_volume   523.82871156
_cell_formula_units_Z   2
loop_
 _symmetry_equiv_pos_site_id
 _symmetry_equiv_pos_as_xyz
  1  'x, y, z'
loop_
 _atom_site_type_symbol
 _atom_site_label
 _atom_site_symmetry_multiplicity
 _atom_site_fract_x
 _atom_site_fract_y
 _atom_site_fract_z
 _atom_site_occupancy
  K  K0  1  0.91115703  0.87230958  0.69462463  1
  K  K1  1  0.72360118  0.86821156  0.31541392  1
  K  K2  1  0.21645956  0.69468237  0.12760149  1
  K  K3  1  0.59212380  0.68444607  0.86869367  1
  K  K4  1  0.25005893  0.50000000  0.50000000  1
  K  K5  1  0.74994107  0.50000000  0.50000000  1
  K  K6  1  0.40787620  0.31555393  0.13130633  1
  K  K7  1  0.78354044  0.30531763  0.87239851  1
  K  K8  1  0.27639882  0.13178844  0.68458608  1
  K  K9  1  0.08884297  0.12769042  0.30537537  1
  Se  Se10  1  0.34409668  0.80837756  0.49657091  1
  Se  Se11  1  0.15248152  0.50347668  0.80844071  1
  Se  Se12  1  0.84751848  0.49652332  0.19155929  1
  Se  Se13  1  0.65590332  0.19162244  0.50342909  1
  Se  Se14  1  0.30335246  0.00000000  1.00000000  1
  Se  Se15  1  0.69664754  1.00000000  0.00000000  1
