# generated using pymatgen
data_Li(ReO3)4
_symmetry_space_group_name_H-M   'P 1'
_cell_length_a   6.49665934
_cell_length_b   6.49665934
_cell_length_c   6.49665934
_cell_angle_alpha   109.57622786
_cell_angle_beta   109.01016191
_cell_angle_gamma   109.82835293
_symmetry_Int_Tables_number   1
_chemical_formula_structural   Li(ReO3)4
_chemical_formula_sum   'Li1 Re4 O12'
_cell_volume   211.06936386
_cell_formula_units_Z   1
loop_
 _symmetry_equiv_pos_site_id
 _symmetry_equiv_pos_as_xyz
  1  'x, y, z'
loop_
 _atom_site_type_symbol
 _atom_site_label
 _atom_site_symmetry_multiplicity
 _atom_site_fract_x
 _atom_site_fract_y
 _atom_site_fract_z
 _atom_site_occupancy
  Li  Li0  1  0.00000000  0.50000000  0.50000000  1
  Re  Re1  1  0.50000000  0.00000000  0.00000000  1
  Re  Re2  1  0.00000000  0.00000000  0.50000000  1
  Re  Re3  1  0.00000000  0.50000000  0.00000000  1
  Re  Re4  1  0.50000000  0.50000000  0.50000000  1
  O  O5  1  0.79197367  0.07886279  0.28689012  1
  O  O6  1  0.93325112  0.71730203  0.21594909  1
  O  O7  1  0.49864705  0.28269797  0.21594909  1
  O  O8  1  0.71881478  0.21571497  0.93452876  1
  O  O9  1  0.28118522  0.21571497  0.49690019  1
  O  O10  1  0.79197367  0.50508356  0.71310988  1
  O  O11  1  0.20802633  0.49491644  0.28689012  1
  O  O12  1  0.28118522  0.78428503  0.06547124  1
  O  O13  1  0.71881478  0.78428503  0.50309981  1
  O  O14  1  0.50135295  0.71730203  0.78405091  1
  O  O15  1  0.06674888  0.28269797  0.78405091  1
  O  O16  1  0.20802633  0.92113721  0.71310988  1
