# generated using pymatgen
data_Li2Cu4S3
_symmetry_space_group_name_H-M   'P 1'
_cell_length_a   3.79772509
_cell_length_b   7.63218556
_cell_length_c   10.00827922
_cell_angle_alpha   72.30553516
_cell_angle_beta   89.99706280
_cell_angle_gamma   75.64222383
_symmetry_Int_Tables_number   1
_chemical_formula_structural   Li2Cu4S3
_chemical_formula_sum   'Li4 Cu8 S6'
_cell_volume   266.84053813
_cell_formula_units_Z   2
loop_
 _symmetry_equiv_pos_site_id
 _symmetry_equiv_pos_as_xyz
  1  'x, y, z'
loop_
 _atom_site_type_symbol
 _atom_site_label
 _atom_site_symmetry_multiplicity
 _atom_site_fract_x
 _atom_site_fract_y
 _atom_site_fract_z
 _atom_site_occupancy
  Li  Li0  1  0.16996053  0.67407472  0.84734806  1
  Li  Li1  1  0.68591456  0.61411835  0.35476798  1
  Li  Li2  1  0.31530041  0.38169644  0.65115544  1
  Li  Li3  1  0.84326200  0.32701160  0.15353156  1
  Cu  Cu4  1  0.50874964  0.96691616  0.88248855  1
  Cu  Cu5  1  0.52946446  0.94009578  0.63375770  1
  Cu  Cu6  1  0.09949346  0.79913674  0.51200151  1
  Cu  Cu7  1  0.09838634  0.79328406  0.10150200  1
  Cu  Cu8  1  0.89473979  0.19952700  0.90105741  1
  Cu  Cu9  1  0.89885533  0.20418347  0.48669814  1
  Cu  Cu10  1  0.46169111  0.06328406  0.36379145  1
  Cu  Cu11  1  0.47626841  0.03059788  0.11806908  1
  S  S12  1  0.02127402  0.94225097  0.27359658  1
  S  S13  1  0.68132028  0.63552545  0.61968542  1
  S  S14  1  0.65811514  0.67450516  0.04230958  1
  S  S15  1  0.33446003  0.32281821  0.95631364  1
  S  S16  1  0.31788797  0.36655861  0.37940754  1
  S  S17  1  0.96798953  0.05722533  0.72500936  1
