# generated using pymatgen
data_SrLu2O4
_symmetry_space_group_name_H-M   'P 1'
_cell_length_a   3.31261407
_cell_length_b   5.71838176
_cell_length_c   11.02485635
_cell_angle_alpha   90.00167968
_cell_angle_beta   89.99922670
_cell_angle_gamma   106.83577363
_symmetry_Int_Tables_number   1
_chemical_formula_structural   SrLu2O4
_chemical_formula_sum   'Sr2 Lu4 O8'
_cell_volume   199.89036967
_cell_formula_units_Z   2
loop_
 _symmetry_equiv_pos_site_id
 _symmetry_equiv_pos_as_xyz
  1  'x, y, z'
loop_
 _atom_site_type_symbol
 _atom_site_label
 _atom_site_symmetry_multiplicity
 _atom_site_fract_x
 _atom_site_fract_y
 _atom_site_fract_z
 _atom_site_occupancy
  Sr  Sr0  1  0.11111999  0.22182254  0.25000053  1
  Sr  Sr1  1  0.88888651  0.77818451  0.75000082  1
  Lu  Lu2  1  0.63404950  0.26834918  0.92825701  1
  Lu  Lu3  1  0.63412620  0.26834648  0.57176361  1
  Lu  Lu4  1  0.36582891  0.73165605  0.07175404  1
  Lu  Lu5  1  0.36602706  0.73167095  0.42823541  1
  O  O6  1  0.99998501  0.00000210  0.99999631  1
  O  O7  1  0.00000316  0.99998990  0.49999972  1
  O  O8  1  0.55401495  0.10814072  0.75001351  1
  O  O9  1  0.73648453  0.47272651  0.10684438  1
  O  O10  1  0.73652777  0.47271622  0.39314933  1
  O  O11  1  0.26348699  0.52726870  0.60685867  1
  O  O12  1  0.26344493  0.52727258  0.89314022  1
  O  O13  1  0.44601549  0.89185354  0.24998645  1
