# generated using pymatgen
data_NaBi5O8
_symmetry_space_group_name_H-M   'P 1'
_cell_length_a   10.10668235
_cell_length_b   7.77174988
_cell_length_c   7.52857375
_cell_angle_alpha   81.30096336
_cell_angle_beta   106.27492519
_cell_angle_gamma   108.46066231
_symmetry_Int_Tables_number   1
_chemical_formula_structural   NaBi5O8
_chemical_formula_sum   'Na2 Bi10 O16'
_cell_volume   537.16711295
_cell_formula_units_Z   2
loop_
 _symmetry_equiv_pos_site_id
 _symmetry_equiv_pos_as_xyz
  1  'x, y, z'
loop_
 _atom_site_type_symbol
 _atom_site_label
 _atom_site_symmetry_multiplicity
 _atom_site_fract_x
 _atom_site_fract_y
 _atom_site_fract_z
 _atom_site_occupancy
  Na  Na0  1  0.02643721  0.41611071  0.74152173  1
  Na  Na1  1  0.97356279  0.58388929  0.25847827  1
  Bi  Bi2  1  0.03464031  0.93676696  0.75233941  1
  Bi  Bi3  1  0.28139699  0.82555915  0.54863951  1
  Bi  Bi4  1  0.32105629  0.39848167  0.54327122  1
  Bi  Bi5  1  0.34091823  0.75334718  0.12251418  1
  Bi  Bi6  1  0.34313334  0.30301529  0.04857750  1
  Bi  Bi7  1  0.65686666  0.69698471  0.95142250  1
  Bi  Bi8  1  0.65908177  0.24665282  0.87748582  1
  Bi  Bi9  1  0.67894371  0.60151833  0.45672878  1
  Bi  Bi10  1  0.71860301  0.17444085  0.45136049  1
  Bi  Bi11  1  0.96535969  0.06323304  0.24766059  1
  O  O12  1  0.08882874  0.91395629  0.50069967  1
  O  O13  1  0.21383251  0.80925798  0.84264964  1
  O  O14  1  0.16826260  0.20397208  0.80780528  1
  O  O15  1  0.16778778  0.54879340  0.53558754  1
  O  O16  1  0.20774983  0.84245608  0.23695459  1
  O  O17  1  0.22485380  0.46635048  0.09922394  1
  O  O18  1  0.43488177  0.46535997  0.82826969  1
  O  O19  1  0.44573005  0.65998989  0.45157792  1
  O  O20  1  0.55426995  0.34001011  0.54842208  1
  O  O21  1  0.56511823  0.53464003  0.17173031  1
  O  O22  1  0.77514620  0.53364952  0.90077606  1
  O  O23  1  0.79225017  0.15754392  0.76304541  1
  O  O24  1  0.83221222  0.45120660  0.46441246  1
  O  O25  1  0.83173740  0.79602792  0.19219472  1
  O  O26  1  0.78616749  0.19074202  0.15735036  1
  O  O27  1  0.91117126  0.08604371  0.49930033  1
