# generated using pymatgen
data_NaH3(CO2)2
_symmetry_space_group_name_H-M   'P 1'
_cell_length_a   9.16149842
_cell_length_b   9.43160187
_cell_length_c   9.72465004
_cell_angle_alpha   83.23565415
_cell_angle_beta   111.57869335
_cell_angle_gamma   109.82032197
_symmetry_Int_Tables_number   1
_chemical_formula_structural   NaH3(CO2)2
_chemical_formula_sum   'Na6 H18 C12 O24'
_cell_volume   735.07888278
_cell_formula_units_Z   6
loop_
 _symmetry_equiv_pos_site_id
 _symmetry_equiv_pos_as_xyz
  1  'x, y, z'
loop_
 _atom_site_type_symbol
 _atom_site_label
 _atom_site_symmetry_multiplicity
 _atom_site_fract_x
 _atom_site_fract_y
 _atom_site_fract_z
 _atom_site_occupancy
  Na  Na0  1  0.67192935  0.65870209  0.80267469  1
  Na  Na1  1  0.32807065  0.34129791  0.19732531  1
  Na  Na2  1  0.30755394  0.54220033  0.47563038  1
  Na  Na3  1  0.69244606  0.45779967  0.52436962  1
  Na  Na4  1  0.69687647  0.06648318  0.64981550  1
  Na  Na5  1  0.30312353  0.93351682  0.35018450  1
  H  H6  1  0.70656044  0.77809914  0.38368815  1
  H  H7  1  0.29343956  0.22190086  0.61631185  1
  H  H8  1  0.45639058  0.79996816  0.95025548  1
  H  H9  1  0.54360942  0.20003184  0.04974452  1
  H  H10  1  0.39345453  0.01469950  0.71191205  1
  H  H11  1  0.60654547  0.98530050  0.28808795  1
  H  H12  1  0.15866764  0.01405381  0.90156495  1
  H  H13  1  0.84133236  0.98594619  0.09843505  1
  H  H14  1  0.15132629  0.59707989  0.00394869  1
  H  H15  1  0.84867371  0.40292011  0.99605131  1
  H  H16  1  0.06252791  0.79891538  0.00398614  1
  H  H17  1  0.93747209  0.20108462  0.99601386  1
  H  H18  1  0.15659088  0.37375854  0.76593862  1
  H  H19  1  0.84340912  0.62624146  0.23406138  1
  H  H20  1  0.06618504  0.82786418  0.56885302  1
  H  H21  1  0.93381496  0.17213582  0.43114698  1
  H  H22  1  0.50000000  0.50000000  0.00000000  1
  H  H23  1  0.00000000  0.50000000  0.50000000  1
  C  C24  1  0.63064607  0.78333304  0.44853617  1
  C  C25  1  0.36935393  0.21666696  0.55146383  1
  C  C26  1  0.47782485  0.87326551  0.85747056  1
  C  C27  1  0.52217515  0.12673449  0.14252944  1
  C  C28  1  0.02679984  0.95120337  0.84249044  1
  C  C29  1  0.97320016  0.04879663  0.15750956  1
  C  C30  1  0.19778337  0.63950518  0.11955747  1
  C  C31  1  0.80221663  0.36049482  0.88044253  1
  C  C32  1  0.29140175  0.43457237  0.81414900  1
  C  C33  1  0.70859825  0.56542763  0.18585100  1
  C  C34  1  0.08650743  0.72818292  0.53875573  1
  C  C35  1  0.91349257  0.27181708  0.46124427  1
  O  O36  1  0.60643876  0.67999867  0.53994380  1
  O  O37  1  0.39356124  0.32000133  0.46005620  1
  O  O38  1  0.57582396  0.89586313  0.42197007  1
  O  O39  1  0.42417604  0.10413687  0.57802993  1
  O  O40  1  0.58581593  0.87495365  0.80901973  1
  O  O41  1  0.41418407  0.12504635  0.19098027  1
  O  O42  1  0.37786261  0.95501766  0.80774474  1
  O  O43  1  0.62213739  0.04498234  0.19225526  1
  O  O44  1  0.94304081  0.99880768  0.72810904  1
  O  O45  1  0.05695919  0.00119232  0.27189096  1
  O  O46  1  0.96835937  0.82259084  0.90412932  1
  O  O47  1  0.03164063  0.17740916  0.09587068  1
  O  O48  1  0.26984884  0.56648256  0.22199028  1
  O  O49  1  0.73015116  0.43351744  0.77800972  1
  O  O50  1  0.17137245  0.76157754  0.13388726  1
  O  O51  1  0.82862755  0.23842246  0.86611274  1
  O  O52  1  0.37195702  0.50661706  0.73513798  1
  O  O53  1  0.62804298  0.49338294  0.26486202  1
  O  O54  1  0.35368425  0.42300371  0.95694712  1
  O  O55  1  0.64631575  0.57699629  0.04305288  1
  O  O56  1  0.20483123  0.74189001  0.49863934  1
  O  O57  1  0.79516877  0.25810999  0.50136066  1
  O  O58  1  0.97721107  0.60080405  0.54922728  1
  O  O59  1  0.02278893  0.39919595  0.45077272  1
