# generated using pymatgen
data_NaSn2(PO4)3
_symmetry_space_group_name_H-M   'P 1'
_cell_length_a   8.64924058
_cell_length_b   8.65074213
_cell_length_c   9.18048964
_cell_angle_alpha   118.07234104
_cell_angle_beta   90.09466060
_cell_angle_gamma   120.26403817
_symmetry_Int_Tables_number   1
_chemical_formula_structural   NaSn2(PO4)3
_chemical_formula_sum   'Na2 Sn4 P6 O24'
_cell_volume   497.12286427
_cell_formula_units_Z   2
loop_
 _symmetry_equiv_pos_site_id
 _symmetry_equiv_pos_as_xyz
  1  'x, y, z'
loop_
 _atom_site_type_symbol
 _atom_site_label
 _atom_site_symmetry_multiplicity
 _atom_site_fract_x
 _atom_site_fract_y
 _atom_site_fract_z
 _atom_site_occupancy
  Na  Na0  1  0.20783394  0.72666219  0.56186453  1
  Na  Na1  1  0.79216606  0.27333781  0.43813547  1
  Sn  Sn2  1  0.13651693  0.78859613  0.93562623  1
  Sn  Sn3  1  0.64630277  0.79298955  0.44200602  1
  Sn  Sn4  1  0.35369723  0.20701045  0.55799398  1
  Sn  Sn5  1  0.86348307  0.21140387  0.06437377  1
  P  P6  1  0.25308103  0.71268711  0.25229496  1
  P  P7  1  0.03781157  0.00805759  0.75560961  1
  P  P8  1  0.46584798  0.71690262  0.75269368  1
  P  P9  1  0.53415202  0.28309738  0.24730632  1
  P  P10  1  0.96218843  0.99194241  0.24439039  1
  P  P11  1  0.74691897  0.28731289  0.74770504  1
  O  O12  1  0.10569059  0.87538880  0.76477643  1
  O  O13  1  0.25470823  0.88674001  0.42001219  1
  O  O14  1  0.18875141  0.69957652  0.08976654  1
  O  O15  1  0.10871785  0.50410872  0.24574028  1
  O  O16  1  0.26919649  0.66608986  0.77274559  1
  O  O17  1  0.03662761  0.14574903  0.93919064  1
  O  O18  1  0.44867341  0.75124908  0.27193885  1
  O  O19  1  0.16054725  0.15533083  0.37940570  1
  O  O20  1  0.48037701  0.76328650  0.60600621  1
  O  O21  1  0.17484525  0.15834942  0.70266999  1
  O  O22  1  0.62153499  0.91167874  0.92542703  1
  O  O23  1  0.47752412  0.52813069  0.70091796  1
  O  O24  1  0.52247588  0.47186931  0.29908204  1
  O  O25  1  0.37846501  0.08832126  0.07457297  1
  O  O26  1  0.82515475  0.84165058  0.29733001  1
  O  O27  1  0.51962299  0.23671350  0.39399379  1
  O  O28  1  0.83945275  0.84466917  0.62059430  1
  O  O29  1  0.55132659  0.24875092  0.72806115  1
  O  O30  1  0.96337239  0.85425097  0.06080936  1
  O  O31  1  0.73080351  0.33391014  0.22725441  1
  O  O32  1  0.89128215  0.49589128  0.75425972  1
  O  O33  1  0.81124859  0.30042348  0.91023346  1
  O  O34  1  0.74529177  0.11325999  0.57998781  1
  O  O35  1  0.89430941  0.12461120  0.23522357  1
