# generated using pymatgen
data_LiSb(TeO4)3
_symmetry_space_group_name_H-M   'P 1'
_cell_length_a   5.33546393
_cell_length_b   5.11805342
_cell_length_c   7.40074369
_cell_angle_alpha   89.85289675
_cell_angle_beta   93.40666063
_cell_angle_gamma   90.00675682
_symmetry_Int_Tables_number   1
_chemical_formula_structural   LiSb(TeO4)3
_chemical_formula_sum   'Li1 Sb1 Te3 O12'
_cell_volume   201.73573064
_cell_formula_units_Z   1
loop_
 _symmetry_equiv_pos_site_id
 _symmetry_equiv_pos_as_xyz
  1  'x, y, z'
loop_
 _atom_site_type_symbol
 _atom_site_label
 _atom_site_symmetry_multiplicity
 _atom_site_fract_x
 _atom_site_fract_y
 _atom_site_fract_z
 _atom_site_occupancy
  Li  Li0  1  0.92411116  0.50217803  0.78887612  1
  Sb  Sb1  1  0.00344232  0.00048311  0.00574121  1
  Te  Te2  1  0.00589004  0.99812411  0.49686211  1
  Te  Te3  1  0.49891172  0.50079207  0.00204501  1
  Te  Te4  1  0.50047192  0.49936901  0.49439514  1
  O  O5  1  0.82260751  0.66914469  0.04748096  1
  O  O6  1  0.81914125  0.31460622  0.56370547  1
  O  O7  1  0.69074514  0.81136691  0.42900938  1
  O  O8  1  0.69420762  0.20228898  0.92768899  1
  O  O9  1  0.50462558  0.36264246  0.24967926  1
  O  O10  1  0.52038345  0.62452654  0.74499299  1
  O  O11  1  0.32816550  0.81501733  0.06216157  1
  O  O12  1  0.31774030  0.18772288  0.56712101  1
  O  O13  1  0.18799494  0.68205718  0.43124244  1
  O  O14  1  0.19116795  0.31988012  0.93139266  1
  O  O15  1  0.00419145  0.13350160  0.25645780  1
  O  O16  1  0.00775615  0.87089876  0.74392687  1
