# generated using pymatgen
data_Na22In5O15
_symmetry_space_group_name_H-M   'P 1'
_cell_length_a   9.71210677
_cell_length_b   9.71998996
_cell_length_c   9.71998996
_cell_angle_alpha   109.60001429
_cell_angle_beta   109.53455286
_cell_angle_gamma   109.53455286
_symmetry_Int_Tables_number   1
_chemical_formula_structural   Na22In5O15
_chemical_formula_sum   'Na22 In5 O15'
_cell_volume   704.11931417
_cell_formula_units_Z   1
loop_
 _symmetry_equiv_pos_site_id
 _symmetry_equiv_pos_as_xyz
  1  'x, y, z'
loop_
 _atom_site_type_symbol
 _atom_site_label
 _atom_site_symmetry_multiplicity
 _atom_site_fract_x
 _atom_site_fract_y
 _atom_site_fract_z
 _atom_site_occupancy
  Na  Na0  1  0.72126500  0.46140534  0.00218239  1
  Na  Na1  1  0.72126500  0.00218239  0.46140534  1
  Na  Na2  1  0.43533209  -0.00002327  0.21814175  1
  Na  Na3  1  0.43533209  0.21814175  -0.00002327  1
  Na  Na4  1  0.73728791  0.28832265  0.28832265  1
  Na  Na5  1  0.21099151  0.98553504  0.42628865  1
  Na  Na6  1  0.21099151  0.42628865  0.98553504  1
  Na  Na7  1  0.47746013  0.72339895  0.02373807  1
  Na  Na8  1  0.56120240  0.26251082  0.56128448  1
  Na  Na9  1  0.47746013  0.02373807  0.72339895  1
  Na  Na10  1  0.56120240  0.56128448  0.26251082  1
  Na  Na11  1  0.77913879  0.56761836  0.56761836  1
  Na  Na12  1  0.99123340  0.42670402  0.20358755  1
  Na  Na13  1  0.99123340  0.20358755  0.42670402  1
  Na  Na14  1  0.27927478  0.72441337  0.27156293  1
  Na  Na15  1  0.27927478  0.27156293  0.72441337  1
  Na  Na16  1  0.56292806  0.56875128  0.78478185  1
  Na  Na17  1  0.56292806  0.78478185  0.56875128  1
  Na  Na18  1  0.25909353  0.54565695  0.54565695  1
  Na  Na19  1  0.98275486  0.71683208  0.43980016  1
  Na  Na20  1  0.98275486  0.43980016  0.71683208  1
  Na  Na21  1  0.22229965  0.77684912  0.77684912  1
  In  In22  1  0.71108663  0.00854601  0.00854601  1
  In  In23  1  0.99781389  0.00552657  0.00552657  1
  In  In24  1  0.30153538  0.29531265  0.29531265  1
  In  In25  1  0.00897878  0.72065329  0.00908599  1
  In  In26  1  0.00897878  0.00908599  0.72065329  1
  O  O27  1  0.68422904  0.21914147  0.01472240  1
  O  O28  1  0.68422904  0.01472240  0.21914147  1
  O  O29  1  0.47825488  0.98704371  0.47570229  1
  O  O30  1  0.47825488  0.47570229  0.98704371  1
  O  O31  1  0.52606592  0.31160876  0.31160876  1
  O  O32  1  0.78220675  0.78559750  0.51265732  1
  O  O33  1  0.21369172  0.99185122  0.68921526  1
  O  O34  1  0.21369172  0.68921526  0.99185122  1
  O  O35  1  0.78220675  0.51265732  0.78559750  1
  O  O36  1  0.30514653  0.51609006  0.30345368  1
  O  O37  1  0.30514653  0.30345368  0.51609006  1
  O  O38  1  0.01047192  0.67544889  0.20772707  1
  O  O39  1  0.01047192  0.20772707  0.67544889  1
  O  O40  1  0.99871658  0.50456092  0.50456092  1
  O  O41  1  0.48669803  0.78626040  0.78626040  1
