# generated using pymatgen
data_Rb6Co2O7
_symmetry_space_group_name_H-M   'P 1'
_cell_length_a   9.68260825
_cell_length_b   9.68291812
_cell_length_c   10.01862695
_cell_angle_alpha   89.99382568
_cell_angle_beta   90.00438407
_cell_angle_gamma   120.01744619
_symmetry_Int_Tables_number   1
_chemical_formula_structural   Rb6Co2O7
_chemical_formula_sum   'Rb12 Co4 O14'
_cell_volume   813.31930295
_cell_formula_units_Z   2
loop_
 _symmetry_equiv_pos_site_id
 _symmetry_equiv_pos_as_xyz
  1  'x, y, z'
loop_
 _atom_site_type_symbol
 _atom_site_label
 _atom_site_symmetry_multiplicity
 _atom_site_fract_x
 _atom_site_fract_y
 _atom_site_fract_z
 _atom_site_occupancy
  Rb  Rb0  1  0.33857181  0.96819434  0.37576523  1
  Rb  Rb1  1  0.35208240  0.96219738  0.87306933  1
  Rb  Rb2  1  0.03166668  0.37036765  0.37583145  1
  Rb  Rb3  1  0.03776739  0.38983256  0.87310143  1
  Rb  Rb4  1  0.36890516  0.33694968  0.62419011  1
  Rb  Rb5  1  0.38754263  0.34998985  0.12702349  1
  Rb  Rb6  1  0.61031989  0.64799854  0.87305987  1
  Rb  Rb7  1  0.62961984  0.66140893  0.37569781  1
  Rb  Rb8  1  0.96226472  0.61221914  0.12703917  1
  Rb  Rb9  1  0.96817599  0.63112921  0.62414831  1
  Rb  Rb10  1  0.64990246  0.03770452  0.12702010  1
  Rb  Rb11  1  0.66306006  0.03198370  0.62411421  1
  Co  Co12  1  0.33327947  0.66661430  0.18423149  1
  Co  Co13  1  0.33343810  0.66662406  0.56457662  1
  Co  Co14  1  0.66666804  0.33336319  0.81568496  1
  Co  Co15  1  0.66657269  0.33340679  0.43552267  1
  O  O16  1  0.16974363  0.48010076  0.62141648  1
  O  O17  1  0.17489302  0.47566775  0.12724102  1
  O  O18  1  0.30063206  0.82491082  0.12719093  1
  O  O19  1  0.31056584  0.83029238  0.62139595  1
  O  O20  1  0.33330318  0.66663348  0.37335892  1
  O  O21  1  0.51990560  0.68955373  0.62133297  1
  O  O22  1  0.52413371  0.69926690  0.12712765  1
  O  O23  1  0.47561626  0.30022995  0.87282131  1
  O  O24  1  0.47980144  0.30972445  0.37865788  1
  O  O25  1  0.66663522  0.33333428  0.62660497  1
  O  O26  1  0.69022125  0.17018723  0.37860437  1
  O  O27  1  0.69979759  0.17534258  0.87275073  1
  O  O28  1  0.82475532  0.52449741  0.87273553  1
  O  O29  1  0.82985754  0.52027342  0.37868603  1
