# generated using pymatgen
data_Li2Fe5(Si2O7)2
_symmetry_space_group_name_H-M   'P 1'
_cell_length_a   7.64353141
_cell_length_b   8.11990432
_cell_length_c   5.54570726
_cell_angle_alpha   91.68479626
_cell_angle_beta   104.17562438
_cell_angle_gamma   114.86899794
_symmetry_Int_Tables_number   1
_chemical_formula_structural   Li2Fe5(Si2O7)2
_chemical_formula_sum   'Li2 Fe5 Si4 O14'
_cell_volume   299.31882368
_cell_formula_units_Z   1
loop_
 _symmetry_equiv_pos_site_id
 _symmetry_equiv_pos_as_xyz
  1  'x, y, z'
loop_
 _atom_site_type_symbol
 _atom_site_label
 _atom_site_symmetry_multiplicity
 _atom_site_fract_x
 _atom_site_fract_y
 _atom_site_fract_z
 _atom_site_occupancy
  Li  Li0  1  0.10147152  0.45367605  0.23134170  1
  Li  Li1  1  0.89852848  0.54632395  0.76865830  1
  Fe  Fe2  1  0.00000000  0.00000000  0.00000000  1
  Fe  Fe3  1  0.39071263  0.80990881  0.07426093  1
  Fe  Fe4  1  0.57979148  0.70496685  0.63784962  1
  Fe  Fe5  1  0.42020852  0.29503315  0.36215138  1
  Fe  Fe6  1  0.60928737  0.19009119  0.92573907  1
  Si  Si7  1  0.22354566  0.86286607  0.49885478  1
  Si  Si8  1  0.20686435  0.39102213  0.78855048  1
  Si  Si9  1  0.79313565  0.60897787  0.21144952  1
  Si  Si10  1  0.77645434  0.13713393  0.50114522  1
  O  O11  1  0.17994823  0.56943691  0.88522777  1
  O  O12  1  0.33953511  0.96048902  0.79267875  1
  O  O13  1  0.01662655  0.27741412  0.52685705  1
  O  O14  1  0.32440854  0.73650621  0.40438557  1
  O  O15  1  0.18399247  0.26807058  0.02086030  1
  O  O16  1  0.40661401  0.43946740  0.69177404  1
  O  O17  1  0.22570067  0.01831502  0.31395621  1
  O  O18  1  0.77429933  0.98168498  0.68604379  1
  O  O19  1  0.59338599  0.56053260  0.30822596  1
  O  O20  1  0.81600753  0.73192942  0.97913970  1
  O  O21  1  0.67559146  0.26349479  0.59561443  1
  O  O22  1  0.98337345  0.72258588  0.47314295  1
  O  O23  1  0.66046489  0.03951098  0.20732125  1
  O  O24  1  0.82005177  0.43056309  0.11477223  1
