# generated using pymatgen
data_KCePCO7
_symmetry_space_group_name_H-M   'P 1'
_cell_length_a   10.19428695
_cell_length_b   7.09232058
_cell_length_c   5.81836901
_cell_angle_alpha   90.00000000
_cell_angle_beta   89.51526902
_cell_angle_gamma   90.00000000
_symmetry_Int_Tables_number   1
_chemical_formula_structural   KCePCO7
_chemical_formula_sum   'K2 Ce2 P2 C2 O14'
_cell_volume   420.65972206
_cell_formula_units_Z   2
loop_
 _symmetry_equiv_pos_site_id
 _symmetry_equiv_pos_as_xyz
  1  'x, y, z'
loop_
 _atom_site_type_symbol
 _atom_site_label
 _atom_site_symmetry_multiplicity
 _atom_site_fract_x
 _atom_site_fract_y
 _atom_site_fract_z
 _atom_site_occupancy
  K  K0  1  0.21880663  0.45690220  0.24901555  1
  K  K1  1  0.78119337  0.95690220  0.75098445  1
  Ce  Ce2  1  0.34974194  0.77496251  0.78133627  1
  Ce  Ce3  1  0.65025806  0.27496251  0.21866373  1
  P  P4  1  0.43535903  0.26722225  0.71875671  1
  P  P5  1  0.56464097  0.76722225  0.28124329  1
  C  C6  1  0.08411182  0.73240117  0.72557213  1
  C  C7  1  0.91588818  0.23240117  0.27442787  1
  O  O8  1  0.03536975  0.22315099  0.30580892  1
  O  O9  1  0.14174381  0.73842225  0.93074657  1
  O  O10  1  0.17345899  0.73907349  0.55372132  1
  O  O11  1  0.34977244  0.09102034  0.76981080  1
  O  O12  1  0.35741197  0.44759081  0.78260174  1
  O  O13  1  0.43646964  0.75439961  0.13675158  1
  O  O14  1  0.47278263  0.27270437  0.45812563  1
  O  O15  1  0.52721737  0.77270437  0.54187437  1
  O  O16  1  0.56353036  0.25439961  0.86324842  1
  O  O17  1  0.64258803  0.94759081  0.21739826  1
  O  O18  1  0.65022756  0.59102034  0.23018920  1
  O  O19  1  0.82654101  0.23907349  0.44627868  1
  O  O20  1  0.85825619  0.23842225  0.06925343  1
  O  O21  1  0.96463025  0.72315099  0.69419108  1
