# generated using pymatgen
data_Li2Mn5(Si2O7)2
_symmetry_space_group_name_H-M   'P 1'
_cell_length_a   7.65614503
_cell_length_b   8.10484979
_cell_length_c   5.56158116
_cell_angle_alpha   93.44038698
_cell_angle_beta   103.83317065
_cell_angle_gamma   113.66701177
_symmetry_Int_Tables_number   1
_chemical_formula_structural   Li2Mn5(Si2O7)2
_chemical_formula_sum   'Li2 Mn5 Si4 O14'
_cell_volume   302.15553249
_cell_formula_units_Z   1
loop_
 _symmetry_equiv_pos_site_id
 _symmetry_equiv_pos_as_xyz
  1  'x, y, z'
loop_
 _atom_site_type_symbol
 _atom_site_label
 _atom_site_symmetry_multiplicity
 _atom_site_fract_x
 _atom_site_fract_y
 _atom_site_fract_z
 _atom_site_occupancy
  Li  Li0  1  0.10148959  0.46019597  0.22888072  1
  Li  Li1  1  0.89851041  0.53980403  0.77111928  1
  Mn  Mn2  1  0.00000000  0.00000000  0.00000000  1
  Mn  Mn3  1  0.38022915  0.82041225  0.09169843  1
  Mn  Mn4  1  0.58084878  0.70411923  0.63089852  1
  Mn  Mn5  1  0.41915122  0.29588077  0.36910148  1
  Mn  Mn6  1  0.61977085  0.17958775  0.90830157  1
  Si  Si7  1  0.21693520  0.85972976  0.50612197  1
  Si  Si8  1  0.20824316  0.38968867  0.79284216  1
  Si  Si9  1  0.79175684  0.61031133  0.20715784  1
  Si  Si10  1  0.78306480  0.14027024  0.49387803  1
  O  O11  1  0.17671989  0.56868680  0.88426117  1
  O  O12  1  0.32508575  0.96901586  0.79620030  1
  O  O13  1  0.02313416  0.26762910  0.52991471  1
  O  O14  1  0.31454847  0.72463141  0.42425876  1
  O  O15  1  0.18857081  0.27277698  0.02763087  1
  O  O16  1  0.40654503  0.43337966  0.69918744  1
  O  O17  1  0.23774978  0.00267899  0.30352608  1
  O  O18  1  0.76225022  0.99732101  0.69647392  1
  O  O19  1  0.59345497  0.56662034  0.30081256  1
  O  O20  1  0.81142919  0.72722302  0.97236913  1
  O  O21  1  0.68545153  0.27536859  0.57574124  1
  O  O22  1  0.97686584  0.73237090  0.47008529  1
  O  O23  1  0.67491425  0.03098414  0.20379970  1
  O  O24  1  0.82328011  0.43131320  0.11573883  1
