# generated using pymatgen
data_LiVPO4
_symmetry_space_group_name_H-M   'P 1'
_cell_length_a   9.32452397
_cell_length_b   6.44234523
_cell_length_c   5.01659603
_cell_angle_alpha   90.00000000
_cell_angle_beta   90.00000000
_cell_angle_gamma   90.00000000
_symmetry_Int_Tables_number   1
_chemical_formula_structural   LiVPO4
_chemical_formula_sum   'Li4 V4 P4 O16'
_cell_volume   301.35596604
_cell_formula_units_Z   4
loop_
 _symmetry_equiv_pos_site_id
 _symmetry_equiv_pos_as_xyz
  1  'x, y, z'
loop_
 _atom_site_type_symbol
 _atom_site_label
 _atom_site_symmetry_multiplicity
 _atom_site_fract_x
 _atom_site_fract_y
 _atom_site_fract_z
 _atom_site_occupancy
  Li  Li0  1  0.16422828  0.75000000  0.45234946  1
  Li  Li1  1  0.33577172  0.25000000  0.95234946  1
  Li  Li2  1  0.66422828  0.75000000  0.04765054  1
  Li  Li3  1  0.83577172  0.25000000  0.54765054  1
  V  V4  1  0.00000000  0.00000000  0.00000000  1
  V  V5  1  0.00000000  0.50000000  0.00000000  1
  V  V6  1  0.50000000  0.00000000  0.50000000  1
  V  V7  1  0.50000000  0.50000000  0.50000000  1
  P  P8  1  0.17826069  0.25000000  0.48342012  1
  P  P9  1  0.32173931  0.75000000  0.98342012  1
  P  P10  1  0.67826069  0.25000000  0.01657988  1
  P  P11  1  0.82173931  0.75000000  0.51657988  1
  O  O12  1  0.13267140  0.25000000  0.78671882  1
  O  O13  1  0.12224969  0.05065132  0.35099471  1
  O  O14  1  0.12224969  0.44934868  0.35099471  1
  O  O15  1  0.15360080  0.75000000  0.94779977  1
  O  O16  1  0.34639920  0.25000000  0.44779977  1
  O  O17  1  0.37775031  0.94934868  0.85099471  1
  O  O18  1  0.37775031  0.55065132  0.85099471  1
  O  O19  1  0.36732860  0.75000000  0.28671882  1
  O  O20  1  0.63267140  0.25000000  0.71328118  1
  O  O21  1  0.62224969  0.05065132  0.14900529  1
  O  O22  1  0.62224969  0.44934868  0.14900529  1
  O  O23  1  0.65360080  0.75000000  0.55220023  1
  O  O24  1  0.84639920  0.25000000  0.05220023  1
  O  O25  1  0.87775031  0.55065132  0.64900529  1
  O  O26  1  0.87775031  0.94934868  0.64900529  1
  O  O27  1  0.86732860  0.75000000  0.21328118  1
