# generated using pymatgen
data_Sn(PO3)4
_symmetry_space_group_name_H-M   'P 1'
_cell_length_a   7.54418438
_cell_length_b   7.54641110
_cell_length_c   10.11078709
_cell_angle_alpha   85.20454880
_cell_angle_beta   68.24200501
_cell_angle_gamma   113.00426161
_symmetry_Int_Tables_number   1
_chemical_formula_structural   Sn(PO3)4
_chemical_formula_sum   'Sn2 P8 O24'
_cell_volume   474.20149393
_cell_formula_units_Z   2
loop_
 _symmetry_equiv_pos_site_id
 _symmetry_equiv_pos_as_xyz
  1  'x, y, z'
loop_
 _atom_site_type_symbol
 _atom_site_label
 _atom_site_symmetry_multiplicity
 _atom_site_fract_x
 _atom_site_fract_y
 _atom_site_fract_z
 _atom_site_occupancy
  Sn  Sn0  1  0.00000176  0.00000403  0.49999666  1
  Sn  Sn1  1  0.00000669  0.49999568  0.00000040  1
  P  P2  1  0.28147363  0.25941700  0.97009485  1
  P  P3  1  0.72944553  0.25152449  0.52966148  1
  P  P4  1  0.99347144  0.65886518  0.31592263  1
  P  P5  1  0.27055596  0.74847949  0.47033687  1
  P  P6  1  0.71854986  0.74066604  0.02994532  1
  P  P7  1  0.47494009  0.30935061  0.18405937  1
  P  P8  1  0.52505871  0.69064519  0.81593975  1
  P  P9  1  0.00652068  0.34113293  0.68407973  1
  O  O10  1  0.48921585  0.46689280  0.84822990  1
  O  O11  1  0.95517733  0.34763738  0.84200973  1
  O  O12  1  0.04481398  0.65235217  0.15799456  1
  O  O13  1  0.12056227  0.32867186  0.06606113  1
  O  O14  1  0.10539660  0.81364964  0.56619649  1
  O  O15  1  0.18458995  0.66214952  0.34865406  1
  O  O16  1  0.04624671  0.16360664  0.65003933  1
  O  O17  1  0.21422537  0.54002828  0.57549736  1
  O  O18  1  0.38523546  0.21074564  0.07498789  1
  O  O19  1  0.50076493  0.87601556  0.39814886  1
  O  O20  1  0.51079139  0.53310642  0.15176568  1
  O  O21  1  0.31021750  0.20235245  0.34181920  1
  O  O22  1  0.31346818  0.69626641  0.84980446  1
  O  O23  1  0.77418223  0.89866084  0.10206322  1
  O  O24  1  0.22580346  0.10127900  0.89790405  1
  O  O25  1  0.89459507  0.18635445  0.43380311  1
  O  O26  1  0.68978222  0.79765026  0.65817665  1
  O  O27  1  0.87946411  0.67132310  0.93392775  1
  O  O28  1  0.49922096  0.12397827  0.60185600  1
  O  O29  1  0.61477442  0.78925502  0.92500303  1
  O  O30  1  0.78576018  0.45997346  0.42451327  1
  O  O31  1  0.95375438  0.83639696  0.34995733  1
  O  O32  1  0.81539890  0.33784173  0.65135156  1
  O  O33  1  0.68653719  0.30373249  0.15019630  1
