# generated using pymatgen
data_Li3Ni2P2(O4F)2
_symmetry_space_group_name_H-M   'P 1'
_cell_length_a   10.65613100
_cell_length_b   6.30401913
_cell_length_c   10.95943941
_cell_angle_alpha   89.84304673
_cell_angle_beta   90.00000000
_cell_angle_gamma   90.00000000
_symmetry_Int_Tables_number   1
_chemical_formula_structural   Li3Ni2P2(O4F)2
_chemical_formula_sum   'Li12 Ni8 P8 O32 F8'
_cell_volume   736.21351182
_cell_formula_units_Z   4
loop_
 _symmetry_equiv_pos_site_id
 _symmetry_equiv_pos_as_xyz
  1  'x, y, z'
loop_
 _atom_site_type_symbol
 _atom_site_label
 _atom_site_symmetry_multiplicity
 _atom_site_fract_x
 _atom_site_fract_y
 _atom_site_fract_z
 _atom_site_occupancy
  Li  Li0  1  0.03703077  0.75406852  0.27096197  1
  Li  Li1  1  0.22828562  0.24785433  0.08456879  1
  Li  Li2  1  0.24205746  0.50686018  0.33415496  1
  Li  Li3  1  0.25794254  0.00686018  0.83415496  1
  Li  Li4  1  0.27171438  0.74785433  0.58456879  1
  Li  Li5  1  0.46296923  0.25406852  0.77096197  1
  Li  Li6  1  0.53703077  0.74593148  0.22903803  1
  Li  Li7  1  0.72828562  0.25214567  0.41543121  1
  Li  Li8  1  0.74205746  0.99313982  0.16584504  1
  Li  Li9  1  0.75794254  0.49313982  0.66584504  1
  Li  Li10  1  0.77171438  0.75214567  0.91543121  1
  Li  Li11  1  0.96296923  0.24593148  0.72903803  1
  Ni  Ni12  1  0.00000000  0.00000000  0.00000000  1
  Ni  Ni13  1  0.00000000  0.50000000  0.00000000  1
  Ni  Ni14  1  0.00000000  0.00000000  0.50000000  1
  Ni  Ni15  1  0.00000000  0.50000000  0.50000000  1
  Ni  Ni16  1  0.50000000  0.00000000  0.50000000  1
  Ni  Ni17  1  0.50000000  0.50000000  0.50000000  1
  Ni  Ni18  1  0.50000000  0.00000000  0.00000000  1
  Ni  Ni19  1  0.50000000  0.50000000  0.00000000  1
  P  P20  1  0.02960299  0.75239573  0.74150596  1
  P  P21  1  0.23955991  0.74536847  0.07711284  1
  P  P22  1  0.26044009  0.24536847  0.57711284  1
  P  P23  1  0.47039701  0.25239573  0.24150596  1
  P  P24  1  0.52960299  0.74760427  0.75849404  1
  P  P25  1  0.73955991  0.75463153  0.42288716  1
  P  P26  1  0.76044009  0.25463153  0.92288716  1
  P  P27  1  0.97039701  0.24760427  0.25849404  1
  O  O28  1  0.02386193  0.24719656  0.12556844  1
  O  O29  1  0.02594706  0.04842979  0.32320337  1
  O  O30  1  0.02627209  0.44804470  0.32062170  1
  O  O31  1  0.11726151  0.24581580  0.54555493  1
  O  O32  1  0.17341249  0.76548029  0.74022443  1
  O  O33  1  0.18269531  0.54352751  0.01840684  1
  O  O34  1  0.18680078  0.94906716  0.01420203  1
  O  O35  1  0.21674456  0.74075290  0.21456618  1
  O  O36  1  0.28325544  0.24075290  0.71456618  1
  O  O37  1  0.31730469  0.04352751  0.51840684  1
  O  O38  1  0.31319922  0.44906716  0.51420203  1
  O  O39  1  0.32658751  0.26548029  0.24022443  1
  O  O40  1  0.38273849  0.74581580  0.04555493  1
  O  O41  1  0.47372791  0.94804470  0.82062170  1
  O  O42  1  0.47405294  0.54842979  0.82320337  1
  O  O43  1  0.47613807  0.74719656  0.62556844  1
  O  O44  1  0.52386193  0.25280344  0.37443156  1
  O  O45  1  0.52627209  0.05195530  0.17937830  1
  O  O46  1  0.52594706  0.45157021  0.17679663  1
  O  O47  1  0.61726151  0.25418420  0.95444507  1
  O  O48  1  0.67341249  0.73451971  0.75977557  1
  O  O49  1  0.68680078  0.55093284  0.48579797  1
  O  O50  1  0.68269531  0.95647249  0.48159316  1
  O  O51  1  0.71674456  0.75924710  0.28543382  1
  O  O52  1  0.78325544  0.25924710  0.78543382  1
  O  O53  1  0.81319922  0.05093284  0.98579797  1
  O  O54  1  0.81730469  0.45647249  0.98159316  1
  O  O55  1  0.82658751  0.23451971  0.25977557  1
  O  O56  1  0.88273849  0.75418420  0.45444507  1
  O  O57  1  0.97372791  0.55195530  0.67937830  1
  O  O58  1  0.97405294  0.95157021  0.67679663  1
  O  O59  1  0.97613807  0.75280344  0.87443156  1
  F  F60  1  0.04116080  0.24634686  0.88586688  1
  F  F61  1  0.12275170  0.74337662  0.47913997  1
  F  F62  1  0.37724830  0.24337662  0.97913997  1
  F  F63  1  0.45883920  0.74634686  0.38586688  1
  F  F64  1  0.54116080  0.25365314  0.61413312  1
  F  F65  1  0.62275170  0.75662338  0.02086003  1
  F  F66  1  0.87724830  0.25662338  0.52086003  1
  F  F67  1  0.95883920  0.75365314  0.11413312  1
