# generated using pymatgen
data_Zr5Ti7O24
_symmetry_space_group_name_H-M   'P 1'
_cell_length_a   14.54742263
_cell_length_b   5.41220965
_cell_length_c   10.13648593
_cell_angle_alpha   89.92055139
_cell_angle_beta   90.00000000
_cell_angle_gamma   90.00000000
_symmetry_Int_Tables_number   1
_chemical_formula_structural   Zr5Ti7O24
_chemical_formula_sum   'Zr10 Ti14 O48'
_cell_volume   798.08228699
_cell_formula_units_Z   2
loop_
 _symmetry_equiv_pos_site_id
 _symmetry_equiv_pos_as_xyz
  1  'x, y, z'
loop_
 _atom_site_type_symbol
 _atom_site_label
 _atom_site_symmetry_multiplicity
 _atom_site_fract_x
 _atom_site_fract_y
 _atom_site_fract_z
 _atom_site_occupancy
  Zr  Zr0  1  0.99837781  0.26289353  0.12536789  1
  Zr  Zr1  1  0.99573003  0.26617414  0.62196734  1
  Zr  Zr2  1  0.99449104  0.73201644  0.37172309  1
  Zr  Zr3  1  0.99731837  0.73521095  0.87576180  1
  Zr  Zr4  1  0.16961192  0.80187524  0.59238792  1
  Zr  Zr5  1  0.33038808  0.30187524  0.09238792  1
  Zr  Zr6  1  0.50268163  0.23521095  0.37576180  1
  Zr  Zr7  1  0.50426997  0.76617414  0.12196734  1
  Zr  Zr8  1  0.50162219  0.76289353  0.62536789  1
  Zr  Zr9  1  0.50550896  0.23201644  0.87172309  1
  Ti  Ti10  1  0.16565131  0.19258314  0.34444562  1
  Ti  Ti11  1  0.16597074  0.19169356  0.84209117  1
  Ti  Ti12  1  0.16574749  0.81381644  0.09448473  1
  Ti  Ti13  1  0.33425251  0.31381644  0.59448473  1
  Ti  Ti14  1  0.33402926  0.69169356  0.34209117  1
  Ti  Ti15  1  0.33434869  0.69258314  0.84444562  1
  Ti  Ti16  1  0.66958977  0.31512563  0.15925646  1
  Ti  Ti17  1  0.67029426  0.31625398  0.65856119  1
  Ti  Ti18  1  0.67145494  0.68147189  0.90863930  1
  Ti  Ti19  1  0.66922802  0.68415817  0.40922823  1
  Ti  Ti20  1  0.82854506  0.18147189  0.40863930  1
  Ti  Ti21  1  0.83077198  0.18415817  0.90922823  1
  Ti  Ti22  1  0.82970574  0.81625398  0.15856119  1
  Ti  Ti23  1  0.83041023  0.81512563  0.65925646  1
  O  O24  1  0.07898769  0.58853091  0.03192954  1
  O  O25  1  0.07035046  0.57249934  0.52726726  1
  O  O26  1  0.07801848  0.41381696  0.28060218  1
  O  O27  1  0.08159630  0.42144426  0.77845561  1
  O  O28  1  0.08351160  0.07007366  0.48305957  1
  O  O29  1  0.08145116  0.92529518  0.23557213  1
  O  O30  1  0.08247156  0.93874878  0.73993792  1
  O  O31  1  0.08722949  0.07390812  0.98687441  1
  O  O32  1  0.22751460  0.11820642  0.18200941  1
  O  O33  1  0.24066993  0.12996667  0.67966109  1
  O  O34  1  0.24260761  0.88478023  0.41940404  1
  O  O35  1  0.24260759  0.88165992  0.93154686  1
  O  O36  1  0.25933007  0.62996667  0.17966109  1
  O  O37  1  0.27248540  0.61820642  0.68200941  1
  O  O38  1  0.25739239  0.38478023  0.91940404  1
  O  O39  1  0.25739241  0.38165992  0.43154686  1
  O  O40  1  0.41752844  0.43874878  0.23993792  1
  O  O41  1  0.41277051  0.57390812  0.48687441  1
  O  O42  1  0.41854884  0.42529518  0.73557213  1
  O  O43  1  0.41648840  0.57007366  0.98305957  1
  O  O44  1  0.42964954  0.07249934  0.02726726  1
  O  O45  1  0.42101231  0.08853091  0.53192954  1
  O  O46  1  0.41840370  0.92144426  0.27845561  1
  O  O47  1  0.42198152  0.91381696  0.78060218  1
  O  O48  1  0.58235874  0.08746873  0.21681307  1
  O  O49  1  0.58374854  0.08410870  0.71379472  1
  O  O50  1  0.58130281  0.91054032  0.46521348  1
  O  O51  1  0.58689596  0.91184734  0.96524592  1
  O  O52  1  0.58875900  0.43009373  0.01540572  1
  O  O53  1  0.58777957  0.42909281  0.51479314  1
  O  O54  1  0.58985724  0.57220328  0.26429076  1
  O  O55  1  0.58954303  0.56921283  0.76460293  1
  O  O56  1  0.73809110  0.37014570  0.32516461  1
  O  O57  1  0.73943836  0.36905104  0.82448124  1
  O  O58  1  0.73995649  0.62623312  0.07469515  1
  O  O59  1  0.73880580  0.62779884  0.57526451  1
  O  O60  1  0.76119420  0.12779884  0.07526451  1
  O  O61  1  0.76004351  0.12623312  0.57469515  1
  O  O62  1  0.76056164  0.86905104  0.32448124  1
  O  O63  1  0.76190890  0.87014570  0.82516461  1
  O  O64  1  0.91045697  0.06921283  0.26460293  1
  O  O65  1  0.91014276  0.07220328  0.76429076  1
  O  O66  1  0.91222043  0.92909281  0.01479314  1
  O  O67  1  0.91124100  0.93009373  0.51540572  1
  O  O68  1  0.91869719  0.41054032  0.96521348  1
  O  O69  1  0.91310404  0.41184734  0.46524592  1
  O  O70  1  0.91625146  0.58410870  0.21379472  1
  O  O71  1  0.91764126  0.58746873  0.71681307  1
