# generated using pymatgen
data_Li3Fe(PO4)2
_symmetry_space_group_name_H-M   'P 1'
_cell_length_a   8.31371693
_cell_length_b   10.36715089
_cell_length_c   8.21786572
_cell_angle_alpha   90.00000000
_cell_angle_beta   105.04098856
_cell_angle_gamma   90.00000000
_symmetry_Int_Tables_number   1
_chemical_formula_structural   Li3Fe(PO4)2
_chemical_formula_sum   'Li12 Fe4 P8 O32'
_cell_volume   684.02835325
_cell_formula_units_Z   4
loop_
 _symmetry_equiv_pos_site_id
 _symmetry_equiv_pos_as_xyz
  1  'x, y, z'
loop_
 _atom_site_type_symbol
 _atom_site_label
 _atom_site_symmetry_multiplicity
 _atom_site_fract_x
 _atom_site_fract_y
 _atom_site_fract_z
 _atom_site_occupancy
  Li  Li0  1  0.10221772  0.66328160  0.60947070  1
  Li  Li1  1  0.15581926  0.15837878  0.64400562  1
  Li  Li2  1  0.15812182  0.35297643  0.17017735  1
  Li  Li3  1  0.28242140  0.91905954  0.54375544  1
  Li  Li4  1  0.34228257  0.65526248  0.35838173  1
  Li  Li5  1  0.41431446  0.16406071  0.40374100  1
  Li  Li6  1  0.60221772  0.83671840  0.60947070  1
  Li  Li7  1  0.65581926  0.34162122  0.64400562  1
  Li  Li8  1  0.65812182  0.14702357  0.17017735  1
  Li  Li9  1  0.78242140  0.58094046  0.54375544  1
  Li  Li10  1  0.84228257  0.84473752  0.35838173  1
  Li  Li11  1  0.91431446  0.33593929  0.40374100  1
  Fe  Fe12  1  0.09111562  0.83530939  0.08881533  1
  Fe  Fe13  1  0.40530940  0.34449612  0.89923892  1
  Fe  Fe14  1  0.59111562  0.66469061  0.08881533  1
  Fe  Fe15  1  0.90530940  0.15550388  0.89923892  1
  P  P16  1  0.03674480  0.40469673  0.76753296  1
  P  P17  1  0.02943898  0.09045115  0.28178850  1
  P  P18  1  0.47026848  0.59088746  0.70617605  1
  P  P19  1  0.53674480  0.09530327  0.76753296  1
  P  P20  1  0.45694478  0.90860187  0.23388034  1
  P  P21  1  0.52943898  0.40954885  0.28178850  1
  P  P22  1  0.97026848  0.90911254  0.70617605  1
  P  P23  1  0.95694478  0.59139813  0.23388034  1
  O  O24  1  0.00573421  0.05804843  0.75485574  1
  O  O25  1  0.08191023  0.33090284  0.62473455  1
  O  O26  1  0.19266102  0.39484139  0.92973282  1
  O  O27  1  0.00431647  0.45037135  0.25765214  1
  O  O28  1  0.11640641  0.85426467  0.64877009  1
  O  O29  1  0.05966514  0.16150980  0.12023574  1
  O  O30  1  0.10665562  0.66956329  0.19328845  1
  O  O31  1  0.18978868  0.09748840  0.42666716  1
  O  O32  1  0.30659015  0.60622772  0.57179604  1
  O  O33  1  0.39027337  0.17109219  0.81941129  1
  O  O34  1  0.44944138  0.65496608  0.87288802  1
  O  O35  1  0.37932774  0.34805117  0.32421191  1
  O  O36  1  0.48352609  0.95727437  0.72529096  1
  O  O37  1  0.30260367  0.89029625  0.07761813  1
  O  O38  1  0.41363963  0.84353401  0.38692619  1
  O  O39  1  0.50573421  0.44195157  0.75485574  1
  O  O40  1  0.49272490  0.55657949  0.23204684  1
  O  O41  1  0.58191023  0.16909716  0.62473455  1
  O  O42  1  0.69266102  0.10515861  0.92973282  1
  O  O43  1  0.50431647  0.04962865  0.25765214  1
  O  O44  1  0.61640641  0.64573533  0.64877009  1
  O  O45  1  0.55966514  0.33849020  0.12023574  1
  O  O46  1  0.60665562  0.83043671  0.19328845  1
  O  O47  1  0.68978868  0.40251160  0.42666716  1
  O  O48  1  0.80659015  0.89377228  0.57179604  1
  O  O49  1  0.89027337  0.32890781  0.81941129  1
  O  O50  1  0.94944138  0.84503392  0.87288802  1
  O  O51  1  0.87932774  0.15194883  0.32421191  1
  O  O52  1  0.98352609  0.54272563  0.72529096  1
  O  O53  1  0.80260367  0.60970375  0.07761813  1
  O  O54  1  0.91363963  0.65646599  0.38692619  1
  O  O55  1  0.99272490  0.94342051  0.23204684  1
