# generated using pymatgen
data_Ti9Fe11O30
_symmetry_space_group_name_H-M   'P 1'
_cell_length_a   8.91496470
_cell_length_b   7.60586559
_cell_length_c   9.19062015
_cell_angle_alpha   72.18187629
_cell_angle_beta   98.98811639
_cell_angle_gamma   113.08114436
_symmetry_Int_Tables_number   1
_chemical_formula_structural   Ti9Fe11O30
_chemical_formula_sum   'Ti9 Fe11 O30'
_cell_volume   545.32665810
_cell_formula_units_Z   1
loop_
 _symmetry_equiv_pos_site_id
 _symmetry_equiv_pos_as_xyz
  1  'x, y, z'
loop_
 _atom_site_type_symbol
 _atom_site_label
 _atom_site_symmetry_multiplicity
 _atom_site_fract_x
 _atom_site_fract_y
 _atom_site_fract_z
 _atom_site_occupancy
  Ti  Ti0  1  0.74028393  0.34245736  0.77435511  1
  Ti  Ti1  1  0.94561894  0.73944521  0.17199337  1
  Ti  Ti2  1  0.85341353  0.86063820  0.42261152  1
  Ti  Ti3  1  0.65865241  0.45965976  0.02819296  1
  Ti  Ti4  1  0.45866023  0.05889217  0.62432263  1
  Ti  Ti5  1  0.34123764  0.53838328  0.97663683  1
  Ti  Ti6  1  0.26184795  0.66545546  0.22790213  1
  Ti  Ti7  1  0.14182680  0.13501819  0.57092944  1
  Ti  Ti8  1  0.05701054  0.26277252  0.82726213  1
  Fe  Fe9  1  0.74029340  0.83557457  0.77838691  1
  Fe  Fe10  1  0.94259548  0.23619030  0.17748331  1
  Fe  Fe11  1  0.85734682  0.35828607  0.42514077  1
  Fe  Fe12  1  0.45269677  0.55919921  0.62370652  1
  Fe  Fe13  1  0.54065072  0.94035018  0.37382802  1
  Fe  Fe14  1  0.34271374  0.03731706  0.97517768  1
  Fe  Fe15  1  0.65921200  0.96228636  0.02896718  1
  Fe  Fe16  1  0.54020834  0.43569673  0.37729002  1
  Fe  Fe17  1  0.13999008  0.63794070  0.57336925  1
  Fe  Fe18  1  0.25790313  0.15943511  0.22331291  1
  Fe  Fe19  1  0.06253449  0.76221030  0.82297614  1
  O  O20  1  0.97647111  0.01895639  0.76442907  1
  O  O21  1  0.88749157  0.21482786  0.95143357  1
  O  O22  1  0.91359313  0.39001518  0.65390124  1
  O  O23  1  0.97263998  0.16823889  0.42634385  1
  O  O24  1  0.80872778  0.57970249  0.83434019  1
  O  O25  1  0.59287809  0.22967495  0.96121807  1
  O  O26  1  0.79165511  0.62762857  0.36176959  1
  O  O27  1  0.63430888  0.02916708  0.77045814  1
  O  O28  1  0.82983312  0.43716121  0.17093923  1
  O  O29  1  0.69251166  0.81215747  0.56290585  1
  O  O30  1  0.51829264  0.59665494  0.85114080  1
  O  O31  1  0.72109919  0.98662086  0.25485176  1
  O  O32  1  0.77274211  0.76506124  0.02138011  1
  O  O33  1  0.56933145  0.35905477  0.63541415  1
  O  O34  1  0.60646182  0.18242144  0.44173210  1
  O  O35  1  0.38352142  0.82312794  0.56594271  1
  O  O36  1  0.22646735  0.23714802  0.96691461  1
  O  O37  1  0.43068028  0.63119691  0.37121740  1
  O  O38  1  0.28723266  0.01576449  0.74888056  1
  O  O39  1  0.48573865  0.41075664  0.14529111  1
  O  O40  1  0.31062152  0.18456399  0.45231772  1
  O  O41  1  0.16912220  0.56250450  0.83032337  1
  O  O42  1  0.36671699  0.95983801  0.21972428  1
  O  O43  1  0.41652389  0.77267090  0.03644753  1
  O  O44  1  0.20919482  0.36789500  0.63946414  1
  O  O45  1  0.19173281  0.43160396  0.15883329  1
  O  O46  1  0.02770867  0.84188708  0.56902431  1
  O  O47  1  0.08794844  0.61478613  0.34486376  1
  O  O48  1  0.11051433  0.78611310  0.05013975  1
  O  O49  1  0.01353941  0.97559523  0.23450893  1
