# generated using pymatgen
data_Li4VNi3(PO4)4
_symmetry_space_group_name_H-M   'P 1'
_cell_length_a   4.74214806
_cell_length_b   10.22191375
_cell_length_c   5.98206294
_cell_angle_alpha   90.00000000
_cell_angle_beta   90.00000000
_cell_angle_gamma   89.85526847
_symmetry_Int_Tables_number   1
_chemical_formula_structural   Li4VNi3(PO4)4
_chemical_formula_sum   'Li4 V1 Ni3 P4 O16'
_cell_volume   289.97256745
_cell_formula_units_Z   1
loop_
 _symmetry_equiv_pos_site_id
 _symmetry_equiv_pos_as_xyz
  1  'x, y, z'
loop_
 _atom_site_type_symbol
 _atom_site_label
 _atom_site_symmetry_multiplicity
 _atom_site_fract_x
 _atom_site_fract_y
 _atom_site_fract_z
 _atom_site_occupancy
  Li  Li0  1  0.00086050  0.99699677  0.99862422  1
  Li  Li1  1  0.00086050  0.99699677  0.50137578  1
  Li  Li2  1  0.49967733  0.50216919  0.50056447  1
  Li  Li3  1  0.49967733  0.50216919  0.99943553  1
  V  V4  1  0.98010764  0.27486917  0.25000000  1
  Ni  Ni5  1  0.01870980  0.72403983  0.75000000  1
  Ni  Ni6  1  0.48042081  0.22349839  0.75000000  1
  Ni  Ni7  1  0.51992509  0.77602927  0.25000000  1
  P  P8  1  0.08536298  0.59667403  0.25000000  1
  P  P9  1  0.41545462  0.09184236  0.25000000  1
  P  P10  1  0.58335914  0.90560223  0.75000000  1
  P  P11  1  0.91396996  0.40677186  0.75000000  1
  O  O12  1  0.20608555  0.45570043  0.25000000  1
  O  O13  1  0.22534167  0.66730428  0.04352955  1
  O  O14  1  0.22534167  0.66730428  0.45647045  1
  O  O15  1  0.23919789  0.39951114  0.75000000  1
  O  O16  1  0.25984983  0.89981844  0.75000000  1
  O  O17  1  0.27803160  0.16272388  0.04207523  1
  O  O18  1  0.27803160  0.16272388  0.45792477  1
  O  O19  1  0.29756700  0.95036406  0.25000000  1
  O  O20  1  0.70004719  0.04796949  0.75000000  1
  O  O21  1  0.72487260  0.83453941  0.54428962  1
  O  O22  1  0.72487260  0.83453941  0.95571038  1
  O  O23  1  0.73805174  0.09537612  0.25000000  1
  O  O24  1  0.76151115  0.60159311  0.25000000  1
  O  O25  1  0.77146940  0.33649219  0.54673156  1
  O  O26  1  0.77146940  0.33649219  0.95326844  1
  O  O27  1  0.79987145  0.54988763  0.75000000  1
