# generated using pymatgen
data_LiFeSiO4
_symmetry_space_group_name_H-M   'P 1'
_cell_length_a   5.42704674
_cell_length_b   5.42704734
_cell_length_c   12.14301475
_cell_angle_alpha   90.00000000
_cell_angle_beta   90.00000000
_cell_angle_gamma   119.99999633
_symmetry_Int_Tables_number   1
_chemical_formula_structural   LiFeSiO4
_chemical_formula_sum   'Li3 Fe3 Si3 O12'
_cell_volume   309.73076299
_cell_formula_units_Z   3
loop_
 _symmetry_equiv_pos_site_id
 _symmetry_equiv_pos_as_xyz
  1  'x, y, z'
loop_
 _atom_site_type_symbol
 _atom_site_label
 _atom_site_symmetry_multiplicity
 _atom_site_fract_x
 _atom_site_fract_y
 _atom_site_fract_z
 _atom_site_occupancy
  Li  Li0  1  0.00000000  0.00000000  0.00000000  1
  Li  Li1  1  0.00000000  0.00000000  0.33333300  1
  Li  Li2  1  0.00000000  0.00000000  0.66666700  1
  Fe  Fe3  1  0.00000000  0.50000000  0.83333300  1
  Fe  Fe4  1  0.50000000  0.50000000  0.16666700  1
  Fe  Fe5  1  0.50000000  0.00000000  0.50000000  1
  Si  Si6  1  0.00000000  0.50000000  0.33333300  1
  Si  Si7  1  0.50000000  0.50000000  0.66666700  1
  Si  Si8  1  0.50000000  0.00000000  0.00000000  1
  O  O9  1  0.18471527  0.78773963  0.40774163  1
  O  O10  1  0.21226037  0.81528473  0.92559137  1
  O  O11  1  0.18471527  0.39697664  0.25892537  1
  O  O12  1  0.21226037  0.39697664  0.74107463  1
  O  O13  1  0.60302336  0.81528473  0.07440863  1
  O  O14  1  0.60302336  0.78773963  0.59225837  1
  O  O15  1  0.39697664  0.21226037  0.59225837  1
  O  O16  1  0.39697664  0.18471527  0.07440863  1
  O  O17  1  0.78773963  0.60302336  0.74107463  1
  O  O18  1  0.81528473  0.60302336  0.25892537  1
  O  O19  1  0.78773963  0.18471527  0.92559137  1
  O  O20  1  0.81528473  0.21226037  0.40774163  1
