# generated using pymatgen
data_Li3(NiO2)5
_symmetry_space_group_name_H-M   'P 1'
_cell_length_a   7.48248138
_cell_length_b   7.56894419
_cell_length_c   6.47079945
_cell_angle_alpha   92.49774030
_cell_angle_beta   91.38434496
_cell_angle_gamma   66.49333652
_symmetry_Int_Tables_number   1
_chemical_formula_structural   Li3(NiO2)5
_chemical_formula_sum   'Li6 Ni10 O20'
_cell_volume   335.72990345
_cell_formula_units_Z   2
loop_
 _symmetry_equiv_pos_site_id
 _symmetry_equiv_pos_as_xyz
  1  'x, y, z'
loop_
 _atom_site_type_symbol
 _atom_site_label
 _atom_site_symmetry_multiplicity
 _atom_site_fract_x
 _atom_site_fract_y
 _atom_site_fract_z
 _atom_site_occupancy
  Li  Li0  1  0.19449061  0.69162560  0.69547645  1
  Li  Li1  1  0.38863866  0.40080700  0.39776896  1
  Li  Li2  1  0.60365836  0.10438869  0.10436607  1
  Li  Li3  1  0.38483902  0.90236263  0.89987228  1
  Li  Li4  1  0.82726637  0.30980841  0.31086494  1
  Li  Li5  1  0.80210367  0.78797480  0.79372917  1
  Ni  Ni6  1  0.10338203  0.09652434  0.60021072  1
  Ni  Ni7  1  0.09988077  0.59958298  0.10228568  1
  Ni  Ni8  1  0.29955526  0.29826229  0.80161990  1
  Ni  Ni9  1  0.49883907  -0.00076750  0.50059425  1
  Ni  Ni10  1  0.30063318  0.80221874  0.29569634  1
  Ni  Ni11  1  0.50069186  0.50190697  0.99543332  1
  Ni  Ni12  1  0.70222283  0.19795596  0.70065740  1
  Ni  Ni13  1  0.69597816  0.70161570  0.20371120  1
  Ni  Ni14  1  0.89946293  0.39917819  0.90033480  1
  Ni  Ni15  1  0.89801416  0.90135446  0.39713554  1
  O  O16  1  0.04497016  0.04176808  0.32803708  1
  O  O17  1  0.15939913  0.15476932  0.87217538  1
  O  O18  1  0.04463454  0.54296410  0.83147155  1
  O  O19  1  0.26479726  0.22202910  0.52305486  1
  O  O20  1  0.16058401  0.66002610  0.37127481  1
  O  O21  1  0.36228561  0.35937872  0.07936642  1
  O  O22  1  0.26903741  0.72208031  0.01117350  1
  O  O23  1  0.55927552  0.05086480  0.77463041  1
  O  O24  1  0.43952500  0.44294040  0.72374788  1
  O  O25  1  0.33818369  0.87521229  0.58153772  1
  O  O26  1  0.63730823  0.14595651  0.42367626  1
  O  O27  1  0.55619172  0.55310220  0.26893470  1
  O  O28  1  0.46204975  0.92776058  0.22433812  1
  O  O29  1  0.73342117  0.27767906  0.97857898  1
  O  O30  1  0.63937707  0.65207204  0.92977338  1
  O  O31  1  0.86862234  0.31613100  0.62312318  1
  O  O32  1  0.73463498  0.77760102  0.47880395  1
  O  O33  1  0.92584812  0.48088113  0.17797739  1
  O  O34  1  0.83615703  0.84294123  0.12255910  1
  O  O35  1  0.96051630  0.95165377  0.67064833  1
