# generated using pymatgen
data_Li2Mn2(PO4)3
_symmetry_space_group_name_H-M   'P 1'
_cell_length_a   8.54005170
_cell_length_b   12.31942475
_cell_length_c   8.59423213
_cell_angle_alpha   89.90761821
_cell_angle_beta   90.37611787
_cell_angle_gamma   88.90912428
_symmetry_Int_Tables_number   1
_chemical_formula_structural   Li2Mn2(PO4)3
_chemical_formula_sum   'Li8 Mn8 P12 O48'
_cell_volume   904.00175835
_cell_formula_units_Z   4
loop_
 _symmetry_equiv_pos_site_id
 _symmetry_equiv_pos_as_xyz
  1  'x, y, z'
loop_
 _atom_site_type_symbol
 _atom_site_label
 _atom_site_symmetry_multiplicity
 _atom_site_fract_x
 _atom_site_fract_y
 _atom_site_fract_z
 _atom_site_occupancy
  Li  Li0  1  0.22867869  0.18587610  0.77169421  1
  Li  Li1  1  0.28098482  0.67972050  0.22008918  1
  Li  Li2  1  0.28399546  0.31264267  0.27231845  1
  Li  Li3  1  0.69613490  0.69167836  0.73578753  1
  Li  Li4  1  0.77905125  0.17852479  0.28218523  1
  Li  Li5  1  0.78009165  0.81334818  0.22651313  1
  Li  Li6  1  0.92453950  0.29512831  0.91894143  1
  Li  Li7  1  0.95278571  0.71727381  0.57997248  1
  Mn  Mn8  1  0.25186936  0.11256526  0.46006292  1
  Mn  Mn9  1  0.25029964  0.88541242  0.03130926  1
  Mn  Mn10  1  0.25527386  0.39023151  0.95971054  1
  Mn  Mn11  1  0.25716871  0.61521977  0.54036848  1
  Mn  Mn12  1  0.74967936  0.38356824  0.46615685  1
  Mn  Mn13  1  0.75185643  0.61187904  0.04018936  1
  Mn  Mn14  1  0.74323429  0.11114121  0.96022267  1
  Mn  Mn15  1  0.74769614  0.89446263  0.53916636  1
  P  P16  1  0.03862049  0.49722807  0.25227372  1
  P  P17  1  0.10693195  0.85194470  0.39303728  1
  P  P18  1  0.10388635  0.13897530  0.10268438  1
  P  P19  1  0.39852592  0.35999730  0.60338650  1
  P  P20  1  0.39527644  0.65095211  0.89422335  1
  P  P21  1  0.46078595  0.99874594  0.75230526  1
  P  P22  1  0.53417896  0.99816314  0.24633194  1
  P  P23  1  0.60804660  0.35065591  0.10553583  1
  P  P24  1  0.61197619  0.63730585  0.39691943  1
  P  P25  1  0.89995945  0.15113057  0.60926642  1
  P  P26  1  0.89694362  0.85782619  0.89729342  1
  P  P27  1  0.95730635  0.50176517  0.74598427  1
  O  O28  1  0.05737913  0.57918725  0.64552056  1
  O  O29  1  0.05100742  0.42462475  0.85561367  1
  O  O30  1  0.08006994  0.16315126  0.60067238  1
  O  O31  1  0.07759683  0.84595027  0.89904908  1
  O  O32  1  0.15164466  0.02156191  0.07023539  1
  O  O33  1  0.15513309  0.96357442  0.43843241  1
  O  O34  1  0.14611800  0.41712854  0.15979961  1
  O  O35  1  0.14959480  0.57591403  0.34216409  1
  O  O36  1  0.16062002  0.17600860  0.26564261  1
  O  O37  1  0.15829326  0.81915947  0.22571455  1
  O  O38  1  0.16026699  0.21794975  0.97725439  1
  O  O39  1  0.16917040  0.76369477  0.51100697  1
  O  O40  1  0.32397574  0.28523688  0.48434838  1
  O  O41  1  0.32045317  0.73366382  0.01143145  1
  O  O42  1  0.35610464  0.67945292  0.72251683  1
  O  O43  1  0.34396155  0.32600985  0.76945328  1
  O  O44  1  0.35375993  0.07839433  0.65948596  1
  O  O45  1  0.35408955  0.92306853  0.84465997  1
  O  O46  1  0.35143195  0.47940589  0.57260009  1
  O  O47  1  0.33959157  0.54133088  0.94590580  1
  O  O48  1  0.42785479  0.33634417  0.09814604  1
  O  O49  1  0.42996339  0.65828455  0.39859754  1
  O  O50  1  0.44280325  0.07446870  0.35355943  1
  O  O51  1  0.43934676  0.92393316  0.14090782  1
  O  O52  1  0.55851763  0.92231596  0.64955678  1
  O  O53  1  0.55629417  0.07780655  0.85431717  1
  O  O54  1  0.57955942  0.34650964  0.60354778  1
  O  O55  1  0.57557765  0.66153470  0.90881926  1
  O  O56  1  0.65718145  0.46300982  0.06111216  1
  O  O57  1  0.64595940  0.51616638  0.42037381  1
  O  O58  1  0.64471728  0.07691876  0.15679234  1
  O  O59  1  0.64468702  0.91887259  0.33749663  1
  O  O60  1  0.65977310  0.31788143  0.27464164  1
  O  O61  1  0.66142666  0.67541126  0.23268173  1
  O  O62  1  0.69217374  0.27046180  0.99053274  1
  O  O63  1  0.69709536  0.70565627  0.51874047  1
  O  O64  1  0.82311650  0.23255425  0.49003504  1
  O  O65  1  0.82257912  0.78304068  0.01576002  1
  O  O66  1  0.85550904  0.17913786  0.78032448  1
  O  O67  1  0.84745138  0.82092146  0.72841075  1
  O  O68  1  0.85570926  0.42256640  0.65327570  1
  O  O69  1  0.84777160  0.58158922  0.83341580  1
  O  O70  1  0.84544953  0.04069795  0.56012050  1
  O  O71  1  0.84608267  0.97647689  0.92415380  1
  O  O72  1  0.92066836  0.15259696  0.10548420  1
  O  O73  1  0.92382900  0.83831793  0.40339149  1
  O  O74  1  0.94119684  0.42441925  0.35695785  1
  O  O75  1  0.94501994  0.57329821  0.14341065  1
