# generated using pymatgen
data_MnV3Ni2(PO4)6
_symmetry_space_group_name_H-M   'P 1'
_cell_length_a   8.47950079
_cell_length_b   8.65826545
_cell_length_c   8.65826556
_cell_angle_alpha   59.99999987
_cell_angle_beta   59.30012276
_cell_angle_gamma   59.30012479
_symmetry_Int_Tables_number   1
_chemical_formula_structural   MnV3Ni2(PO4)6
_chemical_formula_sum   'Mn1 V3 Ni2 P6 O24'
_cell_volume   444.67315731
_cell_formula_units_Z   1
loop_
 _symmetry_equiv_pos_site_id
 _symmetry_equiv_pos_as_xyz
  1  'x, y, z'
loop_
 _atom_site_type_symbol
 _atom_site_label
 _atom_site_symmetry_multiplicity
 _atom_site_fract_x
 _atom_site_fract_y
 _atom_site_fract_z
 _atom_site_occupancy
  Mn  Mn0  1  0.57022313  0.14325929  0.14325929  1
  V  V1  1  0.06909651  0.64363416  0.64363416  1
  V  V2  1  0.42639221  0.85786960  0.85786960  1
  V  V3  1  0.92981810  0.35672763  0.35672763  1
  Ni  Ni4  1  0.99654851  0.00115016  0.00115016  1
  Ni  Ni5  1  0.49639662  0.50120146  0.50120146  1
  P  P6  1  0.25107919  0.24771613  0.54743352  1
  P  P7  1  0.25107919  0.95377117  0.24771613  1
  P  P8  1  0.25107918  0.54743352  0.95377117  1
  P  P9  1  0.75194545  0.45772589  0.04331283  1
  P  P10  1  0.75194545  0.04331283  0.74701683  1
  P  P11  1  0.75194545  0.74701683  0.45772589  1
  O  O12  1  0.06608176  0.11879762  0.31134899  1
  O  O13  1  0.06608176  0.50377163  0.11879762  1
  O  O14  1  0.06608176  0.31134899  0.50377163  1
  O  O15  1  0.22362424  0.08952460  0.74786876  1
  O  O16  1  0.43778531  0.18323763  0.39766698  1
  O  O17  1  0.26269508  0.41074058  0.57072198  1
  O  O18  1  0.22362424  0.93898240  0.08952460  1
  O  O19  1  0.26269508  0.75584236  0.41074058  1
  O  O20  1  0.56518562  0.61836872  0.00204665  1
  O  O21  1  0.26269508  0.57072198  0.75584236  1
  O  O22  1  0.78600821  0.26356756  0.04962688  1
  O  O23  1  0.56518562  0.00204665  0.81439801  1
  O  O24  1  0.43778531  0.98131008  0.18323763  1
  O  O25  1  0.22362424  0.74786876  0.93898240  1
  O  O26  1  0.72700056  0.44622009  0.24150268  1
  O  O27  1  0.43778531  0.39766698  0.98131008  1
  O  O28  1  0.72700056  0.24150268  0.58527667  1
  O  O29  1  0.78600821  0.04962688  0.90079835  1
  O  O30  1  0.72700056  0.58527667  0.44622009  1
  O  O31  1  0.56518562  0.81439801  0.61836872  1
  O  O32  1  0.78600821  0.90079835  0.26356756  1
  O  O33  1  0.93243589  0.66644808  0.51248119  1
  O  O34  1  0.93243589  0.51248119  0.88863484  1
  O  O35  1  0.93243589  0.88863484  0.66644808  1
