# generated using pymatgen
data_K5YH8(CO2)8
_symmetry_space_group_name_H-M   'P 1'
_cell_length_a   8.53013777
_cell_length_b   8.53013777
_cell_length_c   15.15831978
_cell_angle_alpha   76.20514287
_cell_angle_beta   103.79485713
_cell_angle_gamma   90.17273829
_symmetry_Int_Tables_number   1
_chemical_formula_structural   K5YH8(CO2)8
_chemical_formula_sum   'K10 Y2 H16 C16 O32'
_cell_volume   1038.56105601
_cell_formula_units_Z   2
loop_
 _symmetry_equiv_pos_site_id
 _symmetry_equiv_pos_as_xyz
  1  'x, y, z'
loop_
 _atom_site_type_symbol
 _atom_site_label
 _atom_site_symmetry_multiplicity
 _atom_site_fract_x
 _atom_site_fract_y
 _atom_site_fract_z
 _atom_site_occupancy
  K  K0  1  0.00000000  0.00000000  0.00000000  1
  K  K1  1  0.00000000  0.00000000  0.50000000  1
  K  K2  1  0.40093420  0.21595172  0.97968812  1
  K  K3  1  0.21595172  0.40093420  0.52031188  1
  K  K4  1  0.59906580  0.78404828  0.02031188  1
  K  K5  1  0.78404828  0.59906580  0.47968812  1
  K  K6  1  0.20769190  0.59473544  0.99954817  1
  K  K7  1  0.59473544  0.20769190  0.50045183  1
  K  K8  1  0.79230810  0.40526456  0.00045183  1
  K  K9  1  0.40526456  0.79230810  0.49954817  1
  Y  Y10  1  0.80522355  0.80522355  0.75000000  1
  Y  Y11  1  0.19477645  0.19477645  0.25000000  1
  H  H12  1  0.00390445  0.39865381  0.78046461  1
  H  H13  1  0.39865381  0.00390445  0.71953539  1
  H  H14  1  0.99609555  0.60134619  0.21953539  1
  H  H15  1  0.60134619  0.99609555  0.28046461  1
  H  H16  1  0.63955662  0.41795874  0.74334838  1
  H  H17  1  0.41795874  0.63955662  0.75665162  1
  H  H18  1  0.36044338  0.58204126  0.25665162  1
  H  H19  1  0.58204126  0.36044338  0.24334838  1
  H  H20  1  0.18774648  0.96144877  0.75534003  1
  H  H21  1  0.96144877  0.18774648  0.74465997  1
  H  H22  1  0.81225352  0.03855123  0.24465997  1
  H  H23  1  0.03855123  0.81225352  0.25534003  1
  H  H24  1  0.02135971  0.54610956  0.64849735  1
  H  H25  1  0.54610956  0.02135971  0.85150265  1
  H  H26  1  0.97864029  0.45389044  0.35150265  1
  H  H27  1  0.45389044  0.97864029  0.14849735  1
  C  C28  1  0.00566233  0.42112278  0.84982029  1
  C  C29  1  0.42112278  0.00566233  0.65017971  1
  C  C30  1  0.99433767  0.57887722  0.15017971  1
  C  C31  1  0.57887722  0.99433767  0.34982029  1
  C  C32  1  0.61807222  0.48647895  0.66894695  1
  C  C33  1  0.48647895  0.61807222  0.83105305  1
  C  C34  1  0.38192778  0.51352105  0.33105305  1
  C  C35  1  0.51352105  0.38192778  0.16894695  1
  C  C36  1  0.18656879  0.92497859  0.83067594  1
  C  C37  1  0.92497859  0.18656879  0.66932406  1
  C  C38  1  0.81343121  0.07502141  0.16932406  1
  C  C39  1  0.07502141  0.81343121  0.33067594  1
  C  C40  1  0.06970235  0.66820464  0.63959321  1
  C  C41  1  0.66820464  0.06970235  0.86040679  1
  C  C42  1  0.93029765  0.33179536  0.36040679  1
  C  C43  1  0.33179536  0.93029765  0.13959321  1
  O  O44  1  0.93615866  0.55372472  0.84963296  1
  O  O45  1  0.55372472  0.93615866  0.65036704  1
  O  O46  1  0.06384134  0.44627528  0.15036704  1
  O  O47  1  0.44627528  0.06384134  0.34963296  1
  O  O48  1  0.07571419  0.31613898  0.92272854  1
  O  O49  1  0.31613898  0.07571419  0.57727146  1
  O  O50  1  0.92428581  0.68386102  0.07727146  1
  O  O51  1  0.68386102  0.92428581  0.42272854  1
  O  O52  1  0.67507792  0.62756977  0.65339914  1
  O  O53  1  0.62756977  0.67507792  0.84660086  1
  O  O54  1  0.32492208  0.37243023  0.34660086  1
  O  O55  1  0.37243023  0.32492208  0.15339914  1
  O  O56  1  0.30700905  0.95166347  0.89070110  1
  O  O57  1  0.95166347  0.30700905  0.60929890  1
  O  O58  1  0.69299095  0.04833653  0.10929890  1
  O  O59  1  0.04833653  0.69299095  0.39070110  1
  O  O60  1  0.06001123  0.85695896  0.84854726  1
  O  O61  1  0.85695896  0.06001123  0.65145274  1
  O  O62  1  0.93998877  0.14304104  0.15145274  1
  O  O63  1  0.14304104  0.93998877  0.34854726  1
  O  O64  1  0.99252699  0.77604519  0.66136659  1
  O  O65  1  0.77604519  0.99252699  0.83863341  1
  O  O66  1  0.00747301  0.22395481  0.33863341  1
  O  O67  1  0.22395481  0.00747301  0.16136659  1
  O  O68  1  0.18928721  0.68941300  0.60423796  1
  O  O69  1  0.68941300  0.18928721  0.89576204  1
  O  O70  1  0.81071279  0.31058700  0.39576204  1
  O  O71  1  0.31058700  0.81071279  0.10423796  1
  O  O72  1  0.54144150  0.42124093  0.60672960  1
  O  O73  1  0.42124093  0.54144150  0.89327040  1
  O  O74  1  0.45855850  0.57875907  0.39327040  1
  O  O75  1  0.57875907  0.45855850  0.10672960  1
