# generated using pymatgen
data_Li4Cr3Co(PO4)4
_symmetry_space_group_name_H-M   'P 1'
_cell_length_a   4.77213840
_cell_length_b   10.23645207
_cell_length_c   6.27577038
_cell_angle_alpha   90.00000000
_cell_angle_beta   90.00000000
_cell_angle_gamma   89.58929663
_symmetry_Int_Tables_number   1
_chemical_formula_structural   Li4Cr3Co(PO4)4
_chemical_formula_sum   'Li4 Cr3 Co1 P4 O16'
_cell_volume   306.56203872
_cell_formula_units_Z   1
loop_
 _symmetry_equiv_pos_site_id
 _symmetry_equiv_pos_as_xyz
  1  'x, y, z'
loop_
 _atom_site_type_symbol
 _atom_site_label
 _atom_site_symmetry_multiplicity
 _atom_site_fract_x
 _atom_site_fract_y
 _atom_site_fract_z
 _atom_site_occupancy
  Li  Li0  1  0.00484203  0.99984357  0.99801657  1
  Li  Li1  1  0.00484203  0.99984357  0.50198343  1
  Li  Li2  1  0.49771638  0.50162803  0.50334914  1
  Li  Li3  1  0.49771638  0.50162803  0.99665086  1
  Cr  Cr4  1  0.45526402  0.21615357  0.75000000  1
  Cr  Cr5  1  0.54550017  0.78193780  0.25000000  1
  Cr  Cr6  1  0.95062375  0.28440328  0.25000000  1
  Co  Co7  1  0.02051975  0.72146856  0.75000000  1
  P  P8  1  0.08281806  0.59455506  0.25000000  1
  P  P9  1  0.41936570  0.09433559  0.25000000  1
  P  P10  1  0.58372763  0.90606864  0.75000000  1
  P  P11  1  0.91611652  0.40576696  0.75000000  1
  O  O12  1  0.19414225  0.45045480  0.25000000  1
  O  O13  1  0.21401226  0.66085660  0.04883449  1
  O  O14  1  0.21401226  0.66085660  0.45116551  1
  O  O15  1  0.24047300  0.39866206  0.75000000  1
  O  O16  1  0.25979976  0.90233006  0.75000000  1
  O  O17  1  0.28589484  0.16131897  0.05138401  1
  O  O18  1  0.28589484  0.16131897  0.44861599  1
  O  O19  1  0.31050246  0.95116775  0.25000000  1
  O  O20  1  0.70055789  0.04842844  0.75000000  1
  O  O21  1  0.72164004  0.83609808  0.55429984  1
  O  O22  1  0.72164004  0.83609808  0.94570016  1
  O  O23  1  0.74397304  0.10096998  0.25000000  1
  O  O24  1  0.75849686  0.60042717  0.25000000  1
  O  O25  1  0.78509087  0.33715679  0.55250711  1
  O  O26  1  0.78509087  0.33715679  0.94749289  1
  O  O27  1  0.79972928  0.54906722  0.75000000  1
