# generated using pymatgen
data_Li2P5WO15
_symmetry_space_group_name_H-M   'P 1'
_cell_length_a   5.36256499
_cell_length_b   13.56228914
_cell_length_c   8.98238400
_cell_angle_alpha   90.00000000
_cell_angle_beta   102.28130085
_cell_angle_gamma   90.00000000
_symmetry_Int_Tables_number   1
_chemical_formula_structural   Li2P5WO15
_chemical_formula_sum   'Li4 P10 W2 O30'
_cell_volume   638.32651685
_cell_formula_units_Z   2
loop_
 _symmetry_equiv_pos_site_id
 _symmetry_equiv_pos_as_xyz
  1  'x, y, z'
loop_
 _atom_site_type_symbol
 _atom_site_label
 _atom_site_symmetry_multiplicity
 _atom_site_fract_x
 _atom_site_fract_y
 _atom_site_fract_z
 _atom_site_occupancy
  Li  Li0  1  0.05392229  0.12404797  0.07983617  1
  Li  Li1  1  0.05392229  0.37595203  0.07983617  1
  Li  Li2  1  0.94607771  0.62404797  0.92016383  1
  Li  Li3  1  0.94607771  0.87595203  0.92016383  1
  P  P4  1  0.99305234  0.64221194  0.48327744  1
  P  P5  1  0.99305234  0.85778806  0.48327744  1
  P  P6  1  0.33562994  0.07697745  0.81895307  1
  P  P7  1  0.33562994  0.42302255  0.81895307  1
  P  P8  1  0.45791651  0.75000000  0.98653517  1
  P  P9  1  0.54208349  0.25000000  0.01346483  1
  P  P10  1  0.66437006  0.57697745  0.18104693  1
  P  P11  1  0.66437006  0.92302255  0.18104693  1
  P  P12  1  0.00694766  0.35778806  0.51672256  1
  P  P13  1  0.00694766  0.14221194  0.51672256  1
  W  W14  1  0.50000000  0.00000000  0.50000000  1
  W  W15  1  0.50000000  0.50000000  0.50000000  1
  O  O16  1  0.06643935  0.25000000  0.46231834  1
  O  O17  1  0.18821108  0.03686138  0.92832669  1
  O  O18  1  0.18821108  0.46313862  0.92832669  1
  O  O19  1  0.19607311  0.75000000  0.88593009  1
  O  O20  1  0.14531585  0.14403714  0.69272764  1
  O  O21  1  0.14531585  0.35596286  0.69272764  1
  O  O22  1  0.13686110  0.07344209  0.42478615  1
  O  O23  1  0.13686110  0.42655791  0.42478615  1
  O  O24  1  0.27551577  0.63207650  0.49696607  1
  O  O25  1  0.27551577  0.86792350  0.49696607  1
  O  O26  1  0.54337431  0.15755921  0.89649861  1
  O  O27  1  0.54337431  0.34244079  0.89649861  1
  O  O28  1  0.47688636  0.00656028  0.73615549  1
  O  O29  1  0.47688636  0.49343972  0.73615549  1
  O  O30  1  0.29993053  0.25000000  0.07215369  1
  O  O31  1  0.70006947  0.75000000  0.92784631  1
  O  O32  1  0.52311264  0.50656028  0.26384451  1
  O  O33  1  0.52311264  0.99343972  0.26384451  1
  O  O34  1  0.45662569  0.65755921  0.10350139  1
  O  O35  1  0.45662569  0.84244079  0.10350139  1
  O  O36  1  0.72448423  0.13207650  0.50303393  1
  O  O37  1  0.72448423  0.36792350  0.50303393  1
  O  O38  1  0.86313890  0.57344209  0.57521385  1
  O  O39  1  0.86313890  0.92655791  0.57521385  1
  O  O40  1  0.85468415  0.64403714  0.30727236  1
  O  O41  1  0.85468415  0.85596286  0.30727236  1
  O  O42  1  0.80392689  0.25000000  0.11406991  1
  O  O43  1  0.81178892  0.53686138  0.07167331  1
  O  O44  1  0.81178892  0.96313862  0.07167331  1
  O  O45  1  0.93356065  0.75000000  0.53768166  1
