# generated using pymatgen
data_Li2FePO4F
_symmetry_space_group_name_H-M   'P 1'
_cell_length_a   13.09416018
_cell_length_b   5.12417844
_cell_length_c   13.27696545
_cell_angle_alpha   90.00000000
_cell_angle_beta   120.42535957
_cell_angle_gamma   90.00000000
_symmetry_Int_Tables_number   1
_chemical_formula_structural   Li2FePO4F
_chemical_formula_sum   'Li16 Fe8 P8 O32 F8'
_cell_volume   768.16386310
_cell_formula_units_Z   8
loop_
 _symmetry_equiv_pos_site_id
 _symmetry_equiv_pos_as_xyz
  1  'x, y, z'
loop_
 _atom_site_type_symbol
 _atom_site_label
 _atom_site_symmetry_multiplicity
 _atom_site_fract_x
 _atom_site_fract_y
 _atom_site_fract_z
 _atom_site_occupancy
  Li  Li0  1  0.17490625  0.73390426  0.82681444  1
  Li  Li1  1  0.17489236  0.73024940  0.59730485  1
  Li  Li2  1  0.32510764  0.23024940  0.90269515  1
  Li  Li3  1  0.17505560  0.72264346  0.32434645  1
  Li  Li4  1  0.32509375  0.23390426  0.67318556  1
  Li  Li5  1  0.09200973  0.27410560  0.17127922  1
  Li  Li6  1  0.40799027  0.77410560  0.32872078  1
  Li  Li7  1  0.67505560  0.77735654  0.82434645  1
  Li  Li8  1  0.32494440  0.22264346  0.17565355  1
  Li  Li9  1  0.59200973  0.22589440  0.67127922  1
  Li  Li10  1  0.90799027  0.72589440  0.82872078  1
  Li  Li11  1  0.67490625  0.76609574  0.32681444  1
  Li  Li12  1  0.82494440  0.27735654  0.67565355  1
  Li  Li13  1  0.67489236  0.76975060  0.09730485  1
  Li  Li14  1  0.82510764  0.26975060  0.40269515  1
  Li  Li15  1  0.82509375  0.26609574  0.17318556  1
  Fe  Fe16  1  0.09530414  0.27519144  0.67308506  1
  Fe  Fe17  1  0.40469586  0.77519144  0.82691494  1
  Fe  Fe18  1  0.32654631  0.22778067  0.40280231  1
  Fe  Fe19  1  0.17345369  0.72778067  0.09719769  1
  Fe  Fe20  1  0.82654631  0.27221933  0.90280231  1
  Fe  Fe21  1  0.67345369  0.77221933  0.59719769  1
  Fe  Fe22  1  0.59530414  0.22480856  0.17308506  1
  Fe  Fe23  1  0.90469586  0.72480856  0.32691494  1
  P  P24  1  0.08471540  0.21705801  0.91918032  1
  P  P25  1  0.08421175  0.21355829  0.41763971  1
  P  P26  1  0.58421175  0.28644171  0.91763971  1
  P  P27  1  0.41528460  0.71705801  0.58081968  1
  P  P28  1  0.58471540  0.28294199  0.41918032  1
  P  P29  1  0.41578825  0.71355829  0.08236029  1
  P  P30  1  0.91578825  0.78644171  0.58236029  1
  P  P31  1  0.91528460  0.78294199  0.08081968  1
  O  O32  1  0.08085859  0.91101558  0.92506399  1
  O  O33  1  0.04234848  0.66762096  0.64782664  1
  O  O34  1  0.14877137  0.30096656  0.85335195  1
  O  O35  1  0.07426014  0.90805695  0.41299235  1
  O  O36  1  0.15028592  0.30744511  0.54619410  1
  O  O37  1  0.34971408  0.80744511  0.95380590  1
  O  O38  1  0.15289228  0.31148414  0.35792835  1
  O  O39  1  0.04369030  0.67073688  0.14591149  1
  O  O40  1  0.35122863  0.80096656  0.64664805  1
  O  O41  1  0.45765152  0.16762096  0.85217336  1
  O  O42  1  0.57426014  0.59194305  0.91299235  1
  O  O43  1  0.34689277  0.82909496  0.45514559  1
  O  O44  1  0.41914141  0.41101558  0.57493601  1
  O  O45  1  0.15310723  0.32909496  0.04485441  1
  O  O46  1  0.65289228  0.18851586  0.85792835  1
  O  O47  1  0.54369030  0.82926312  0.64591149  1
  O  O48  1  0.45630970  0.17073688  0.35408851  1
  O  O49  1  0.34710772  0.81148414  0.14207165  1
  O  O50  1  0.84689277  0.67090504  0.95514559  1
  O  O51  1  0.58085859  0.58898442  0.42506399  1
  O  O52  1  0.65310723  0.17090504  0.54485441  1
  O  O53  1  0.42573986  0.40805695  0.08700765  1
  O  O54  1  0.54234848  0.83237904  0.14782664  1
  O  O55  1  0.64877137  0.19903344  0.35335195  1
  O  O56  1  0.95630970  0.32926312  0.85408851  1
  O  O57  1  0.84710772  0.68851586  0.64207165  1
  O  O58  1  0.65028592  0.19255489  0.04619410  1
  O  O59  1  0.84971408  0.69255489  0.45380590  1
  O  O60  1  0.92573986  0.09194305  0.58700765  1
  O  O61  1  0.85122863  0.69903344  0.14664805  1
  O  O62  1  0.95765152  0.33237904  0.35217336  1
  O  O63  1  0.91914141  0.08898442  0.07493601  1
  F  F64  1  0.22549611  0.98689210  0.73615943  1
  F  F65  1  0.27450389  0.48689210  0.76384057  1
  F  F66  1  0.22198080  0.02030966  0.23235230  1
  F  F67  1  0.27801920  0.52030966  0.26764770  1
  F  F68  1  0.72198080  0.47969034  0.73235230  1
  F  F69  1  0.77801920  0.97969034  0.76764770  1
  F  F70  1  0.72549611  0.51310790  0.23615943  1
  F  F71  1  0.77450389  0.01310790  0.26384057  1
