# generated using pymatgen
data_V12PbO30
_symmetry_space_group_name_H-M   'P 1'
_cell_length_a   8.13168940
_cell_length_b   7.34633929
_cell_length_c   10.29579862
_cell_angle_alpha   90.02892769
_cell_angle_beta   108.68226794
_cell_angle_gamma   76.96492143
_symmetry_Int_Tables_number   1
_chemical_formula_structural   V12PbO30
_chemical_formula_sum   'V12 Pb1 O30'
_cell_volume   565.91338032
_cell_formula_units_Z   1
loop_
 _symmetry_equiv_pos_site_id
 _symmetry_equiv_pos_as_xyz
  1  'x, y, z'
loop_
 _atom_site_type_symbol
 _atom_site_label
 _atom_site_symmetry_multiplicity
 _atom_site_fract_x
 _atom_site_fract_y
 _atom_site_fract_z
 _atom_site_occupancy
  V  V0  1  0.32975152  0.16768468  0.90307533  1
  V  V1  1  0.32735596  0.66806398  0.90083771  1
  V  V2  1  0.43041614  0.14239055  0.59377515  1
  V  V3  1  0.42959968  0.64270454  0.59279397  1
  V  V4  1  0.22358827  0.44498700  0.11239960  1
  V  V5  1  0.22820862  0.94184420  0.11316864  1
  V  V6  1  0.76923402  0.05786554  0.88598710  1
  V  V7  1  0.75895959  0.56011000  0.88076528  1
  V  V8  1  0.56625963  0.85908221  0.40457731  1
  V  V9  1  0.56668617  0.35754638  0.40451720  1
  V  V10  1  0.67278583  0.33058588  0.10224183  1
  V  V11  1  0.67383115  0.83270427  0.10205052  1
  Pb  Pb12  1  0.00129239  0.50432391  0.60259695  1
  O  O13  1  0.13207978  0.22729209  0.78386834  1
  O  O14  1  0.12806221  0.70413643  0.78027607  1
  O  O15  1  0.37606952  0.39862366  0.94905956  1
  O  O16  1  0.37141843  0.91424308  0.94574480  1
  O  O17  1  0.21387539  0.20246049  0.53664836  1
  O  O18  1  0.21264714  0.69017774  0.53501429  1
  O  O19  1  0.00106159  0.99976534  0.00176989  1
  O  O20  1  0.00187187  0.49949540  0.00455118  1
  O  O21  1  0.21861125  0.44548034  0.26957069  1
  O  O22  1  0.21997008  0.94478427  0.26889430  1
  O  O23  1  0.47685745  0.13110904  0.77919315  1
  O  O24  1  0.47867343  0.63019558  0.77610012  1
  O  O25  1  0.48995522  0.37643725  0.57277997  1
  O  O26  1  0.48671979  0.87938360  0.57125561  1
  O  O27  1  0.26923630  0.68454047  0.07589063  1
  O  O28  1  0.26860497  0.18122822  0.07514331  1
  O  O29  1  0.73359070  0.30972666  0.92964297  1
  O  O30  1  0.73358166  0.82341641  0.92964759  1
  O  O31  1  0.51098786  0.12198005  0.42457117  1
  O  O32  1  0.51103665  0.62244267  0.42516043  1
  O  O33  1  0.52614762  0.36973122  0.22010028  1
  O  O34  1  0.52532259  0.86746907  0.21962658  1
  O  O35  1  0.78404795  0.05398393  0.73231527  1
  O  O36  1  0.78343685  0.55423052  0.72476591  1
  O  O37  1  0.78407592  0.30680265  0.46548619  1
  O  O38  1  0.78408861  0.80102929  0.46561323  1
  O  O39  1  0.62825976  0.09248021  0.05684815  1
  O  O40  1  0.62822436  0.59322083  0.04931171  1
  O  O41  1  0.86805917  0.28548740  0.21619872  1
  O  O42  1  0.86865490  0.78045195  0.21646795  1
