# generated using pymatgen
data_CrP3H18C6(SO)6
_symmetry_space_group_name_H-M   'P 1'
_cell_length_a   9.20620961
_cell_length_b   9.20620961
_cell_length_c   13.23259354
_cell_angle_alpha   83.91734912
_cell_angle_beta   96.08265088
_cell_angle_gamma   103.99557916
_symmetry_Int_Tables_number   1
_chemical_formula_structural   CrP3H18C6(SO)6
_chemical_formula_sum   'Cr2 P6 H36 C12 S12 O12'
_cell_volume   1078.34208188
_cell_formula_units_Z   2
loop_
 _symmetry_equiv_pos_site_id
 _symmetry_equiv_pos_as_xyz
  1  'x, y, z'
loop_
 _atom_site_type_symbol
 _atom_site_label
 _atom_site_symmetry_multiplicity
 _atom_site_fract_x
 _atom_site_fract_y
 _atom_site_fract_z
 _atom_site_occupancy
  Cr  Cr0  1  0.33940529  0.33940529  0.75000000  1
  Cr  Cr1  1  0.66059471  0.66059471  0.25000000  1
  P  P2  1  0.06913501  0.06913501  0.75000000  1
  P  P3  1  0.93086499  0.93086499  0.25000000  1
  P  P4  1  0.29280262  0.64271731  0.65063861  1
  P  P5  1  0.64271731  0.29280262  0.84936139  1
  P  P6  1  0.70719738  0.35728269  0.34936139  1
  P  P7  1  0.35728269  0.70719738  0.15063861  1
  H  H8  1  0.14866355  0.99036353  0.96351279  1
  H  H9  1  0.99036353  0.14866355  0.53648721  1
  H  H10  1  0.85133645  0.00963647  0.03648721  1
  H  H11  1  0.00963647  0.85133645  0.46351279  1
  H  H12  1  0.23432473  0.88784005  0.88777251  1
  H  H13  1  0.88784005  0.23432473  0.61222749  1
  H  H14  1  0.76567527  0.11215995  0.11222749  1
  H  H15  1  0.11215995  0.76567527  0.38777251  1
  H  H16  1  0.07572249  0.79285733  0.95632116  1
  H  H17  1  0.79285733  0.07572249  0.54367884  1
  H  H18  1  0.92427751  0.20714267  0.04367884  1
  H  H19  1  0.20714267  0.92427751  0.45632116  1
  H  H20  1  0.02110430  0.59279651  0.75667077  1
  H  H21  1  0.59279651  0.02110430  0.74332923  1
  H  H22  1  0.97889570  0.40720349  0.24332923  1
  H  H23  1  0.40720349  0.97889570  0.25667077  1
  H  H24  1  0.96926839  0.51970255  0.63366663  1
  H  H25  1  0.51970255  0.96926839  0.86633337  1
  H  H26  1  0.03073161  0.48029745  0.36633337  1
  H  H27  1  0.48029745  0.03073161  0.13366663  1
  H  H28  1  0.92473378  0.69163392  0.65768220  1
  H  H29  1  0.69163392  0.92473378  0.84231780  1
  H  H30  1  0.07526622  0.30836608  0.34231780  1
  H  H31  1  0.30836608  0.07526622  0.15768220  1
  H  H32  1  0.60034025  0.88777517  0.53696323  1
  H  H33  1  0.88777517  0.60034025  0.96303677  1
  H  H34  1  0.39965975  0.11222483  0.46303677  1
  H  H35  1  0.11222483  0.39965975  0.03696323  1
  H  H36  1  0.54802350  0.68862432  0.52904167  1
  H  H37  1  0.68862432  0.54802350  0.97095833  1
  H  H38  1  0.45197650  0.31137568  0.47095833  1
  H  H39  1  0.31137568  0.45197650  0.02904167  1
  H  H40  1  0.61490136  0.76372476  0.65015672  1
  H  H41  1  0.76372476  0.61490136  0.84984328  1
  H  H42  1  0.38509864  0.23627524  0.34984328  1
  H  H43  1  0.23627524  0.38509864  0.15015672  1
  C  C44  1  0.12868373  0.89802986  0.91404252  1
  C  C45  1  0.89802986  0.12868373  0.58595748  1
  C  C46  1  0.87131627  0.10197014  0.08595748  1
  C  C47  1  0.10197014  0.87131627  0.41404252  1
  C  C48  1  0.00680607  0.62160971  0.67420122  1
  C  C49  1  0.62160971  0.00680607  0.82579878  1
  C  C50  1  0.99319393  0.37839029  0.32579878  1
  C  C51  1  0.37839029  0.99319393  0.17420122  1
  C  C52  1  0.55027255  0.77958040  0.57689596  1
  C  C53  1  0.77958040  0.55027255  0.92310404  1
  C  C54  1  0.44972745  0.22041960  0.42310404  1
  C  C55  1  0.22041960  0.44972745  0.07689596  1
  S  S56  1  0.26193560  0.08938782  0.68632647  1
  S  S57  1  0.08938782  0.26193560  0.81367353  1
  S  S58  1  0.73806440  0.91061218  0.31367353  1
  S  S59  1  0.91061218  0.73806440  0.18632647  1
  S  S60  1  0.26438346  0.45272316  0.58197478  1
  S  S61  1  0.45272316  0.26438346  0.91802522  1
  S  S62  1  0.73561654  0.54727684  0.41802522  1
  S  S63  1  0.54727684  0.73561654  0.08197478  1
  S  S64  1  0.36680662  0.59848929  0.79600580  1
  S  S65  1  0.59848929  0.36680662  0.70399420  1
  S  S66  1  0.63319338  0.40151071  0.20399420  1
  S  S67  1  0.40151071  0.63319338  0.29600580  1
  O  O68  1  0.02428732  0.92174613  0.82717273  1
  O  O69  1  0.92174613  0.02428732  0.67282727  1
  O  O70  1  0.97571268  0.07825387  0.17282727  1
  O  O71  1  0.07825387  0.97571268  0.32717273  1
  O  O72  1  0.14685833  0.71113178  0.63782680  1
  O  O73  1  0.71113178  0.14685833  0.86217320  1
  O  O74  1  0.85314167  0.28886822  0.36217320  1
  O  O75  1  0.28886822  0.85314167  0.13782680  1
  O  O76  1  0.39860654  0.78561879  0.59333361  1
  O  O77  1  0.78561879  0.39860654  0.90666639  1
  O  O78  1  0.60139346  0.21438121  0.40666639  1
  O  O79  1  0.21438121  0.60139346  0.09333361  1
