# generated using pymatgen
data_LiFeSiO4
_symmetry_space_group_name_H-M   'P 1'
_cell_length_a   10.87547186
_cell_length_b   10.87547132
_cell_length_c   11.94474675
_cell_angle_alpha   90.00000000
_cell_angle_beta   90.00000000
_cell_angle_gamma   119.99999861
_symmetry_Int_Tables_number   1
_chemical_formula_structural   LiFeSiO4
_chemical_formula_sum   'Li12 Fe12 Si12 O48'
_cell_volume   1223.49945559
_cell_formula_units_Z   12
loop_
 _symmetry_equiv_pos_site_id
 _symmetry_equiv_pos_as_xyz
  1  'x, y, z'
loop_
 _atom_site_type_symbol
 _atom_site_label
 _atom_site_symmetry_multiplicity
 _atom_site_fract_x
 _atom_site_fract_y
 _atom_site_fract_z
 _atom_site_occupancy
  Li  Li0  1  0.00000000  0.50000000  0.00812500  1
  Li  Li1  1  0.00000000  0.50000000  0.65854100  1
  Li  Li2  1  0.00000000  0.50000000  0.33333300  1
  Li  Li3  1  0.00000000  0.00000000  0.16666700  1
  Li  Li4  1  0.00000000  0.00000000  0.50000000  1
  Li  Li5  1  0.00000000  0.00000000  0.83333300  1
  Li  Li6  1  0.50000000  0.50000000  0.34145900  1
  Li  Li7  1  0.50000000  0.50000000  0.66666700  1
  Li  Li8  1  0.50000000  0.50000000  0.99187500  1
  Li  Li9  1  0.50000000  0.00000000  0.32520800  1
  Li  Li10  1  0.50000000  0.00000000  0.00000000  1
  Li  Li11  1  0.50000000  0.00000000  0.67479200  1
  Fe  Fe12  1  1.00000000  0.74982163  0.83333300  1
  Fe  Fe13  1  0.00000000  0.25017837  0.83333300  1
  Fe  Fe14  1  0.25138524  0.74861476  0.16666700  1
  Fe  Fe15  1  0.25138524  0.50277048  0.50000000  1
  Fe  Fe16  1  0.49722952  0.74861476  0.83333300  1
  Fe  Fe17  1  0.25017837  0.25017837  0.16666700  1
  Fe  Fe18  1  0.25017837  1.00000000  0.50000000  1
  Fe  Fe19  1  0.74982163  0.74982163  0.16666700  1
  Fe  Fe20  1  0.50277048  0.25138524  0.83333300  1
  Fe  Fe21  1  0.74861476  0.49722952  0.50000000  1
  Fe  Fe22  1  0.74861476  0.25138524  0.16666700  1
  Fe  Fe23  1  0.74982163  0.00000000  0.50000000  1
  Si  Si24  1  1.00000000  0.75334297  0.33333300  1
  Si  Si25  1  0.24732225  0.75267775  0.66666700  1
  Si  Si26  1  0.00000000  0.24665703  0.33333300  1
  Si  Si27  1  0.24732225  0.49464349  0.00000000  1
  Si  Si28  1  0.24665703  0.24665703  0.66666700  1
  Si  Si29  1  0.50535651  0.75267775  0.33333300  1
  Si  Si30  1  0.24665703  1.00000000  0.00000000  1
  Si  Si31  1  0.49464349  0.24732225  0.33333300  1
  Si  Si32  1  0.75334297  0.75334297  0.66666700  1
  Si  Si33  1  0.75267775  0.50535651  0.00000000  1
  Si  Si34  1  0.75267775  0.24732225  0.66666700  1
  Si  Si35  1  0.75334297  0.00000000  0.00000000  1
  O  O36  1  0.07782600  0.88440724  0.42384782  1
  O  O37  1  0.11559276  0.92217400  0.90948518  1
  O  O38  1  0.09706850  0.69485995  0.73483789  1
  O  O39  1  0.10404120  0.70690962  0.26839195  1
  O  O40  1  0.29309038  0.89595880  0.06494105  1
  O  O41  1  0.30514005  0.90293150  0.59849511  1
  O  O42  1  0.19916808  0.61452176  0.58512926  1
  O  O43  1  0.09706850  0.40220855  0.93182911  1
  O  O44  1  0.19916808  0.58464633  0.08153674  1
  O  O45  1  0.10404120  0.39713157  0.39827405  1
  O  O46  1  0.07782600  0.19341976  0.24281918  1
  O  O47  1  0.38547824  0.80083192  0.74820374  1
  O  O48  1  0.41535367  0.80083192  0.25179626  1
  O  O49  1  0.11559276  0.19341976  0.75718082  1
  O  O50  1  0.29309038  0.39713157  0.60172595  1
  O  O51  1  0.38547824  0.58464633  0.91846326  1
  O  O52  1  0.30514005  0.40220855  0.06817089  1
  O  O53  1  0.41535367  0.61452176  0.41487074  1
  O  O54  1  0.19341976  0.11559276  0.57615218  1
  O  O55  1  0.19341976  0.07782600  0.09051482  1
  O  O56  1  0.59779145  0.90293150  0.40150489  1
  O  O57  1  0.60286843  0.89595880  0.93505895  1
  O  O58  1  0.60286843  0.70690962  0.73160805  1
  O  O59  1  0.40220855  0.30514005  0.26516211  1
  O  O60  1  0.59779145  0.69485995  0.26516211  1
  O  O61  1  0.39713157  0.29309038  0.73160805  1
  O  O62  1  0.39713157  0.10404120  0.93505895  1
  O  O63  1  0.40220855  0.09706850  0.40150489  1
  O  O64  1  0.80658024  0.92217400  0.09051482  1
  O  O65  1  0.80658024  0.88440724  0.57615218  1
  O  O66  1  0.58464633  0.38547824  0.41487074  1
  O  O67  1  0.69485995  0.59779145  0.06817089  1
  O  O68  1  0.61452176  0.41535367  0.91846326  1
  O  O69  1  0.70690962  0.60286843  0.60172595  1
  O  O70  1  0.88440724  0.80658024  0.75718082  1
  O  O71  1  0.58464633  0.19916808  0.25179626  1
  O  O72  1  0.61452176  0.19916808  0.74820374  1
  O  O73  1  0.92217400  0.80658024  0.24281918  1
  O  O74  1  0.89595880  0.60286843  0.39827405  1
  O  O75  1  0.80083192  0.41535367  0.08153674  1
  O  O76  1  0.90293150  0.59779145  0.93182911  1
  O  O77  1  0.80083192  0.38547824  0.58512926  1
  O  O78  1  0.69485995  0.09706850  0.59849511  1
  O  O79  1  0.70690962  0.10404120  0.06494105  1
  O  O80  1  0.89595880  0.29309038  0.26839195  1
  O  O81  1  0.90293150  0.30514005  0.73483789  1
  O  O82  1  0.88440724  0.07782600  0.90948518  1
  O  O83  1  0.92217400  0.11559276  0.42384782  1
