# generated using pymatgen
data_LiP4WO12
_symmetry_space_group_name_H-M   'P 1'
_cell_length_a   5.42936352
_cell_length_b   10.51922911
_cell_length_c   10.51922911
_cell_angle_alpha   70.22079267
_cell_angle_beta   98.52723929
_cell_angle_gamma   98.52723929
_symmetry_Int_Tables_number   1
_chemical_formula_structural   LiP4WO12
_chemical_formula_sum   'Li2 P8 W2 O24'
_cell_volume   555.97304324
_cell_formula_units_Z   2
loop_
 _symmetry_equiv_pos_site_id
 _symmetry_equiv_pos_as_xyz
  1  'x, y, z'
loop_
 _atom_site_type_symbol
 _atom_site_label
 _atom_site_symmetry_multiplicity
 _atom_site_fract_x
 _atom_site_fract_y
 _atom_site_fract_z
 _atom_site_occupancy
  Li  Li0  1  0.39407925  0.43302651  0.43302651  1
  Li  Li1  1  0.60592075  0.56697349  0.56697349  1
  P  P2  1  0.18044967  0.37246028  0.77512382  1
  P  P3  1  0.18044967  0.77512382  0.37246028  1
  P  P4  1  0.53885843  0.94404951  0.70236138  1
  P  P5  1  0.53885843  0.70236138  0.94404951  1
  P  P6  1  0.46114157  0.05595049  0.29763862  1
  P  P7  1  0.46114157  0.29763862  0.05595049  1
  P  P8  1  0.81955033  0.22487618  0.62753972  1
  P  P9  1  0.81955033  0.62753972  0.22487618  1
  W  W10  1  0.00000000  0.00000000  0.50000000  1
  W  W11  1  0.00000000  0.50000000  0.00000000  1
  O  O12  1  0.00000000  0.75938178  0.24061822  1
  O  O13  1  0.00000000  0.24061822  0.75938178  1
  O  O14  1  0.25874994  0.67810094  0.92887502  1
  O  O15  1  0.25874994  0.92887502  0.67810094  1
  O  O16  1  0.97358599  0.18543678  0.54062848  1
  O  O17  1  0.97358599  0.54062848  0.18543678  1
  O  O18  1  0.32426570  0.43757134  0.65619676  1
  O  O19  1  0.32426570  0.65619676  0.43757134  1
  O  O20  1  0.36533525  0.29445208  0.90587468  1
  O  O21  1  0.36533525  0.90587468  0.29445208  1
  O  O22  1  0.61560455  0.85843515  0.85843515  1
  O  O23  1  0.32001939  0.09639410  0.38889149  1
  O  O24  1  0.32001939  0.38889149  0.09639410  1
  O  O25  1  0.67998061  0.61110851  0.90360590  1
  O  O26  1  0.67998061  0.90360590  0.61110851  1
  O  O27  1  0.38439545  0.14156485  0.14156485  1
  O  O28  1  0.63466475  0.09412532  0.70554792  1
  O  O29  1  0.63466475  0.70554792  0.09412532  1
  O  O30  1  0.67573430  0.56242866  0.34380324  1
  O  O31  1  0.67573430  0.34380324  0.56242866  1
  O  O32  1  0.02641401  0.45937152  0.81456322  1
  O  O33  1  0.02641401  0.81456322  0.45937152  1
  O  O34  1  0.74125006  0.07112498  0.32189906  1
  O  O35  1  0.74125006  0.32189906  0.07112498  1
