# generated using pymatgen
data_Li4Cr5O10
_symmetry_space_group_name_H-M   'P 1'
_cell_length_a   5.13367553
_cell_length_b   5.93273540
_cell_length_c   6.62207290
_cell_angle_alpha   102.87914625
_cell_angle_beta   97.44044445
_cell_angle_gamma   106.82960109
_symmetry_Int_Tables_number   1
_chemical_formula_structural   Li4Cr5O10
_chemical_formula_sum   'Li4 Cr5 O10'
_cell_volume   184.07816754
_cell_formula_units_Z   1
loop_
 _symmetry_equiv_pos_site_id
 _symmetry_equiv_pos_as_xyz
  1  'x, y, z'
loop_
 _atom_site_type_symbol
 _atom_site_label
 _atom_site_symmetry_multiplicity
 _atom_site_fract_x
 _atom_site_fract_y
 _atom_site_fract_z
 _atom_site_occupancy
  Li  Li0  1  0.59871782  0.19481149  0.19415889  1
  Li  Li1  1  0.80369291  0.60651844  0.60787946  1
  Li  Li2  1  0.19630709  0.39348156  0.39212054  1
  Li  Li3  1  0.40128218  0.80518851  0.80584111  1
  Cr  Cr4  1  0.79885658  0.09697515  0.60493722  1
  Cr  Cr5  1  0.39386876  0.29561741  0.80141941  1
  Cr  Cr6  1  0.60613124  0.70438259  0.19858059  1
  Cr  Cr7  1  0.00000000  0.50000000  0.00000000  1
  Cr  Cr8  1  0.20114342  0.90302485  0.39506278  1
  O  O9  1  0.69489981  0.17125473  0.88881573  1
  O  O10  1  0.89463741  0.03596242  0.32013294  1
  O  O11  1  0.49658844  0.23463577  0.51074159  1
  O  O12  1  0.68822313  0.62206820  0.90918025  1
  O  O13  1  0.09345422  0.43261941  0.71152309  1
  O  O14  1  0.90654578  0.56738059  0.28847691  1
  O  O15  1  0.31177687  0.37793180  0.09081975  1
  O  O16  1  0.50341156  0.76536423  0.48925841  1
  O  O17  1  0.10536259  0.96403758  0.67986706  1
  O  O18  1  0.30510019  0.82874527  0.11118427  1
