# generated using pymatgen
data_V3(O2F)2
_symmetry_space_group_name_H-M   'P 1'
_cell_length_a   4.64558755
_cell_length_b   7.75028052
_cell_length_c   5.58626008
_cell_angle_alpha   93.63671916
_cell_angle_beta   91.24877664
_cell_angle_gamma   88.71008139
_symmetry_Int_Tables_number   1
_chemical_formula_structural   V3(O2F)2
_chemical_formula_sum   'V6 O8 F4'
_cell_volume   200.63339980
_cell_formula_units_Z   2
loop_
 _symmetry_equiv_pos_site_id
 _symmetry_equiv_pos_as_xyz
  1  'x, y, z'
loop_
 _atom_site_type_symbol
 _atom_site_label
 _atom_site_symmetry_multiplicity
 _atom_site_fract_x
 _atom_site_fract_y
 _atom_site_fract_z
 _atom_site_occupancy
  V  V0  1  0.50946146  0.65653028  0.16764946  1
  V  V1  1  0.47528848  0.98836093  0.49071337  1
  V  V2  1  0.50569208  0.35269155  0.81844154  1
  V  V3  1  0.00534960  0.67074285  0.66216803  1
  V  V4  1  0.96808374  0.31845406  0.35459231  1
  V  V5  1  0.01753917  0.99965603  0.01134249  1
  O  O6  1  0.80726423  0.43637136  0.62840194  1
  O  O7  1  0.79638731  0.09823161  0.30240889  1
  O  O8  1  0.69005942  0.77027635  0.46283675  1
  O  O9  1  0.71366373  0.42870246  0.13769038  1
  O  O10  1  0.30529273  0.57603128  0.86777696  1
  O  O11  1  0.29184505  0.23323515  0.52625036  1
  O  O12  1  0.30580382  0.89299603  0.20419718  1
  O  O13  1  0.20320810  0.91151822  0.70163652  1
  F  F14  1  0.80510660  0.77166002  0.96427432  1
  F  F15  1  0.69737788  0.10305736  0.79973707  1
  F  F16  1  0.20760469  0.23551223  0.03661553  1
  F  F17  1  0.19497092  0.55597322  0.36326592  1
