# generated using pymatgen
data_Li4FeCo9O20
_symmetry_space_group_name_H-M   'P 1'
_cell_length_a   7.51605288
_cell_length_b   4.90562614
_cell_length_c   10.03872511
_cell_angle_alpha   85.33695147
_cell_angle_beta   80.81027439
_cell_angle_gamma   71.03581747
_symmetry_Int_Tables_number   1
_chemical_formula_structural   Li4FeCo9O20
_chemical_formula_sum   'Li4 Fe1 Co9 O20'
_cell_volume   345.38272502
_cell_formula_units_Z   1
loop_
 _symmetry_equiv_pos_site_id
 _symmetry_equiv_pos_as_xyz
  1  'x, y, z'
loop_
 _atom_site_type_symbol
 _atom_site_label
 _atom_site_symmetry_multiplicity
 _atom_site_fract_x
 _atom_site_fract_y
 _atom_site_fract_z
 _atom_site_occupancy
  Li  Li0  1  0.07948598  0.69686876  0.50265213  1
  Li  Li1  1  0.51769826  0.49802169  0.49906691  1
  Li  Li2  1  0.58029654  0.20493366  0.00012177  1
  Li  Li3  1  0.01670144  0.98472056  0.99685807  1
  Fe  Fe4  1  0.15618369  0.05424149  0.25277199  1
  Co  Co5  1  0.05023894  0.34914010  0.75016411  1
  Co  Co6  1  0.35200139  0.45190365  0.24817012  1
  Co  Co7  1  0.25005859  0.74860852  0.75162484  1
  Co  Co8  1  0.44872161  0.14897632  0.74855438  1
  Co  Co9  1  0.55276655  0.85010513  0.24983676  1
  Co  Co10  1  0.74912054  0.25026268  0.25117685  1
  Co  Co11  1  0.65010919  0.55053868  0.75148388  1
  Co  Co12  1  0.94835249  0.65121992  0.24850620  1
  Co  Co13  1  0.84961991  0.95072237  0.74813635  1
  O  O14  1  0.07108387  0.01481244  0.65167106  1
  O  O15  1  0.12919601  0.40396379  0.35324989  1
  O  O16  1  0.16420362  0.71254074  0.14745893  1
  O  O17  1  0.02863292  0.68477861  0.84807079  1
  O  O18  1  0.22753110  0.07168201  0.84805043  1
  O  O19  1  0.38199640  0.13236923  0.14739902  1
  O  O20  1  0.26840432  0.43188244  0.64896469  1
  O  O21  1  0.33847315  0.75699087  0.35522196  1
  O  O22  1  0.53019857  0.18488436  0.34758553  1
  O  O23  1  0.43447147  0.47275954  0.84764405  1
  O  O24  1  0.57220618  0.51664563  0.15218958  1
  O  O25  1  0.47051929  0.81170297  0.65311381  1
  O  O26  1  0.66688221  0.23103847  0.65216822  1
  O  O27  1  0.72987674  0.57552867  0.34734740  1
  O  O28  1  0.77031136  0.93100377  0.14854921  1
  O  O29  1  0.63119675  0.88210089  0.84650285  1
  O  O30  1  0.96089401  0.32825253  0.15051172  1
  O  O31  1  0.82932465  0.26883399  0.85057238  1
  O  O32  1  0.86989127  0.62634820  0.65309118  1
  O  O33  1  0.92255199  0.96364832  0.35123294  1
