# generated using pymatgen
data_LiV(CO3)2
_symmetry_space_group_name_H-M   'P 1'
_cell_length_a   8.72301441
_cell_length_b   8.72301441
_cell_length_c   8.72301441
_cell_angle_alpha   107.25326809
_cell_angle_beta   107.25326809
_cell_angle_gamma   114.00446945
_symmetry_Int_Tables_number   1
_chemical_formula_structural   LiV(CO3)2
_chemical_formula_sum   'Li4 V4 C8 O24'
_cell_volume   508.53078572
_cell_formula_units_Z   4
loop_
 _symmetry_equiv_pos_site_id
 _symmetry_equiv_pos_as_xyz
  1  'x, y, z'
loop_
 _atom_site_type_symbol
 _atom_site_label
 _atom_site_symmetry_multiplicity
 _atom_site_fract_x
 _atom_site_fract_y
 _atom_site_fract_z
 _atom_site_occupancy
  Li  Li0  1  0.87500000  0.55988838  0.18488838  1
  Li  Li1  1  0.44011162  0.62500000  0.31511162  1
  Li  Li2  1  0.30988838  0.12500000  0.68488838  1
  Li  Li3  1  0.37500000  0.69011162  0.81511162  1
  V  V4  1  0.87500000  0.85425349  0.47925349  1
  V  V5  1  0.60425349  0.12500000  0.97925349  1
  V  V6  1  0.14574651  0.62500000  0.02074651  1
  V  V7  1  0.37500000  0.39574651  0.52074651  1
  C  C8  1  0.56959864  0.40304644  0.26403233  1
  C  C9  1  0.69443368  0.43040136  0.83344779  1
  C  C10  1  0.05556632  0.38901411  0.23596767  1
  C  C11  1  0.59695356  0.86098589  0.16655221  1
  C  C12  1  0.61098589  0.84695356  0.66655221  1
  C  C13  1  0.13901411  0.30556632  0.73596767  1
  C  C14  1  0.18040136  0.94443368  0.33344779  1
  C  C15  1  0.15304644  0.81959864  0.76403233  1
  O  O16  1  0.87443057  0.32770061  0.15792072  1
  O  O17  1  0.52965256  0.23908849  0.16372762  1
  O  O18  1  0.70351723  0.55983065  0.28334065  1
  O  O19  1  0.67463912  0.01091151  0.79056507  1
  O  O20  1  0.28349014  0.12556943  0.45327004  1
  O  O21  1  0.46650986  0.41977990  0.34207928  1
  O  O22  1  0.58022010  0.92229939  0.04672996  1
  O  O23  1  0.44016935  0.72351000  0.14368658  1
  O  O24  1  0.76091151  0.92463912  0.29056407  1
  O  O25  1  0.98908849  0.77965256  0.66372762  1
  O  O26  1  0.11592495  0.32536088  0.33627238  1
  O  O27  1  0.63407505  0.47034744  0.70943493  1
  O  O28  1  0.57982342  0.29648277  0.85631342  1
  O  O29  1  0.17017658  0.52649000  0.21665935  1
  O  O30  1  0.87556943  0.53349014  0.95327004  1
  O  O31  1  0.67229939  0.83022010  0.54672996  1
  O  O32  1  0.07770061  0.12443057  0.65792072  1
  O  O33  1  0.22034744  0.88407505  0.20943593  1
  O  O34  1  0.47351000  0.69016935  0.64368658  1
  O  O35  1  0.27649000  0.42017658  0.71665935  1
  O  O36  1  0.04648277  0.82982342  0.35631342  1
  O  O37  1  0.07536088  0.36592495  0.83627238  1
  O  O38  1  0.16977990  0.71650986  0.84207928  1
  O  O39  1  0.30983065  0.95351723  0.78334065  1
