# generated using pymatgen
data_FeH12C2S2(O2F)6
_symmetry_space_group_name_H-M   'P 1'
_cell_length_a   10.04073717
_cell_length_b   10.04073717
_cell_length_c   6.67204520
_cell_angle_alpha   77.05793913
_cell_angle_beta   102.94206087
_cell_angle_gamma   138.87906347
_symmetry_Int_Tables_number   1
_chemical_formula_structural   FeH12C2S2(O2F)6
_chemical_formula_sum   'Fe1 H12 C2 S2 O12 F6'
_cell_volume   429.52759690
_cell_formula_units_Z   1
loop_
 _symmetry_equiv_pos_site_id
 _symmetry_equiv_pos_as_xyz
  1  'x, y, z'
loop_
 _atom_site_type_symbol
 _atom_site_label
 _atom_site_symmetry_multiplicity
 _atom_site_fract_x
 _atom_site_fract_y
 _atom_site_fract_z
 _atom_site_occupancy
  Fe  Fe0  1  0.00000000  0.00000000  0.00000000  1
  H  H1  1  0.18021666  0.04626185  0.68969880  1
  H  H2  1  0.95373815  0.81978334  0.68969880  1
  H  H3  1  0.81978334  0.95373815  0.31030120  1
  H  H4  1  0.04626185  0.18021666  0.31030120  1
  H  H5  1  0.17740396  0.34181779  0.71056077  1
  H  H6  1  0.65818221  0.82259604  0.71056077  1
  H  H7  1  0.82259604  0.65818221  0.28943923  1
  H  H8  1  0.34181779  0.17740396  0.28943923  1
  H  H9  1  0.22344627  0.40271810  0.93790451  1
  H  H10  1  0.59728190  0.77655373  0.93790451  1
  H  H11  1  0.77655373  0.59728190  0.06209549  1
  H  H12  1  0.40271810  0.22344627  0.06209549  1
  C  C13  1  0.72492488  0.27507512  0.70875113  1
  C  C14  1  0.27507512  0.72492488  0.29124887  1
  S  S15  1  0.62325410  0.37674590  0.68507180  1
  S  S16  1  0.37674590  0.62325410  0.31492820  1
  O  O17  1  0.61609034  0.38390966  0.89967959  1
  O  O18  1  0.38390966  0.61609034  0.10032041  1
  O  O19  1  0.77175566  0.57710926  0.57156372  1
  O  O20  1  0.42289074  0.22824434  0.57156372  1
  O  O21  1  0.22824434  0.42289074  0.42843628  1
  O  O22  1  0.57710926  0.77175566  0.42843628  1
  O  O23  1  0.04842274  0.95157726  0.74658304  1
  O  O24  1  0.95157726  0.04842274  0.25341696  1
  O  O25  1  0.14011142  0.28869885  0.85356342  1
  O  O26  1  0.71130115  0.85988858  0.85356342  1
  O  O27  1  0.85988858  0.71130115  0.14643658  1
  O  O28  1  0.28869885  0.14011142  0.14643658  1
  F  F29  1  0.73759100  0.26240900  0.51706950  1
  F  F30  1  0.26240900  0.73759100  0.48293050  1
  F  F31  1  0.91170437  0.40014638  0.81076885  1
  F  F32  1  0.59985362  0.08829563  0.81076885  1
  F  F33  1  0.08829563  0.59985362  0.18923115  1
  F  F34  1  0.40014638  0.91170437  0.18923115  1
