# generated using pymatgen
data_LiNbTe2WO12
_symmetry_space_group_name_H-M   'P 1'
_cell_length_a   5.40523490
_cell_length_b   5.17831622
_cell_length_c   7.49189892
_cell_angle_alpha   89.95668232
_cell_angle_beta   93.07172404
_cell_angle_gamma   89.98247017
_symmetry_Int_Tables_number   1
_chemical_formula_structural   LiNbTe2WO12
_chemical_formula_sum   'Li1 Nb1 Te2 W1 O12'
_cell_volume   209.39700822
_cell_formula_units_Z   1
loop_
 _symmetry_equiv_pos_site_id
 _symmetry_equiv_pos_as_xyz
  1  'x, y, z'
loop_
 _atom_site_type_symbol
 _atom_site_label
 _atom_site_symmetry_multiplicity
 _atom_site_fract_x
 _atom_site_fract_y
 _atom_site_fract_z
 _atom_site_occupancy
  Li  Li0  1  0.93093598  0.49930214  0.28295103  1
  Nb  Nb1  1  0.50321861  0.49424708  0.50641113  1
  Te  Te2  1  0.00734103  0.99596613  0.49533261  1
  Te  Te3  1  0.50524014  0.50369035  0.99864931  1
  W  W4  1  0.00664930  0.00492539  0.99133719  1
  O  O5  1  0.81279865  0.69648635  0.05643267  1
  O  O6  1  0.82123562  0.30195830  0.53982270  1
  O  O7  1  0.71551937  0.79787283  0.44023148  1
  O  O8  1  0.70887779  0.20367121  0.94340359  1
  O  O9  1  0.51844229  0.39843370  0.24121351  1
  O  O10  1  0.50722152  0.61113779  0.75475792  1
  O  O11  1  0.29971108  0.79905672  0.05037501  1
  O  O12  1  0.31009576  0.18326420  0.54899077  1
  O  O13  1  0.19126911  0.69222360  0.43387371  1
  O  O14  1  0.20769957  0.30163405  0.94607244  1
  O  O15  1  0.01140008  0.11909613  0.24501396  1
  O  O16  1  0.00348110  0.89839402  0.74769900  1
