# generated using pymatgen
data_Mn6OF11
_symmetry_space_group_name_H-M   'P 1'
_cell_length_a   4.95145318
_cell_length_b   5.91765212
_cell_length_c   16.18459214
_cell_angle_alpha   90.00000000
_cell_angle_beta   89.88854044
_cell_angle_gamma   90.00000000
_symmetry_Int_Tables_number   1
_chemical_formula_structural   Mn6OF11
_chemical_formula_sum   'Mn12 O2 F22'
_cell_volume   474.22347101
_cell_formula_units_Z   2
loop_
 _symmetry_equiv_pos_site_id
 _symmetry_equiv_pos_as_xyz
  1  'x, y, z'
loop_
 _atom_site_type_symbol
 _atom_site_label
 _atom_site_symmetry_multiplicity
 _atom_site_fract_x
 _atom_site_fract_y
 _atom_site_fract_z
 _atom_site_occupancy
  Mn  Mn0  1  0.00000000  0.16552561  0.41666700  1
  Mn  Mn1  1  0.00894972  0.83224511  0.24366386  1
  Mn  Mn2  1  0.97140771  0.18623112  0.07486032  1
  Mn  Mn3  1  0.02859229  0.18623112  0.75847268  1
  Mn  Mn4  1  0.99105028  0.83224511  0.58967014  1
  Mn  Mn5  1  0.00000000  0.84137761  0.91666700  1
  Mn  Mn6  1  0.50101739  0.32935480  0.58473628  1
  Mn  Mn7  1  0.50000000  0.35079784  0.91666700  1
  Mn  Mn8  1  0.49898261  0.32935480  0.24859672  1
  Mn  Mn9  1  0.50593124  0.64493882  0.07890437  1
  Mn  Mn10  1  0.50000000  0.67210944  0.41666700  1
  Mn  Mn11  1  0.49406876  0.64493882  0.75442863  1
  O  O12  1  0.30661208  0.38908189  0.81367755  1
  O  O13  1  0.69338792  0.38908189  0.01965545  1
  F  F14  1  0.23378154  0.10088401  0.30573473  1
  F  F15  1  0.22049473  0.11006333  0.64323318  1
  F  F16  1  0.22821709  0.12154370  0.96884657  1
  F  F17  1  0.24229552  0.88270305  0.13104232  1
  F  F18  1  0.22679304  0.89296061  0.47697455  1
  F  F19  1  0.22830351  0.88647071  0.80562458  1
  F  F20  1  0.25381127  0.39089082  0.13951886  1
  F  F21  1  0.26924357  0.60575068  0.30562963  1
  F  F22  1  0.27162293  0.39275506  0.47421632  1
  F  F23  1  0.27423381  0.60554586  0.64329732  1
  F  F24  1  0.26476435  0.61367568  0.97140561  1
  F  F25  1  0.72576619  0.60554586  0.19003668  1
  F  F26  1  0.72837707  0.39275506  0.35911668  1
  F  F27  1  0.73075643  0.60575068  0.52770437  1
  F  F28  1  0.73523565  0.61367568  0.86192839  1
  F  F29  1  0.74618873  0.39089082  0.69381414  1
  F  F30  1  0.77950527  0.11006333  0.19009982  1
  F  F31  1  0.76621846  0.10088401  0.52759827  1
  F  F32  1  0.77320696  0.89296061  0.35635845  1
  F  F33  1  0.77169649  0.88647071  0.02770842  1
  F  F34  1  0.77178291  0.12154370  0.86448743  1
  F  F35  1  0.75770448  0.88270305  0.70229068  1
