# generated using pymatgen
data_NaV(PO4)2
_symmetry_space_group_name_H-M   'P 1'
_cell_length_a   7.63566565
_cell_length_b   13.72471766
_cell_length_c   6.25428996
_cell_angle_alpha   90.00000000
_cell_angle_beta   98.47756266
_cell_angle_gamma   90.00000000
_symmetry_Int_Tables_number   1
_chemical_formula_structural   NaV(PO4)2
_chemical_formula_sum   'Na4 V4 P8 O32'
_cell_volume   648.27156833
_cell_formula_units_Z   4
loop_
 _symmetry_equiv_pos_site_id
 _symmetry_equiv_pos_as_xyz
  1  'x, y, z'
loop_
 _atom_site_type_symbol
 _atom_site_label
 _atom_site_symmetry_multiplicity
 _atom_site_fract_x
 _atom_site_fract_y
 _atom_site_fract_z
 _atom_site_occupancy
  Na  Na0  1  0.08304667  0.79595085  0.65461311  1
  Na  Na1  1  0.08304667  0.70404915  0.15461311  1
  Na  Na2  1  0.91695333  0.29595085  0.84538689  1
  Na  Na3  1  0.91695333  0.20404915  0.34538689  1
  V  V4  1  0.23900052  0.07621255  0.76687853  1
  V  V5  1  0.23900052  0.42378745  0.26687853  1
  V  V6  1  0.76099948  0.57621255  0.73312147  1
  V  V7  1  0.76099948  0.92378745  0.23312147  1
  P  P8  1  0.17116968  0.48283345  0.75317609  1
  P  P9  1  0.17116968  0.01716655  0.25317609  1
  P  P10  1  0.35977555  0.63131218  0.53364675  1
  P  P11  1  0.35977555  0.86868782  0.03364675  1
  P  P12  1  0.64022445  0.13131218  0.96635325  1
  P  P13  1  0.64022445  0.36868782  0.46635325  1
  P  P14  1  0.82883032  0.98283345  0.74682391  1
  P  P15  1  0.82883032  0.51716655  0.24682391  1
  O  O16  1  0.02940815  0.98119361  0.74110123  1
  O  O17  1  0.02940815  0.51880639  0.24110123  1
  O  O18  1  0.10853834  0.17013266  0.69908187  1
  O  O19  1  0.10853834  0.32986734  0.19908187  1
  O  O20  1  0.22802591  0.59032318  0.70009511  1
  O  O21  1  0.27219250  0.45797815  0.97768940  1
  O  O22  1  0.21772536  0.41247167  0.57997466  1
  O  O23  1  0.28134563  0.77185928  0.96304632  1
  O  O24  1  0.22802591  0.90967682  0.20009511  1
  O  O25  1  0.27219250  0.04202185  0.47768940  1
  O  O26  1  0.21772536  0.08752833  0.07997466  1
  O  O27  1  0.28134563  0.72814072  0.46304632  1
  O  O28  1  0.36482179  0.94496027  0.85845458  1
  O  O29  1  0.36482179  0.55503973  0.35845458  1
  O  O30  1  0.45536074  0.14082873  0.82172306  1
  O  O31  1  0.45536074  0.35917127  0.32172306  1
  O  O32  1  0.54463926  0.64082873  0.67827694  1
  O  O33  1  0.54463926  0.85917127  0.17827694  1
  O  O34  1  0.63517821  0.44496027  0.64154542  1
  O  O35  1  0.63517821  0.05503973  0.14154542  1
  O  O36  1  0.71865437  0.27185928  0.53695368  1
  O  O37  1  0.78227464  0.91247167  0.92002534  1
  O  O38  1  0.72780750  0.95797815  0.52231060  1
  O  O39  1  0.77197409  0.09032318  0.79990489  1
  O  O40  1  0.71865437  0.22814072  0.03695368  1
  O  O41  1  0.78227464  0.58752833  0.42002534  1
  O  O42  1  0.72780750  0.54202185  0.02231060  1
  O  O43  1  0.77197409  0.40967682  0.29990489  1
  O  O44  1  0.89146166  0.67013266  0.80091813  1
  O  O45  1  0.89146166  0.82986734  0.30091813  1
  O  O46  1  0.97059185  0.48119361  0.75889877  1
  O  O47  1  0.97059185  0.01880639  0.25889877  1
