# generated using pymatgen
data_Mn6OF11
_symmetry_space_group_name_H-M   'P 1'
_cell_length_a   11.14066920
_cell_length_b   6.91336274
_cell_length_c   3.30382908
_cell_angle_alpha   90.00000000
_cell_angle_beta   90.00000000
_cell_angle_gamma   108.11910840
_symmetry_Int_Tables_number   1
_chemical_formula_structural   Mn6OF11
_chemical_formula_sum   'Mn6 O1 F11'
_cell_volume   241.84111509
_cell_formula_units_Z   1
loop_
 _symmetry_equiv_pos_site_id
 _symmetry_equiv_pos_as_xyz
  1  'x, y, z'
loop_
 _atom_site_type_symbol
 _atom_site_label
 _atom_site_symmetry_multiplicity
 _atom_site_fract_x
 _atom_site_fract_y
 _atom_site_fract_z
 _atom_site_occupancy
  Mn  Mn0  1  0.99999301  0.01551994  0.00000000  1
  Mn  Mn1  1  0.33336721  0.16609477  0.50000000  1
  Mn  Mn2  1  0.00000639  0.47792585  0.50000000  1
  Mn  Mn3  1  0.66808352  0.33415603  0.00000000  1
  Mn  Mn4  1  0.33192907  0.66590823  0.00000000  1
  Mn  Mn5  1  0.66663240  0.83289239  0.50000000  1
  O  O6  1  0.99999994  0.30600790  0.00000000  1
  F  F7  1  0.12869550  0.06232566  0.50000000  1
  F  F8  1  0.33340404  0.36143301  0.00000000  1
  F  F9  1  0.99997684  0.69666684  0.00000000  1
  F  F10  1  0.66655354  0.02814841  0.00000000  1
  F  F11  1  0.53586800  0.26785437  0.50000000  1
  F  F12  1  0.20321778  0.60625021  0.50000000  1
  F  F13  1  0.46415125  0.73189971  0.50000000  1
  F  F14  1  0.79682200  0.40286180  0.50000000  1
  F  F15  1  0.66643239  0.63852242  0.00000000  1
  F  F16  1  0.33361163  0.97200219  0.00000000  1
  F  F17  1  0.87125550  0.93352927  0.50000000  1
