# generated using pymatgen
data_NaVPO5
_symmetry_space_group_name_H-M   'P 1'
_cell_length_a   7.53186237
_cell_length_b   6.48663442
_cell_length_c   7.77940275
_cell_angle_alpha   90.00000000
_cell_angle_beta   90.00000000
_cell_angle_gamma   90.00000000
_symmetry_Int_Tables_number   1
_chemical_formula_structural   NaVPO5
_chemical_formula_sum   'Na4 V4 P4 O20'
_cell_volume   380.07390577
_cell_formula_units_Z   4
loop_
 _symmetry_equiv_pos_site_id
 _symmetry_equiv_pos_as_xyz
  1  'x, y, z'
loop_
 _atom_site_type_symbol
 _atom_site_label
 _atom_site_symmetry_multiplicity
 _atom_site_fract_x
 _atom_site_fract_y
 _atom_site_fract_z
 _atom_site_occupancy
  Na  Na0  1  0.00000000  0.00000000  0.50000000  1
  Na  Na1  1  0.00000000  0.50000000  0.50000000  1
  Na  Na2  1  0.50000000  0.00000000  0.00000000  1
  Na  Na3  1  0.50000000  0.50000000  0.00000000  1
  V  V4  1  0.16851139  0.75000000  0.21347038  1
  V  V5  1  0.33148861  0.25000000  0.71347038  1
  V  V6  1  0.66851139  0.75000000  0.28652962  1
  V  V7  1  0.83148861  0.25000000  0.78652962  1
  P  P8  1  0.12683741  0.25000000  0.10609259  1
  P  P9  1  0.37316259  0.75000000  0.60609259  1
  P  P10  1  0.62683741  0.25000000  0.39390741  1
  P  P11  1  0.87316259  0.75000000  0.89390741  1
  O  O12  1  0.04931448  0.75000000  0.99499389  1
  O  O13  1  0.10870538  0.25000000  0.67493884  1
  O  O14  1  0.13567408  0.05925594  0.22648960  1
  O  O15  1  0.13567408  0.44074406  0.22648960  1
  O  O16  1  0.21293676  0.75000000  0.47948300  1
  O  O17  1  0.28706324  0.25000000  0.97948300  1
  O  O18  1  0.36432592  0.55925594  0.72648960  1
  O  O19  1  0.36432592  0.94074406  0.72648960  1
  O  O20  1  0.39129462  0.75000000  0.17493884  1
  O  O21  1  0.45068552  0.25000000  0.49499389  1
  O  O22  1  0.54931448  0.75000000  0.50500611  1
  O  O23  1  0.60870538  0.25000000  0.82506116  1
  O  O24  1  0.63567408  0.05925594  0.27351040  1
  O  O25  1  0.63567408  0.44074406  0.27351040  1
  O  O26  1  0.71293676  0.75000000  0.02051700  1
  O  O27  1  0.78706324  0.25000000  0.52051700  1
  O  O28  1  0.86432592  0.55925594  0.77351040  1
  O  O29  1  0.86432592  0.94074406  0.77351040  1
  O  O30  1  0.89129462  0.75000000  0.32506116  1
  O  O31  1  0.95068552  0.25000000  0.00500611  1
