# generated using pymatgen
data_V6O5F19
_symmetry_space_group_name_H-M   'P 1'
_cell_length_a   5.58729692
_cell_length_b   5.38316038
_cell_length_c   14.94140517
_cell_angle_alpha   89.59683189
_cell_angle_beta   100.53832735
_cell_angle_gamma   93.59669595
_symmetry_Int_Tables_number   1
_chemical_formula_structural   V6O5F19
_chemical_formula_sum   'V6 O5 F19'
_cell_volume   440.94253861
_cell_formula_units_Z   1
loop_
 _symmetry_equiv_pos_site_id
 _symmetry_equiv_pos_as_xyz
  1  'x, y, z'
loop_
 _atom_site_type_symbol
 _atom_site_label
 _atom_site_symmetry_multiplicity
 _atom_site_fract_x
 _atom_site_fract_y
 _atom_site_fract_z
 _atom_site_occupancy
  V  V0  1  0.04418465  0.96424934  0.00397709  1
  V  V1  1  0.20207457  0.45795137  0.32997137  1
  V  V2  1  0.27685943  0.03697251  0.66100736  1
  V  V3  1  0.53498628  0.45852007  0.99685476  1
  V  V4  1  0.71022548  0.96377718  0.33596936  1
  V  V5  1  0.81690592  0.51980192  0.66905659  1
  O  O6  1  0.03178926  0.19014062  0.63524331  1
  O  O7  1  0.37716122  0.24112300  0.31606153  1
  O  O8  1  0.70789793  0.24081218  0.98169490  1
  O  O9  1  0.26708036  0.78448499  0.01871424  1
  O  O10  1  0.93169743  0.78191466  0.34979370  1
  F  F11  1  0.21995751  0.26778471  0.97303311  1
  F  F12  1  0.13665648  0.71371878  0.68901904  1
  F  F13  1  0.05176388  0.09266140  0.11383862  1
  F  F14  1  0.18310538  0.43715570  0.44710434  1
  F  F15  1  0.37558948  0.07851529  0.77942467  1
  F  F16  1  0.12203369  0.58933290  0.22013713  1
  F  F17  1  0.32615722  0.90512333  0.55811510  1
  F  F18  1  0.45465242  0.58980461  0.88692942  1
  F  F19  1  0.50926024  0.30921136  0.64441631  1
  F  F20  1  0.44964444  0.72953390  0.36186412  1
  F  F21  1  0.66799905  0.79067331  0.69875627  1
  F  F22  1  0.52237717  0.43880524  0.11457387  1
  F  F23  1  0.72406923  0.09214827  0.44603200  1
  F  F24  1  0.89281576  0.39158956  0.77878720  1
  F  F25  1  0.57977691  0.93483999  0.21883474  1
  F  F26  1  0.79159561  0.57582488  0.55125931  1
  F  F27  1  0.91853705  0.93086480  0.88660526  1
  F  F28  1  0.88708014  0.26607180  0.30441881  1
  F  F29  1  0.78606478  0.72659334  0.02850644  1
