# generated using pymatgen
data_Li3TiV2O6
_symmetry_space_group_name_H-M   'P 1'
_cell_length_a   2.95191075
_cell_length_b   6.03737314
_cell_length_c   6.74689190
_cell_angle_alpha   102.90676311
_cell_angle_beta   102.65729196
_cell_angle_gamma   89.92465315
_symmetry_Int_Tables_number   1
_chemical_formula_structural   Li3TiV2O6
_chemical_formula_sum   'Li3 Ti1 V2 O6'
_cell_volume   114.21198184
_cell_formula_units_Z   1
loop_
 _symmetry_equiv_pos_site_id
 _symmetry_equiv_pos_as_xyz
  1  'x, y, z'
loop_
 _atom_site_type_symbol
 _atom_site_label
 _atom_site_symmetry_multiplicity
 _atom_site_fract_x
 _atom_site_fract_y
 _atom_site_fract_z
 _atom_site_occupancy
  Li  Li0  1  0.66448687  0.83515818  0.33451450  1
  Li  Li1  1  0.99112695  0.50616561  0.99662251  1
  Li  Li2  1  0.33478486  0.15877627  0.66934322  1
  Ti  Ti3  1  0.66567421  0.33425859  0.33398106  1
  V  V4  1  0.32876297  0.66519334  0.66366205  1
  V  V5  1  0.00111134  0.00069349  0.00270106  1
  O  O6  1  0.50976350  0.24959452  0.02065406  1
  O  O7  1  0.83341203  0.90473493  0.67369447  1
  O  O8  1  0.82039937  0.41523190  0.64617390  1
  O  O9  1  0.16370637  0.56479576  0.33237838  1
  O  O10  1  0.49645572  0.76192565  0.99274165  1
  O  O11  1  0.16646481  0.10296876  0.33373714  1
