# generated using pymatgen
data_Na3MnO3
_symmetry_space_group_name_H-M   'P 1'
_cell_length_a   8.28661418
_cell_length_b   8.28661418
_cell_length_c   16.93741565
_cell_angle_alpha   90.00000000
_cell_angle_beta   90.00000000
_cell_angle_gamma   86.15405323
_symmetry_Int_Tables_number   1
_chemical_formula_structural   Na3MnO3
_chemical_formula_sum   'Na36 Mn12 O36'
_cell_volume   1160.43882089
_cell_formula_units_Z   12
loop_
 _symmetry_equiv_pos_site_id
 _symmetry_equiv_pos_as_xyz
  1  'x, y, z'
loop_
 _atom_site_type_symbol
 _atom_site_label
 _atom_site_symmetry_multiplicity
 _atom_site_fract_x
 _atom_site_fract_y
 _atom_site_fract_z
 _atom_site_occupancy
  Na  Na0  1  0.38766055  0.97176549  0.57118235  1
  Na  Na1  1  0.02823451  0.61233945  0.42881765  1
  Na  Na2  1  0.24190815  0.81734458  0.08663288  1
  Na  Na3  1  0.18265542  0.75809185  0.91336712  1
  Na  Na4  1  0.16977481  0.66977481  0.25000000  1
  Na  Na5  1  0.33022519  0.83022519  0.75000000  1
  Na  Na6  1  0.31734458  0.74190815  0.41336712  1
  Na  Na7  1  0.25809185  0.68265542  0.58663288  1
  Na  Na8  1  0.47176549  0.88766055  0.92881765  1
  Na  Na9  1  0.11233945  0.52823451  0.07118235  1
  Na  Na10  1  0.51177010  0.84437604  0.19080169  1
  Na  Na11  1  0.01177010  0.34437604  0.30919831  1
  Na  Na12  1  0.65562396  0.98822990  0.69080169  1
  Na  Na13  1  0.15562396  0.48822990  0.80919831  1
  Na  Na14  1  0.02679423  0.02679423  0.22408382  1
  Na  Na15  1  0.32659965  0.32659965  0.22478608  1
  Na  Na16  1  0.17340035  0.17340035  0.72478608  1
  Na  Na17  1  0.52679423  0.52679423  0.27591618  1
  Na  Na18  1  0.67340035  0.67340035  0.77521392  1
  Na  Na19  1  0.97320577  0.97320577  0.77591618  1
  Na  Na20  1  0.47320577  0.47320577  0.72408382  1
  Na  Na21  1  0.82659965  0.82659965  0.27521392  1
  Na  Na22  1  0.34437604  0.01177010  0.30919831  1
  Na  Na23  1  0.98822990  0.65562396  0.69080169  1
  Na  Na24  1  0.48822990  0.15562396  0.80919831  1
  Na  Na25  1  0.84437604  0.51177010  0.19080169  1
  Na  Na26  1  0.52823451  0.11233945  0.07118235  1
  Na  Na27  1  0.88766055  0.47176549  0.92881765  1
  Na  Na28  1  0.74190815  0.31734458  0.41336712  1
  Na  Na29  1  0.68265542  0.25809185  0.58663288  1
  Na  Na30  1  0.66977481  0.16977481  0.25000000  1
  Na  Na31  1  0.83022519  0.33022519  0.75000000  1
  Na  Na32  1  0.81734458  0.24190815  0.08663288  1
  Na  Na33  1  0.75809185  0.18265542  0.91336712  1
  Na  Na34  1  0.61233945  0.02823451  0.42881765  1
  Na  Na35  1  0.97176549  0.38766055  0.57118235  1
  Mn  Mn36  1  0.17284432  0.17284432  0.09228334  1
  Mn  Mn37  1  0.00151091  0.00151091  0.41424200  1
  Mn  Mn38  1  0.99848909  0.99848909  0.58575800  1
  Mn  Mn39  1  0.32715568  0.32715568  0.59228334  1
  Mn  Mn40  1  0.34731515  0.34731515  0.42030509  1
  Mn  Mn41  1  0.67284432  0.67284432  0.40771666  1
  Mn  Mn42  1  0.15268485  0.15268485  0.92030509  1
  Mn  Mn43  1  0.50151091  0.50151091  0.08575800  1
  Mn  Mn44  1  0.65268485  0.65268485  0.57969491  1
  Mn  Mn45  1  0.49848909  0.49848909  0.91424200  1
  Mn  Mn46  1  0.82715568  0.82715568  0.90771666  1
  Mn  Mn47  1  0.84731515  0.84731515  0.07969491  1
  O  O48  1  0.11705581  0.88294419  0.50000000  1
  O  O49  1  0.11467174  0.87436183  0.33753813  1
  O  O50  1  0.12563817  0.88532826  0.66246187  1
  O  O51  1  0.55599360  0.80284652  0.33129266  1
  O  O52  1  0.69715348  0.94400640  0.83129266  1
  O  O53  1  0.05599360  0.30284652  0.16870734  1
  O  O54  1  0.19715348  0.44400640  0.66870734  1
  O  O55  1  0.23900562  0.48143262  0.34491843  1
  O  O56  1  0.51856738  0.76099438  0.65508157  1
  O  O57  1  0.01856738  0.26099438  0.84491843  1
  O  O58  1  0.73900562  0.98143262  0.15508157  1
  O  O59  1  0.37436183  0.61467174  0.16246187  1
  O  O60  1  0.38532826  0.62563817  0.83753813  1
  O  O61  1  0.38294419  0.61705581  0.00000000  1
  O  O62  1  0.72302813  0.95294616  0.99286827  1
  O  O63  1  0.54705384  0.77697187  0.49286827  1
  O  O64  1  0.04705384  0.27697187  0.00713173  1
  O  O65  1  0.22302713  0.45294616  0.50713173  1
  O  O66  1  0.77697187  0.54705384  0.49286827  1
  O  O67  1  0.45294616  0.22302713  0.50713173  1
  O  O68  1  0.27697187  0.04705384  0.00713173  1
  O  O69  1  0.95294616  0.72302813  0.99286827  1
  O  O70  1  0.61705581  0.38294419  0.00000000  1
  O  O71  1  0.62563817  0.38532826  0.83753813  1
  O  O72  1  0.61467174  0.37436183  0.16246187  1
  O  O73  1  0.26099438  0.01856738  0.84491843  1
  O  O74  1  0.48143262  0.23900562  0.34491843  1
  O  O75  1  0.98143262  0.73900562  0.15508157  1
  O  O76  1  0.76099438  0.51856738  0.65508157  1
  O  O77  1  0.30284652  0.05599360  0.16870734  1
  O  O78  1  0.44400640  0.19715348  0.66870734  1
  O  O79  1  0.80284652  0.55599360  0.33129266  1
  O  O80  1  0.94400640  0.69715348  0.83129266  1
  O  O81  1  0.87436183  0.11467174  0.33753813  1
  O  O82  1  0.88532826  0.12563817  0.66246187  1
  O  O83  1  0.88294419  0.11705581  0.50000000  1
