# generated using pymatgen
data_Mg2Bi
_symmetry_space_group_name_H-M   'P 1'
_cell_length_a   5.79567449
_cell_length_b   5.79567502
_cell_length_c   16.07992212
_cell_angle_alpha   90.00000000
_cell_angle_beta   90.00000000
_cell_angle_gamma   119.99999689
_symmetry_Int_Tables_number   1
_chemical_formula_structural   Mg2Bi
_chemical_formula_sum   'Mg12 Bi6'
_cell_volume   467.75947951
_cell_formula_units_Z   6
loop_
 _symmetry_equiv_pos_site_id
 _symmetry_equiv_pos_as_xyz
  1  'x, y, z'
loop_
 _atom_site_type_symbol
 _atom_site_label
 _atom_site_symmetry_multiplicity
 _atom_site_fract_x
 _atom_site_fract_y
 _atom_site_fract_z
 _atom_site_occupancy
  Mg  Mg0  1  0.00000000  0.33607906  -0.00000000  1
  Mg  Mg1  1  0.66392094  0.66392094  -0.00000000  1
  Mg  Mg2  1  0.33333300  0.66666700  0.16666700  1
  Mg  Mg3  1  0.33607906  -0.00000000  -0.00000000  1
  Mg  Mg4  1  0.66666700  0.66941306  0.33333300  1
  Mg  Mg5  1  0.33058694  0.99725394  0.33333300  1
  Mg  Mg6  1  0.00000000  -0.00000000  0.50000000  1
  Mg  Mg7  1  0.00274606  0.33333300  0.33333300  1
  Mg  Mg8  1  0.33333300  0.00274606  0.66666700  1
  Mg  Mg9  1  0.99725394  0.33058694  0.66666700  1
  Mg  Mg10  1  0.66666700  0.33333300  0.83333300  1
  Mg  Mg11  1  0.66941306  0.66666700  0.66666700  1
  Bi  Bi12  1  0.66666700  0.33333300  0.16897141  1
  Bi  Bi13  1  0.00000000  -0.00000000  0.16436259  1
  Bi  Bi14  1  0.33333300  0.66666700  0.50230441  1
  Bi  Bi15  1  0.66666700  0.33333300  0.49769559  1
  Bi  Bi16  1  0.00000000  0.00000000  0.83563741  1
  Bi  Bi17  1  0.33333300  0.66666700  0.83102859  1
