# generated using pymatgen
data_CaPr(WO3)2
_symmetry_space_group_name_H-M   'P 1'
_cell_length_a   5.63643610
_cell_length_b   5.90226503
_cell_length_c   8.05568212
_cell_angle_alpha   89.37307581
_cell_angle_beta   89.99920903
_cell_angle_gamma   89.98929244
_symmetry_Int_Tables_number   1
_chemical_formula_structural   CaPr(WO3)2
_chemical_formula_sum   'Ca2 Pr2 W4 O12'
_cell_volume   267.97828846
_cell_formula_units_Z   2
loop_
 _symmetry_equiv_pos_site_id
 _symmetry_equiv_pos_as_xyz
  1  'x, y, z'
loop_
 _atom_site_type_symbol
 _atom_site_label
 _atom_site_symmetry_multiplicity
 _atom_site_fract_x
 _atom_site_fract_y
 _atom_site_fract_z
 _atom_site_occupancy
  Ca  Ca0  1  0.48240493  0.44534822  0.75877518  1
  Ca  Ca1  1  0.98226760  0.05465730  0.24131265  1
  Pr  Pr2  1  0.02012416  0.94244160  0.76014841  1
  Pr  Pr3  1  0.51996773  0.55752135  0.23983035  1
  W  W4  1  0.00102843  0.49800903  0.99960548  1
  W  W5  1  0.99951408  0.49788691  0.50050531  1
  W  W6  1  0.49953850  0.00210388  0.49949929  1
  W  W7  1  0.50104664  0.00199238  0.00039679  1
  O  O8  1  0.10828276  0.46302146  0.25922486  1
  O  O9  1  0.19109743  0.19547202  0.94251601  1
  O  O10  1  0.19511139  0.20702698  0.55922226  1
  O  O11  1  0.30137397  0.70978781  0.55960155  1
  O  O12  1  0.31104777  0.69573945  0.94242137  1
  O  O13  1  0.39018697  0.96527712  0.25942757  1
  O  O14  1  0.60841580  0.03699146  0.74078958  1
  O  O15  1  0.69106414  0.30456132  0.05736578  1
  O  O16  1  0.69499591  0.29304540  0.44079521  1
  O  O17  1  0.81109305  0.80429733  0.05764325  1
  O  O18  1  0.80119529  0.79008477  0.44034680  1
  O  O19  1  0.89024046  0.53473520  0.74057328  1
