# generated using pymatgen
data_Li3VF6
_symmetry_space_group_name_H-M   'P 1'
_cell_length_a   5.18467730
_cell_length_b   5.22685626
_cell_length_c   7.77821835
_cell_angle_alpha   90.00000000
_cell_angle_beta   89.62216093
_cell_angle_gamma   90.00000000
_symmetry_Int_Tables_number   1
_chemical_formula_structural   Li3VF6
_chemical_formula_sum   'Li6 V2 F12'
_cell_volume   210.78173473
_cell_formula_units_Z   2
loop_
 _symmetry_equiv_pos_site_id
 _symmetry_equiv_pos_as_xyz
  1  'x, y, z'
loop_
 _atom_site_type_symbol
 _atom_site_label
 _atom_site_symmetry_multiplicity
 _atom_site_fract_x
 _atom_site_fract_y
 _atom_site_fract_z
 _atom_site_occupancy
  Li  Li0  1  0.00000000  0.00000000  0.50000000  1
  Li  Li1  1  0.01426909  0.46916970  0.26361345  1
  Li  Li2  1  0.48573091  0.96916970  0.23638655  1
  Li  Li3  1  0.50000000  0.50000000  0.00000000  1
  Li  Li4  1  0.51426909  0.03083030  0.76361345  1
  Li  Li5  1  0.98573091  0.53083030  0.73638655  1
  V  V6  1  0.00000000  0.00000000  0.00000000  1
  V  V7  1  0.50000000  0.50000000  0.50000000  1
  F  F8  1  0.12853626  0.09487666  0.23845043  1
  F  F9  1  0.15576874  0.31753036  0.91726809  1
  F  F10  1  0.17377894  0.32857966  0.55746379  1
  F  F11  1  0.32622106  0.82857966  0.94253621  1
  F  F12  1  0.34423126  0.81753036  0.58273191  1
  F  F13  1  0.37146374  0.59487666  0.26154957  1
  F  F14  1  0.62853626  0.40512334  0.73845043  1
  F  F15  1  0.65576874  0.18246964  0.41726809  1
  F  F16  1  0.67377894  0.17142034  0.05746379  1
  F  F17  1  0.82622106  0.67142034  0.44253621  1
  F  F18  1  0.84423126  0.68246964  0.08273191  1
  F  F19  1  0.87146374  0.90512334  0.76154957  1
