# generated using pymatgen
data_Li3Fe4(BO3)4
_symmetry_space_group_name_H-M   'P 1'
_cell_length_a   5.21698238
_cell_length_b   9.12637395
_cell_length_c   11.43367725
_cell_angle_alpha   67.91252183
_cell_angle_beta   77.23465324
_cell_angle_gamma   89.79590786
_symmetry_Int_Tables_number   1
_chemical_formula_structural   Li3Fe4(BO3)4
_chemical_formula_sum   'Li6 Fe8 B8 O24'
_cell_volume   490.05368651
_cell_formula_units_Z   2
loop_
 _symmetry_equiv_pos_site_id
 _symmetry_equiv_pos_as_xyz
  1  'x, y, z'
loop_
 _atom_site_type_symbol
 _atom_site_label
 _atom_site_symmetry_multiplicity
 _atom_site_fract_x
 _atom_site_fract_y
 _atom_site_fract_z
 _atom_site_occupancy
  Li  Li0  1  0.97096143  0.95365316  0.42442994  1
  Li  Li1  1  0.70739417  0.71648757  0.90940402  1
  Li  Li2  1  0.51400360  0.49989260  0.65925309  1
  Li  Li3  1  0.73298336  0.75000012  0.16847621  1
  Li  Li4  1  0.21075697  0.21873074  0.90889365  1
  Li  Li5  1  0.23214581  0.25383275  0.16218330  1
  Fe  Fe6  1  0.98425766  0.63585366  0.38458672  1
  Fe  Fe7  1  0.73217487  0.06529263  0.87438526  1
  Fe  Fe8  1  0.51527793  0.84978618  0.63380834  1
  Fe  Fe9  1  0.75110786  0.43524797  0.13003377  1
  Fe  Fe10  1  0.23401907  0.56339464  0.87960818  1
  Fe  Fe11  1  0.47902536  0.14969687  0.38784675  1
  Fe  Fe12  1  0.03275056  0.34206402  0.62181443  1
  Fe  Fe13  1  0.26197838  0.92670057  0.13755780  1
  B  B14  1  0.97951590  0.30757757  0.37463622  1
  B  B15  1  0.72558187  0.39244019  0.87906076  1
  B  B16  1  0.52532057  0.18768035  0.63413005  1
  B  B17  1  0.76729021  0.10822264  0.12166936  1
  B  B18  1  0.48131225  0.82773030  0.37115252  1
  B  B19  1  0.22880374  0.89828774  0.88093859  1
  B  B20  1  0.01659554  0.67952895  0.62833451  1
  B  B21  1  0.26831844  0.60513015  0.12397315  1
  O  O22  1  0.96314313  0.89813904  0.88372380  1
  O  O23  1  0.87963498  0.27388610  0.85729301  1
  O  O24  1  0.83116483  0.50221961  0.91671585  1
  O  O25  1  0.89754133  0.81760752  0.61509206  1
  O  O26  1  0.90163455  0.56283460  0.59878063  1
  O  O27  1  0.74694928  0.15218437  0.68645980  1
  O  O28  1  0.74278348  0.32198125  0.33577877  1
  O  O29  1  0.47116600  0.39513998  0.86363357  1
  O  O30  1  0.38131207  0.78893297  0.84771668  1
  O  O31  1  0.57798201  0.93715783  0.41589527  1
  O  O32  1  0.63678555  0.71723803  0.35094838  1
  O  O33  1  0.34716846  0.01064366  0.91372416  1
  O  O34  1  0.65850404  0.99855518  0.08135068  1
  O  O35  1  0.39553360  0.31512593  0.63937690  1
  O  O36  1  0.44734130  0.09042881  0.57658477  1
  O  O37  1  0.59667164  0.20223473  0.16990185  1
  O  O38  1  0.53935865  0.62352851  0.10890590  1
  O  O39  1  0.25552147  0.65717150  0.66727935  1
  O  O40  1  0.23103965  0.84403940  0.34477208  1
  O  O41  1  0.06686280  0.41072055  0.42034732  1
  O  O42  1  0.12675866  0.18338359  0.36230726  1
  O  O43  1  0.16178027  0.48523260  0.09592712  1
  O  O44  1  0.10566414  0.70807593  0.16261277  1
  O  O45  1  0.03351552  0.12126398  0.11173940  1
