# generated using pymatgen
data_LiMnVP2(HO5)2
_symmetry_space_group_name_H-M   'P 1'
_cell_length_a   14.44064470
_cell_length_b   7.34975579
_cell_length_c   5.23822059
_cell_angle_alpha   76.24976940
_cell_angle_beta   87.14582932
_cell_angle_gamma   91.90748607
_symmetry_Int_Tables_number   1
_chemical_formula_structural   LiMnVP2(HO5)2
_chemical_formula_sum   'Li3 Mn3 V3 P6 H6 O30'
_cell_volume   538.77288271
_cell_formula_units_Z   3
loop_
 _symmetry_equiv_pos_site_id
 _symmetry_equiv_pos_as_xyz
  1  'x, y, z'
loop_
 _atom_site_type_symbol
 _atom_site_label
 _atom_site_symmetry_multiplicity
 _atom_site_fract_x
 _atom_site_fract_y
 _atom_site_fract_z
 _atom_site_occupancy
  Li  Li0  1  0.18552925  0.03533568  0.74080889  1
  Li  Li1  1  0.48040599  0.63064870  0.59332024  1
  Li  Li2  1  0.81401482  0.96279591  0.25827610  1
  Mn  Mn3  1  0.99974108  0.99971494  0.00024596  1
  Mn  Mn4  1  0.33293165  0.33301714  0.66697681  1
  Mn  Mn5  1  0.66659700  0.66331175  0.33585221  1
  V  V6  1  0.16604949  0.65998559  0.33522568  1
  V  V7  1  0.49998625  0.00559391  0.99776892  1
  V  V8  1  0.83321783  0.33855576  0.66466140  1
  P  P9  1  0.04145095  0.26543403  0.40488208  1
  P  P10  1  0.29105946  0.05888759  0.25894110  1
  P  P11  1  0.37517391  0.60651862  0.07492756  1
  P  P12  1  0.62447659  0.39928914  0.92907773  1
  P  P13  1  0.70808723  0.93972327  0.74076285  1
  P  P14  1  0.95817584  0.73315910  0.59588382  1
  H  H15  1  0.09472696  0.74702305  0.89761533  1
  H  H16  1  0.23105889  0.56447907  0.78516202  1
  H  H17  1  0.43588664  0.10243513  0.54847258  1
  H  H18  1  0.57206328  0.91647809  0.43749996  1
  H  H19  1  0.76883073  0.43268639  0.21613354  1
  H  H20  1  0.90500046  0.25224498  0.10313818  1
  O  O21  1  0.05898214  0.12892699  0.22891413  1
  O  O22  1  0.07405092  0.18484731  0.67855918  1
  O  O23  1  0.06351585  0.68845419  0.59436707  1
  O  O24  1  0.09974848  0.45227536  0.27406876  1
  O  O25  1  0.26213742  0.12880277  0.97990807  1
  O  O26  1  0.10885954  0.82530704  0.02286760  1
  O  O27  1  0.27288869  0.20009647  0.43079305  1
  O  O28  1  0.22945157  0.50661636  0.63230273  1
  O  O29  1  0.39712591  0.01620391  0.26467941  1
  O  O30  1  0.23054116  0.88011748  0.40667435  1
  O  O31  1  0.26946669  0.64915157  0.06948591  1
  O  O32  1  0.43673927  0.15922762  0.70236826  1
  O  O33  1  0.39346859  0.46567035  0.90280873  1
  O  O34  1  0.40447811  0.53657030  0.35390066  1
  O  O35  1  0.43602819  0.78559646  0.92714784  1
  O  O36  1  0.56680031  0.21201768  0.06290563  1
  O  O37  1  0.59079710  0.47889165  0.65653847  1
  O  O38  1  0.60825687  0.53911389  0.10020986  1
  O  O39  1  0.55814783  0.83742068  0.31255441  1
  O  O40  1  0.72966007  0.35350253  0.92528286  1
  O  O41  1  0.76943850  0.11762574  0.59495756  1
  O  O42  1  0.60225821  0.98194622  0.73200834  1
  O  O43  1  0.77042058  0.48936608  0.36975508  1
  O  O44  1  0.72697247  0.79949077  0.56674623  1
  O  O45  1  0.89055862  0.17369207  0.97858073  1
  O  O46  1  0.73594764  0.87028933  0.02143078  1
  O  O47  1  0.90005490  0.54650486  0.72633409  1
  O  O48  1  0.93630530  0.31044255  0.40634167  1
  O  O49  1  0.92581856  0.81417176  0.32175299  1
  O  O50  1  0.94084718  0.87004315  0.77146162  1
