# generated using pymatgen
data_LiMnVP2(HO5)2
_symmetry_space_group_name_H-M   'P 1'
_cell_length_a   10.12545207
_cell_length_b   7.35176152
_cell_length_c   5.24430383
_cell_angle_alpha   76.07217041
_cell_angle_beta   80.67992196
_cell_angle_gamma   103.31880866
_symmetry_Int_Tables_number   1
_chemical_formula_structural   LiMnVP2(HO5)2
_chemical_formula_sum   'Li2 Mn2 V2 P4 H4 O20'
_cell_volume   358.81629964
_cell_formula_units_Z   2
loop_
 _symmetry_equiv_pos_site_id
 _symmetry_equiv_pos_as_xyz
  1  'x, y, z'
loop_
 _atom_site_type_symbol
 _atom_site_label
 _atom_site_symmetry_multiplicity
 _atom_site_fract_x
 _atom_site_fract_y
 _atom_site_fract_z
 _atom_site_occupancy
  Li  Li0  1  0.27866922  0.12923334  0.64609802  1
  Li  Li1  1  0.72133078  0.87076666  0.35390198  1
  Mn  Mn2  1  0.00000000  0.00000000  0.00000000  1
  Mn  Mn3  1  0.50000000  0.50000000  0.50000000  1
  V  V4  1  0.24986940  0.74344977  0.25171047  1
  V  V5  1  0.75013060  0.25655023  0.74828953  1
  P  P6  1  0.06242253  0.28758183  0.38242075  1
  P  P7  1  0.43660316  0.20456882  0.11209804  1
  P  P8  1  0.56339684  0.79543118  0.88790196  1
  P  P9  1  0.93757747  0.71241817  0.61757925  1
  H  H10  1  0.14151682  0.79493826  0.84963843  1
  H  H11  1  0.34695339  0.67903281  0.67107470  1
  H  H12  1  0.65304661  0.32096719  0.32892530  1
  H  H13  1  0.85848318  0.20506174  0.15036157  1
  O  O14  1  0.08875083  0.15914516  0.19850527  1
  O  O15  1  0.11150519  0.22293603  0.64047015  1
  O  O16  1  0.09544641  0.72004681  0.56354481  1
  O  O17  1  0.14987461  0.50358302  0.22306366  1
  O  O18  1  0.39359308  0.25994649  0.84597395  1
  O  O19  1  0.16314111  0.88061091  0.96763639  1
  O  O20  1  0.40859634  0.33607652  0.29257491  1
  O  O21  1  0.34460018  0.62063398  0.51857504  1
  O  O22  1  0.65416946  0.00509962  0.71093783  1
  O  O23  1  0.40433428  0.78453951  0.93455013  1
  O  O24  1  0.59566572  0.21546049  0.06544987  1
  O  O25  1  0.34583054  0.99490038  0.28906217  1
  O  O26  1  0.65539982  0.37936602  0.48142496  1
  O  O27  1  0.59140366  0.66392348  0.70742509  1
  O  O28  1  0.83685889  0.11938909  0.03236361  1
  O  O29  1  0.60640692  0.74005351  0.15402605  1
  O  O30  1  0.85012539  0.49641698  0.77693634  1
  O  O31  1  0.90455359  0.27995319  0.43645519  1
  O  O32  1  0.88849481  0.77706397  0.35952985  1
  O  O33  1  0.91124917  0.84085484  0.80149473  1
