# generated using pymatgen
data_LiMnVP2(HO5)2
_symmetry_space_group_name_H-M   'P 1'
_cell_length_a   10.11205758
_cell_length_b   8.11841113
_cell_length_c   7.35190962
_cell_angle_alpha   94.72498295
_cell_angle_beta   76.59941638
_cell_angle_gamma   68.76589137
_symmetry_Int_Tables_number   1
_chemical_formula_structural   LiMnVP2(HO5)2
_chemical_formula_sum   'Li3 Mn3 V3 P6 H6 O30'
_cell_volume   537.96971933
_cell_formula_units_Z   3
loop_
 _symmetry_equiv_pos_site_id
 _symmetry_equiv_pos_as_xyz
  1  'x, y, z'
loop_
 _atom_site_type_symbol
 _atom_site_label
 _atom_site_symmetry_multiplicity
 _atom_site_fract_x
 _atom_site_fract_y
 _atom_site_fract_z
 _atom_site_occupancy
  Li  Li0  1  0.83740409  0.76595242  0.01070724  1
  Li  Li1  1  0.49555730  0.56913417  0.65627598  1
  Li  Li2  1  0.16295388  0.23380228  0.98833201  1
  Mn  Mn3  1  0.66641182  0.66814946  0.33483226  1
  Mn  Mn4  1  0.33430637  0.33256744  0.66007706  1
  Mn  Mn5  1  0.99914890  0.00168816  0.00191429  1
  V  V6  1  0.33429543  0.83385565  0.17256943  1
  V  V7  1  0.66709310  0.16563302  0.83171948  1
  V  V8  1  0.00027051  0.49938749  0.49884251  1
  P  P9  1  0.47491258  0.92357592  0.75798982  1
  P  P10  1  0.85919312  0.41030692  0.91274482  1
  P  P11  1  0.80712596  0.25759639  0.42163380  1
  P  P12  1  0.19240780  0.74442489  0.58278333  1
  P  P13  1  0.14066345  0.59048710  0.08591227  1
  P  P14  1  0.52624950  0.07666489  0.24326839  1
  H  H15  1  0.91025621  0.89758881  0.74452699  1
  H  H16  1  0.76250364  0.77716828  0.57320594  1
  H  H17  1  0.57126837  0.55554182  0.09482965  1
  H  H18  1  0.42223506  0.43591303  0.91873757  1
  H  H19  1  0.23746300  0.22289756  0.42367528  1
  H  H20  1  0.09046552  0.10234508  0.25644974  1
  O  O21  1  0.65849180  0.90011041  0.20881594  1
  O  O22  1  0.85034814  0.97600862  0.86985719  1
  O  O23  1  0.82366100  0.53675292  0.10353584  1
  O  O24  1  0.81637999  0.67505862  0.46393933  1
  O  O25  1  0.61971198  0.95199757  0.76231276  1
  O  O26  1  0.89096871  0.52883800  0.76219525  1
  O  O27  1  0.95044259  0.28945079  0.43330305  1
  O  O28  1  0.51744691  0.65763535  0.20371859  1
  O  O29  1  0.50660249  0.80273078  0.56505516  1
  O  O30  1  0.84135722  0.14374603  0.22629826  1
  O  O31  1  0.67457674  0.43376030  0.45616435  1
  O  O32  1  0.99397075  0.23881248  0.88955860  1
  O  O33  1  0.22479112  0.85470666  0.42358091  1
  O  O34  1  0.44211252  0.80397983  0.90633343  1
  O  O35  1  0.28131409  0.62536169  0.09565931  1
  O  O36  1  0.71802390  0.37658587  0.90369761  1
  O  O37  1  0.55941363  0.18824935  0.08576705  1
  O  O38  1  0.77376850  0.14567077  0.57870815  1
  O  O39  1  0.00561580  0.76169229  0.10933078  1
  O  O40  1  0.32808743  0.57372830  0.55944211  1
  O  O41  1  0.15467226  0.86374725  0.77618752  1
  O  O42  1  0.49312227  0.18912162  0.43884338  1
  O  O43  1  0.48298838  0.35724507  0.79344618  1
  O  O44  1  0.05256156  0.70713022  0.56749250  1
  O  O45  1  0.10902647  0.47176251  0.23634578  1
  O  O46  1  0.38273753  0.04513583  0.23241766  1
  O  O47  1  0.18436003  0.32449694  0.53294456  1
  O  O48  1  0.17772261  0.46279509  0.89516577  1
  O  O49  1  0.14995666  0.02385011  0.13089609  1
  O  O50  1  0.34415331  0.10131094  0.79285104  1
