# generated using pymatgen
data_Li3CrCo3O8
_symmetry_space_group_name_H-M   'P 1'
_cell_length_a   5.71030712
_cell_length_b   5.71030762
_cell_length_c   5.80360752
_cell_angle_alpha   61.11179822
_cell_angle_beta   61.11179516
_cell_angle_gamma   60.27254406
_symmetry_Int_Tables_number   1
_chemical_formula_structural   Li3CrCo3O8
_chemical_formula_sum   'Li3 Cr1 Co3 O8'
_cell_volume   136.30596941
_cell_formula_units_Z   1
loop_
 _symmetry_equiv_pos_site_id
 _symmetry_equiv_pos_as_xyz
  1  'x, y, z'
loop_
 _atom_site_type_symbol
 _atom_site_label
 _atom_site_symmetry_multiplicity
 _atom_site_fract_x
 _atom_site_fract_y
 _atom_site_fract_z
 _atom_site_occupancy
  Li  Li0  1  0.00000000  0.50000000  0.50000000  1
  Li  Li1  1  0.50000000  0.00000000  0.50000000  1
  Li  Li2  1  0.50000000  0.50000000  0.50000000  1
  Cr  Cr3  1  0.00000000  0.00000000  0.00000000  1
  Co  Co4  1  0.00000000  0.50000000  0.00000000  1
  Co  Co5  1  0.50000000  0.00000000  0.00000000  1
  Co  Co6  1  0.50000000  0.50000000  0.00000000  1
  O  O7  1  0.26858689  0.26858689  0.20653280  1
  O  O8  1  0.27585836  0.74940647  0.21385654  1
  O  O9  1  0.24449737  0.24449737  0.77712530  1
  O  O10  1  0.25059353  0.72414164  0.78614346  1
  O  O11  1  0.74940647  0.27585836  0.21385654  1
  O  O12  1  0.75550263  0.75550263  0.22287470  1
  O  O13  1  0.72414164  0.25059353  0.78614346  1
  O  O14  1  0.73141311  0.73141311  0.79346720  1
