# generated using pymatgen
data_NaCr2O4
_symmetry_space_group_name_H-M   'P 1'
_cell_length_a   9.06493352
_cell_length_b   10.61801205
_cell_length_c   2.97350116
_cell_angle_alpha   90.00015007
_cell_angle_beta   89.99993890
_cell_angle_gamma   90.00269599
_symmetry_Int_Tables_number   1
_chemical_formula_structural   NaCr2O4
_chemical_formula_sum   'Na4 Cr8 O16'
_cell_volume   286.20416484
_cell_formula_units_Z   4
loop_
 _symmetry_equiv_pos_site_id
 _symmetry_equiv_pos_as_xyz
  1  'x, y, z'
loop_
 _atom_site_type_symbol
 _atom_site_label
 _atom_site_symmetry_multiplicity
 _atom_site_fract_x
 _atom_site_fract_y
 _atom_site_fract_z
 _atom_site_occupancy
  Na  Na0  1  0.24316494  0.34721535  0.75000057  1
  Na  Na1  1  0.25683274  0.84720124  0.24999782  1
  Na  Na2  1  0.74318063  0.15279173  0.75000388  1
  Na  Na3  1  0.75682345  0.65279435  0.24999591  1
  Cr  Cr4  1  0.06411663  0.11270025  0.75001159  1
  Cr  Cr5  1  0.08057628  0.60492931  0.75000597  1
  Cr  Cr6  1  0.41939222  0.10494343  0.25000290  1
  Cr  Cr7  1  0.43587524  0.61269128  0.24999618  1
  Cr  Cr8  1  0.56413065  0.38729125  0.75000340  1
  Cr  Cr9  1  0.58061169  0.89507470  0.74999728  1
  Cr  Cr10  1  0.91940102  0.39507136  0.24999734  1
  Cr  Cr11  1  0.93588122  0.88730293  0.25000230  1
  O  O12  1  0.02125482  0.71548065  0.24999128  1
  O  O13  1  0.07552481  0.92753150  0.75000149  1
  O  O14  1  0.11274966  0.48235556  0.25000056  1
  O  O15  1  0.20591444  0.14874178  0.25000087  1
  O  O16  1  0.29409869  0.64874776  0.74999625  1
  O  O17  1  0.38725719  0.98236539  0.75000495  1
  O  O18  1  0.42448227  0.42751944  0.25000072  1
  O  O19  1  0.47874402  0.21546013  0.75000004  1
  O  O20  1  0.52125983  0.78452220  0.24999995  1
  O  O21  1  0.57552087  0.57247338  0.74999759  1
  O  O22  1  0.61275007  0.01764176  0.24999719  1
  O  O23  1  0.70591167  0.35125265  0.24999980  1
  O  O24  1  0.79409975  0.85125477  0.74999986  1
  O  O25  1  0.88723181  0.51763687  0.74999850  1
  O  O26  1  0.92447505  0.07247303  0.25000167  1
  O  O27  1  0.97873836  0.28453595  0.74999415  1
