# generated using pymatgen
data_LiMnVP2(HO5)2
_symmetry_space_group_name_H-M   'P 1'
_cell_length_a   8.13171635
_cell_length_b   7.41918329
_cell_length_c   6.79125285
_cell_angle_alpha   117.76442176
_cell_angle_beta   88.80623270
_cell_angle_gamma   86.47999541
_symmetry_Int_Tables_number   1
_chemical_formula_structural   LiMnVP2(HO5)2
_chemical_formula_sum   'Li2 Mn2 V2 P4 H4 O20'
_cell_volume   361.29872210
_cell_formula_units_Z   2
loop_
 _symmetry_equiv_pos_site_id
 _symmetry_equiv_pos_as_xyz
  1  'x, y, z'
loop_
 _atom_site_type_symbol
 _atom_site_label
 _atom_site_symmetry_multiplicity
 _atom_site_fract_x
 _atom_site_fract_y
 _atom_site_fract_z
 _atom_site_occupancy
  Li  Li0  1  0.31418330  0.85063780  0.09471780  1
  Li  Li1  1  0.68581670  0.14936220  0.90528220  1
  Mn  Mn2  1  0.00000000  0.00000000  0.00000000  1
  Mn  Mn3  1  0.50000000  0.00000000  0.50000000  1
  V  V4  1  0.00000000  0.50000000  0.00000000  1
  V  V5  1  0.50000000  0.50000000  0.50000000  1
  P  P6  1  0.16095107  0.77012338  0.48368499  1
  P  P7  1  0.33935547  0.22788550  0.01540835  1
  P  P8  1  0.66064453  0.77211450  0.98459165  1
  P  P9  1  0.83904893  0.22987662  0.51631501  1
  H  H10  1  0.14787616  0.65333849  0.78831849  1
  H  H11  1  0.66079739  0.66397069  0.31198592  1
  H  H12  1  0.33920261  0.33602931  0.68801408  1
  H  H13  1  0.85212384  0.34666151  0.21168151  1
  O  O14  1  0.03525609  0.64581468  0.30723646  1
  O  O15  1  0.23527363  0.11495165  0.10379190  1
  O  O16  1  0.26979272  0.87116212  0.38521493  1
  O  O17  1  0.06284532  0.93105056  0.69643375  1
  O  O18  1  0.55176010  0.92819202  0.19460582  1
  O  O19  1  0.26518664  0.62021388  0.54513874  1
  O  O20  1  0.47274950  0.34627588  0.17983411  1
  O  O21  1  0.76564941  0.62575101  0.04836969  1
  O  O22  1  0.10013149  0.71796052  0.94552212  1
  O  O23  1  0.58422384  0.71819899  0.44680032  1
  O  O24  1  0.41577616  0.28180101  0.55319968  1
  O  O25  1  0.89986851  0.28203948  0.05447788  1
  O  O26  1  0.23435059  0.37424899  0.95163031  1
  O  O27  1  0.52725050  0.65372412  0.82016589  1
  O  O28  1  0.73481336  0.37978612  0.45486126  1
  O  O29  1  0.44823990  0.07180798  0.80539418  1
  O  O30  1  0.93715468  0.06894944  0.30356625  1
  O  O31  1  0.73020728  0.12883788  0.61478507  1
  O  O32  1  0.76472637  0.88504835  0.89620810  1
  O  O33  1  0.96474391  0.35418532  0.69276354  1
