# generated using pymatgen
data_Li4Mn3Ni3(WO8)2
_symmetry_space_group_name_H-M   'P 1'
_cell_length_a   5.97477761
_cell_length_b   5.87923273
_cell_length_c   9.75196812
_cell_angle_alpha   90.00086865
_cell_angle_beta   88.85342501
_cell_angle_gamma   119.47042766
_symmetry_Int_Tables_number   1
_chemical_formula_structural   Li4Mn3Ni3(WO8)2
_chemical_formula_sum   'Li4 Mn3 Ni3 W2 O16'
_cell_volume   298.15598602
_cell_formula_units_Z   1
loop_
 _symmetry_equiv_pos_site_id
 _symmetry_equiv_pos_as_xyz
  1  'x, y, z'
loop_
 _atom_site_type_symbol
 _atom_site_label
 _atom_site_symmetry_multiplicity
 _atom_site_fract_x
 _atom_site_fract_y
 _atom_site_fract_z
 _atom_site_occupancy
  Li  Li0  1  0.31943449  0.65973658  0.90490503  1
  Li  Li1  1  0.99536975  0.99767333  0.98599895  1
  Li  Li2  1  0.01394261  0.00699017  0.49179683  1
  Li  Li3  1  0.67924695  0.33964302  0.41327765  1
  Mn  Mn4  1  0.17466519  0.83508959  0.21545936  1
  Mn  Mn5  1  0.17464523  0.33957379  0.21543900  1
  Mn  Mn6  1  0.34496942  0.17248493  0.71517150  1
  Ni  Ni7  1  0.65807964  0.82905493  0.21334159  1
  Ni  Ni8  1  0.83508790  0.66357376  0.71226378  1
  Ni  Ni9  1  0.83514106  0.17159759  0.71225427  1
  W  W10  1  0.36641039  0.68320635  0.48927347  1
  W  W11  1  0.66713392  0.33357853  0.98200753  1
  O  O12  1  0.19090248  0.84266198  0.59186612  1
  O  O13  1  0.04960545  0.52480975  0.34529017  1
  O  O14  1  0.31884628  0.65942581  0.11171533  1
  O  O15  1  0.00364249  0.00183648  0.30272660  1
  O  O16  1  0.01480981  0.00741679  0.80075615  1
  O  O17  1  0.19090687  0.34825712  0.59186604  1
  O  O18  1  0.49285595  0.97025548  0.35736771  1
  O  O19  1  0.49284823  0.52261550  0.35734702  1
  O  O20  1  0.32354240  0.16174960  0.09207286  1
  O  O21  1  0.66769120  0.83384778  0.58956902  1
  O  O22  1  0.49237416  0.45953999  0.84345428  1
  O  O23  1  0.49241688  0.03287593  0.84344709  1
  O  O24  1  0.65787516  0.32896100  0.61304291  1
  O  O25  1  0.79816167  0.64546244  0.08075408  1
  O  O26  1  0.95117607  0.47561283  0.85461671  1
  O  O27  1  0.79821835  0.15276795  0.08075996  1
