# generated using pymatgen
data_LiFe(SiO3)2
_symmetry_space_group_name_H-M   'P 1'
_cell_length_a   8.88891371
_cell_length_b   5.11468379
_cell_length_c   7.85830093
_cell_angle_alpha   89.24041715
_cell_angle_beta   114.71661476
_cell_angle_gamma   90.46515120
_symmetry_Int_Tables_number   1
_chemical_formula_structural   LiFe(SiO3)2
_chemical_formula_sum   'Li2 Fe2 Si4 O12'
_cell_volume   324.50927795
_cell_formula_units_Z   2
loop_
 _symmetry_equiv_pos_site_id
 _symmetry_equiv_pos_as_xyz
  1  'x, y, z'
loop_
 _atom_site_type_symbol
 _atom_site_label
 _atom_site_symmetry_multiplicity
 _atom_site_fract_x
 _atom_site_fract_y
 _atom_site_fract_z
 _atom_site_occupancy
  Li  Li0  1  0.30099232  0.36278273  0.12990707  1
  Li  Li1  1  0.71402722  0.86390438  0.90927694  1
  Fe  Fe2  1  0.37770083  0.87277707  0.93613431  1
  Fe  Fe3  1  0.89744651  0.35303783  0.90883228  1
  Si  Si4  1  0.09604948  0.81559516  0.50281452  1
  Si  Si5  1  0.10564014  0.85334417  0.10520352  1
  Si  Si6  1  0.62025621  0.37232051  0.07241349  1
  Si  Si7  1  0.88608356  0.31262018  0.48909779  1
  O  O8  1  0.03854135  0.52458808  0.54396845  1
  O  O9  1  0.25752973  0.91432636  0.68217577  1
  O  O10  1  0.14378973  0.79159181  0.32327233  1
  O  O11  1  0.09688194  0.17003583  0.06210004  1
  O  O12  1  0.56567698  0.66286976  0.97469425  1
  O  O13  1  0.25915363  0.72583987  0.06916670  1
  O  O14  1  0.72486904  0.22282612  0.97245823  1
  O  O15  1  0.45373172  0.20564980  0.04747452  1
  O  O16  1  0.82448064  0.29281346  0.65659661  1
  O  O17  1  0.92842175  0.71642246  0.96621777  1
  O  O18  1  0.73285319  0.41158131  0.29629743  1
  O  O19  1  0.94337503  0.02357212  0.45089898  1
