# generated using pymatgen
data_Li2Mn(PO4)2
_symmetry_space_group_name_H-M   'P 1'
_cell_length_a   7.56601883
_cell_length_b   7.82299310
_cell_length_c   5.03794608
_cell_angle_alpha   90.00000000
_cell_angle_beta   94.09161606
_cell_angle_gamma   90.00000000
_symmetry_Int_Tables_number   1
_chemical_formula_structural   Li2Mn(PO4)2
_chemical_formula_sum   'Li4 Mn2 P4 O16'
_cell_volume   297.43053489
_cell_formula_units_Z   2
loop_
 _symmetry_equiv_pos_site_id
 _symmetry_equiv_pos_as_xyz
  1  'x, y, z'
loop_
 _atom_site_type_symbol
 _atom_site_label
 _atom_site_symmetry_multiplicity
 _atom_site_fract_x
 _atom_site_fract_y
 _atom_site_fract_z
 _atom_site_occupancy
  Li  Li0  1  0.09435448  0.36398081  0.59445681  1
  Li  Li1  1  0.40564552  0.86398081  0.90554319  1
  Li  Li2  1  0.59435448  0.13601919  0.09445681  1
  Li  Li3  1  0.90564552  0.63601919  0.40554319  1
  Mn  Mn4  1  0.00000000  0.00000000  0.50000000  1
  Mn  Mn5  1  0.50000000  0.50000000  0.00000000  1
  P  P6  1  0.19944395  0.18891587  0.03740888  1
  P  P7  1  0.30055605  0.68891587  0.46259112  1
  P  P8  1  0.69944395  0.31108413  0.53740888  1
  P  P9  1  0.80055605  0.81108413  0.96259112  1
  O  O10  1  0.05318556  0.14099919  0.81221189  1
  O  O11  1  0.09957772  0.19306715  0.29968681  1
  O  O12  1  0.14812006  0.56754182  0.43725314  1
  O  O13  1  0.24387818  0.87485667  0.53976464  1
  O  O14  1  0.25612182  0.37485667  0.96023536  1
  O  O15  1  0.35187994  0.06754182  0.06274686  1
  O  O16  1  0.40042228  0.69306715  0.20031319  1
  O  O17  1  0.44681444  0.64099919  0.68778811  1
  O  O18  1  0.55318556  0.35900081  0.31221189  1
  O  O19  1  0.59957672  0.30693285  0.79968681  1
  O  O20  1  0.64812006  0.93245818  0.93725314  1
  O  O21  1  0.74387818  0.62514333  0.03976464  1
  O  O22  1  0.75612182  0.12514333  0.46023536  1
  O  O23  1  0.85187994  0.43245818  0.56274686  1
  O  O24  1  0.90042328  0.80693285  0.70031319  1
  O  O25  1  0.94681444  0.85900081  0.18778811  1
