# generated using pymatgen
data_LiMnVP2(HO5)2
_symmetry_space_group_name_H-M   'P 1'
_cell_length_a   7.43211360
_cell_length_b   7.99028170
_cell_length_c   6.78567390
_cell_angle_alpha   90.01571677
_cell_angle_beta   88.88837483
_cell_angle_gamma   116.45600771
_symmetry_Int_Tables_number   1
_chemical_formula_structural   LiMnVP2(HO5)2
_chemical_formula_sum   'Li2 Mn2 V2 P4 H4 O20'
_cell_volume   360.68158400
_cell_formula_units_Z   2
loop_
 _symmetry_equiv_pos_site_id
 _symmetry_equiv_pos_as_xyz
  1  'x, y, z'
loop_
 _atom_site_type_symbol
 _atom_site_label
 _atom_site_symmetry_multiplicity
 _atom_site_fract_x
 _atom_site_fract_y
 _atom_site_fract_z
 _atom_site_occupancy
  Li  Li0  1  0.38317153  0.23833220  0.17333928  1
  Li  Li1  1  0.61682847  0.76166780  0.82666072  1
  Mn  Mn2  1  0.00000000  0.00000000  0.00000000  1
  Mn  Mn3  1  0.50000000  0.50000000  0.50000000  1
  V  V4  1  0.25043971  0.75000229  0.25489914  1
  V  V5  1  0.74956029  0.24999771  0.74510086  1
  P  P6  1  0.27479438  0.04892174  0.60035127  1
  P  P7  1  0.77683712  0.54558150  0.09966333  1
  P  P8  1  0.22316288  0.45441850  0.90033667  1
  P  P9  1  0.72520562  0.95107826  0.39964873  1
  H  H10  1  0.68058474  0.02510933  0.03524080  1
  H  H11  1  0.16606985  0.50256643  0.51607216  1
  H  H12  1  0.83393015  0.49743357  0.48392784  1
  H  H13  1  0.31941526  0.97489067  0.96475920  1
  O  O14  1  0.17943818  0.29529205  0.04446516  1
  O  O15  1  0.29128435  0.64669225  0.00809794  1
  O  O16  1  0.33405709  0.20902106  0.45328463  1
  O  O17  1  0.09427679  0.02775086  0.73104706  1
  O  O18  1  0.23820611  0.95975354  0.08779398  1
  O  O19  1  0.58844429  0.51036644  0.23122164  1
  O  O20  1  0.27080262  0.55504197  0.41032902  1
  O  O21  1  0.45328446  0.07733914  0.73868336  1
  O  O22  1  0.78712451  0.13834992  0.51415141  1
  O  O23  1  0.04408315  0.41890301  0.76297640  1
  O  O24  1  0.95591685  0.58109699  0.23702360  1
  O  O25  1  0.21287549  0.86165008  0.48584859  1
  O  O26  1  0.54671554  0.92266086  0.26131664  1
  O  O27  1  0.72919738  0.44495803  0.58967098  1
  O  O28  1  0.41155571  0.48963356  0.76877836  1
  O  O29  1  0.76179389  0.04024646  0.91220602  1
  O  O30  1  0.90572321  0.97224914  0.26895294  1
  O  O31  1  0.66594291  0.79097894  0.54671537  1
  O  O32  1  0.70871565  0.35330775  0.99190206  1
  O  O33  1  0.82056182  0.70470795  0.95553484  1
