# generated using pymatgen
data_NaPH3C2N3O4
_symmetry_space_group_name_H-M   'P 1'
_cell_length_a   6.97589319
_cell_length_b   12.47153295
_cell_length_c   7.08762319
_cell_angle_alpha   90.00000000
_cell_angle_beta   104.22327192
_cell_angle_gamma   90.00000000
_symmetry_Int_Tables_number   1
_chemical_formula_structural   NaPH3C2N3O4
_chemical_formula_sum   'Na4 P4 H12 C8 N12 O16'
_cell_volume   597.72158458
_cell_formula_units_Z   4
loop_
 _symmetry_equiv_pos_site_id
 _symmetry_equiv_pos_as_xyz
  1  'x, y, z'
loop_
 _atom_site_type_symbol
 _atom_site_label
 _atom_site_symmetry_multiplicity
 _atom_site_fract_x
 _atom_site_fract_y
 _atom_site_fract_z
 _atom_site_occupancy
  Na  Na0  1  0.24977890  0.55293156  0.89813276  1
  Na  Na1  1  0.25022110  0.05293156  0.60186724  1
  Na  Na2  1  0.74977890  0.94706844  0.39813276  1
  Na  Na3  1  0.75022110  0.44706844  0.10186724  1
  P  P4  1  0.20528629  0.57875867  0.38392444  1
  P  P5  1  0.29471371  0.07875867  0.11607556  1
  P  P6  1  0.70528629  0.92124133  0.88392444  1
  P  P7  1  0.79471371  0.42124133  0.61607556  1
  H  H8  1  0.03608402  0.92475490  0.85637828  1
  H  H9  1  0.93493290  0.69213356  0.38569955  1
  H  H10  1  0.07533254  0.37965555  0.01201896  1
  H  H11  1  0.42466746  0.87965555  0.48798104  1
  H  H12  1  0.46391598  0.42475490  0.64362172  1
  H  H13  1  0.43493290  0.80786644  0.88569955  1
  H  H14  1  0.56506710  0.19213356  0.11430045  1
  H  H15  1  0.53608402  0.57524510  0.35637828  1
  H  H16  1  0.57533254  0.12034445  0.51201896  1
  H  H17  1  0.06506710  0.30786644  0.61430045  1
  H  H18  1  0.92466746  0.62034445  0.98798104  1
  H  H19  1  0.96391598  0.07524510  0.14362172  1
  C  C20  1  0.00658254  0.23144219  0.09870599  1
  C  C21  1  0.16544108  0.79622285  0.43955260  1
  C  C22  1  0.33455892  0.29622285  0.06044740  1
  C  C23  1  0.50658254  0.26855781  0.59870599  1
  C  C24  1  0.49341746  0.73144219  0.40129401  1
  C  C25  1  0.66544108  0.70377715  0.93955260  1
  C  C26  1  0.83455892  0.20377715  0.56044740  1
  C  C27  1  0.99341746  0.76855781  0.90129401  1
  N  N28  1  0.08466475  0.69685328  0.39802107  1
  N  N29  1  0.07469852  0.13007155  0.13929562  1
  N  N30  1  0.13551188  0.30571897  0.05282996  1
  N  N31  1  0.36448812  0.80571897  0.44717004  1
  N  N32  1  0.42530148  0.63007155  0.36070438  1
  N  N33  1  0.58466475  0.80314672  0.89802107  1
  N  N34  1  0.41533525  0.19685328  0.10197893  1
  N  N35  1  0.57469852  0.36992845  0.63929562  1
  N  N36  1  0.63551188  0.19428103  0.55282996  1
  N  N37  1  0.86448812  0.69428103  0.94717004  1
  N  N38  1  0.92530148  0.86992845  0.86070438  1
  N  N39  1  0.91533525  0.30314672  0.60197893  1
  O  O40  1  0.16464234  0.73953065  0.89958294  1
  O  O41  1  0.07201291  0.87740428  0.46801205  1
  O  O42  1  0.25740662  0.01675569  0.92858210  1
  O  O43  1  0.10085724  0.52508669  0.19611453  1
  O  O44  1  0.24259338  0.51675569  0.57141790  1
  O  O45  1  0.33535766  0.23953065  0.60041706  1
  O  O46  1  0.57201291  0.62259572  0.96801205  1
  O  O47  1  0.39914276  0.02508669  0.30388547  1
  O  O48  1  0.60085724  0.97491331  0.69611453  1
  O  O49  1  0.42798709  0.37740428  0.03198795  1
  O  O50  1  0.66464234  0.76046935  0.39958294  1
  O  O51  1  0.75740662  0.48324431  0.42858210  1
  O  O52  1  0.89914276  0.47491331  0.80388547  1
  O  O53  1  0.74259338  0.98324431  0.07141790  1
  O  O54  1  0.92798709  0.12259572  0.53198795  1
  O  O55  1  0.83535766  0.26046935  0.10041706  1
