# generated using pymatgen
data_K2MoH2S2O9
_symmetry_space_group_name_H-M   'P 1'
_cell_length_a   10.13282641
_cell_length_b   10.13282641
_cell_length_c   10.22661839
_cell_angle_alpha   85.69463010
_cell_angle_beta   94.30536990
_cell_angle_gamma   118.76602696
_symmetry_Int_Tables_number   1
_chemical_formula_structural   K2MoH2S2O9
_chemical_formula_sum   'K8 Mo4 H8 S8 O36'
_cell_volume   916.92141132
_cell_formula_units_Z   4
loop_
 _symmetry_equiv_pos_site_id
 _symmetry_equiv_pos_as_xyz
  1  'x, y, z'
loop_
 _atom_site_type_symbol
 _atom_site_label
 _atom_site_symmetry_multiplicity
 _atom_site_fract_x
 _atom_site_fract_y
 _atom_site_fract_z
 _atom_site_occupancy
  K  K0  1  0.65213204  0.65213204  0.75000000  1
  K  K1  1  0.34786796  0.34786796  0.25000000  1
  K  K2  1  0.78333333  0.49409934  0.09034913  1
  K  K3  1  0.49409934  0.78333333  0.40965087  1
  K  K4  1  0.21666667  0.50590066  0.90965087  1
  K  K5  1  0.50590066  0.21666667  0.59034913  1
  K  K6  1  0.93046261  0.93046261  0.25000000  1
  K  K7  1  0.06953739  0.06953739  0.75000000  1
  Mo  Mo8  1  0.95551351  0.45881882  0.59875903  1
  Mo  Mo9  1  0.45881882  0.95551351  0.90124097  1
  Mo  Mo10  1  0.04448649  0.54118118  0.40124097  1
  Mo  Mo11  1  0.54118118  0.04448649  0.09875903  1
  H  H12  1  0.97792782  0.79299133  0.93362087  1
  H  H13  1  0.79299133  0.97792782  0.56637913  1
  H  H14  1  0.02207218  0.20700867  0.06637913  1
  H  H15  1  0.20700867  0.02207218  0.43362087  1
  H  H16  1  0.99530695  0.71634039  0.81305055  1
  H  H17  1  0.71634039  0.99530695  0.68694945  1
  H  H18  1  0.00469305  0.28365961  0.18694945  1
  H  H19  1  0.28365961  0.00469305  0.31305055  1
  S  S20  1  0.24970982  0.42020524  0.56711146  1
  S  S21  1  0.42020524  0.24970982  0.93288854  1
  S  S22  1  0.75029018  0.57979476  0.43288854  1
  S  S23  1  0.57979476  0.75029018  0.06711146  1
  S  S24  1  0.78457301  0.19263449  0.39520999  1
  S  S25  1  0.19263449  0.78457301  0.10479001  1
  S  S26  1  0.21542699  0.80736551  0.60479001  1
  S  S27  1  0.80736551  0.21542699  0.89520999  1
  O  O28  1  0.11072384  0.36896331  0.64842706  1
  O  O29  1  0.36896331  0.11072384  0.85157294  1
  O  O30  1  0.88927616  0.63103669  0.35157294  1
  O  O31  1  0.63103669  0.88927616  0.14842706  1
  O  O32  1  0.21150223  0.46420862  0.42828765  1
  O  O33  1  0.46420862  0.21150223  0.07171235  1
  O  O34  1  0.78849777  0.53579138  0.57171235  1
  O  O35  1  0.53579138  0.78849777  0.92828765  1
  O  O36  1  0.27795092  0.29152231  0.55980486  1
  O  O37  1  0.29152231  0.27795092  0.94019514  1
  O  O38  1  0.72204908  0.70847769  0.44019514  1
  O  O39  1  0.70847769  0.72204908  0.05980486  1
  O  O40  1  0.37749843  0.55202919  0.62479745  1
  O  O41  1  0.55202919  0.37749843  0.87520255  1
  O  O42  1  0.62250157  0.44797081  0.37520255  1
  O  O43  1  0.44797081  0.62250157  0.12479745  1
  O  O44  1  0.78363083  0.24404067  0.53103210  1
  O  O45  1  0.24404067  0.78363083  0.96896790  1
  O  O46  1  0.21636917  0.75595933  0.46896790  1
  O  O47  1  0.75595933  0.21636917  0.03103210  1
  O  O48  1  0.88081597  0.33257238  0.30985246  1
  O  O49  1  0.33257238  0.88081597  0.19014754  1
  O  O50  1  0.11918403  0.66742762  0.69014754  1
  O  O51  1  0.66742762  0.11918403  0.80985246  1
  O  O52  1  0.85052335  0.09010545  0.40575569  1
  O  O53  1  0.09010545  0.85052335  0.09424431  1
  O  O54  1  0.14947665  0.90989455  0.59424431  1
  O  O55  1  0.90989455  0.14947665  0.90575569  1
  O  O56  1  0.62777751  0.11856132  0.34122737  1
  O  O57  1  0.11856132  0.62777751  0.15877263  1
  O  O58  1  0.37222249  0.88143868  0.65877263  1
  O  O59  1  0.88143868  0.37222249  0.84122737  1
  O  O60  1  0.93024559  0.75062244  0.84851128  1
  O  O61  1  0.75062244  0.93024559  0.65148872  1
  O  O62  1  0.06975441  0.24937756  0.15148872  1
  O  O63  1  0.24937756  0.06975441  0.34851128  1
