# generated using pymatgen
data_LiMnVP2(HO5)2
_symmetry_space_group_name_H-M   'P 1'
_cell_length_a   7.44397966
_cell_length_b   11.32063386
_cell_length_c   6.79434581
_cell_angle_alpha   73.04740117
_cell_angle_beta   88.85579690
_cell_angle_gamma   81.35157958
_symmetry_Int_Tables_number   1
_chemical_formula_structural   LiMnVP2(HO5)2
_chemical_formula_sum   'Li3 Mn3 V3 P6 H6 O30'
_cell_volume   541.28343329
_cell_formula_units_Z   3
loop_
 _symmetry_equiv_pos_site_id
 _symmetry_equiv_pos_as_xyz
  1  'x, y, z'
loop_
 _atom_site_type_symbol
 _atom_site_label
 _atom_site_symmetry_multiplicity
 _atom_site_fract_x
 _atom_site_fract_y
 _atom_site_fract_z
 _atom_site_occupancy
  Li  Li0  1  0.69623055  0.15820611  0.74646882  1
  Li  Li1  1  0.64062714  0.50700314  0.91998526  1
  Li  Li2  1  0.30403059  0.84035359  0.25322895  1
  Mn  Mn3  1  0.66824224  0.33317456  0.33350972  1
  Mn  Mn4  1  0.32982721  0.66443530  0.67010470  1
  Mn  Mn5  1  0.00150728  0.99948783  0.99968098  1
  V  V6  1  0.66638809  0.83490241  0.83065545  1
  V  V7  1  0.33592993  0.16619482  0.17114527  1
  V  V8  1  0.00034050  0.50129821  0.49716384  1
  P  P9  1  0.92883068  0.30172549  0.94924119  1
  P  P10  1  0.74234462  0.03031974  0.38273301  1
  P  P11  1  0.40600695  0.36265004  0.71781099  1
  P  P12  1  0.59466864  0.63706606  0.28246543  1
  P  P13  1  0.25985423  0.96792379  0.61649111  1
  P  P14  1  0.07393834  0.69902145  0.04972361  1
  H  H15  1  0.33081713  0.01682830  0.95724308  1
  H  H16  1  0.99914843  0.33530845  0.31620269  1
  H  H17  1  0.66204421  0.68186517  0.62639581  1
  H  H18  1  0.33473776  0.33234578  0.34925080  1
  H  H19  1  0.00004075  0.66300902  0.68870100  1
  H  H20  1  0.67000147  0.98386032  0.04260727  1
  O  O21  1  0.92021980  0.19384245  0.86055922  1
  O  O22  1  0.40945154  0.23476901  0.88975819  1
  O  O23  1  0.92234588  0.42922095  0.77666166  1
  O  O24  1  0.90348821  0.72097891  0.90365008  1
  O  O25  1  0.73730670  0.13595744  0.47870059  1
  O  O26  1  0.91546372  0.01532323  0.26021065  1
  O  O27  1  0.41825308  0.46948494  0.80735977  1
  O  O28  1  0.58235392  0.33829550  0.59919860  1
  O  O29  1  0.91131305  0.36894621  0.40524151  1
  O  O30  1  0.57437225  0.05093679  0.23379250  1
  O  O31  1  0.26076194  0.09316486  0.44093571  1
  O  O32  1  0.74533886  0.97268299  0.92411905  1
  O  O33  1  0.24721380  0.68176883  0.92734176  1
  O  O34  1  0.58580687  0.69311363  0.74422804  1
  O  O35  1  0.23858394  0.38722832  0.56897397  1
  O  O36  1  0.75936171  0.61547299  0.43438861  1
  O  O37  1  0.42245793  0.29764403  0.26099532  1
  O  O38  1  0.75237367  0.32513850  0.06851359  1
  O  O39  1  0.25684222  0.02710707  0.07638937  1
  O  O40  1  0.73756582  0.90412049  0.55868836  1
  O  O41  1  0.42801027  0.94907009  0.76592413  1
  O  O42  1  0.08697692  0.62990093  0.59847085  1
  O  O43  1  0.41793603  0.65785473  0.40103111  1
  O  O44  1  0.59784099  0.53113812  0.18791307  1
  O  O45  1  0.08663844  0.98197527  0.74025274  1
  O  O46  1  0.26879383  0.86094523  0.52270825  1
  O  O47  1  0.09657003  0.27827080  0.09711162  1
  O  O48  1  0.06986722  0.57405494  0.22498389  1
  O  O49  1  0.58916411  0.76578831  0.10961474  1
  O  O50  1  0.07970849  0.80635688  0.14084103  1
