# generated using pymatgen
data_Li3VOF5
_symmetry_space_group_name_H-M   'P 1'
_cell_length_a   5.07355586
_cell_length_b   5.28982479
_cell_length_c   7.69077472
_cell_angle_alpha   90.00000000
_cell_angle_beta   90.35477696
_cell_angle_gamma   90.00000000
_symmetry_Int_Tables_number   1
_chemical_formula_structural   Li3VOF5
_chemical_formula_sum   'Li6 V2 O2 F10'
_cell_volume   206.40275909
_cell_formula_units_Z   2
loop_
 _symmetry_equiv_pos_site_id
 _symmetry_equiv_pos_as_xyz
  1  'x, y, z'
loop_
 _atom_site_type_symbol
 _atom_site_label
 _atom_site_symmetry_multiplicity
 _atom_site_fract_x
 _atom_site_fract_y
 _atom_site_fract_z
 _atom_site_occupancy
  Li  Li0  1  0.99589009  0.99539795  0.50092422  1
  Li  Li1  1  0.00501784  0.54589255  0.75159594  1
  Li  Li2  1  0.49589009  0.50460205  0.00092422  1
  Li  Li3  1  0.48809356  0.03449772  0.76185679  1
  Li  Li4  1  0.50501784  0.95410745  0.25159594  1
  Li  Li5  1  0.98809356  0.46550228  0.26185679  1
  V  V6  1  0.97523835  0.01433249  0.00454016  1
  V  V7  1  0.47523835  0.48566751  0.50454016  1
  O  O8  1  0.20011468  0.33102205  0.55832823  1
  O  O9  1  0.70011468  0.16897795  0.05832823  1
  F  F10  1  0.14485405  0.06784374  0.23338443  1
  F  F11  1  0.17615750  0.30467925  0.91768000  1
  F  F12  1  0.30741569  0.82168626  0.93471671  1
  F  F13  1  0.34235933  0.81957883  0.57342866  1
  F  F14  1  0.36485890  0.57478722  0.26354286  1
  F  F15  1  0.64485405  0.43215626  0.73338443  1
  F  F16  1  0.67615750  0.19532075  0.41768000  1
  F  F17  1  0.80741569  0.67831374  0.43471671  1
  F  F18  1  0.84235933  0.68042117  0.07342866  1
  F  F19  1  0.86485890  0.92521278  0.76354286  1
