# generated using pymatgen
data_Mn9FeO10
_symmetry_space_group_name_H-M   'P 1'
_cell_length_a   3.17615065
_cell_length_b   10.59678241
_cell_length_c   7.15969661
_cell_angle_alpha   78.18565992
_cell_angle_beta   77.20427612
_cell_angle_gamma   89.94320761
_symmetry_Int_Tables_number   1
_chemical_formula_structural   Mn9FeO10
_chemical_formula_sum   'Mn9 Fe1 O10'
_cell_volume   229.76294185
_cell_formula_units_Z   1
loop_
 _symmetry_equiv_pos_site_id
 _symmetry_equiv_pos_as_xyz
  1  'x, y, z'
loop_
 _atom_site_type_symbol
 _atom_site_label
 _atom_site_symmetry_multiplicity
 _atom_site_fract_x
 _atom_site_fract_y
 _atom_site_fract_z
 _atom_site_occupancy
  Mn  Mn0  1  0.60159410  0.79959136  0.79843756  1
  Mn  Mn1  1  0.20078663  0.59961289  0.59897140  1
  Mn  Mn2  1  0.30319224  0.90073482  0.39854524  1
  Mn  Mn3  1  0.70539660  0.10194461  0.59796643  1
  Mn  Mn4  1  0.80020439  0.39803437  0.40179553  1
  Mn  Mn5  1  0.90081620  0.69865252  0.19846773  1
  Mn  Mn6  1  0.49926260  0.49732762  0.99963494  1
  Mn  Mn7  1  0.40533275  0.20130815  0.19605112  1
  Mn  Mn8  1  0.00405424  0.99974291  0.99816106  1
  Fe  Fe9  1  0.10245861  0.29965880  0.79898692  1
  O  O10  1  0.15330572  0.95049407  0.69889877  1
  O  O11  1  0.05064957  0.64878417  0.89816949  1
  O  O12  1  0.55336712  0.15365278  0.89579054  1
  O  O13  1  0.65167105  0.44568635  0.70190050  1
  O  O14  1  0.75146152  0.74926258  0.49876548  1
  O  O15  1  0.34963073  0.54918278  0.30072146  1
  O  O16  1  0.45298546  0.85011882  0.09812712  1
  O  O17  1  0.25338093  0.25001786  0.49980305  1
  O  O18  1  0.95181559  0.34932291  0.09822513  1
  O  O19  1  0.85549596  0.05016262  0.29663451  1
