# generated using pymatgen
data_Li3Nb4VO12
_symmetry_space_group_name_H-M   'P 1'
_cell_length_a   5.64723298
_cell_length_b   11.25650704
_cell_length_c   9.95844540
_cell_angle_alpha   27.68377934
_cell_angle_beta   50.02276139
_cell_angle_gamma   55.24124398
_symmetry_Int_Tables_number   1
_chemical_formula_structural   Li3Nb4VO12
_chemical_formula_sum   'Li3 Nb4 V1 O12'
_cell_volume   225.37113818
_cell_formula_units_Z   1
loop_
 _symmetry_equiv_pos_site_id
 _symmetry_equiv_pos_as_xyz
  1  'x, y, z'
loop_
 _atom_site_type_symbol
 _atom_site_label
 _atom_site_symmetry_multiplicity
 _atom_site_fract_x
 _atom_site_fract_y
 _atom_site_fract_z
 _atom_site_occupancy
  Li  Li0  1  0.28291131  0.50322930  0.28124795  1
  Li  Li1  1  0.77950162  0.99945435  0.78600408  1
  Li  Li2  1  0.78493603  0.50020567  0.77923344  1
  Nb  Nb3  1  0.00625308  0.00766230  0.98802467  1
  Nb  Nb4  1  0.98986343  0.49671544  0.99903924  1
  Nb  Nb5  1  0.49055406  0.99709246  0.50604656  1
  Nb  Nb6  1  0.51254535  0.50480313  0.48447286  1
  V  V7  1  0.29889496  0.99879159  0.30160464  1
  O  O8  1  0.37080400  0.30623951  0.10728821  1
  O  O9  1  0.22238666  0.12783806  0.61251125  1
  O  O10  1  0.10723471  0.32015497  0.72444641  1
  O  O11  1  0.87296105  0.18584234  0.22740016  1
  O  O12  1  0.35825337  0.80351263  0.11609126  1
  O  O13  1  0.72500260  0.37410897  0.36399836  1
  O  O14  1  0.22553811  0.63542746  0.59951854  1
  O  O15  1  0.59605326  0.17745589  0.87345568  1
  O  O16  1  0.10980367  0.82248878  0.72332247  1
  O  O17  1  0.86370164  0.69606359  0.21845529  1
  O  O18  1  0.71826533  0.86565967  0.37133353  1
  O  O19  1  0.61413678  0.67725190  0.86610441  1
