# generated using pymatgen
data_LiMn2O2F3
_symmetry_space_group_name_H-M   'P 1'
_cell_length_a   3.78220426
_cell_length_b   5.28277950
_cell_length_c   10.61653120
_cell_angle_alpha   90.00000000
_cell_angle_beta   90.00000000
_cell_angle_gamma   110.97587580
_symmetry_Int_Tables_number   1
_chemical_formula_structural   LiMn2O2F3
_chemical_formula_sum   'Li2 Mn4 O4 F6'
_cell_volume   198.06693911
_cell_formula_units_Z   2
loop_
 _symmetry_equiv_pos_site_id
 _symmetry_equiv_pos_as_xyz
  1  'x, y, z'
loop_
 _atom_site_type_symbol
 _atom_site_label
 _atom_site_symmetry_multiplicity
 _atom_site_fract_x
 _atom_site_fract_y
 _atom_site_fract_z
 _atom_site_occupancy
  Li  Li0  1  0.16845201  0.33690402  0.25000000  1
  Li  Li1  1  0.83154799  0.66309598  0.75000000  1
  Mn  Mn2  1  0.15506350  0.31012600  0.55828492  1
  Mn  Mn3  1  0.15506350  0.31012600  0.94171508  1
  Mn  Mn4  1  0.84493650  0.68987400  0.05828492  1
  Mn  Mn5  1  0.84493650  0.68987400  0.44171508  1
  O  O6  1  0.30851322  0.61702644  0.44172745  1
  O  O7  1  0.30851322  0.61702644  0.05827255  1
  O  O8  1  0.69148678  0.38297356  0.55827255  1
  O  O9  1  0.69148678  0.38297356  0.94172745  1
  F  F10  1  0.02808598  0.05617296  0.12090041  1
  F  F11  1  0.02808598  0.05617296  0.37909959  1
  F  F12  1  0.25041937  0.50083975  0.75000000  1
  F  F13  1  0.74958063  0.49916025  0.25000000  1
  F  F14  1  0.97191402  0.94382704  0.62090041  1
  F  F15  1  0.97191402  0.94382704  0.87909959  1
