# generated using pymatgen
data_Cu2H3NO6
_symmetry_space_group_name_H-M   'P 1'
_cell_length_a   6.12857016
_cell_length_b   13.79208295
_cell_length_c   5.66523376
_cell_angle_alpha   89.99748341
_cell_angle_beta   89.99883618
_cell_angle_gamma   89.99723538
_symmetry_Int_Tables_number   1
_chemical_formula_structural   Cu2H3NO6
_chemical_formula_sum   'Cu8 H12 N4 O24'
_cell_volume   478.85812032
_cell_formula_units_Z   4
loop_
 _symmetry_equiv_pos_site_id
 _symmetry_equiv_pos_as_xyz
  1  'x, y, z'
loop_
 _atom_site_type_symbol
 _atom_site_label
 _atom_site_symmetry_multiplicity
 _atom_site_fract_x
 _atom_site_fract_y
 _atom_site_fract_z
 _atom_site_occupancy
  Cu  Cu0  1  0.01370536  0.74850241  0.50858696  1
  Cu  Cu1  1  0.22812194  0.25248436  0.49873591  1
  Cu  Cu2  1  0.27143377  0.74749767  0.99885798  1
  Cu  Cu3  1  0.48622759  0.25157508  0.00884133  1
  Cu  Cu4  1  0.51370543  0.75159761  0.49098988  1
  Cu  Cu5  1  0.72808224  0.24751682  0.50116410  1
  Cu  Cu6  1  0.77226888  0.75249769  0.00134152  1
  Cu  Cu7  1  0.98624450  0.24839943  0.99123456  1
  H  H8  1  0.00890172  0.61020932  0.95054788  1
  H  H9  1  0.27779610  0.88207328  0.67877063  1
  H  H10  1  0.25175472  0.38117045  0.83199729  1
  H  H11  1  0.24827980  0.61879522  0.33191060  1
  H  H12  1  0.22218556  0.11795848  0.17864854  1
  H  H13  1  0.49107170  0.38977376  0.45061953  1
  H  H14  1  0.50894191  0.88979057  0.04946386  1
  H  H15  1  0.77785746  0.61793808  0.32123393  1
  H  H16  1  0.75168514  0.11883101  0.16800304  1
  H  H17  1  0.74837355  0.88119057  0.66812562  1
  H  H18  1  0.72211187  0.38204755  0.82137192  1
  H  H19  1  0.99108613  0.11022767  0.54939966  1
  N  N20  1  0.99617692  0.95449013  0.20239708  1
  N  N21  1  0.50378246  0.04549917  0.70241729  1
  N  N22  1  0.49616902  0.54552653  0.79764984  1
  N  N23  1  0.00378967  0.45449771  0.29760382  1
  O  O24  1  0.01731517  0.86222960  0.18693921  1
  O  O25  1  0.01782544  0.67673640  0.88863129  1
  O  O26  1  0.10391796  0.99900313  0.35928863  1
  O  O27  1  0.12896157  0.49783481  0.43812111  1
  O  O28  1  0.23158519  0.18922042  0.17680387  1
  O  O29  1  0.24062695  0.30970987  0.82527528  1
  O  O30  1  0.26020776  0.69028756  0.32638730  1
  O  O31  1  0.26919870  0.81072451  0.67572164  1
  O  O32  1  0.37103146  0.50215608  0.93812994  1
  O  O33  1  0.39606655  0.00100452  0.85923487  1
  O  O34  1  0.48214835  0.32321655  0.38883138  1
  O  O35  1  0.48272328  0.13777533  0.68688401  1
  O  O36  1  0.51729214  0.63776420  0.81310113  1
  O  O37  1  0.51787528  0.82328316  0.11130547  1
  O  O38  1  0.60392835  0.50100609  0.64072777  1
  O  O39  1  0.62896725  0.00215586  0.56187742  1
  O  O40  1  0.73125027  0.31077286  0.82325844  1
  O  O41  1  0.74030145  0.19027763  0.17473918  1
  O  O42  1  0.75899894  0.80962553  0.67376558  1
  O  O43  1  0.76799716  0.68925948  0.32415899  1
  O  O44  1  0.87106111  0.99784131  0.06185846  1
  O  O45  1  0.89608084  0.49900715  0.14074820  1
  O  O46  1  0.98219128  0.17679097  0.61119578  1
  O  O47  1  0.98269411  0.36222641  0.31310228  1
