# generated using pymatgen
data_LiLa3Ti2O9
_symmetry_space_group_name_H-M   'P 1'
_cell_length_a   16.75120130
_cell_length_b   5.64916774
_cell_length_c   7.90302740
_cell_angle_alpha   90.00000000
_cell_angle_beta   90.09635629
_cell_angle_gamma   90.00000000
_symmetry_Int_Tables_number   1
_chemical_formula_structural   LiLa3Ti2O9
_chemical_formula_sum   'Li4 La12 Ti8 O36'
_cell_volume   747.86515920
_cell_formula_units_Z   4
loop_
 _symmetry_equiv_pos_site_id
 _symmetry_equiv_pos_as_xyz
  1  'x, y, z'
loop_
 _atom_site_type_symbol
 _atom_site_label
 _atom_site_symmetry_multiplicity
 _atom_site_fract_x
 _atom_site_fract_y
 _atom_site_fract_z
 _atom_site_occupancy
  Li  Li0  1  0.00110852  0.50107054  0.00116961  1
  Li  Li1  1  0.33222448  0.49892946  0.99883039  1
  Li  Li2  1  0.50110852  0.99892946  0.50116961  1
  Li  Li3  1  0.83222448  0.00107054  0.49883039  1
  La  La4  1  0.99890571  0.04195535  0.24057071  1
  La  La5  1  0.16369889  0.53198090  0.23859436  1
  La  La6  1  0.16963411  0.46801910  0.76140564  1
  La  La7  1  0.33442829  0.95804465  0.75942929  1
  La  La8  1  0.33884332  0.05049383  0.24559077  1
  La  La9  1  0.49449068  0.55049383  0.25440923  1
  La  La10  1  0.49890571  0.45804465  0.74057071  1
  La  La11  1  0.66369889  0.96801910  0.73859436  1
  La  La12  1  0.66963411  0.03198090  0.26140564  1
  La  La13  1  0.83442829  0.54195535  0.25942929  1
  La  La14  1  0.83884332  0.44950617  0.74559077  1
  La  La15  1  0.99449068  0.94950617  0.75440923  1
  Ti  Ti16  1  0.99764468  0.49157173  0.50389353  1
  Ti  Ti17  1  0.16666700  0.00000000  0.00000000  1
  Ti  Ti18  1  0.16666700  0.00000000  0.50000000  1
  Ti  Ti19  1  0.33568832  0.50842827  0.49610647  1
  Ti  Ti20  1  0.49764468  0.00842827  0.00389353  1
  Ti  Ti21  1  0.66666700  0.50000000  0.00000000  1
  Ti  Ti22  1  0.66666700  0.50000000  0.50000000  1
  Ti  Ti23  1  0.83568832  0.99157173  0.99610647  1
  O  O24  1  0.03071621  0.52606286  0.73825300  1
  O  O25  1  0.07377487  0.80377449  0.04324577  1
  O  O26  1  0.07396407  0.79481990  0.45386210  1
  O  O27  1  0.10085244  0.27956934  0.03951876  1
  O  O28  1  0.09903048  0.28268092  0.45686115  1
  O  O29  1  0.13877594  0.01452882  0.74678285  1
  O  O30  1  0.19455706  0.98547118  0.25321715  1
  O  O31  1  0.23430252  0.71731908  0.54313885  1
  O  O32  1  0.23248056  0.72043066  0.96048124  1
  O  O33  1  0.25936993  0.20518010  0.54613790  1
  O  O34  1  0.25955813  0.19622551  0.95675423  1
  O  O35  1  0.30261679  0.47393714  0.26174700  1
  O  O36  1  0.35746714  0.52129591  0.73772460  1
  O  O37  1  0.40967354  0.80172156  0.04260937  1
  O  O38  1  0.39755888  0.78192429  0.45316881  1
  O  O39  1  0.43577512  0.28192429  0.04683119  1
  O  O40  1  0.42365946  0.30172156  0.45739063  1
  O  O41  1  0.47586586  0.02129591  0.76227540  1
  O  O42  1  0.53071621  0.97393714  0.23825300  1
  O  O43  1  0.57377487  0.69622551  0.54324577  1
  O  O44  1  0.57396407  0.70518010  0.95386210  1
  O  O45  1  0.60085244  0.22043066  0.53951876  1
  O  O46  1  0.59903048  0.21731908  0.95686115  1
  O  O47  1  0.63877594  0.48547118  0.24678285  1
  O  O48  1  0.69455706  0.51452882  0.75321715  1
  O  O49  1  0.73430252  0.78268092  0.04313885  1
  O  O50  1  0.73248156  0.77956934  0.46048124  1
  O  O51  1  0.75936993  0.29481990  0.04613790  1
  O  O52  1  0.75955813  0.30377549  0.45675423  1
  O  O53  1  0.80261679  0.02606286  0.76174700  1
  O  O54  1  0.85746714  0.97870409  0.23772460  1
  O  O55  1  0.90967354  0.69827844  0.54260937  1
  O  O56  1  0.89755888  0.71807571  0.95316881  1
  O  O57  1  0.93577512  0.21807571  0.54683119  1
  O  O58  1  0.92365946  0.19827844  0.95739063  1
  O  O59  1  0.97586586  0.47870409  0.26227540  1
