# generated using pymatgen
data_FeP2H24C8S4NClO4
_symmetry_space_group_name_H-M   'P 1'
_cell_length_a   7.36081786
_cell_length_b   8.79614652
_cell_length_c   16.85196533
_cell_angle_alpha   84.24253576
_cell_angle_beta   85.52724527
_cell_angle_gamma   90.41190914
_symmetry_Int_Tables_number   1
_chemical_formula_structural   FeP2H24C8S4NClO4
_chemical_formula_sum   'Fe2 P4 H48 C16 S8 N2 Cl2 O8'
_cell_volume   1082.17707135
_cell_formula_units_Z   2
loop_
 _symmetry_equiv_pos_site_id
 _symmetry_equiv_pos_as_xyz
  1  'x, y, z'
loop_
 _atom_site_type_symbol
 _atom_site_label
 _atom_site_symmetry_multiplicity
 _atom_site_fract_x
 _atom_site_fract_y
 _atom_site_fract_z
 _atom_site_occupancy
  Fe  Fe0  1  0.74894604  0.16889160  0.75664189  1
  Fe  Fe1  1  0.25105396  0.83110840  0.24335811  1
  P  P2  1  0.81358445  0.32392635  0.90580486  1
  P  P3  1  0.18641555  0.67607365  0.09419514  1
  P  P4  1  0.73406412  0.22684822  0.57350422  1
  P  P5  1  0.26593588  0.77315178  0.42649578  1
  H  H6  1  0.61200290  0.08200428  0.06007593  1
  H  H7  1  0.38799710  0.91799572  0.93992407  1
  H  H8  1  0.68198948  0.04324969  0.95981936  1
  H  H9  1  0.31801052  0.95675031  0.04018064  1
  H  H10  1  0.83948460  0.01971839  0.03645689  1
  H  H11  1  0.16051540  0.98028161  0.96354311  1
  H  H12  1  0.83172845  0.69836272  0.96640291  1
  H  H13  1  0.16827155  0.30163728  0.03359709  1
  H  H14  1  0.72892807  0.53978001  0.02880729  1
  H  H15  1  0.27107193  0.46021999  0.97119271  1
  H  H16  1  0.63015823  0.60907642  0.93772787  1
  H  H17  1  0.36984177  0.39092358  0.06227213  1
  H  H18  1  0.62486960  0.53782845  0.56840083  1
  H  H19  1  0.37513040  0.46217155  0.43159917  1
  H  H20  1  0.86880917  0.54846199  0.54865801  1
  H  H21  1  0.13119083  0.45153801  0.45134199  1
  H  H22  1  0.72420935  0.59654358  0.46914140  1
  H  H23  1  0.27579065  0.40345642  0.53085860  1
  H  H24  1  0.85571123  0.91317011  0.57539214  1
  H  H25  1  0.14428877  0.08682989  0.42460786  1
  H  H26  1  0.73518716  0.87303197  0.49077085  1
  H  H27  1  0.26481284  0.12696803  0.50922915  1
  H  H28  1  0.61031183  0.91167887  0.58255843  1
  H  H29  1  0.38968817  0.08832113  0.41744157  1
  H  H30  1  0.61755256  0.48366738  0.28138746  1
  H  H31  1  0.38244744  0.51633262  0.71861254  1
  H  H32  1  0.49517727  0.30532231  0.28371961  1
  H  H33  1  0.50482273  0.69467769  0.71628039  1
  H  H34  1  0.61996078  0.34591378  0.36762853  1
  H  H35  1  0.38003922  0.65408622  0.63237147  1
  H  H36  1  0.95157908  0.48564855  0.26990493  1
  H  H37  1  0.04842092  0.51435145  0.73009507  1
  H  H38  1  0.94261050  0.35036779  0.35776347  1
  H  H39  1  0.05738950  0.64963221  0.64223653  1
  H  H40  1  0.07099196  0.30819534  0.26696680  1
  H  H41  1  0.92900804  0.69180466  0.73303320  1
  H  H42  1  0.77646643  0.10511951  0.35818245  1
  H  H43  1  0.22353357  0.89488049  0.64181755  1
  H  H44  1  0.90250212  0.07125441  0.26603145  1
  H  H45  1  0.09749788  0.92874559  0.73396855  1
  H  H46  1  0.65639333  0.07121918  0.27259112  1
  H  H47  1  0.34360667  0.92878082  0.72740888  1
  H  H48  1  0.90825045  0.25765182  0.15181426  1
  H  H49  1  0.09174955  0.74234818  0.84818574  1
  H  H50  1  0.79245437  0.43490369  0.15728598  1
  H  H51  1  0.20754563  0.56509631  0.84271402  1
  H  H52  1  0.66256149  0.25980167  0.15851192  1
  H  H53  1  0.33743851  0.74019833  0.84148808  1
  C  C54  1  0.72616928  0.08765191  0.01392532  1
  C  C55  1  0.27383072  0.91234809  0.98607468  1
  C  C56  1  0.75763113  0.58991854  0.96690798  1
  C  C57  1  0.24236887  0.41008146  0.03309202  1
  C  C58  1  0.73932833  0.52206074  0.52434233  1
  C  C59  1  0.26067167  0.47793926  0.47565767  1
  C  C60  1  0.73406742  0.93851258  0.54274823  1
  C  C61  1  0.26593258  0.06148742  0.45725177  1
  C  C62  1  0.61602266  0.36150776  0.30250246  1
  C  C63  1  0.38397734  0.63849224  0.69749754  1
  C  C64  1  0.94999988  0.36399453  0.29219759  1
  C  C65  1  0.05000012  0.63600547  0.70780241  1
  C  C66  1  0.77959312  0.12147542  0.29269175  1
  C  C67  1  0.22040688  0.87852458  0.70730825  1
  C  C68  1  0.78594462  0.31231102  0.17654767  1
  C  C69  1  0.21405538  0.68768898  0.82345233  1
  S  S70  1  0.57883244  0.32105609  0.85229536  1
  S  S71  1  0.42116756  0.67894391  0.14770464  1
  S  S72  1  0.01576755  0.23238879  0.84214002  1
  S  S73  1  0.98423245  0.76761121  0.15785998  1
  S  S74  1  0.95850341  0.22289439  0.63355460  1
  S  S75  1  0.04149659  0.77710561  0.36644540  1
  S  S76  1  0.50999763  0.22213621  0.64764495  1
  S  S77  1  0.49000237  0.77786379  0.35235505  1
  N  N78  1  0.78303037  0.28991426  0.26613958  1
  N  N79  1  0.21696963  0.71008574  0.73386042  1
  Cl  Cl80  1  0.69933299  0.90670108  0.79306600  1
  Cl  Cl81  1  0.30066701  0.09329892  0.20693400  1
  O  O82  1  0.78553941  0.24613487  0.99724903  1
  O  O83  1  0.21446059  0.75386513  0.00275097  1
  O  O84  1  0.87630476  0.49213428  0.92206069  1
  O  O85  1  0.12369524  0.50786572  0.07793931  1
  O  O86  1  0.73914229  0.36693582  0.50292537  1
  O  O87  1  0.26085771  0.63306418  0.49707463  1
  O  O88  1  0.73616222  0.09793503  0.51136661  1
  O  O89  1  0.26383778  0.90206497  0.48863339  1
