# generated using pymatgen
data_Sr3Li4Nb6O20
_symmetry_space_group_name_H-M   'P 1'
_cell_length_a   5.66539129
_cell_length_b   13.58513549
_cell_length_c   5.66543540
_cell_angle_alpha   89.92008543
_cell_angle_beta   89.92449668
_cell_angle_gamma   101.93497198
_symmetry_Int_Tables_number   1
_chemical_formula_structural   Sr3Li4Nb6O20
_chemical_formula_sum   'Sr3 Li4 Nb6 O20'
_cell_volume   426.61393833
_cell_formula_units_Z   1
loop_
 _symmetry_equiv_pos_site_id
 _symmetry_equiv_pos_as_xyz
  1  'x, y, z'
loop_
 _atom_site_type_symbol
 _atom_site_label
 _atom_site_symmetry_multiplicity
 _atom_site_fract_x
 _atom_site_fract_y
 _atom_site_fract_z
 _atom_site_occupancy
  Sr  Sr0  1  0.57704932  0.15564223  0.99922227  1
  Sr  Sr1  1  0.41291547  0.83047625  0.99804450  1
  Sr  Sr2  1  0.07903868  0.15597457  0.50098130  1
  Li  Li3  1  0.50122925  0.50398672  0.24942407  1
  Li  Li4  1  0.00288002  0.50443636  0.24956749  1
  Li  Li5  1  0.50162992  0.50440180  0.75073669  1
  Li  Li6  1  0.00250733  0.50397780  0.75056668  1
  Nb  Nb7  1  0.84128357  0.68428259  0.99955947  1
  Nb  Nb8  1  0.50129908  0.99371710  0.50254056  1
  Nb  Nb9  1  0.65661495  0.31427937  0.49935423  1
  Nb  Nb10  1  0.99931922  0.99366689  0.00448898  1
  Nb  Nb11  1  0.15638406  0.31407442  0.99946825  1
  Nb  Nb12  1  0.34154780  0.68430114  0.49932415  1
  O  O13  1  0.92744689  0.85107570  0.00287150  1
  O  O14  1  0.78188399  0.00880579  0.27718707  1
  O  O15  1  0.89938472  0.29807399  0.25024946  1
  O  O16  1  0.77115972  0.54167722  0.00028649  1
  O  O17  1  0.28445307  0.00599585  0.23311922  1
  O  O18  1  0.90068253  0.29829015  0.75006896  1
  O  O19  1  0.57875636  0.15262116  0.50361752  1
  O  O20  1  0.72881382  0.45700377  0.50012184  1
  O  O21  1  0.59150208  0.69743127  0.24299789  1
  O  O22  1  0.39926636  0.29826923  0.25152539  1
  O  O23  1  0.08027022  0.15262272  0.00204911  1
  O  O24  1  0.22863456  0.45683232  0.00028034  1
  O  O25  1  0.73652443  0.00601633  0.78109636  1
  O  O26  1  0.25420281  0.00728785  0.75030586  1
  O  O27  1  0.40015931  0.29848261  0.75077205  1
  O  O28  1  0.10529956  0.69703587  0.24374096  1
  O  O29  1  0.42835432  0.85109174  0.50193319  1
  O  O30  1  0.59194390  0.69699430  0.75710450  1
  O  O31  1  0.27104087  0.54168998  0.50038502  1
  O  O32  1  0.10569382  0.69762692  0.75711065  1
