# generated using pymatgen
data_MnF3
_symmetry_space_group_name_H-M   'P 1'
_cell_length_a   8.57656902
_cell_length_b   8.57657710
_cell_length_c   4.69511888
_cell_angle_alpha   89.99967732
_cell_angle_beta   89.99961496
_cell_angle_gamma   60.00200888
_symmetry_Int_Tables_number   1
_chemical_formula_structural   MnF3
_chemical_formula_sum   'Mn6 F18'
_cell_volume   299.09806211
_cell_formula_units_Z   6
loop_
 _symmetry_equiv_pos_site_id
 _symmetry_equiv_pos_as_xyz
  1  'x, y, z'
loop_
 _atom_site_type_symbol
 _atom_site_label
 _atom_site_symmetry_multiplicity
 _atom_site_fract_x
 _atom_site_fract_y
 _atom_site_fract_z
 _atom_site_occupancy
  Mn  Mn0  1  0.99999299  0.66987656  -0.00000185  1
  Mn  Mn1  1  0.33695487  0.66304258  0.50000495  1
  Mn  Mn2  1  0.00000315  0.33695532  0.50001114  1
  Mn  Mn3  1  0.66985864  0.33014138  -0.00000483  1
  Mn  Mn4  1  0.33012708  -0.00000095  -0.00001203  1
  Mn  Mn5  1  0.66304454  0.00000350  0.49999344  1
  F  F6  1  0.24033333  0.87385484  0.26304860  1
  F  F7  1  0.12614518  0.75966683  0.73695307  1
  F  F8  1  0.42853603  0.79778360  0.77130706  1
  F  F9  1  0.20221556  0.57146422  0.22869280  1
  F  F10  1  0.55428130  0.90409469  0.25930895  1
  F  F11  1  0.09590535  0.44571869  0.74069262  1
  F  F12  1  0.54166447  0.55427756  0.25933110  1
  F  F13  1  0.44572235  0.45833582  0.74066990  1
  F  F14  1  0.87389890  0.88579367  0.26303605  1
  F  F15  1  0.11420627  0.12610132  0.73696486  1
  F  F16  1  0.79776907  0.77372423  0.77131806  1
  F  F17  1  0.22627633  0.20223028  0.22868291  1
  F  F18  1  0.77368444  0.42853699  0.77129719  1
  F  F19  1  0.57146347  0.22631585  0.22870335  1
  F  F20  1  0.45835505  0.09596040  0.74059354  1
  F  F21  1  0.90403986  0.54164438  0.25940842  1
  F  F22  1  0.88578510  0.24031216  0.26303349  1
  F  F23  1  0.75968766  0.11421510  0.73696721  1
