# generated using pymatgen
data_Ba3LiTi5(SbO7)3
_symmetry_space_group_name_H-M   'P 1'
_cell_length_a   9.16007721
_cell_length_b   9.17871454
_cell_length_c   11.79944146
_cell_angle_alpha   89.99993480
_cell_angle_beta   90.00019015
_cell_angle_gamma   119.93297092
_symmetry_Int_Tables_number   1
_chemical_formula_structural   Ba3LiTi5(SbO7)3
_chemical_formula_sum   'Ba6 Li2 Ti10 Sb6 O42'
_cell_volume   859.73779398
_cell_formula_units_Z   2
loop_
 _symmetry_equiv_pos_site_id
 _symmetry_equiv_pos_as_xyz
  1  'x, y, z'
loop_
 _atom_site_type_symbol
 _atom_site_label
 _atom_site_symmetry_multiplicity
 _atom_site_fract_x
 _atom_site_fract_y
 _atom_site_fract_z
 _atom_site_occupancy
  Ba  Ba0  1  0.99847315  0.59375180  0.25009967  1
  Ba  Ba1  1  0.00152506  0.40624930  0.75009820  1
  Ba  Ba2  1  0.40472504  0.40624973  0.25009862  1
  Ba  Ba3  1  0.59527571  0.59375170  0.75009977  1
  Ba  Ba4  1  0.40160440  0.00000263  0.74818312  1
  Ba  Ba5  1  0.59839499  0.00000145  0.24818509  1
  Li  Li6  1  0.99694747  0.00000283  0.24521239  1
  Li  Li7  1  0.00305346  0.00000240  0.74521429  1
  Ti  Ti8  1  0.99193341  0.74319773  0.59587234  1
  Ti  Ti9  1  0.00350033  0.74974761  0.91260937  1
  Ti  Ti10  1  0.99649642  0.25025524  0.41260932  1
  Ti  Ti11  1  0.00806585  0.25680583  0.09587184  1
  Ti  Ti12  1  0.24873511  0.25680879  0.59587093  1
  Ti  Ti13  1  0.25375047  0.25025154  0.91260994  1
  Ti  Ti14  1  0.25316203  -0.00000102  0.08711854  1
  Ti  Ti15  1  0.75126261  0.74319421  0.09587127  1
  Ti  Ti16  1  0.74624430  0.74974779  0.41261041  1
  Ti  Ti17  1  0.74683769  0.00000330  0.58711805  1
  Sb  Sb18  1  0.33459548  0.66669385  0.99979362  1
  Sb  Sb19  1  0.33209588  0.66669550  0.49979551  1
  Sb  Sb20  1  0.24284711  0.00000227  0.41361240  1
  Sb  Sb21  1  0.66790161  0.33330567  0.99979251  1
  Sb  Sb22  1  0.66540470  0.33330823  0.49980104  1
  Sb  Sb23  1  0.75715281  0.00000062  0.91361064  1
  O  O24  1  0.00461492  0.79973133  0.42581280  1
  O  O25  1  0.99719031  0.79394380  0.07264512  1
  O  O26  1  0.99994992  0.79419741  0.75066900  1
  O  O27  1  0.16792018  0.68307397  0.89760799  1
  O  O28  1  0.16656783  0.68605710  0.59923483  1
  O  O29  1  0.00005469  0.20581134  0.25066907  1
  O  O30  1  0.31722482  0.83356725  0.09978901  1
  O  O31  1  0.31816262  0.82984671  0.39109970  1
  O  O32  1  0.00281181  0.20605872  0.57264320  1
  O  O33  1  0.99538589  0.20027310  0.92581060  1
  O  O34  1  0.17101566  0.48713801  0.10540625  1
  O  O35  1  0.16839990  0.48024004  0.39971544  1
  O  O36  1  0.31612309  0.48714198  0.60540853  1
  O  O37  1  0.31183794  0.48023965  0.89971451  1
  O  O38  1  0.20488778  0.20027468  0.42581125  1
  O  O39  1  0.20324344  0.20605504  0.07264501  1
  O  O40  1  0.51634193  0.83357729  0.59978664  1
  O  O41  1  0.51168181  0.82984661  0.89109908  1
  O  O42  1  0.20575668  0.20580864  0.75066692  1
  O  O43  1  0.51515121  0.68307203  0.39761093  1
  O  O44  1  0.51948830  0.68605438  0.09923011  1
  O  O45  1  0.20118596  0.00000430  0.57994210  1
  O  O46  1  0.20412910  0.00000019  0.92735478  1
  O  O47  1  0.20242605  0.00000436  0.24785942  1
  O  O48  1  0.48484504  0.31692436  0.89760786  1
  O  O49  1  0.48051277  0.31395239  0.59923514  1
  O  O50  1  0.79424255  0.79419341  0.25066841  1
  O  O51  1  0.48365786  0.16643213  0.09978872  1
  O  O52  1  0.48831854  0.17015207  0.39110610  1
  O  O53  1  0.79675480  0.79394772  0.57264486  1
  O  O54  1  0.79511504  0.79972916  0.92581073  1
  O  O55  1  0.68388054  0.51286356  0.10540509  1
  O  O56  1  0.68816737  0.51976322  0.39971874  1
  O  O57  1  0.82898622  0.51286607  0.60541264  1
  O  O58  1  0.83159755  0.51976077  0.89971383  1
  O  O59  1  0.68278389  0.16644314  0.59980073  1
  O  O60  1  0.68183723  0.17015533  0.89109829  1
  O  O61  1  0.83207254  0.31692046  0.39761353  1
  O  O62  1  0.83343300  0.31394824  0.09923237  1
  O  O63  1  0.79757742  0.00000097  0.74785831  1
  O  O64  1  0.79586647  0.00000090  0.42735383  1
  O  O65  1  0.79881425  0.00000212  0.07993967  1
