# generated using pymatgen
data_Li2CuNi(PO4)2
_symmetry_space_group_name_H-M   'P 1'
_cell_length_a   10.01155658
_cell_length_b   6.01812102
_cell_length_c   4.73296168
_cell_angle_alpha   90.00000000
_cell_angle_beta   91.55784600
_cell_angle_gamma   90.00000000
_symmetry_Int_Tables_number   1
_chemical_formula_structural   Li2CuNi(PO4)2
_chemical_formula_sum   'Li4 Cu2 Ni2 P4 O16'
_cell_volume   285.05913359
_cell_formula_units_Z   2
loop_
 _symmetry_equiv_pos_site_id
 _symmetry_equiv_pos_as_xyz
  1  'x, y, z'
loop_
 _atom_site_type_symbol
 _atom_site_label
 _atom_site_symmetry_multiplicity
 _atom_site_fract_x
 _atom_site_fract_y
 _atom_site_fract_z
 _atom_site_occupancy
  Li  Li0  1  0.00000000  0.00000000  0.00000000  1
  Li  Li1  1  0.00000000  0.50000000  0.00000000  1
  Li  Li2  1  0.50000000  0.00000000  0.50000000  1
  Li  Li3  1  0.50000000  0.50000000  0.50000000  1
  Cu  Cu4  1  0.28073278  0.25000000  0.95780421  1
  Cu  Cu5  1  0.71926722  0.75000000  0.04219579  1
  Ni  Ni6  1  0.22196319  0.75000000  0.48438037  1
  Ni  Ni7  1  0.77803681  0.25000000  0.51561963  1
  P  P8  1  0.09646924  0.25000000  0.41768172  1
  P  P9  1  0.40712084  0.75000000  0.92478574  1
  P  P10  1  0.59287916  0.25000000  0.07521426  1
  P  P11  1  0.90353076  0.75000000  0.58231828  1
  O  O12  1  0.04974347  0.75000000  0.70129795  1
  O  O13  1  0.10392064  0.25000000  0.74610244  1
  O  O14  1  0.16433626  0.04208082  0.28644185  1
  O  O15  1  0.16433626  0.45791918  0.28644185  1
  O  O16  1  0.33529951  0.54772406  0.77742458  1
  O  O17  1  0.33529951  0.95227594  0.77742458  1
  O  O18  1  0.40310814  0.75000000  0.24763896  1
  O  O19  1  0.44769012  0.25000000  0.18857159  1
  O  O20  1  0.55230988  0.75000000  0.81142841  1
  O  O21  1  0.59689186  0.25000000  0.75236104  1
  O  O22  1  0.66470049  0.04772406  0.22257542  1
  O  O23  1  0.66470049  0.45227594  0.22257542  1
  O  O24  1  0.83566374  0.54208082  0.71355815  1
  O  O25  1  0.83566374  0.95791918  0.71355815  1
  O  O26  1  0.89607936  0.75000000  0.25389756  1
  O  O27  1  0.95025653  0.25000000  0.29870205  1
