# generated using pymatgen
data_LiNiBO3
_symmetry_space_group_name_H-M   'P 1'
_cell_length_a   5.11292573
_cell_length_b   5.11228074
_cell_length_c   10.00421535
_cell_angle_alpha   89.19086724
_cell_angle_beta   90.81461298
_cell_angle_gamma   62.29734852
_symmetry_Int_Tables_number   1
_chemical_formula_structural   LiNiBO3
_chemical_formula_sum   'Li4 Ni4 B4 O12'
_cell_volume   231.43553607
_cell_formula_units_Z   4
loop_
 _symmetry_equiv_pos_site_id
 _symmetry_equiv_pos_as_xyz
  1  'x, y, z'
loop_
 _atom_site_type_symbol
 _atom_site_label
 _atom_site_symmetry_multiplicity
 _atom_site_fract_x
 _atom_site_fract_y
 _atom_site_fract_z
 _atom_site_occupancy
  Li  Li0  1  0.35102964  0.66329636  0.83380415  1
  Li  Li1  1  0.33677596  0.64893516  0.33376642  1
  Li  Li2  1  0.65450085  0.33724598  0.58468798  1
  Li  Li3  1  0.66280979  0.34557175  0.08465173  1
  Ni  Ni4  1  0.02031657  0.32003012  0.36987510  1
  Ni  Ni5  1  0.32956971  0.01692974  0.11881407  1
  Ni  Ni6  1  0.67990488  0.97973808  0.86984801  1
  Ni  Ni7  1  0.98318286  0.67053782  0.61884540  1
  B  B8  1  0.00099417  0.33364205  0.87321181  1
  B  B9  1  0.33949303  0.00072788  0.62402666  1
  B  B10  1  0.66641506  0.99901695  0.37324285  1
  B  B11  1  0.99929143  0.66059664  0.12398921  1
  O  O12  1  0.97314581  0.40874142  0.16211198  1
  O  O13  1  0.08856397  0.25029561  0.57756038  1
  O  O14  1  0.25741668  0.07728588  0.91043476  1
  O  O15  1  0.41852393  0.97794179  0.32715705  1
  O  O16  1  0.26990215  0.65537095  0.13409229  1
  O  O17  1  0.34471335  0.73007399  0.63413734  1
  O  O18  1  0.65391107  0.27230853  0.38537393  1
  O  O19  1  0.72777139  0.34613322  0.88533082  1
  O  O20  1  0.59132747  0.02688749  0.66211646  1
  O  O21  1  0.74973207  0.91154360  0.07753016  1
  O  O22  1  0.92278848  0.74258297  0.41045671  1
  O  O23  1  0.02208167  0.58157803  0.82716573  1
