# generated using pymatgen
data_Ti2Fe4O9
_symmetry_space_group_name_H-M   'P 1'
_cell_length_a   5.16230191
_cell_length_b   5.51852076
_cell_length_c   12.90578563
_cell_angle_alpha   93.11793088
_cell_angle_beta   90.00000000
_cell_angle_gamma   117.88673224
_symmetry_Int_Tables_number   1
_chemical_formula_structural   Ti2Fe4O9
_chemical_formula_sum   'Ti4 Fe8 O18'
_cell_volume   324.35231591
_cell_formula_units_Z   2
loop_
 _symmetry_equiv_pos_site_id
 _symmetry_equiv_pos_as_xyz
  1  'x, y, z'
loop_
 _atom_site_type_symbol
 _atom_site_label
 _atom_site_symmetry_multiplicity
 _atom_site_fract_x
 _atom_site_fract_y
 _atom_site_fract_z
 _atom_site_occupancy
  Ti  Ti0  1  0.81214609  0.61487481  0.54485700  1
  Ti  Ti1  1  0.80272872  0.61487481  0.04485700  1
  Ti  Ti2  1  0.13446852  0.27881137  0.72164651  1
  Ti  Ti3  1  0.14434286  0.27881137  0.22164651  1
  Fe  Fe4  1  0.85372503  0.71748990  0.78286229  1
  Fe  Fe5  1  0.52791462  0.05581655  0.61781437  1
  Fe  Fe6  1  0.86376487  0.71748990  0.28286229  1
  Fe  Fe7  1  0.52790193  0.05581655  0.11781437  1
  Fe  Fe8  1  0.46848069  0.94058776  0.88113686  1
  Fe  Fe9  1  0.18888466  0.37720355  0.95347848  1
  Fe  Fe10  1  0.47210707  0.94058776  0.38113686  1
  Fe  Fe11  1  0.18831790  0.37720355  0.45347848  1
  O  O12  1  0.88748892  0.10008809  0.34317265  1
  O  O13  1  0.96874387  0.33823628  0.59663859  1
  O  O14  1  0.69695612  0.01224243  0.75137055  1
  O  O15  1  0.74286940  0.23545818  0.98283376  1
  O  O16  1  0.88911601  0.42307724  0.17975155  1
  O  O17  1  0.53396124  0.42307724  0.67975155  1
  O  O18  1  0.49258878  0.23545818  0.48283376  1
  O  O19  1  0.79652127  0.88951259  0.13870535  1
  O  O20  1  0.64890049  0.68048310  0.92815578  1
  O  O21  1  0.31528631  0.01224243  0.25137055  1
  O  O22  1  0.36949241  0.33823628  0.09663859  1
  O  O23  1  0.21259917  0.10008809  0.84317265  1
  O  O24  1  0.56463249  0.77374664  0.51962384  1
  O  O25  1  0.41060268  0.56237249  0.30795241  1
  O  O26  1  0.15176981  0.56237249  0.80795241  1
  O  O27  1  0.20911415  0.77374664  0.01962384  1
  O  O28  1  0.03158261  0.68048310  0.42815578  1
  O  O29  1  0.09299232  0.88951259  0.63870535  1
