# generated using pymatgen
data_Li4FeSb(WO6)2
_symmetry_space_group_name_H-M   'P 1'
_cell_length_a   5.44864713
_cell_length_b   10.89534446
_cell_length_c   9.59845155
_cell_angle_alpha   28.33020817
_cell_angle_beta   51.42915851
_cell_angle_gamma   56.74182117
_symmetry_Int_Tables_number   1
_chemical_formula_structural   Li4FeSb(WO6)2
_chemical_formula_sum   'Li4 Fe1 Sb1 W2 O12'
_cell_volume   211.41286969
_cell_formula_units_Z   1
loop_
 _symmetry_equiv_pos_site_id
 _symmetry_equiv_pos_as_xyz
  1  'x, y, z'
loop_
 _atom_site_type_symbol
 _atom_site_label
 _atom_site_symmetry_multiplicity
 _atom_site_fract_x
 _atom_site_fract_y
 _atom_site_fract_z
 _atom_site_occupancy
  Li  Li0  1  0.25653265  0.99722912  0.30789210  1
  Li  Li1  1  0.31551193  0.50300781  0.26404653  1
  Li  Li2  1  0.77353544  0.00391854  0.74071854  1
  Li  Li3  1  0.77439657  0.49625077  0.80525829  1
  Fe  Fe4  1  0.00853347  0.50056990  0.00147724  1
  Sb  Sb5  1  0.99838032  0.99855657  0.00447694  1
  W  W6  1  0.49900362  0.00191363  0.50025815  1
  W  W7  1  0.50390715  0.49710412  0.50371475  1
  O  O8  1  0.37235367  0.29475882  0.13948091  1
  O  O9  1  0.23603137  0.12556835  0.62564946  1
  O  O10  1  0.12120975  0.32017900  0.74098652  1
  O  O11  1  0.85431072  0.19580095  0.24188133  1
  O  O12  1  0.37997965  0.80411892  0.12202457  1
  O  O13  1  0.72094010  0.38258593  0.37630900  1
  O  O14  1  0.25250761  0.62167575  0.61468789  1
  O  O15  1  0.61759436  0.18367448  0.87702575  1
  O  O16  1  0.14075116  0.82065514  0.72799580  1
  O  O17  1  0.87597589  0.68497880  0.24505440  1
  O  O18  1  0.73899524  0.86952049  0.38013138  1
  O  O19  1  0.63075031  0.69793291  0.85213147  1
