# generated using pymatgen
data_Sr4Ta2O9
_symmetry_space_group_name_H-M   'P 1'
_cell_length_a   5.94612676
_cell_length_b   5.94616195
_cell_length_c   15.38651984
_cell_angle_alpha   89.99996417
_cell_angle_beta   89.99978213
_cell_angle_gamma   120.00035519
_symmetry_Int_Tables_number   1
_chemical_formula_structural   Sr4Ta2O9
_chemical_formula_sum   'Sr8 Ta4 O18'
_cell_volume   471.12958283
_cell_formula_units_Z   2
loop_
 _symmetry_equiv_pos_site_id
 _symmetry_equiv_pos_as_xyz
  1  'x, y, z'
loop_
 _atom_site_type_symbol
 _atom_site_label
 _atom_site_symmetry_multiplicity
 _atom_site_fract_x
 _atom_site_fract_y
 _atom_site_fract_z
 _atom_site_occupancy
  Sr  Sr0  1  0.33332044  0.66666474  0.02780901  1
  Sr  Sr1  1  0.33332132  0.66667623  0.30105166  1
  Sr  Sr2  1  0.33332715  0.66666483  0.80105314  1
  Sr  Sr3  1  0.33333152  0.66666280  0.52780813  1
  Sr  Sr4  1  0.66664921  0.33333154  0.19894658  1
  Sr  Sr5  1  0.66666342  0.33332956  0.69894682  1
  Sr  Sr6  1  0.66665775  0.33333579  0.47219126  1
  Sr  Sr7  1  0.66666087  0.33333509  0.97219298  1
  Ta  Ta8  1  0.99998002  0.99999697  0.14951856  1
  Ta  Ta9  1  0.99999373  0.00000375  0.35048005  1
  Ta  Ta10  1  0.99999999  0.99999731  0.64951956  1
  Ta  Ta11  1  0.00000233  0.00000063  0.85048134  1
  O  O12  1  0.00000408  0.75160630  0.74999752  1
  O  O13  1  0.03986541  0.73056346  0.40709895  1
  O  O14  1  0.26945230  0.96014129  0.90709335  1
  O  O15  1  0.03986537  0.30930721  0.90709698  1
  O  O16  1  0.99998070  0.24839476  0.25000029  1
  O  O17  1  0.24839633  0.24839813  0.74999803  1
  O  O18  1  0.26944438  0.30931865  0.40709496  1
  O  O19  1  0.69068262  0.96013408  0.40709901  1
  O  O20  1  0.30929706  0.26943840  0.09290383  1
  O  O21  1  0.24838042  0.00000653  0.25000192  1
  O  O22  1  0.69068563  0.73054399  0.90709228  1
  O  O23  1  0.30930619  0.03986615  0.59290316  1
  O  O24  1  0.73054624  0.69068683  0.59290530  1
  O  O25  1  0.75158962  0.75159979  0.25000249  1
  O  O26  1  0.96012770  0.69069132  0.09290550  1
  O  O27  1  0.73053807  0.03986328  0.09290267  1
  O  O28  1  0.75160175  -0.00000327  0.75000069  1
  O  O29  1  0.96012737  0.26944285  0.59290399  1
