# generated using pymatgen
data_Ca3Ta2O8
_symmetry_space_group_name_H-M   'P 1'
_cell_length_a   6.71165977
_cell_length_b   6.71165977
_cell_length_c   9.17540906
_cell_angle_alpha   72.59708255
_cell_angle_beta   107.40291745
_cell_angle_gamma   97.16330682
_symmetry_Int_Tables_number   1
_chemical_formula_structural   Ca3Ta2O8
_chemical_formula_sum   'Ca6 Ta4 O16'
_cell_volume   376.06369863
_cell_formula_units_Z   2
loop_
 _symmetry_equiv_pos_site_id
 _symmetry_equiv_pos_as_xyz
  1  'x, y, z'
loop_
 _atom_site_type_symbol
 _atom_site_label
 _atom_site_symmetry_multiplicity
 _atom_site_fract_x
 _atom_site_fract_y
 _atom_site_fract_z
 _atom_site_occupancy
  Ca  Ca0  1  0.39630728  0.73431527  0.49982844  1
  Ca  Ca1  1  0.27593741  0.27593741  0.75000000  1
  Ca  Ca2  1  0.73431527  0.39630728  0.00017156  1
  Ca  Ca3  1  0.26568473  0.60369272  -0.00017156  1
  Ca  Ca4  1  0.72406259  0.72406259  0.25000000  1
  Ca  Ca5  1  0.60369272  0.26568473  0.50017156  1
  Ta  Ta6  1  0.78239176  0.93373026  0.87906638  1
  Ta  Ta7  1  0.06626974  0.21760824  0.37906638  1
  Ta  Ta8  1  0.93373026  0.78239176  0.62093362  1
  Ta  Ta9  1  0.21760824  0.06626974  0.12093362  1
  O  O10  1  0.93857914  0.69119860  0.85615347  1
  O  O11  1  0.30880140  0.06142086  0.35615347  1
  O  O12  1  0.17912119  0.62506470  0.67887003  1
  O  O13  1  0.59893725  0.71672913  0.96913883  1
  O  O14  1  0.05526169  0.10668771  0.88757878  1
  O  O15  1  0.37493530  0.82087881  0.17887003  1
  O  O16  1  0.28327087  0.40106275  0.46913883  1
  O  O17  1  0.10668771  0.05526169  0.61242122  1
  O  O18  1  0.89331229  0.94473831  0.38757878  1
  O  O19  1  0.71672913  0.59893725  0.53086117  1
  O  O20  1  0.62506470  0.17912119  0.82112997  1
  O  O21  1  0.94473831  0.89331229  0.11242122  1
  O  O22  1  0.40106275  0.28327087  0.03086117  1
  O  O23  1  0.82087881  0.37493530  0.32112997  1
  O  O24  1  0.69119860  0.93857914  0.64384653  1
  O  O25  1  0.06142086  0.30880140  0.14384653  1
