# generated using pymatgen
data_Cr8Ni50Mo15W2
_symmetry_space_group_name_H-M   'P 1'
_cell_length_a   6.30061208
_cell_length_b   11.64078883
_cell_length_c   13.35339937
_cell_angle_alpha   108.30344518
_cell_angle_beta   98.49883332
_cell_angle_gamma   100.44898297
_symmetry_Int_Tables_number   1
_chemical_formula_structural   Cr8Ni50Mo15W2
_chemical_formula_sum   'Cr8 Ni50 Mo15 W2'
_cell_volume   892.16455355
_cell_formula_units_Z   1
loop_
 _symmetry_equiv_pos_site_id
 _symmetry_equiv_pos_as_xyz
  1  'x, y, z'
loop_
 _atom_site_type_symbol
 _atom_site_label
 _atom_site_symmetry_multiplicity
 _atom_site_fract_x
 _atom_site_fract_y
 _atom_site_fract_z
 _atom_site_occupancy
  Cr  Cr0  1  0.87959748  0.16026905  0.48046673  1
  Cr  Cr1  1  0.44087172  0.07957275  0.23942861  1
  Cr  Cr2  1  0.00038603  0.99951718  -0.00034116  1
  Cr  Cr3  1  0.35682491  0.52060115  0.56163074  1
  Cr  Cr4  1  0.52009831  0.64009353  0.91988332  1
  Cr  Cr5  1  0.08286002  0.55952138  0.67870644  1
  Cr  Cr6  1  0.96012056  0.72032069  0.15986948  1
  Cr  Cr7  1  0.83934808  0.88001405  0.64032484  1
  Ni  Ni8  1  0.39803777  0.13325785  0.06769798  1
  Ni  Ni9  1  0.56198509  0.25258487  0.42558897  1
  Ni  Ni10  1  0.12169766  0.17235045  0.18599108  1
  Ni  Ni11  1  0.68264622  0.09352468  0.94719688  1
  Ni  Ni12  1  0.27883360  0.29580316  0.54620989  1
  Ni  Ni13  1  0.83846918  0.21326129  0.30781491  1
  Ni  Ni14  1  0.44143683  0.41708096  0.90671538  1
  Ni  Ni15  1  0.00022022  0.33546701  0.66533790  1
  Ni  Ni16  1  0.72058812  0.37506798  0.78667070  1
  Ni  Ni17  1  0.60055640  0.53492752  0.26703473  1
  Ni  Ni18  1  0.16056332  0.45494175  0.02652302  1
  Ni  Ni19  1  0.32046176  0.57443591  0.38835847  1
  Ni  Ni20  1  0.88117278  0.49700658  0.14693750  1
  Ni  Ni21  1  0.47656480  0.69190563  0.74604770  1
  Ni  Ni22  1  0.04361406  0.61344620  0.50859501  1
  Ni  Ni23  1  0.20219374  0.73266944  0.86581505  1
  Ni  Ni24  1  0.76081198  0.65526472  0.62727853  1
  Ni  Ni25  1  0.64195045  0.81289599  0.10572799  1
  Ni  Ni26  1  0.35849497  0.85569871  0.22615819  1
  Ni  Ni27  1  0.91902074  0.77527077  0.98743912  1
  Ni  Ni28  1  0.52257940  0.97397889  0.58700219  1
  Ni  Ni29  1  0.07978398  0.89360207  0.34525071  1
  Ni  Ni30  1  0.23745557  0.01347323  0.70645346  1
  Ni  Ni31  1  0.80157097  0.93643040  0.46811933  1
  Ni  Ni32  1  0.95984310  0.05306947  0.82652848  1
  Ni  Ni33  1  0.79926837  0.26506558  0.13348712  1
  Ni  Ni34  1  0.96257714  0.38564071  0.49517363  1
  Ni  Ni35  1  0.51895964  0.30310998  0.25338456  1
  Ni  Ni36  1  0.07856999  0.22269759  0.01285974  1
  Ni  Ni37  1  0.67978933  0.42707899  0.61349393  1
  Ni  Ni38  1  0.23984449  0.34626307  0.37474396  1
  Ni  Ni39  1  0.83840599  0.54770194  0.97416788  1
  Ni  Ni40  1  0.39741787  0.46778780  0.73279208  1
  Ni  Ni41  1  0.12198950  0.50677533  0.85220900  1
  Ni  Ni42  1  0.99924740  0.66569436  0.33216306  1
  Ni  Ni43  1  0.56189922  0.58672101  0.09225947  1
  Ni  Ni44  1  0.72088401  0.70679358  0.45470308  1
  Ni  Ni45  1  0.27741114  0.62630094  0.21274630  1
  Ni  Ni46  1  0.87983568  0.82678468  0.81345608  1
  Ni  Ni47  1  0.44177668  0.74405947  0.57384000  1
  Ni  Ni48  1  0.60152625  0.86423324  0.93347209  1
  Ni  Ni49  1  0.15620565  0.78397233  0.69292278  1
  Ni  Ni50  1  0.04114889  0.94495597  0.17245371  1
  Ni  Ni51  1  0.75814470  0.98735199  0.29426893  1
  Ni  Ni52  1  0.31795681  0.90716859  0.05423534  1
  Ni  Ni53  1  0.91849795  0.10354048  0.65183262  1
  Ni  Ni54  1  0.48183093  0.02677970  0.41218170  1
  Ni  Ni55  1  0.63904847  0.14500754  0.77296551  1
  Ni  Ni56  1  0.19750128  0.06602963  0.53237427  1
  Ni  Ni57  1  0.35972607  0.18510074  0.89332712  1
  Mo  Mo58  1  0.71921963  0.03961780  0.12035631  1
  Mo  Mo59  1  0.60555920  0.19930169  0.59741283  1
  Mo  Mo60  1  0.76016944  0.32019742  0.95999262  1
  Mo  Mo61  1  0.32000661  0.24037399  0.71969069  1
  Mo  Mo62  1  0.04024655  0.27984883  0.83963835  1
  Mo  Mo63  1  0.48004609  0.35998721  0.07996097  1
  Mo  Mo64  1  0.63413692  0.48100377  0.44324563  1
  Mo  Mo65  1  0.20080446  0.39967879  0.19950993  1
  Mo  Mo66  1  0.80016434  0.60054272  0.80007280  1
  Mo  Mo67  1  0.68482083  0.75969738  0.27776983  1
  Mo  Mo68  1  0.24016359  0.68035935  0.03976443  1
  Mo  Mo69  1  0.40007028  0.80027348  0.40015557  1
  Mo  Mo70  1  0.56442230  0.91855656  0.75774465  1
  Mo  Mo71  1  0.11574427  0.84042936  0.52205194  1
  Mo  Mo72  1  0.27487122  0.96036796  0.88234981  1
  W  W73  1  0.16011333  0.11980171  0.35974973  1
  W  W74  1  0.91931767  0.44002143  0.32055774  1
