# generated using pymatgen
data_Sr2LaCl7
_symmetry_space_group_name_H-M   'P 1'
_cell_length_a   8.45179860
_cell_length_b   10.60051405
_cell_length_c   9.34670292
_cell_angle_alpha   90.00000000
_cell_angle_beta   52.88348142
_cell_angle_gamma   90.00000000
_symmetry_Int_Tables_number   1
_chemical_formula_structural   Sr2LaCl7
_chemical_formula_sum   'Sr4 La2 Cl14'
_cell_volume   667.75350437
_cell_formula_units_Z   2
loop_
 _symmetry_equiv_pos_site_id
 _symmetry_equiv_pos_as_xyz
  1  'x, y, z'
loop_
 _atom_site_type_symbol
 _atom_site_label
 _atom_site_symmetry_multiplicity
 _atom_site_fract_x
 _atom_site_fract_y
 _atom_site_fract_z
 _atom_site_occupancy
  Sr  Sr0  1  0.47010226  0.02882410  0.76761570  1
  Sr  Sr1  1  0.47010226  0.47117590  0.76761570  1
  Sr  Sr2  1  0.52989774  0.52882410  0.23238430  1
  Sr  Sr3  1  0.52989774  0.97117590  0.23238430  1
  La  La4  1  0.94701677  0.25000000  0.25797460  1
  La  La5  1  0.05298323  0.75000000  0.74202540  1
  Cl  Cl6  1  0.19437200  0.25000000  0.87595068  1
  Cl  Cl7  1  0.23664923  0.99123686  0.62508736  1
  Cl  Cl8  1  0.23664923  0.50876314  0.62508736  1
  Cl  Cl9  1  0.26504472  0.07692933  0.15522632  1
  Cl  Cl10  1  0.26504472  0.42307067  0.15522632  1
  Cl  Cl11  1  0.34601177  0.75000000  0.80602673  1
  Cl  Cl12  1  0.25424060  0.75000000  0.36049121  1
  Cl  Cl13  1  0.74575940  0.25000000  0.63950879  1
  Cl  Cl14  1  0.65398823  0.25000000  0.19397327  1
  Cl  Cl15  1  0.73495528  0.57692933  0.84477368  1
  Cl  Cl16  1  0.73495528  0.92307067  0.84477368  1
  Cl  Cl17  1  0.76335077  0.49123686  0.37491264  1
  Cl  Cl18  1  0.76335077  0.00876314  0.37491264  1
  Cl  Cl19  1  0.80562800  0.75000000  0.12404932  1
