# generated using pymatgen
data_YScO3
_symmetry_space_group_name_H-M   'P 1'
_cell_length_a   3.59051397
_cell_length_b   3.59066487
_cell_length_c   12.44423899
_cell_angle_alpha   90.00008934
_cell_angle_beta   89.99952869
_cell_angle_gamma   119.99832587
_symmetry_Int_Tables_number   1
_chemical_formula_structural   YScO3
_chemical_formula_sum   'Y2 Sc2 O6'
_cell_volume   138.94335916
_cell_formula_units_Z   2
loop_
 _symmetry_equiv_pos_site_id
 _symmetry_equiv_pos_as_xyz
  1  'x, y, z'
loop_
 _atom_site_type_symbol
 _atom_site_label
 _atom_site_symmetry_multiplicity
 _atom_site_fract_x
 _atom_site_fract_y
 _atom_site_fract_z
 _atom_site_occupancy
  Y  Y0  1  0.99999130  0.99989415  0.99999541  1
  Y  Y1  1  0.00002864  0.00011946  0.50002134  1
  Sc  Sc2  1  0.33330485  0.66671109  0.24999132  1
  Sc  Sc3  1  0.66669529  0.33337056  0.74997435  1
  O  O4  1  0.33332355  0.66662227  0.08309264  1
  O  O5  1  0.33333380  0.66672998  0.41691203  1
  O  O6  1  0.99994200  0.00000758  0.24999953  1
  O  O7  1  0.00004263  0.00008374  0.74999811  1
  O  O8  1  0.66665902  0.33327718  0.91691175  1
  O  O9  1  0.66667992  0.33338399  0.58310453  1
