# generated using pymatgen
data_Ho2B4O9
_symmetry_space_group_name_H-M   'P 1'
_cell_length_a   6.18562563
_cell_length_b   6.44568259
_cell_length_c   7.48688190
_cell_angle_alpha   102.51358744
_cell_angle_beta   97.13334172
_cell_angle_gamma   102.41791305
_symmetry_Int_Tables_number   1
_chemical_formula_structural   Ho2B4O9
_chemical_formula_sum   'Ho4 B8 O18'
_cell_volume   279.99494434
_cell_formula_units_Z   2
loop_
 _symmetry_equiv_pos_site_id
 _symmetry_equiv_pos_as_xyz
  1  'x, y, z'
loop_
 _atom_site_type_symbol
 _atom_site_label
 _atom_site_symmetry_multiplicity
 _atom_site_fract_x
 _atom_site_fract_y
 _atom_site_fract_z
 _atom_site_occupancy
  Ho  Ho0  1  0.11275857  0.32286423  0.64045771  1
  Ho  Ho1  1  0.45056842  0.90902244  0.71269201  1
  Ho  Ho2  1  0.54943158  0.09097756  0.28730799  1
  Ho  Ho3  1  0.88724143  0.67713577  0.35954229  1
  B  B4  1  0.00562813  0.85436331  0.81038583  1
  B  B5  1  0.26891242  0.66624147  0.01861515  1
  B  B6  1  0.37364051  0.64329301  0.34905913  1
  B  B7  1  0.33846437  0.31792319  0.07283304  1
  B  B8  1  0.66153563  0.68207681  0.92716696  1
  B  B9  1  0.62635949  0.35670699  0.65094087  1
  B  B10  1  0.73108758  0.33375853  0.98138485  1
  B  B11  1  0.99437187  0.14563669  0.18961417  1
  O  O12  1  0.06948906  0.95568669  0.67488756  1
  O  O13  1  0.13972219  0.71759610  0.85642344  1
  O  O14  1  0.22613303  0.42822084  0.95755997  1
  O  O15  1  0.21917102  0.59489799  0.47804183  1
  O  O16  1  0.23613729  0.73687116  0.21143019  1
  O  O17  1  0.18762597  0.13173331  0.12076102  1
  O  O18  1  0.42015667  0.18213715  0.55469824  1
  O  O19  1  0.49520167  0.20903328  0.97944646  1
  O  O20  1  0.53954576  0.53767587  0.74769048  1
  O  O21  1  0.46045424  0.46232413  0.25230952  1
  O  O22  1  0.50479833  0.79096672  0.02055354  1
  O  O23  1  0.57984333  0.81786285  0.44530176  1
  O  O24  1  0.81237403  0.86826669  0.87923898  1
  O  O25  1  0.76386271  0.26312884  0.78856981  1
  O  O26  1  0.78082898  0.40510201  0.52195817  1
  O  O27  1  0.77386697  0.57177916  0.04244003  1
  O  O28  1  0.86027781  0.28240390  0.14357656  1
  O  O29  1  0.93051094  0.04431331  0.32511244  1
