# generated using pymatgen
data_LiFe2(PO4)2
_symmetry_space_group_name_H-M   'P 1'
_cell_length_a   8.53724962
_cell_length_b   5.24550402
_cell_length_c   8.77398802
_cell_angle_alpha   90.00000000
_cell_angle_beta   108.80863827
_cell_angle_gamma   90.00000000
_symmetry_Int_Tables_number   1
_chemical_formula_structural   LiFe2(PO4)2
_chemical_formula_sum   'Li2 Fe4 P4 O16'
_cell_volume   371.93670983
_cell_formula_units_Z   2
loop_
 _symmetry_equiv_pos_site_id
 _symmetry_equiv_pos_as_xyz
  1  'x, y, z'
loop_
 _atom_site_type_symbol
 _atom_site_label
 _atom_site_symmetry_multiplicity
 _atom_site_fract_x
 _atom_site_fract_y
 _atom_site_fract_z
 _atom_site_occupancy
  Li  Li0  1  0.09437064  0.82433169  0.96770222  1
  Li  Li1  1  0.59437064  0.17566831  0.96770222  1
  Fe  Fe2  1  0.33846153  0.80610125  0.73306660  1
  Fe  Fe3  1  0.50245326  0.31694064  0.25701236  1
  Fe  Fe4  1  0.83846153  0.19389875  0.73306660  1
  Fe  Fe5  1  0.00245326  0.68305936  0.25701236  1
  P  P6  1  0.23151553  0.31107737  0.87467479  1
  P  P7  1  0.35926429  0.81366570  0.36136600  1
  P  P8  1  0.73151553  0.68892263  0.87467479  1
  P  P9  1  0.85926429  0.18633430  0.36136600  1
  O  O10  1  0.07626026  0.18373970  0.89661705  1
  O  O11  1  0.99824134  0.34867085  0.33122757  1
  O  O12  1  0.20253438  0.60152287  0.84470325  1
  O  O13  1  0.28639410  0.18523787  0.74255688  1
  O  O14  1  0.19954871  0.78407718  0.20880865  1
  O  O15  1  0.30785036  0.72557950  0.50374128  1
  O  O16  1  0.41811822  0.09445141  0.37905889  1
  O  O17  1  0.57626026  0.81626030  0.89661705  1
  O  O18  1  0.38095639  0.27250840  0.03586147  1
  O  O19  1  0.49824134  0.65132915  0.33122757  1
  O  O20  1  0.70253438  0.39847713  0.84470325  1
  O  O21  1  0.78639410  0.81476213  0.74255688  1
  O  O22  1  0.69954871  0.21592282  0.20880865  1
  O  O23  1  0.80785036  0.27442050  0.50374128  1
  O  O24  1  0.91811822  0.90554859  0.37905889  1
  O  O25  1  0.88095639  0.72749160  0.03586147  1
