# generated using pymatgen
data_Li3Mn4(PO4)6
_symmetry_space_group_name_H-M   'P 1'
_cell_length_a   8.32201882
_cell_length_b   11.78881312
_cell_length_c   8.65005033
_cell_angle_alpha   89.79797666
_cell_angle_beta   90.61697880
_cell_angle_gamma   90.57546248
_symmetry_Int_Tables_number   1
_chemical_formula_structural   Li3Mn4(PO4)6
_chemical_formula_sum   'Li6 Mn8 P12 O48'
_cell_volume   848.53114764
_cell_formula_units_Z   2
loop_
 _symmetry_equiv_pos_site_id
 _symmetry_equiv_pos_as_xyz
  1  'x, y, z'
loop_
 _atom_site_type_symbol
 _atom_site_label
 _atom_site_symmetry_multiplicity
 _atom_site_fract_x
 _atom_site_fract_y
 _atom_site_fract_z
 _atom_site_occupancy
  Li  Li0  1  0.18691629  0.17856549  0.78747819  1
  Li  Li1  1  0.32210443  0.32222300  0.28493708  1
  Li  Li2  1  0.42884788  0.80386370  0.59870262  1
  Li  Li3  1  0.81903391  0.82343870  0.20947555  1
  Li  Li4  1  0.92277340  0.66001692  0.49930174  1
  Li  Li5  1  0.91926104  0.30792710  0.90880365  1
  Mn  Mn6  1  0.25347533  0.88685243  0.02851390  1
  Mn  Mn7  1  0.25336228  0.60545691  0.52792226  1
  Mn  Mn8  1  0.25653055  0.38841386  0.96798184  1
  Mn  Mn9  1  0.24972388  0.11322106  0.46527109  1
  Mn  Mn10  1  0.75226371  0.88811326  0.53324777  1
  Mn  Mn11  1  0.74830223  0.61425208  0.02940727  1
  Mn  Mn12  1  0.75275512  0.38759663  0.47102173  1
  Mn  Mn13  1  0.74444590  0.10692032  0.97271671  1
  P  P14  1  0.03275008  0.49259074  0.25257763  1
  P  P15  1  0.11873160  0.85103983  0.37768616  1
  P  P16  1  0.11264647  0.14039490  0.11140121  1
  P  P17  1  0.39234300  0.64915415  0.88556657  1
  P  P18  1  0.38932271  0.35254052  0.61052901  1
  P  P19  1  0.46057651  0.00950759  0.75274487  1
  P  P20  1  0.53473031  0.99322702  0.24897094  1
  P  P21  1  0.61188528  0.64272630  0.38542601  1
  P  P22  1  0.61386158  0.35302443  0.11958372  1
  P  P23  1  0.88761983  0.85524444  0.88419117  1
  P  P24  1  0.89036511  0.15001062  0.61562981  1
  P  P25  1  0.95922181  0.50879159  0.75279597  1
  O  O26  1  0.06406091  0.89489448  0.88935669  1
  O  O27  1  0.05460796  0.44059951  0.87325736  1
  O  O28  1  0.05781964  0.60342053  0.66906691  1
  O  O29  1  0.06962121  0.18114356  0.57999581  1
  O  O30  1  0.08859668  0.58735350  0.36799278  1
  O  O31  1  0.13923047  0.97587699  0.42602944  1
  O  O32  1  0.12342789  0.84048705  0.19919804  1
  O  O33  1  0.13023858  0.24342535  0.99680834  1
  O  O34  1  0.16995029  0.18277843  0.27314876  1
  O  O35  1  0.18063347  0.43592332  0.18674549  1
  O  O36  1  0.23845459  0.77639134  0.47191776  1
  O  O37  1  0.27447535  0.72465058  0.97454950  1
  O  O38  1  0.27032593  0.44705641  0.55365043  1
  O  O39  1  0.22830169  0.04934754  0.05202642  1
  O  O40  1  0.31343667  0.06995356  0.67607877  1
  O  O41  1  0.33484034  0.30981234  0.76742644  1
  O  O42  1  0.37944146  0.66450811  0.70486097  1
  O  O43  1  0.36186076  0.52393782  0.91972782  1
  O  O44  1  0.39400583  0.91618372  0.86059426  1
  O  O45  1  0.36593539  0.25637050  0.48781455  1
  O  O46  1  0.43709052  0.89613909  0.17079654  1
  O  O47  1  0.43741970  0.59882171  0.38413781  1
  O  O48  1  0.43745821  0.31916987  0.08341008  1
  O  O49  1  0.44172323  0.05737210  0.37394896  1
  O  O50  1  0.54558323  0.94195983  0.62989029  1
  O  O51  1  0.56667139  0.68258550  0.93054958  1
  O  O52  1  0.56429271  0.39442594  0.60818729  1
  O  O53  1  0.56297611  0.10417202  0.83047414  1
  O  O54  1  0.62732205  0.74577252  0.49504823  1
  O  O55  1  0.59632760  0.08641533  0.13740931  1
  O  O56  1  0.64077361  0.47754918  0.07403061  1
  O  O57  1  0.62028322  0.34109232  0.29861222  1
  O  O58  1  0.67024194  0.68345590  0.22374536  1
  O  O59  1  0.68444574  0.93645719  0.32375708  1
  O  O60  1  0.76989216  0.94754574  0.94498416  1
  O  O61  1  0.73530904  0.55359643  0.44565478  1
  O  O62  1  0.73109275  0.27729997  0.02773715  1
  O  O63  1  0.77467268  0.22602494  0.52268999  1
  O  O64  1  0.81299229  0.56535489  0.82788230  1
  O  O65  1  0.83877422  0.81720142  0.72091498  1
  O  O66  1  0.86518924  0.75660612  0.00333305  1
  O  O67  1  0.88134712  0.16592643  0.79683390  1
  O  O68  1  0.85889195  0.02647837  0.57839753  1
  O  O69  1  0.89412959  0.41508778  0.64392645  1
  O  O70  1  0.94500682  0.81134742  0.41253205  1
  O  O71  1  0.93395676  0.39623690  0.33182563  1
  O  O72  1  0.93991987  0.55790959  0.12649290  1
  O  O73  1  0.93522890  0.10340326  0.11222461  1
