# generated using pymatgen
data_Li5Fe2P2(CO7)2
_symmetry_space_group_name_H-M   'P 1'
_cell_length_a   5.11056517
_cell_length_b   6.45758303
_cell_length_c   8.47066365
_cell_angle_alpha   94.84087139
_cell_angle_beta   94.87873505
_cell_angle_gamma   94.06366399
_symmetry_Int_Tables_number   1
_chemical_formula_structural   Li5Fe2P2(CO7)2
_chemical_formula_sum   'Li5 Fe2 P2 C2 O14'
_cell_volume   276.68282351
_cell_formula_units_Z   1
loop_
 _symmetry_equiv_pos_site_id
 _symmetry_equiv_pos_as_xyz
  1  'x, y, z'
loop_
 _atom_site_type_symbol
 _atom_site_label
 _atom_site_symmetry_multiplicity
 _atom_site_fract_x
 _atom_site_fract_y
 _atom_site_fract_z
 _atom_site_occupancy
  Li  Li0  1  0.30357927  0.04446378  0.71873072  1
  Li  Li1  1  0.37849225  0.56850175  0.74069713  1
  Li  Li2  1  0.64191099  0.59706595  0.21473240  1
  Li  Li3  1  0.81404559  0.83647605  0.87591073  1
  Li  Li4  1  0.75499576  0.14315170  0.22546467  1
  Fe  Fe5  1  0.21112817  0.84016775  0.31769681  1
  Fe  Fe6  1  0.83175400  0.33352638  0.63001400  1
  P  P7  1  0.29454844  0.34450555  0.39352456  1
  P  P8  1  0.73719849  0.82969048  0.55565997  1
  C  C9  1  0.33616399  0.85364138  0.02065152  1
  C  C10  1  0.75121351  0.34380903  0.92038779  1
  O  O11  1  0.09167538  0.84006298  0.04525175  1
  O  O12  1  0.18473370  0.40088262  0.55916492  1
  O  O13  1  0.12859178  0.15310811  0.31043787  1
  O  O14  1  0.29505747  0.52796982  0.29057429  1
  O  O15  1  0.41491476  0.83934086  0.87754611  1
  O  O16  1  0.44723022  0.88310815  0.53634277  1
  O  O17  1  0.55646838  0.30239269  0.80280579  1
  O  O18  1  0.51276410  0.87639932  0.14334541  1
  O  O19  1  0.59195734  0.29307250  0.42882920  1
  O  O20  1  0.70654536  0.35361803  0.06492406  1
  O  O21  1  0.75731749  0.64800301  0.66821129  1
  O  O22  1  0.84401133  0.76912484  0.39638961  1
  O  O23  1  0.98222408  0.37493826  0.86927695  1
  O  O24  1  0.90540314  0.02077702  0.65223167  1
