# generated using pymatgen
data_Li7VGeO8
_symmetry_space_group_name_H-M   'P 1'
_cell_length_a   10.84705996
_cell_length_b   6.38425063
_cell_length_c   5.37244599
_cell_angle_alpha   89.28774035
_cell_angle_beta   90.14504763
_cell_angle_gamma   89.65346269
_symmetry_Int_Tables_number   1
_chemical_formula_structural   Li7VGeO8
_chemical_formula_sum   'Li14 V2 Ge2 O16'
_cell_volume   372.00694666
_cell_formula_units_Z   2
loop_
 _symmetry_equiv_pos_site_id
 _symmetry_equiv_pos_as_xyz
  1  'x, y, z'
loop_
 _atom_site_type_symbol
 _atom_site_label
 _atom_site_symmetry_multiplicity
 _atom_site_fract_x
 _atom_site_fract_y
 _atom_site_fract_z
 _atom_site_occupancy
  Li  Li0  1  0.08340620  0.23582754  0.67869187  1
  Li  Li1  1  0.17350306  0.48483238  0.31918203  1
  Li  Li2  1  0.17370852  0.98288276  0.31749078  1
  Li  Li3  1  0.34350155  0.98223233  0.81817668  1
  Li  Li4  1  0.34334732  0.48157045  0.81873956  1
  Li  Li5  1  0.43203332  0.72928714  0.18453140  1
  Li  Li6  1  0.58393186  0.25492569  0.83424250  1
  Li  Li7  1  0.66197873  0.49020795  0.20132875  1
  Li  Li8  1  0.65268277  0.95115349  0.11641374  1
  Li  Li9  1  0.82739579  0.61877689  0.97271837  1
  Li  Li10  1  0.84628084  0.98939977  0.83158428  1
  Li  Li11  1  0.70899861  0.09114090  0.45477444  1
  Li  Li12  1  0.84248055  0.45234077  0.62518011  1
  Li  Li13  1  0.93289370  0.76166055  0.35591538  1
  V  V14  1  0.09366887  0.73382945  0.83121267  1
  V  V15  1  0.42383512  0.22813992  0.33252197  1
  Ge  Ge16  1  0.59153225  0.73554885  0.67435179  1
  Ge  Ge17  1  0.92738389  0.24172949  0.16782628  1
  O  O18  1  0.07343809  0.23300170  0.30762794  1
  O  O19  1  0.09525952  0.73507363  0.15830577  1
  O  O20  1  0.16895404  0.51560335  0.71625258  1
  O  O21  1  0.16740664  0.95338210  0.71533624  1
  O  O22  1  0.34885238  0.01031710  0.21911445  1
  O  O23  1  0.35035487  0.44924947  0.21344076  1
  O  O24  1  0.42079480  0.23281254  0.65833731  1
  O  O25  1  0.44435939  0.73122342  0.81041528  1
  O  O26  1  0.57982278  0.22163337  0.22907154  1
  O  O27  1  0.59430599  0.73894232  0.34448871  1
  O  O28  1  0.68086119  0.52137486  0.80356503  1
  O  O29  1  0.66957631  0.97337327  0.76730094  1
  O  O30  1  0.83762932  0.00737729  0.22908781  1
  O  O31  1  0.84369680  0.46866539  0.27557333  1
  O  O32  1  0.92546532  0.25487568  0.83707207  1
  O  O33  1  0.93727961  0.73530819  0.72822966  1
