# generated using pymatgen
data_Li11Ti8Fe5O32
_symmetry_space_group_name_H-M   'P 1'
_cell_length_a   8.35569212
_cell_length_b   8.43889853
_cell_length_c   8.42189638
_cell_angle_alpha   90.14081063
_cell_angle_beta   89.97067364
_cell_angle_gamma   89.93471995
_symmetry_Int_Tables_number   1
_chemical_formula_structural   Li11Ti8Fe5O32
_chemical_formula_sum   'Li11 Ti8 Fe5 O32'
_cell_volume   593.84955786
_cell_formula_units_Z   1
loop_
 _symmetry_equiv_pos_site_id
 _symmetry_equiv_pos_as_xyz
  1  'x, y, z'
loop_
 _atom_site_type_symbol
 _atom_site_label
 _atom_site_symmetry_multiplicity
 _atom_site_fract_x
 _atom_site_fract_y
 _atom_site_fract_z
 _atom_site_occupancy
  Li  Li0  1  0.00238708  0.49469803  0.50696166  1
  Li  Li1  1  0.11618673  0.87532242  0.37290849  1
  Li  Li2  1  0.24204015  0.74963632  0.75135418  1
  Li  Li3  1  0.24992719  0.25269317  0.24939982  1
  Li  Li4  1  0.37481049  0.12434559  0.87501745  1
  Li  Li5  1  0.50117462  0.50055554  0.00272048  1
  Li  Li6  1  0.50551032  0.00038473  0.49920633  1
  Li  Li7  1  0.63359868  0.62053015  0.62403006  1
  Li  Li8  1  0.75147933  0.25233049  0.74299178  1
  Li  Li9  1  0.87526035  0.37750369  0.12937107  1
  Li  Li10  1  0.00082642  0.99835406  0.00282511  1
  Ti  Ti11  1  0.13413901  0.61849833  0.13218952  1
  Ti  Ti12  1  0.12102884  0.36471158  0.87938196  1
  Ti  Ti13  1  0.13425868  0.12280370  0.61921278  1
  Ti  Ti14  1  0.36084270  0.88502001  0.12850035  1
  Ti  Ti15  1  0.37057833  0.63629030  0.38852689  1
  Ti  Ti16  1  0.38018840  0.37727742  0.63466569  1
  Ti  Ti17  1  0.61688627  0.87234625  0.86587767  1
  Ti  Ti18  1  0.62616847  0.13743392  0.11560644  1
  Fe  Fe19  1  0.62319704  0.37326683  0.37622840  1
  Fe  Fe20  1  0.74708228  0.75163735  0.24584037  1
  Fe  Fe21  1  0.87609279  0.62628414  0.87199278  1
  Fe  Fe22  1  0.87673277  0.87483178  0.62735539  1
  Fe  Fe23  1  0.87205849  0.12666316  0.37260806  1
  O  O24  1  0.09483076  0.12797764  0.38806276  1
  O  O25  1  0.10324821  0.61495384  0.88683599  1
  O  O26  1  0.09862405  0.89272016  0.62194421  1
  O  O27  1  0.12588951  0.39203654  0.10330333  1
  O  O28  1  0.11158160  0.14591799  0.85456764  1
  O  O29  1  0.13920846  0.62071199  0.35632903  1
  O  O30  1  0.13875792  0.36053089  0.63439141  1
  O  O31  1  0.14362465  0.85900674  0.12520567  1
  O  O32  1  0.35451204  0.13753618  0.62004754  1
  O  O33  1  0.36017054  0.63754632  0.13477631  1
  O  O34  1  0.35911697  0.37631552  0.85478178  1
  O  O35  1  0.37860254  0.85536286  0.35940031  1
  O  O36  1  0.37323014  0.60906777  0.60748191  1
  O  O37  1  0.39479705  0.10515501  0.12707172  1
  O  O38  1  0.39470660  0.39003722  0.38459558  1
  O  O39  1  0.39740654  0.87203022  0.89179391  1
  O  O40  1  0.60805599  0.37445096  0.60058018  1
  O  O41  1  0.61914506  0.88246005  0.11631545  1
  O  O42  1  0.61672346  0.61596425  0.37092774  1
  O  O43  1  0.63710118  0.10597360  0.89718170  1
  O  O44  1  0.62569134  0.35708307  0.14852033  1
  O  O45  1  0.65024157  0.87428405  0.64357124  1
  O  O46  1  0.64482073  0.12981267  0.36303301  1
  O  O47  1  0.65304768  0.64072990  0.87746545  1
  O  O48  1  0.85314353  0.35152625  0.37789808  1
  O  O49  1  0.86766528  0.85495882  0.86774273  1
  O  O50  1  0.86202874  0.12252101  0.15305648  1
  O  O51  1  0.87726333  0.64422711  0.64858965  1
  O  O52  1  0.86941297  0.88862620  0.38489563  1
  O  O53  1  0.88668653  0.40601125  0.87138280  1
  O  O54  1  0.88030970  0.10905260  0.60234740  1
  O  O55  1  0.88789893  0.63201034  0.11114926  1
