# generated using pymatgen
data_LiCoPHO5
_symmetry_space_group_name_H-M   'P 1'
_cell_length_a   5.28605883
_cell_length_b   7.04117611
_cell_length_c   5.07878341
_cell_angle_alpha   108.78815562
_cell_angle_beta   98.36598533
_cell_angle_gamma   106.93471699
_symmetry_Int_Tables_number   1
_chemical_formula_structural   LiCoPHO5
_chemical_formula_sum   'Li2 Co2 P2 H2 O10'
_cell_volume   165.11525255
_cell_formula_units_Z   2
loop_
 _symmetry_equiv_pos_site_id
 _symmetry_equiv_pos_as_xyz
  1  'x, y, z'
loop_
 _atom_site_type_symbol
 _atom_site_label
 _atom_site_symmetry_multiplicity
 _atom_site_fract_x
 _atom_site_fract_y
 _atom_site_fract_z
 _atom_site_occupancy
  Li  Li0  1  0.39431694  0.82216215  0.74424045  1
  Li  Li1  1  0.60568306  0.17783785  0.25575955  1
  Co  Co2  1  0.00000000  0.50000000  0.00000000  1
  Co  Co3  1  0.00000000  0.00000000  0.00000000  1
  P  P4  1  0.35243472  0.23521289  0.67814362  1
  P  P5  1  0.64756528  0.76478711  0.32185638  1
  H  H6  1  0.07003159  0.34559554  0.34610601  1
  H  H7  1  0.92996841  0.65440446  0.65389399  1
  O  O8  1  0.04836226  0.72703744  0.85495236  1
  O  O9  1  0.19790313  0.39369809  0.72375266  1
  O  O10  1  0.33976383  0.65712315  0.30244868  1
  O  O11  1  0.24290582  0.06657927  0.36323676  1
  O  O12  1  0.33008203  0.11648550  0.89086709  1
  O  O13  1  0.66991797  0.88351450  0.10913291  1
  O  O14  1  0.75709418  0.93342073  0.63676324  1
  O  O15  1  0.66023617  0.34287685  0.69755132  1
  O  O16  1  0.80209687  0.60630191  0.27624734  1
  O  O17  1  0.95163774  0.27296256  0.14504764  1
