# generated using pymatgen
data_Li2MnV(PO4)3
_symmetry_space_group_name_H-M   'P 1'
_cell_length_a   8.95526709
_cell_length_b   8.31154582
_cell_length_c   8.40858883
_cell_angle_alpha   59.58801967
_cell_angle_beta   64.08196423
_cell_angle_gamma   90.94737206
_symmetry_Int_Tables_number   1
_chemical_formula_structural   Li2MnV(PO4)3
_chemical_formula_sum   'Li4 Mn2 V2 P6 O24'
_cell_volume   462.09063515
_cell_formula_units_Z   2
loop_
 _symmetry_equiv_pos_site_id
 _symmetry_equiv_pos_as_xyz
  1  'x, y, z'
loop_
 _atom_site_type_symbol
 _atom_site_label
 _atom_site_symmetry_multiplicity
 _atom_site_fract_x
 _atom_site_fract_y
 _atom_site_fract_z
 _atom_site_occupancy
  Li  Li0  1  0.12923305  0.07686757  0.60532254  1
  Li  Li1  1  0.13741817  0.32504132  0.94490269  1
  Li  Li2  1  0.62496563  0.80740046  0.63224048  1
  Li  Li3  1  0.85617408  0.25570630  0.81890953  1
  Mn  Mn4  1  0.56464969  0.86215233  0.28455622  1
  Mn  Mn5  1  0.43248438  0.13623669  0.71755682  1
  V  V6  1  0.03943230  0.36261121  0.30230037  1
  V  V7  1  0.95846427  0.65754847  0.68905249  1
  P  P8  1  0.24662900  0.04388704  0.22107007  1
  P  P9  1  0.24987232  0.46345869  0.49961005  1
  P  P10  1  0.24674491  0.75597464  0.79453918  1
  P  P11  1  0.75221882  0.25513088  0.20350440  1
  P  P12  1  0.74513949  0.53256747  0.50051719  1
  P  P13  1  0.75048000  0.95219335  0.78990006  1
  O  O14  1  0.10706974  0.83093007  0.39405878  1
  O  O15  1  0.25232621  0.13125495  0.00901125  1
  O  O16  1  0.18223613  0.17002125  0.31105499  1
  O  O17  1  0.18330522  0.47940951  0.34948614  1
  O  O18  1  0.09916839  0.46086078  0.69172891  1
  O  O19  1  0.10687360  0.79811679  0.72648147  1
  O  O20  1  0.42369589  0.02608257  0.19723839  1
  O  O21  1  0.27073360  0.25775429  0.60744790  1
  O  O22  1  0.41605753  0.62649054  0.37228992  1
  O  O23  1  0.18218337  0.53675200  0.98774572  1
  O  O24  1  0.25950976  0.89230642  0.86392522  1
  O  O25  1  0.42025196  0.78863071  0.61356402  1
  O  O26  1  0.58589714  0.21805690  0.38949256  1
  O  O27  1  0.74084634  0.11501994  0.13446290  1
  O  O28  1  0.82363559  0.46519946  0.99139572  1
  O  O29  1  0.57253054  0.36993923  0.63685705  1
  O  O30  1  0.71492604  0.73448683  0.40905809  1
  O  O31  1  0.58326848  0.97129008  0.78155337  1
  O  O32  1  0.90493425  0.22584565  0.25365156  1
  O  O33  1  0.88566105  0.51985888  0.31762344  1
  O  O34  1  0.81277645  0.50612032  0.65279359  1
  O  O35  1  0.80485614  0.81805685  0.70690390  1
  O  O36  1  0.73356480  0.87353535  0.00382960  1
  O  O37  1  0.89918364  0.15765022  0.62737441  1
