# generated using pymatgen
data_Li3Mn2P2(CO7)2
_symmetry_space_group_name_H-M   'P 1'
_cell_length_a   8.28602202
_cell_length_b   8.25806900
_cell_length_c   8.20198597
_cell_angle_alpha   75.81646750
_cell_angle_beta   86.93651899
_cell_angle_gamma   92.45337552
_symmetry_Int_Tables_number   1
_chemical_formula_structural   Li3Mn2P2(CO7)2
_chemical_formula_sum   'Li6 Mn4 P4 C4 O28'
_cell_volume   542.44065905
_cell_formula_units_Z   2
loop_
 _symmetry_equiv_pos_site_id
 _symmetry_equiv_pos_as_xyz
  1  'x, y, z'
loop_
 _atom_site_type_symbol
 _atom_site_label
 _atom_site_symmetry_multiplicity
 _atom_site_fract_x
 _atom_site_fract_y
 _atom_site_fract_z
 _atom_site_occupancy
  Li  Li0  1  0.73495033  0.11410226  0.85778229  1
  Li  Li1  1  0.72863915  0.59146158  0.35760173  1
  Li  Li2  1  0.73866729  0.88350542  0.63781274  1
  Li  Li3  1  0.26649942  0.61907576  0.84736041  1
  Li  Li4  1  0.26699989  0.10507229  0.37055953  1
  Li  Li5  1  0.09478549  0.23991362  0.00360883  1
  Mn  Mn6  1  0.66691731  0.02543197  0.22707720  1
  Mn  Mn7  1  0.67176457  0.52056182  0.73153644  1
  Mn  Mn8  1  0.33242808  0.48008134  0.27505972  1
  Mn  Mn9  1  0.32599838  0.98099227  0.77723914  1
  P  P10  1  0.58030814  0.23340976  0.50670624  1
  P  P11  1  0.57784073  0.74455935  0.01187090  1
  P  P12  1  0.41891707  0.26943913  0.98844562  1
  P  P13  1  0.42242300  0.75961015  0.48571389  1
  C  C14  1  0.95179096  0.47465328  0.77556963  1
  C  C15  1  0.95423099  0.98167090  0.27294463  1
  C  C16  1  0.04307277  0.01225654  0.72684589  1
  C  C17  1  0.04933344  0.52341374  0.23150125  1
  O  O18  1  0.90264814  0.59762211  0.65942792  1
  O  O19  1  0.90658072  0.09605195  0.14536638  1
  O  O20  1  0.89628725  0.03769547  0.70547821  1
  O  O21  1  0.83147759  0.36736262  0.85147626  1
  O  O22  1  0.90638678  0.55638387  0.21331436  1
  O  O23  1  0.82903342  0.88830724  0.36011072  1
  O  O24  1  0.67539131  0.38000931  0.54546984  1
  O  O25  1  0.68642652  0.70194650  0.87333191  1
  O  O26  1  0.68882745  0.17109320  0.37701460  1
  O  O27  1  0.67629312  0.88948166  0.06118319  1
  O  O28  1  0.54657648  0.08626421  0.66998771  1
  O  O29  1  0.59109082  0.70036798  0.54426861  1
  O  O30  1  0.57953667  0.19227042  0.04540680  1
  O  O31  1  0.54326479  0.59500258  0.17153198  1
  O  O32  1  0.46199999  0.43256344  0.84893663  1
  O  O33  1  0.41520224  0.28474273  0.43613937  1
  O  O34  1  0.41288154  0.79903560  0.94572819  1
  O  O35  1  0.46025301  0.92505687  0.34152101  1
  O  O36  1  0.30336194  0.14998546  0.92939452  1
  O  O37  1  0.31872636  0.79967559  0.62822723  1
  O  O38  1  0.32351105  0.62492944  0.42662985  1
  O  O39  1  0.31276386  0.31330006  0.13402645  1
  O  O40  1  0.16266740  0.09976186  0.62734552  1
  O  O41  1  0.09370709  0.45627292  0.81962208  1
  O  O42  1  0.17260965  0.60580143  0.13098941  1
  O  O43  1  0.09645874  0.96517386  0.30958428  1
  O  O44  1  0.10210291  0.40425150  0.35118804  1
  O  O45  1  0.09458518  0.90127196  0.85262086  1
