# generated using pymatgen
data_LiMn4O8
_symmetry_space_group_name_H-M   'P 1'
_cell_length_a   5.82220304
_cell_length_b   6.04281494
_cell_length_c   6.00886031
_cell_angle_alpha   59.07384279
_cell_angle_beta   61.02235991
_cell_angle_gamma   89.99999999
_symmetry_Int_Tables_number   1
_chemical_formula_structural   LiMn4O8
_chemical_formula_sum   'Li1 Mn4 O8'
_cell_volume   149.66093148
_cell_formula_units_Z   1
loop_
 _symmetry_equiv_pos_site_id
 _symmetry_equiv_pos_as_xyz
  1  'x, y, z'
loop_
 _atom_site_type_symbol
 _atom_site_label
 _atom_site_symmetry_multiplicity
 _atom_site_fract_x
 _atom_site_fract_y
 _atom_site_fract_z
 _atom_site_occupancy
  Li  Li0  1  0.50000000  0.50000000  0.00000000  1
  Mn  Mn1  1  0.50000000  0.50000000  0.50000000  1
  Mn  Mn2  1  0.50000000  -0.00000000  0.00000000  1
  Mn  Mn3  1  0.00000000  0.50000000  0.50000000  1
  Mn  Mn4  1  0.00000000  -0.00000000  0.00000000  1
  O  O5  1  0.72394348  0.76132598  0.04548056  1
  O  O6  1  0.74219742  0.69802871  0.51560416  1
  O  O7  1  0.72963141  0.26197365  0.54073819  1
  O  O8  1  0.23057496  0.76132598  0.04548056  1
  O  O9  1  0.76942504  0.23867402  0.95451944  1
  O  O10  1  0.27036859  0.73802635  0.45926181  1
  O  O11  1  0.25780258  0.30197129  0.48439584  1
  O  O12  1  0.27605652  0.23867402  0.95451944  1
