# generated using pymatgen
data_TaFeO4
_symmetry_space_group_name_H-M   'P 1'
_cell_length_a   4.56748643
_cell_length_b   11.84197804
_cell_length_c   4.95198357
_cell_angle_alpha   90.00000000
_cell_angle_beta   90.00000000
_cell_angle_gamma   90.00000000
_symmetry_Int_Tables_number   1
_chemical_formula_structural   TaFeO4
_chemical_formula_sum   'Ta4 Fe4 O16'
_cell_volume   267.84325379
_cell_formula_units_Z   4
loop_
 _symmetry_equiv_pos_site_id
 _symmetry_equiv_pos_as_xyz
  1  'x, y, z'
loop_
 _atom_site_type_symbol
 _atom_site_label
 _atom_site_symmetry_multiplicity
 _atom_site_fract_x
 _atom_site_fract_y
 _atom_site_fract_z
 _atom_site_occupancy
  Ta  Ta0  1  0.00000000  0.17247613  0.25000000  1
  Ta  Ta1  1  0.00000000  0.82752387  0.75000000  1
  Ta  Ta2  1  0.50000000  0.67247613  0.25000000  1
  Ta  Ta3  1  0.50000000  0.32752387  0.75000000  1
  Fe  Fe4  1  0.00000000  0.43347103  0.25000000  1
  Fe  Fe5  1  0.00000000  0.56652897  0.75000000  1
  Fe  Fe6  1  0.50000000  0.06652897  0.75000000  1
  Fe  Fe7  1  0.50000000  0.93347103  0.25000000  1
  O  O8  1  0.23020072  0.30760189  0.07248936  1
  O  O9  1  0.23020072  0.69239811  0.57248936  1
  O  O10  1  0.24570043  0.43793519  0.58525411  1
  O  O11  1  0.24570043  0.56206481  0.08525411  1
  O  O12  1  0.25429957  0.06206481  0.08525411  1
  O  O13  1  0.25429957  0.93793519  0.58525411  1
  O  O14  1  0.26979928  0.19239811  0.57248936  1
  O  O15  1  0.26979928  0.80760189  0.07248936  1
  O  O16  1  0.73020072  0.19239811  0.92751064  1
  O  O17  1  0.73020072  0.80760189  0.42751064  1
  O  O18  1  0.74570043  0.06206481  0.41474589  1
  O  O19  1  0.74570043  0.93793519  0.91474589  1
  O  O20  1  0.75429957  0.56206481  0.41474589  1
  O  O21  1  0.75429957  0.43793519  0.91474589  1
  O  O22  1  0.76979928  0.30760189  0.42751064  1
  O  O23  1  0.76979928  0.69239811  0.92751064  1
