# generated using pymatgen
data_EuVO3
_symmetry_space_group_name_H-M   'P 1'
_cell_length_a   3.88002506
_cell_length_b   3.92562000
_cell_length_c   3.88187267
_cell_angle_alpha   90.21418686
_cell_angle_beta   90.68546181
_cell_angle_gamma   90.22250939
_symmetry_Int_Tables_number   1
_chemical_formula_structural   EuVO3
_chemical_formula_sum   'Eu1 V1 O3'
_cell_volume   59.12165836
_cell_formula_units_Z   1
loop_
 _symmetry_equiv_pos_site_id
 _symmetry_equiv_pos_as_xyz
  1  'x, y, z'
loop_
 _atom_site_type_symbol
 _atom_site_label
 _atom_site_symmetry_multiplicity
 _atom_site_fract_x
 _atom_site_fract_y
 _atom_site_fract_z
 _atom_site_occupancy
  Eu  Eu0  1  0.99998140  0.99999484  0.00003261  1
  V  V1  1  0.50000085  0.49999787  0.49999794  1
  O  O2  1  0.00000267  0.50000200  0.49998461  1
  O  O3  1  0.50000411  0.00000066  0.49999058  1
  O  O4  1  0.50001096  0.50000463  0.99999426  1
