# generated using pymatgen
data_Li5Fe2P2(CO7)2
_symmetry_space_group_name_H-M   'P 1'
_cell_length_a   9.41754661
_cell_length_b   10.09763998
_cell_length_c   6.49010902
_cell_angle_alpha   90.16545948
_cell_angle_beta   91.05526035
_cell_angle_gamma   62.96688940
_symmetry_Int_Tables_number   1
_chemical_formula_structural   Li5Fe2P2(CO7)2
_chemical_formula_sum   'Li10 Fe4 P4 C4 O28'
_cell_volume   549.64296561
_cell_formula_units_Z   2
loop_
 _symmetry_equiv_pos_site_id
 _symmetry_equiv_pos_as_xyz
  1  'x, y, z'
loop_
 _atom_site_type_symbol
 _atom_site_label
 _atom_site_symmetry_multiplicity
 _atom_site_fract_x
 _atom_site_fract_y
 _atom_site_fract_z
 _atom_site_occupancy
  Li  Li0  1  0.89297562  0.44013432  0.74629976  1
  Li  Li1  1  0.91142370  0.92455083  0.74074030  1
  Li  Li2  1  0.72241339  0.27015893  0.96117524  1
  Li  Li3  1  0.72914781  0.75882204  0.51559799  1
  Li  Li4  1  0.72961400  0.75908810  0.98870769  1
  Li  Li5  1  0.27085219  0.24117796  0.48440201  1
  Li  Li6  1  0.27038600  0.24091190  0.01129231  1
  Li  Li7  1  0.27758661  0.72984107  0.03882476  1
  Li  Li8  1  0.08857630  0.07544917  0.25925970  1
  Li  Li9  1  0.10702438  0.55986568  0.25370024  1
  Fe  Fe10  1  0.66948784  0.07029869  0.25548297  1
  Fe  Fe11  1  0.66860563  0.55288078  0.25499310  1
  Fe  Fe12  1  0.33139437  0.44711922  0.74500690  1
  Fe  Fe13  1  0.33051216  0.92970131  0.74451703  1
  P  P14  1  0.58332038  0.06404620  0.75213745  1
  P  P15  1  0.58522714  0.57401270  0.76166350  1
  P  P16  1  0.41477286  0.42598730  0.23833650  1
  P  P17  1  0.41667962  0.93595380  0.24786255  1
  C  C18  1  0.96961248  0.36695282  0.24487780  1
  C  C19  1  0.95479868  0.86740860  0.23653166  1
  C  C20  1  0.04520132  0.13259140  0.76346834  1
  C  C21  1  0.03038752  0.63304718  0.75512220  1
  O  O22  1  0.92016148  0.00856122  0.24740584  1
  O  O23  1  0.93357383  0.50711052  0.26100512  1
  O  O24  1  0.90580081  0.23683512  0.78150238  1
  O  O25  1  0.85609554  0.32872127  0.22755462  1
  O  O26  1  0.88233479  0.73614624  0.75139536  1
  O  O27  1  0.82953151  0.84147712  0.24553810  1
  O  O28  1  0.69376706  0.06142347  0.93548857  1
  O  O29  1  0.68851493  0.04291919  0.56094828  1
  O  O30  1  0.69719406  0.57497528  0.94085851  1
  O  O31  1  0.67950241  0.57464790  0.56792920  1
  O  O32  1  0.57982246  0.28569099  0.22909007  1
  O  O33  1  0.55962137  0.43437968  0.77730860  1
  O  O34  1  0.57675713  0.79576051  0.25583282  1
  O  O35  1  0.54882974  0.92539318  0.76844414  1
  O  O36  1  0.45117026  0.07460682  0.23155586  1
  O  O37  1  0.42324287  0.20423949  0.74416718  1
  O  O38  1  0.44037863  0.56562032  0.22269140  1
  O  O39  1  0.42017754  0.71430901  0.77090993  1
  O  O40  1  0.32049759  0.42535210  0.43207080  1
  O  O41  1  0.30280594  0.42502472  0.05914149  1
  O  O42  1  0.30623294  0.93857653  0.06451143  1
  O  O43  1  0.31148507  0.95708081  0.43905172  1
  O  O44  1  0.17046849  0.15852288  0.75446190  1
  O  O45  1  0.11766521  0.26385376  0.24860464  1
  O  O46  1  0.14390446  0.67127873  0.77244538  1
  O  O47  1  0.09419919  0.76316488  0.21849762  1
  O  O48  1  0.06642617  0.49288948  0.73899488  1
  O  O49  1  0.07983852  0.99143878  0.75259416  1
