# generated using pymatgen
data_Li8MnO6
_symmetry_space_group_name_H-M   'P 1'
_cell_length_a   5.39948437
_cell_length_b   5.85768945
_cell_length_c   5.39948473
_cell_angle_alpha   117.44446163
_cell_angle_beta   60.00000218
_cell_angle_gamma   117.44446099
_symmetry_Int_Tables_number   1
_chemical_formula_structural   Li8MnO6
_chemical_formula_sum   'Li8 Mn1 O6'
_cell_volume   125.21408925
_cell_formula_units_Z   1
loop_
 _symmetry_equiv_pos_site_id
 _symmetry_equiv_pos_as_xyz
  1  'x, y, z'
loop_
 _atom_site_type_symbol
 _atom_site_label
 _atom_site_symmetry_multiplicity
 _atom_site_fract_x
 _atom_site_fract_y
 _atom_site_fract_z
 _atom_site_occupancy
  Li  Li0  1  0.09748495  0.35066494  0.48973704  1
  Li  Li1  1  0.51026296  0.64933506  0.23655705  1
  Li  Li2  1  0.23655705  0.64933506  0.90251505  1
  Li  Li3  1  0.34210637  0.02632011  0.34210637  1
  Li  Li4  1  0.65789363  0.97367989  0.65789363  1
  Li  Li5  1  0.76344295  0.35066494  0.09748495  1
  Li  Li6  1  0.48973704  0.35066494  0.76344295  1
  Li  Li7  1  0.90251505  0.64933506  0.51026296  1
  Mn  Mn8  1  0.00000000  0.00000000  0.00000000  1
  O  O9  1  0.22989132  0.76787923  0.62801475  1
  O  O10  1  0.37198525  0.23212077  0.09002785  1
  O  O11  1  0.09002785  0.23212077  0.77010868  1
  O  O12  1  0.90997215  0.76787923  0.22989132  1
  O  O13  1  0.62801475  0.76787923  0.90997215  1
  O  O14  1  0.77010868  0.23212077  0.37198525  1
