# generated using pymatgen
data_Li2FeBO4
_symmetry_space_group_name_H-M   'P 1'
_cell_length_a   6.19700040
_cell_length_b   5.11862727
_cell_length_c   4.81881306
_cell_angle_alpha   89.96736117
_cell_angle_beta   89.75615655
_cell_angle_gamma   89.98278143
_symmetry_Int_Tables_number   1
_chemical_formula_structural   Li2FeBO4
_chemical_formula_sum   'Li4 Fe2 B2 O8'
_cell_volume   152.85198591
_cell_formula_units_Z   2
loop_
 _symmetry_equiv_pos_site_id
 _symmetry_equiv_pos_as_xyz
  1  'x, y, z'
loop_
 _atom_site_type_symbol
 _atom_site_label
 _atom_site_symmetry_multiplicity
 _atom_site_fract_x
 _atom_site_fract_y
 _atom_site_fract_z
 _atom_site_occupancy
  Li  Li0  1  0.24852989  0.34719474  0.49417369  1
  Li  Li1  1  0.49572783  0.18610444  0.99739233  1
  Li  Li2  1  0.74839812  0.65235288  0.99304132  1
  Li  Li3  1  0.99527237  0.81340597  0.49639975  1
  Fe  Fe4  1  0.00172718  0.17725491  0.99952085  1
  Fe  Fe5  1  0.50147577  0.82214433  0.49936847  1
  B  B6  1  0.24829643  0.67898394  0.00460369  1
  B  B7  1  0.74831020  0.32051803  0.50461289  1
  O  O8  1  0.04901281  0.81933481  0.90506515  1
  O  O9  1  0.24016993  0.39923050  0.91188770  1
  O  O10  1  0.25522675  0.69314862  0.31405107  1
  O  O11  1  0.44959790  0.80677736  0.89177964  1
  O  O12  1  0.54896790  0.18020682  0.40564409  1
  O  O13  1  0.73989936  0.60020559  0.41120562  1
  O  O14  1  0.75546803  0.30656493  0.81409080  1
  O  O15  1  0.94961151  0.19268910  0.39187094  1
