# generated using pymatgen
data_Y2GeO5
_symmetry_space_group_name_H-M   'P 1'
_cell_length_a   5.20407599
_cell_length_b   6.42679704
_cell_length_c   7.35059483
_cell_angle_alpha   68.77890646
_cell_angle_beta   89.90416804
_cell_angle_gamma   66.11714363
_symmetry_Int_Tables_number   1
_chemical_formula_structural   Y2GeO5
_chemical_formula_sum   'Y4 Ge2 O10'
_cell_volume   206.50196197
_cell_formula_units_Z   2
loop_
 _symmetry_equiv_pos_site_id
 _symmetry_equiv_pos_as_xyz
  1  'x, y, z'
loop_
 _atom_site_type_symbol
 _atom_site_label
 _atom_site_symmetry_multiplicity
 _atom_site_fract_x
 _atom_site_fract_y
 _atom_site_fract_z
 _atom_site_occupancy
  Y  Y0  1  0.62226869  0.70379402  0.78714599  1
  Y  Y1  1  0.67768643  0.70273592  0.28639651  1
  Y  Y2  1  0.32767445  0.29420762  0.71684970  1
  Y  Y3  1  0.38396323  0.29397533  0.21593075  1
  Ge  Ge4  1  0.00277569  0.99880486  0.50165845  1
  Ge  Ge5  1  0.00232282  0.99910448  0.00149528  1
  O  O6  1  0.78162161  0.83967135  0.97618942  1
  O  O7  1  0.38390548  0.83898217  0.47690699  1
  O  O8  1  0.99437373  0.67363784  0.62850186  1
  O  O9  1  0.66716984  0.32419989  0.87754846  1
  O  O10  1  0.33676512  0.67402245  0.12673383  1
  O  O11  1  0.01223872  0.32364259  0.37515795  1
  O  O12  1  0.62266531  0.15972442  0.52650008  1
  O  O13  1  0.15531521  0.00029640  0.75141888  1
  O  O14  1  0.22311382  0.15856215  0.02734009  1
  O  O15  1  0.84966987  0.99736953  0.25238278  1
