# generated using pymatgen
data_Li5Fe2P2(CO7)2
_symmetry_space_group_name_H-M   'P 1'
_cell_length_a   8.42847058
_cell_length_b   8.25897515
_cell_length_c   8.27116801
_cell_angle_alpha   75.37825123
_cell_angle_beta   86.74520724
_cell_angle_gamma   92.92446882
_symmetry_Int_Tables_number   1
_chemical_formula_structural   Li5Fe2P2(CO7)2
_chemical_formula_sum   'Li10 Fe4 P4 C4 O28'
_cell_volume   554.94064236
_cell_formula_units_Z   2
loop_
 _symmetry_equiv_pos_site_id
 _symmetry_equiv_pos_as_xyz
  1  'x, y, z'
loop_
 _atom_site_type_symbol
 _atom_site_label
 _atom_site_symmetry_multiplicity
 _atom_site_fract_x
 _atom_site_fract_y
 _atom_site_fract_z
 _atom_site_occupancy
  Li  Li0  1  0.90230536  0.26029252  0.49504856  1
  Li  Li1  1  0.90116855  0.76390177  0.98733451  1
  Li  Li2  1  0.72691652  0.40102509  0.12383734  1
  Li  Li3  1  0.72336676  0.61711514  0.36499495  1
  Li  Li4  1  0.72593335  0.88964636  0.64446622  1
  Li  Li5  1  0.27072140  0.59708296  0.89062397  1
  Li  Li6  1  0.27698765  0.38617927  0.63761348  1
  Li  Li7  1  0.27636303  0.89255993  0.14909634  1
  Li  Li8  1  0.10441938  0.73465313  0.50869445  1
  Li  Li9  1  0.08557243  0.25348017  0.01624161  1
  Fe  Fe10  1  0.67378646  0.51346590  0.73392968  1
  Fe  Fe11  1  0.66228534  0.02946471  0.21739100  1
  Fe  Fe12  1  0.34074411  0.98008288  0.76848708  1
  Fe  Fe13  1  0.32655086  0.46491754  0.27643915  1
  P  P14  1  0.58645224  0.23719724  0.51071786  1
  P  P15  1  0.58368619  0.73787752  0.01216037  1
  P  P16  1  0.41221342  0.26215939  0.98598990  1
  P  P17  1  0.41859047  0.76073793  0.48564929  1
  C  C18  1  0.97134358  0.48509427  0.78178786  1
  C  C19  1  0.95010844  0.96228019  0.27353227  1
  C  C20  1  0.04849654  0.02340277  0.71997532  1
  C  C21  1  0.03027018  0.53130023  0.22444762  1
  O  O22  1  0.93434844  0.59645585  0.65113671  1
  O  O23  1  0.91845401  0.09119939  0.15353181  1
  O  O24  1  0.91163886  0.04291864  0.66474191  1
  O  O25  1  0.85837180  0.40564627  0.89136101  1
  O  O26  1  0.88389768  0.56763264  0.19505575  1
  O  O27  1  0.82288660  0.88434343  0.36703024  1
  O  O28  1  0.70335722  0.36415458  0.56140041  1
  O  O29  1  0.68445811  0.19502466  0.36172989  1
  O  O30  1  0.69103712  0.70643476  0.86554840  1
  O  O31  1  0.68313661  0.87540961  0.06793963  1
  O  O32  1  0.55213423  0.07051125  0.65362347  1
  O  O33  1  0.57594769  0.22084207  0.05790243  1
  O  O34  1  0.57885104  0.69562281  0.54513855  1
  O  O35  1  0.55596880  0.57768800  0.15839597  1
  O  O36  1  0.44097385  0.40507051  0.82221223  1
  O  O37  1  0.42756220  0.31066903  0.46643245  1
  O  O38  1  0.41620386  0.79169514  0.95519956  1
  O  O39  1  0.45351386  0.90873332  0.32364056  1
  O  O40  1  0.32565237  0.10336501  0.95103195  1
  O  O41  1  0.31799665  0.81616807  0.62533749  1
  O  O42  1  0.29290670  0.31716369  0.10669136  1
  O  O43  1  0.30390798  0.62592691  0.44490452  1
  O  O44  1  0.17079974  0.13044214  0.65601765  1
  O  O45  1  0.11784420  0.44925903  0.80432158  1
  O  O46  1  0.14783773  0.61785679  0.12612767  1
  O  O47  1  0.08813619  0.91187464  0.29806701  1
  O  O48  1  0.06113868  0.41092035  0.34947253  1
  O  O49  1  0.08275253  0.89504249  0.83953645  1
