# generated using pymatgen
data_Li5Fe2P2(CO7)2
_symmetry_space_group_name_H-M   'P 1'
_cell_length_a   9.40986629
_cell_length_b   8.26234118
_cell_length_c   8.25097360
_cell_angle_alpha   75.46643453
_cell_angle_beta   72.98242476
_cell_angle_gamma   105.41033181
_symmetry_Int_Tables_number   1
_chemical_formula_structural   Li5Fe2P2(CO7)2
_chemical_formula_sum   'Li10 Fe4 P4 C4 O28'
_cell_volume   552.47690315
_cell_formula_units_Z   2
loop_
 _symmetry_equiv_pos_site_id
 _symmetry_equiv_pos_as_xyz
  1  'x, y, z'
loop_
 _atom_site_type_symbol
 _atom_site_label
 _atom_site_symmetry_multiplicity
 _atom_site_fract_x
 _atom_site_fract_y
 _atom_site_fract_z
 _atom_site_occupancy
  Li  Li0  1  0.90418965  0.19773214  0.06054628  1
  Li  Li1  1  0.89619951  0.68766974  0.56641557  1
  Li  Li2  1  0.71923015  0.75959490  0.28529822  1
  Li  Li3  1  0.73073567  0.48395641  0.00477601  1
  Li  Li4  1  0.73326452  0.23839239  0.77612963  1
  Li  Li5  1  0.28076985  0.74040510  0.21470178  1
  Li  Li6  1  0.26673548  0.26160761  0.72387037  1
  Li  Li7  1  0.26926433  0.01604359  0.49522399  1
  Li  Li8  1  0.10380049  0.81233026  0.93358443  1
  Li  Li9  1  0.09581035  0.30226786  0.43945372  1
  Fe  Fe10  1  0.66797110  0.81810395  0.93059074  1
  Fe  Fe11  1  0.66860301  0.30376974  0.44181129  1
  Fe  Fe12  1  0.33139699  0.19623026  0.05818871  1
  Fe  Fe13  1  0.33202890  0.68189605  0.56940926  1
  P  P14  1  0.58628778  0.54580653  0.69198492  1
  P  P15  1  0.58097773  0.05570487  0.19429149  1
  P  P16  1  0.41902227  0.44429513  0.30570851  1
  P  P17  1  0.41371222  0.95419347  0.80801508  1
  C  C18  1  0.95586097  0.51597666  0.24829448  1
  C  C19  1  0.96900687  0.01371140  0.74414403  1
  C  C20  1  0.04413903  0.98402334  0.25170552  1
  C  C21  1  0.03099313  0.48628860  0.75585597  1
  O  O22  1  0.93298788  0.86441565  0.87281350  1
  O  O23  1  0.92388244  0.36856728  0.38186689  1
  O  O24  1  0.90623519  0.86595726  0.34373760  1
  O  O25  1  0.82931513  0.53261375  0.21729675  1
  O  O26  1  0.88337747  0.38917077  0.86645413  1
  O  O27  1  0.85441054  0.06540672  0.72250566  1
  O  O28  1  0.69199710  0.96611421  0.10835201  1
  O  O29  1  0.68336086  0.17883462  0.26572090  1
  O  O30  1  0.68616528  0.64427871  0.78149955  1
  O  O31  1  0.69780732  0.45495517  0.59991563  1
  O  O32  1  0.58024051  0.58052479  0.15927831  1
  O  O33  1  0.54737163  0.18266836  0.04384316  1
  O  O34  1  0.55635630  0.67208568  0.54504167  1
  O  O35  1  0.57862468  0.09689028  0.66933810  1
  O  O36  1  0.41975949  0.91947521  0.34072169  1
  O  O37  1  0.45262837  0.31733164  0.45615684  1
  O  O38  1  0.44364370  0.82791432  0.95495833  1
  O  O39  1  0.42137532  0.40310972  0.83066190  1
  O  O40  1  0.30800290  0.53388579  0.39164799  1
  O  O41  1  0.31663914  0.32116538  0.23427910  1
  O  O42  1  0.31383472  0.85572129  0.71850045  1
  O  O43  1  0.30219268  0.04504483  0.90008437  1
  O  O44  1  0.17068487  0.96738625  0.28270325  1
  O  O45  1  0.09376481  0.63404274  0.15626240  1
  O  O46  1  0.14558946  0.43459328  0.77749434  1
  O  O47  1  0.11662253  0.11082923  0.63354587  1
  O  O48  1  0.06701212  0.63558435  0.62718650  1
  O  O49  1  0.07611756  0.13143272  0.11813311  1
