# generated using pymatgen
data_Li5Fe2P2(CO7)2
_symmetry_space_group_name_H-M   'P 1'
_cell_length_a   9.41605832
_cell_length_b   10.11673633
_cell_length_c   6.50010610
_cell_angle_alpha   90.00000000
_cell_angle_beta   90.00000000
_cell_angle_gamma   63.02539619
_symmetry_Int_Tables_number   1
_chemical_formula_structural   Li5Fe2P2(CO7)2
_chemical_formula_sum   'Li10 Fe4 P4 C4 O28'
_cell_volume   551.83460408
_cell_formula_units_Z   2
loop_
 _symmetry_equiv_pos_site_id
 _symmetry_equiv_pos_as_xyz
  1  'x, y, z'
loop_
 _atom_site_type_symbol
 _atom_site_label
 _atom_site_symmetry_multiplicity
 _atom_site_fract_x
 _atom_site_fract_y
 _atom_site_fract_z
 _atom_site_occupancy
  Li  Li0  1  0.89360608  0.44077854  0.75506256  1
  Li  Li1  1  0.91156389  0.92512208  0.75267617  1
  Li  Li2  1  0.72006974  0.27315711  0.54103153  1
  Li  Li3  1  0.73018206  0.76022186  0.51342792  1
  Li  Li4  1  0.73043240  0.75688668  0.98792076  1
  Li  Li5  1  0.26956760  0.24311332  0.48792076  1
  Li  Li6  1  0.26981794  0.23977814  0.01342792  1
  Li  Li7  1  0.27993026  0.72684289  0.04103153  1
  Li  Li8  1  0.08843611  0.07487792  0.25267617  1
  Li  Li9  1  0.10639392  0.55922146  0.25506256  1
  Fe  Fe10  1  0.66947217  0.07033751  0.24337457  1
  Fe  Fe11  1  0.66818238  0.55376342  0.24747341  1
  Fe  Fe12  1  0.33181762  0.44623658  0.74747341  1
  Fe  Fe13  1  0.33052783  0.92966249  0.74337457  1
  P  P14  1  0.58404510  0.06386578  0.74699361  1
  P  P15  1  0.58539942  0.57485347  0.74728330  1
  P  P16  1  0.41460058  0.42514653  0.24728330  1
  P  P17  1  0.41595490  0.93613422  0.24699361  1
  C  C18  1  0.96953875  0.36644229  0.26140842  1
  C  C19  1  0.95428950  0.86680259  0.24243201  1
  C  C20  1  0.04571050  0.13319741  0.74243201  1
  C  C21  1  0.03046125  0.63355771  0.76140842  1
  O  O22  1  0.92008718  0.00775622  0.24577828  1
  O  O23  1  0.93340782  0.50657019  0.24710037  1
  O  O24  1  0.90667261  0.23770800  0.72252327  1
  O  O25  1  0.85567334  0.32934005  0.28192036  1
  O  O26  1  0.88292767  0.73621324  0.75352674  1
  O  O27  1  0.82877209  0.84136898  0.25789291  1
  O  O28  1  0.69031203  0.04622278  0.93783628  1
  O  O29  1  0.69413474  0.05803678  0.56393390  1
  O  O30  1  0.69635013  0.56239331  0.93261593  1
  O  O31  1  0.68122489  0.58835603  0.56049628  1
  O  O32  1  0.57875037  0.28602128  0.27544567  1
  O  O33  1  0.55826167  0.43691696  0.72147592  1
  O  O34  1  0.57590750  0.79552506  0.24468708  1
  O  O35  1  0.54923554  0.92543999  0.73766974  1
  O  O36  1  0.45076446  0.07456001  0.23766974  1
  O  O37  1  0.42409250  0.20447494  0.74468708  1
  O  O38  1  0.44173833  0.56308304  0.22147592  1
  O  O39  1  0.42124963  0.71397872  0.77544567  1
  O  O40  1  0.30364987  0.43760669  0.43261593  1
  O  O41  1  0.31877511  0.41164397  0.06049628  1
  O  O42  1  0.30586526  0.94196322  0.06393390  1
  O  O43  1  0.30968797  0.95377722  0.43783628  1
  O  O44  1  0.17122791  0.15863102  0.75789291  1
  O  O45  1  0.11707233  0.26378676  0.25352674  1
  O  O46  1  0.14432666  0.67065995  0.78192036  1
  O  O47  1  0.09332739  0.76229200  0.22252327  1
  O  O48  1  0.06659218  0.49342981  0.74710037  1
  O  O49  1  0.07991282  0.99224378  0.74577828  1
