# generated using pymatgen
data_LiMn2O3
_symmetry_space_group_name_H-M   'P 1'
_cell_length_a   5.29228643
_cell_length_b   5.29228643
_cell_length_c   10.04298872
_cell_angle_alpha   85.35395480
_cell_angle_beta   94.64604520
_cell_angle_gamma   60.48561062
_symmetry_Int_Tables_number   1
_chemical_formula_structural   LiMn2O3
_chemical_formula_sum   'Li4 Mn8 O12'
_cell_volume   241.59872791
_cell_formula_units_Z   4
loop_
 _symmetry_equiv_pos_site_id
 _symmetry_equiv_pos_as_xyz
  1  'x, y, z'
loop_
 _atom_site_type_symbol
 _atom_site_label
 _atom_site_symmetry_multiplicity
 _atom_site_fract_x
 _atom_site_fract_y
 _atom_site_fract_z
 _atom_site_occupancy
  Li  Li0  1  0.41753411  0.41753411  0.75000000  1
  Li  Li1  1  0.75154979  0.75154979  0.75000000  1
  Li  Li2  1  0.58246589  0.58246589  0.25000000  1
  Li  Li3  1  0.24845021  0.24845021  0.25000000  1
  Mn  Mn4  1  0.17169600  0.65728991  0.99997964  1
  Mn  Mn5  1  0.34271009  0.82830400  0.49997964  1
  Mn  Mn6  1  0.00000000  0.50000000  0.50000000  1
  Mn  Mn7  1  0.08038260  0.08038260  0.75000000  1
  Mn  Mn8  1  0.91961740  0.91961740  0.25000000  1
  Mn  Mn9  1  0.65728991  0.17169600  0.50002036  1
  Mn  Mn10  1  0.50000000  0.00000000  0.00000000  1
  Mn  Mn11  1  0.82830400  0.34271009  0.00002036  1
  O  O12  1  0.04191113  0.80081397  0.62419543  1
  O  O13  1  0.11880627  0.36633244  0.87628757  1
  O  O14  1  0.19918603  0.95808887  0.12419543  1
  O  O15  1  0.44235836  0.71721920  0.87605280  1
  O  O16  1  0.63366756  0.88119373  0.37628757  1
  O  O17  1  0.28278080  0.55764164  0.37605280  1
  O  O18  1  0.71721920  0.44235836  0.62394720  1
  O  O19  1  0.36633244  0.11880627  0.62371243  1
  O  O20  1  0.55764164  0.28278080  0.12394720  1
  O  O21  1  0.80081397  0.04191113  0.87580457  1
  O  O22  1  0.88119373  0.63366756  0.12371243  1
  O  O23  1  0.95808887  0.19918603  0.37580457  1
