# generated using pymatgen
data_LiMnPCO7
_symmetry_space_group_name_H-M   'P 1'
_cell_length_a   9.41283178
_cell_length_b   10.17571362
_cell_length_c   6.23660494
_cell_angle_alpha   90.00000000
_cell_angle_beta   90.00000000
_cell_angle_gamma   61.63995165
_symmetry_Int_Tables_number   1
_chemical_formula_structural   LiMnPCO7
_chemical_formula_sum   'Li4 Mn4 P4 C4 O28'
_cell_volume   525.66155137
_cell_formula_units_Z   4
loop_
 _symmetry_equiv_pos_site_id
 _symmetry_equiv_pos_as_xyz
  1  'x, y, z'
loop_
 _atom_site_type_symbol
 _atom_site_label
 _atom_site_symmetry_multiplicity
 _atom_site_fract_x
 _atom_site_fract_y
 _atom_site_fract_z
 _atom_site_occupancy
  Li  Li0  1  0.73806115  0.25601842  0.96703700  1
  Li  Li1  1  0.73806115  0.75601842  0.53296300  1
  Li  Li2  1  0.26193885  0.24398158  0.46703700  1
  Li  Li3  1  0.26193885  0.74398158  0.03296300  1
  Mn  Mn4  1  0.67250486  0.06165123  0.25393841  1
  Mn  Mn5  1  0.67250486  0.56165123  0.24606159  1
  Mn  Mn6  1  0.32749514  0.43834877  0.75393841  1
  Mn  Mn7  1  0.32749514  0.93834877  0.74606159  1
  P  P8  1  0.57482231  0.07382818  0.74580157  1
  P  P9  1  0.57482231  0.57382818  0.75419843  1
  P  P10  1  0.42517769  0.42617182  0.24580157  1
  P  P11  1  0.42517769  0.92617182  0.25419843  1
  C  C12  1  0.95277878  0.37823330  0.25360852  1
  C  C13  1  0.95277878  0.87823330  0.24639148  1
  C  C14  1  0.04722122  0.12176670  0.75360852  1
  C  C15  1  0.04722122  0.62176670  0.74639148  1
  O  O16  1  0.89815861  0.02391864  0.23879161  1
  O  O17  1  0.89815861  0.52391864  0.26120839  1
  O  O18  1  0.90434875  0.21789287  0.76348331  1
  O  O19  1  0.82960682  0.34882080  0.23603238  1
  O  O20  1  0.90434875  0.71789287  0.73651669  1
  O  O21  1  0.82960682  0.84882080  0.26396762  1
  O  O22  1  0.67609980  0.06907484  0.94312761  1
  O  O23  1  0.68831305  0.05836379  0.55745669  1
  O  O24  1  0.68831305  0.55836379  0.94254331  1
  O  O25  1  0.67609980  0.56907484  0.55687239  1
  O  O26  1  0.58587188  0.27923048  0.23269432  1
  O  O27  1  0.53494478  0.44160183  0.76179123  1
  O  O28  1  0.58587188  0.77923048  0.26730568  1
  O  O29  1  0.53494478  0.94160183  0.73820877  1
  O  O30  1  0.46505522  0.05839817  0.26179123  1
  O  O31  1  0.41412812  0.22076952  0.73269432  1
  O  O32  1  0.46505522  0.55839817  0.23820877  1
  O  O33  1  0.41412812  0.72076952  0.76730568  1
  O  O34  1  0.31168695  0.44163621  0.05745669  1
  O  O35  1  0.32390020  0.43092516  0.44312761  1
  O  O36  1  0.31168695  0.94163621  0.44254331  1
  O  O37  1  0.32390020  0.93092516  0.05687239  1
  O  O38  1  0.17039318  0.15117920  0.73603238  1
  O  O39  1  0.09565125  0.28210713  0.26348331  1
  O  O40  1  0.17039318  0.65117920  0.76396762  1
  O  O41  1  0.09565125  0.78210713  0.23651669  1
  O  O42  1  0.10184139  0.47608136  0.73879161  1
  O  O43  1  0.10184139  0.97608136  0.76120839  1
