# generated using pymatgen
data_Li5Ti2Ni5O12
_symmetry_space_group_name_H-M   'P 1'
_cell_length_a   5.11241441
_cell_length_b   5.11241406
_cell_length_c   9.78247224
_cell_angle_alpha   85.14783964
_cell_angle_beta   94.85216687
_cell_angle_gamma   59.32625491
_symmetry_Int_Tables_number   1
_chemical_formula_structural   Li5Ti2Ni5O12
_chemical_formula_sum   'Li5 Ti2 Ni5 O12'
_cell_volume   216.67308367
_cell_formula_units_Z   1
loop_
 _symmetry_equiv_pos_site_id
 _symmetry_equiv_pos_as_xyz
  1  'x, y, z'
loop_
 _atom_site_type_symbol
 _atom_site_label
 _atom_site_symmetry_multiplicity
 _atom_site_fract_x
 _atom_site_fract_y
 _atom_site_fract_z
 _atom_site_occupancy
  Li  Li0  1  0.16979730  0.67723022  0.50386153  1
  Li  Li1  1  0.32685498  0.83128211  0.99410320  1
  Li  Li2  1  0.67723022  0.16979730  0.99613847  1
  Li  Li3  1  0.83128211  0.32685498  0.50589680  1
  Li  Li4  1  0.91635701  0.91635701  0.75000000  1
  Ti  Ti5  1  0.24593330  0.24593330  0.75000000  1
  Ti  Ti6  1  0.74770786  0.74770786  0.25000000  1
  Ni  Ni7  1  0.08221509  0.08221509  0.25000000  1
  Ni  Ni8  1  0.99929506  0.50670513  0.99536031  1
  Ni  Ni9  1  0.50670513  0.99929506  0.50463969  1
  Ni  Ni10  1  0.41699627  0.41699627  0.25000000  1
  Ni  Ni11  1  0.58049350  0.58049350  0.75000000  1
  O  O12  1  0.97427533  0.21890966  0.87116031  1
  O  O13  1  0.21890966  0.97427533  0.62883969  1
  O  O14  1  0.11309340  0.38674252  0.36798071  1
  O  O15  1  0.38674252  0.11309340  0.13201929  1
  O  O16  1  0.29933451  0.52149606  0.86776955  1
  O  O17  1  0.52149606  0.29933451  0.63223045  1
  O  O18  1  0.47139607  0.71539518  0.36963406  1
  O  O19  1  0.71539518  0.47139607  0.13036594  1
  O  O20  1  0.60900722  0.87563315  0.86553802  1
  O  O21  1  0.87563315  0.60900722  0.63446198  1
  O  O22  1  0.78534541  0.02850269  0.36974438  1
  O  O23  1  0.02850269  0.78534541  0.13025562  1
