# generated using pymatgen
data_LiFeCuS2
_symmetry_space_group_name_H-M   'P 1'
_cell_length_a   3.80709022
_cell_length_b   3.80782906
_cell_length_c   6.25795814
_cell_angle_alpha   90.04713623
_cell_angle_beta   89.89668024
_cell_angle_gamma   119.92779341
_symmetry_Int_Tables_number   1
_chemical_formula_structural   LiFeCuS2
_chemical_formula_sum   'Li1 Fe1 Cu1 S2'
_cell_volume   78.62283932
_cell_formula_units_Z   1
loop_
 _symmetry_equiv_pos_site_id
 _symmetry_equiv_pos_as_xyz
  1  'x, y, z'
loop_
 _atom_site_type_symbol
 _atom_site_label
 _atom_site_symmetry_multiplicity
 _atom_site_fract_x
 _atom_site_fract_y
 _atom_site_fract_z
 _atom_site_occupancy
  Li  Li0  1  0.00215027  0.00105366  0.01236280  1
  Fe  Fe1  1  0.33329940  0.66696514  0.62240036  1
  Cu  Cu2  1  0.66573454  0.33255182  0.36271401  1
  S  S3  1  0.33249078  0.66621739  0.24716813  1
  S  S4  1  0.66632501  0.33321200  0.75535470  1
