# generated using pymatgen
data_Ta2PbO6
_symmetry_space_group_name_H-M   'P 1'
_cell_length_a   15.90032188
_cell_length_b   6.13279900
_cell_length_c   5.27359911
_cell_angle_alpha   90.00027635
_cell_angle_beta   90.00256795
_cell_angle_gamma   90.01261634
_symmetry_Int_Tables_number   1
_chemical_formula_structural   Ta2PbO6
_chemical_formula_sum   'Ta8 Pb4 O24'
_cell_volume   514.24697837
_cell_formula_units_Z   4
loop_
 _symmetry_equiv_pos_site_id
 _symmetry_equiv_pos_as_xyz
  1  'x, y, z'
loop_
 _atom_site_type_symbol
 _atom_site_label
 _atom_site_symmetry_multiplicity
 _atom_site_fract_x
 _atom_site_fract_y
 _atom_site_fract_z
 _atom_site_occupancy
  Ta  Ta0  1  0.17124378  0.32499239  0.77081267  1
  Ta  Ta1  1  0.17126507  0.67494534  0.27083337  1
  Ta  Ta2  1  0.32876942  0.17508796  0.27088614  1
  Ta  Ta3  1  0.32869471  0.82508477  0.77079656  1
  Ta  Ta4  1  0.67119964  0.17505563  0.22912988  1
  Ta  Ta5  1  0.67118201  0.82494865  0.72910675  1
  Ta  Ta6  1  0.82882723  0.32496443  0.72908903  1
  Ta  Ta7  1  0.82881117  0.67499680  0.22912045  1
  Pb  Pb8  1  0.00003062  0.20501105  0.24995478  1
  Pb  Pb9  1  0.99990947  0.79474772  0.75030447  1
  Pb  Pb10  1  0.49993709  0.29492087  0.75031275  1
  Pb  Pb11  1  0.49994699  0.70516690  0.25025840  1
  O  O12  1  0.09290476  0.12471193  0.86730025  1
  O  O13  1  0.09285043  0.87533178  0.36737311  1
  O  O14  1  0.11423552  0.42545186  0.46514299  1
  O  O15  1  0.11423689  0.57451762  0.96516025  1
  O  O16  1  0.24520632  0.64290335  0.59209429  1
  O  O17  1  0.24520718  0.35708153  0.09207136  1
  O  O18  1  0.25482679  0.14291259  0.59210900  1
  O  O19  1  0.25482038  0.85709955  0.09212209  1
  O  O20  1  0.38578205  0.07451254  0.96519604  1
  O  O21  1  0.38578583  0.92549087  0.46520470  1
  O  O22  1  0.40711184  0.37524029  0.36727363  1
  O  O23  1  0.40716027  0.62462153  0.86737868  1
  O  O24  1  0.59290123  0.37522311  0.13264279  1
  O  O25  1  0.59291418  0.62483489  0.63263729  1
  O  O26  1  0.61423407  0.07455960  0.53480783  1
  O  O27  1  0.61423624  0.92548555  0.03480616  1
  O  O28  1  0.74518847  0.14290007  0.90784935  1
  O  O29  1  0.74518725  0.85714065  0.40787274  1
  O  O30  1  0.75482790  0.35712440  0.40776397  1
  O  O31  1  0.75480989  0.64293157  0.90782824  1
  O  O32  1  0.88578478  0.42550272  0.03470305  1
  O  O33  1  0.88577261  0.57454880  0.53476781  1
  O  O34  1  0.90711526  0.12476357  0.63264618  1
  O  O35  1  0.90708267  0.87518715  0.13264296  1
