# generated using pymatgen
data_Na3Li3Mn2P2(CO7)2
_symmetry_space_group_name_H-M   'P 1'
_cell_length_a   8.79179467
_cell_length_b   6.73016780
_cell_length_c   5.10065825
_cell_angle_alpha   90.42197426
_cell_angle_beta   89.15903232
_cell_angle_gamma   88.46441308
_symmetry_Int_Tables_number   1
_chemical_formula_structural   Na3Li3Mn2P2(CO7)2
_chemical_formula_sum   'Na3 Li3 Mn2 P2 C2 O14'
_cell_volume   301.65726958
_cell_formula_units_Z   1
loop_
 _symmetry_equiv_pos_site_id
 _symmetry_equiv_pos_as_xyz
  1  'x, y, z'
loop_
 _atom_site_type_symbol
 _atom_site_label
 _atom_site_symmetry_multiplicity
 _atom_site_fract_x
 _atom_site_fract_y
 _atom_site_fract_z
 _atom_site_occupancy
  Na  Na0  1  0.08335096  0.23541495  0.75565247  1
  Na  Na1  1  0.25348706  0.50238947  0.24820535  1
  Na  Na2  1  0.74649773  0.50079412  0.75284566  1
  Li  Li3  1  0.27462318  0.02477692  0.22456497  1
  Li  Li4  1  0.72908925  0.97786145  0.77301510  1
  Li  Li5  1  0.91263648  0.77637623  0.25527824  1
  Mn  Mn6  1  0.36030263  0.75353867  0.77551932  1
  Mn  Mn7  1  0.64363878  0.24393062  0.22436586  1
  P  P8  1  0.41449068  0.24019849  0.70582184  1
  P  P9  1  0.59153585  0.75709066  0.29575960  1
  C  C10  1  0.04440177  0.76090946  0.73213054  1
  C  C11  1  0.94757455  0.23845958  0.26485519  1
  O  O12  1  0.09473706  0.22664604  0.28297669  1
  O  O13  1  0.08265451  0.75148847  0.97677212  1
  O  O14  1  0.14881066  0.75624964  0.54763857  1
  O  O15  1  0.31862255  0.06860470  0.81797383  1
  O  O16  1  0.32830808  0.43677953  0.78460860  1
  O  O17  1  0.42245434  0.22383094  0.39932107  1
  O  O18  1  0.42711318  0.76807094  0.18600538  1
  O  O19  1  0.57958465  0.23184988  0.81015635  1
  O  O20  1  0.57869898  0.77580160  0.60123456  1
  O  O21  1  0.67701040  0.55996705  0.22078826  1
  O  O22  1  0.69374629  0.92472445  0.18707041  1
  O  O23  1  0.86135360  0.24233683  0.47516455  1
  O  O24  1  0.88316564  0.24659986  0.03772633  1
  O  O25  1  0.90210911  0.77530948  0.66454915  1
