# generated using pymatgen
data_Li3Cr4O8
_symmetry_space_group_name_H-M   'P 1'
_cell_length_a   5.91289968
_cell_length_b   5.91290026
_cell_length_c   5.93819071
_cell_angle_alpha   60.14078032
_cell_angle_beta   60.14077949
_cell_angle_gamma   60.00000023
_symmetry_Int_Tables_number   1
_chemical_formula_structural   Li3Cr4O8
_chemical_formula_sum   'Li3 Cr4 O8'
_cell_volume   147.11639280
_cell_formula_units_Z   1
loop_
 _symmetry_equiv_pos_site_id
 _symmetry_equiv_pos_as_xyz
  1  'x, y, z'
loop_
 _atom_site_type_symbol
 _atom_site_label
 _atom_site_symmetry_multiplicity
 _atom_site_fract_x
 _atom_site_fract_y
 _atom_site_fract_z
 _atom_site_occupancy
  Li  Li0  1  0.50000000  0.00000000  0.00000000  1
  Li  Li1  1  0.50000000  0.50000000  0.00000000  1
  Li  Li2  1  0.00000000  0.50000000  0.00000000  1
  Cr  Cr3  1  0.50000000  0.00000000  0.50000000  1
  Cr  Cr4  1  0.50000000  0.50000000  0.50000000  1
  Cr  Cr5  1  0.00000000  0.00000000  0.50000000  1
  Cr  Cr6  1  0.00000000  0.50000000  0.50000000  1
  O  O7  1  0.74871645  0.26879620  0.71369116  1
  O  O8  1  0.75886118  0.75886118  0.72341645  1
  O  O9  1  0.26879620  0.26879620  0.71369116  1
  O  O10  1  0.26879620  0.74871645  0.71369116  1
  O  O11  1  0.73120380  0.25128355  0.28630884  1
  O  O12  1  0.73120380  0.73120380  0.28630884  1
  O  O13  1  0.24113882  0.24113882  0.27658355  1
  O  O14  1  0.25128355  0.73120380  0.28630884  1
