# generated using pymatgen
data_Co2HgO4
_symmetry_space_group_name_H-M   'P 1'
_cell_length_a   4.90378704
_cell_length_b   5.69076440
_cell_length_c   11.56496449
_cell_angle_alpha   89.97313487
_cell_angle_beta   89.99568674
_cell_angle_gamma   90.00039683
_symmetry_Int_Tables_number   1
_chemical_formula_structural   Co2HgO4
_chemical_formula_sum   'Co8 Hg4 O16'
_cell_volume   322.73529433
_cell_formula_units_Z   4
loop_
 _symmetry_equiv_pos_site_id
 _symmetry_equiv_pos_as_xyz
  1  'x, y, z'
loop_
 _atom_site_type_symbol
 _atom_site_label
 _atom_site_symmetry_multiplicity
 _atom_site_fract_x
 _atom_site_fract_y
 _atom_site_fract_z
 _atom_site_occupancy
  Co  Co0  1  0.00385238  0.24999315  0.00554493  1
  Co  Co1  1  0.99615668  0.75000857  0.99444868  1
  Co  Co2  1  0.00385308  0.25000536  0.49443137  1
  Co  Co3  1  0.99615241  0.74999392  0.50557488  1
  Co  Co4  1  0.50000176  0.00000320  0.99999559  1
  Co  Co5  1  0.50000162  0.00000108  0.50000462  1
  Co  Co6  1  0.50000240  0.49999918  0.99999539  1
  Co  Co7  1  0.50000131  0.49999867  0.50000418  1
  Hg  Hg8  1  0.06790531  0.74998561  0.25001700  1
  Hg  Hg9  1  0.38742738  0.74997481  0.74999109  1
  Hg  Hg10  1  0.61253119  0.25002230  0.25000530  1
  Hg  Hg11  1  0.93207710  0.25000665  0.74998458  1
  O  O12  1  0.16700562  0.99934532  0.91178927  1
  O  O13  1  0.16698382  0.99916997  0.58818991  1
  O  O14  1  0.16696831  0.50066279  0.58818877  1
  O  O15  1  0.16703053  0.50083019  0.91178844  1
  O  O16  1  0.34789300  0.24992092  0.08609646  1
  O  O17  1  0.34788887  0.25008533  0.41390875  1
  O  O18  1  0.32192183  0.74994395  0.08313840  1
  O  O19  1  0.32189992  0.75005041  0.41687780  1
  O  O20  1  0.67810672  0.24994902  0.58312488  1
  O  O21  1  0.67809315  0.25005749  0.91686311  1
  O  O22  1  0.65210414  0.74991541  0.58610209  1
  O  O23  1  0.65209516  0.75008120  0.91388920  1
  O  O24  1  0.83300160  0.00067463  0.08820273  1
  O  O25  1  0.83302416  0.00083885  0.41181897  1
  O  O26  1  0.83297983  0.49915425  0.08820317  1
  O  O27  1  0.83304072  0.49932778  0.41182045  1
