# generated using pymatgen
data_Li2FeBO4
_symmetry_space_group_name_H-M   'P 1'
_cell_length_a   6.18018742
_cell_length_b   10.25800056
_cell_length_c   4.82327701
_cell_angle_alpha   90.00000000
_cell_angle_beta   90.00000000
_cell_angle_gamma   90.00000000
_symmetry_Int_Tables_number   1
_chemical_formula_structural   Li2FeBO4
_chemical_formula_sum   'Li8 Fe4 B4 O16'
_cell_volume   305.77823472
_cell_formula_units_Z   4
loop_
 _symmetry_equiv_pos_site_id
 _symmetry_equiv_pos_as_xyz
  1  'x, y, z'
loop_
 _atom_site_type_symbol
 _atom_site_label
 _atom_site_symmetry_multiplicity
 _atom_site_fract_x
 _atom_site_fract_y
 _atom_site_fract_z
 _atom_site_occupancy
  Li  Li0  1  0.00342058  0.84236331  0.75805645  1
  Li  Li1  1  0.23492932  0.07437653  0.75596363  1
  Li  Li2  1  0.26507068  0.57437653  0.75596363  1
  Li  Li3  1  0.49657942  0.34236331  0.75805645  1
  Li  Li4  1  0.50342058  0.65763669  0.25805645  1
  Li  Li5  1  0.73492932  0.42562347  0.25596363  1
  Li  Li6  1  0.76507068  0.92562347  0.25596363  1
  Li  Li7  1  0.99657942  0.15763669  0.25805645  1
  Fe  Fe8  1  0.01054684  0.66171676  0.25990058  1
  Fe  Fe9  1  0.48945316  0.16171676  0.25990058  1
  Fe  Fe10  1  0.51054684  0.83828324  0.75990058  1
  Fe  Fe11  1  0.98945316  0.33828324  0.75990058  1
  B  B12  1  0.24381106  0.41023372  0.26519980  1
  B  B13  1  0.25618894  0.91023372  0.26519980  1
  B  B14  1  0.74381106  0.08976628  0.76519980  1
  B  B15  1  0.75618894  0.58976628  0.76519980  1
  O  O16  1  0.04255323  0.34436988  0.15327318  1
  O  O17  1  0.05590135  0.84145200  0.16468906  1
  O  O18  1  0.25091003  0.05004677  0.17265193  1
  O  O19  1  0.23788432  0.40301131  0.57339036  1
  O  O20  1  0.26211568  0.90301131  0.57339036  1
  O  O21  1  0.24908997  0.55004677  0.17265193  1
  O  O22  1  0.44409865  0.34145200  0.16468906  1
  O  O23  1  0.45744677  0.84436988  0.15327318  1
  O  O24  1  0.54255323  0.15563012  0.65327318  1
  O  O25  1  0.55590135  0.65854800  0.66468906  1
  O  O26  1  0.75091003  0.44995323  0.67265193  1
  O  O27  1  0.73788432  0.09698869  0.07339036  1
  O  O28  1  0.76211568  0.59698869  0.07339036  1
  O  O29  1  0.74908997  0.94995323  0.67265193  1
  O  O30  1  0.94409865  0.15854800  0.66468906  1
  O  O31  1  0.95744677  0.65563012  0.65327318  1
