# generated using pymatgen
data_Na3Li3Fe2P2(CO7)2
_symmetry_space_group_name_H-M   'P 1'
_cell_length_a   8.81815498
_cell_length_b   6.50194011
_cell_length_c   5.12572334
_cell_angle_alpha   89.86099313
_cell_angle_beta   88.75685089
_cell_angle_gamma   90.71612304
_symmetry_Int_Tables_number   1
_chemical_formula_structural   Na3Li3Fe2P2(CO7)2
_chemical_formula_sum   'Na3 Li3 Fe2 P2 C2 O14'
_cell_volume   293.79074945
_cell_formula_units_Z   1
loop_
 _symmetry_equiv_pos_site_id
 _symmetry_equiv_pos_as_xyz
  1  'x, y, z'
loop_
 _atom_site_type_symbol
 _atom_site_label
 _atom_site_symmetry_multiplicity
 _atom_site_fract_x
 _atom_site_fract_y
 _atom_site_fract_z
 _atom_site_occupancy
  Na  Na0  1  0.08198069  0.25389539  0.76012826  1
  Na  Na1  1  0.25862350  0.00091121  0.24710643  1
  Na  Na2  1  0.91617193  0.74833324  0.23985068  1
  Li  Li3  1  0.26764738  0.49424759  0.24396352  1
  Li  Li4  1  0.73335208  0.50483535  0.75784955  1
  Li  Li5  1  0.73302175  0.99550154  0.75707778  1
  Fe  Fe6  1  0.35609272  0.74772214  0.78682204  1
  Fe  Fe7  1  0.64601353  0.24928535  0.21221918  1
  P  P8  1  0.41684237  0.25393790  0.69706639  1
  P  P9  1  0.58810359  0.74559189  0.30065217  1
  C  C10  1  0.05223971  0.74649128  0.73131317  1
  C  C11  1  0.94312849  0.25558282  0.27120317  1
  O  O12  1  0.09036807  0.26829288  0.28484752  1
  O  O13  1  0.11880067  0.74835559  0.95667745  1
  O  O14  1  0.13719546  0.74125777  0.51957081  1
  O  O15  1  0.32289381  0.05899896  0.78136650  1
  O  O16  1  0.32151402  0.43669930  0.80485457  1
  O  O17  1  0.42541227  0.26654239  0.39300673  1
  O  O18  1  0.42543811  0.73466840  0.19296708  1
  O  O19  1  0.57937481  0.25201055  0.80538712  1
  O  O20  1  0.58091873  0.75037841  0.60668727  1
  O  O21  1  0.68430158  0.56036817  0.20560268  1
  O  O22  1  0.67764668  0.93800932  0.19761401  1
  O  O23  1  0.85810746  0.24812945  0.48240386  1
  O  O24  1  0.87946952  0.24983432  0.04419660  1
  O  O25  1  0.90533907  0.75012078  0.71956544  1
