# generated using pymatgen
data_Mn3V(PO4)4
_symmetry_space_group_name_H-M   'P 1'
_cell_length_a   4.91491182
_cell_length_b   9.94312388
_cell_length_c   6.00301071
_cell_angle_alpha   90.00000000
_cell_angle_beta   90.00000000
_cell_angle_gamma   89.42676863
_symmetry_Int_Tables_number   1
_chemical_formula_structural   Mn3V(PO4)4
_chemical_formula_sum   'Mn3 V1 P4 O16'
_cell_volume   293.34991272
_cell_formula_units_Z   1
loop_
 _symmetry_equiv_pos_site_id
 _symmetry_equiv_pos_as_xyz
  1  'x, y, z'
loop_
 _atom_site_type_symbol
 _atom_site_label
 _atom_site_symmetry_multiplicity
 _atom_site_fract_x
 _atom_site_fract_y
 _atom_site_fract_z
 _atom_site_occupancy
  Mn  Mn0  1  0.06762137  0.71314803  0.75000000  1
  Mn  Mn1  1  0.44788429  0.22118108  0.75000000  1
  Mn  Mn2  1  0.57185686  0.78335358  0.25000000  1
  V  V3  1  0.95152438  0.28070982  0.25000000  1
  P  P4  1  0.09266915  0.59836175  0.25000000  1
  P  P5  1  0.38952984  0.09905952  0.25000000  1
  P  P6  1  0.58615560  0.89632937  0.75000000  1
  P  P7  1  0.93197189  0.40735785  0.75000000  1
  O  O8  1  0.15833622  0.44442799  0.25000000  1
  O  O9  1  0.23401929  0.66725351  0.04884054  1
  O  O10  1  0.23401929  0.66725351  0.45115946  1
  O  O11  1  0.23745003  0.39467898  0.75000000  1
  O  O12  1  0.27518229  0.87447517  0.75000000  1
  O  O13  1  0.23060094  0.17220679  0.05551389  1
  O  O14  1  0.23060094  0.17220679  0.44448611  1
  O  O15  1  0.34695103  0.94734321  0.25000000  1
  O  O16  1  0.64116769  0.04593837  0.75000000  1
  O  O17  1  0.73114870  0.82500299  0.54901731  1
  O  O18  1  0.73114870  0.82500299  0.95098269  1
  O  O19  1  0.69482177  0.13073232  0.25000000  1
  O  O20  1  0.78151450  0.61699681  0.25000000  1
  O  O21  1  0.79669674  0.33105675  0.54329107  1
  O  O22  1  0.79669674  0.33105675  0.95670893  1
  O  O23  1  0.84043173  0.55486507  0.75000000  1
