# generated using pymatgen
data_BaNa3PCO7
_symmetry_space_group_name_H-M   'P 1'
_cell_length_a   9.42374992
_cell_length_b   5.48013496
_cell_length_c   7.30570087
_cell_angle_alpha   90.00000000
_cell_angle_beta   90.00000000
_cell_angle_gamma   90.00995724
_symmetry_Int_Tables_number   1
_chemical_formula_structural   BaNa3PCO7
_chemical_formula_sum   'Ba2 Na6 P2 C2 O14'
_cell_volume   377.29138339
_cell_formula_units_Z   2
loop_
 _symmetry_equiv_pos_site_id
 _symmetry_equiv_pos_as_xyz
  1  'x, y, z'
loop_
 _atom_site_type_symbol
 _atom_site_label
 _atom_site_symmetry_multiplicity
 _atom_site_fract_x
 _atom_site_fract_y
 _atom_site_fract_z
 _atom_site_occupancy
  Ba  Ba0  1  0.31948328  0.98684188  0.76594926  1
  Ba  Ba1  1  0.68051672  0.01315812  0.26594926  1
  Na  Na2  1  0.01656630  0.99251068  0.48144199  1
  Na  Na3  1  0.16580337  0.49903322  0.20534225  1
  Na  Na4  1  0.48136871  0.50769367  0.48101231  1
  Na  Na5  1  0.51863129  0.49230633  0.98101231  1
  Na  Na6  1  0.83419663  0.50096678  0.70534225  1
  Na  Na7  1  0.98343370  0.00748832  0.98144199  1
  P  P8  1  0.31993003  0.00433826  0.23321057  1
  P  P9  1  0.68006997  0.99566174  0.73321057  1
  C  C10  1  0.13779432  0.48943244  0.74566206  1
  C  C11  1  0.86220568  0.51056756  0.24566206  1
  O  O12  1  0.06527485  0.29038152  0.72266805  1
  O  O13  1  0.07291547  0.69610479  0.77153895  1
  O  O14  1  0.20167901  0.08338672  0.09721548  1
  O  O15  1  0.25412104  0.91453661  0.41598095  1
  O  O16  1  0.27774711  0.48310240  0.74361313  1
  O  O17  1  0.40873407  0.78948762  0.15114140  1
  O  O18  1  0.41944774  0.23004833  0.25982161  1
  O  O19  1  0.58055226  0.76995167  0.75982161  1
  O  O20  1  0.59126593  0.21051238  0.65114140  1
  O  O21  1  0.72225289  0.51689760  0.24361313  1
  O  O22  1  0.74587896  0.08546339  0.91598095  1
  O  O23  1  0.79832099  0.91661328  0.59721548  1
  O  O24  1  0.92708453  0.30389521  0.27153895  1
  O  O25  1  0.93472515  0.70961848  0.22266805  1
