# generated using pymatgen
data_La2Pr2O7
_symmetry_space_group_name_H-M   'P 1'
_cell_length_a   8.11767910
_cell_length_b   8.11756961
_cell_length_c   8.11771241
_cell_angle_alpha   60.00148820
_cell_angle_beta   60.00174925
_cell_angle_gamma   60.00129062
_symmetry_Int_Tables_number   1
_chemical_formula_structural   La2Pr2O7
_chemical_formula_sum   'La4 Pr4 O14'
_cell_volume   378.26087798
_cell_formula_units_Z   2
loop_
 _symmetry_equiv_pos_site_id
 _symmetry_equiv_pos_as_xyz
  1  'x, y, z'
loop_
 _atom_site_type_symbol
 _atom_site_label
 _atom_site_symmetry_multiplicity
 _atom_site_fract_x
 _atom_site_fract_y
 _atom_site_fract_z
 _atom_site_occupancy
  La  La0  1  0.12499685  0.12500124  0.12499566  1
  La  La1  1  0.62500511  0.12499660  0.12500053  1
  La  La2  1  0.12499268  0.62500801  0.12499422  1
  La  La3  1  0.12500305  0.12499990  0.62500316  1
  Pr  Pr4  1  0.62500659  0.62499623  0.12499985  1
  Pr  Pr5  1  0.62499924  0.12500124  0.62499559  1
  Pr  Pr6  1  0.12499957  0.62499858  0.62500448  1
  Pr  Pr7  1  0.62499660  0.62500420  0.62499765  1
  O  O8  1  0.00000249  -0.00000052  0.99999315  1
  O  O9  1  0.24999814  0.24999932  0.25000738  1
  O  O10  1  0.73030542  0.26969125  0.26969871  1
  O  O11  1  0.73031000  0.73030452  0.26970135  1
  O  O12  1  0.73031177  0.26969928  0.73030097  1
  O  O13  1  0.26969022  0.73030228  0.26970126  1
  O  O14  1  0.26969027  0.26969689  0.73030089  1
  O  O15  1  0.98030342  0.51969041  0.51969693  1
  O  O16  1  0.26969663  0.73030831  0.73030203  1
  O  O17  1  0.51968684  0.98030076  0.51969910  1
  O  O18  1  0.51969217  0.51969558  0.98029863  1
  O  O19  1  0.98031347  0.51969605  0.98030083  1
  O  O20  1  0.98030588  0.98030089  0.51970369  1
  O  O21  1  0.51969360  0.98030897  0.98030393  1
