# generated using pymatgen
data_Cr2PO5
_symmetry_space_group_name_H-M   'P 1'
_cell_length_a   7.22891634
_cell_length_b   5.54283293
_cell_length_c   5.54283293
_cell_angle_alpha   93.48497837
_cell_angle_beta   68.45661370
_cell_angle_gamma   68.45661370
_symmetry_Int_Tables_number   1
_chemical_formula_structural   Cr2PO5
_chemical_formula_sum   'Cr4 P2 O10'
_cell_volume   187.17027656
_cell_formula_units_Z   2
loop_
 _symmetry_equiv_pos_site_id
 _symmetry_equiv_pos_as_xyz
  1  'x, y, z'
loop_
 _atom_site_type_symbol
 _atom_site_label
 _atom_site_symmetry_multiplicity
 _atom_site_fract_x
 _atom_site_fract_y
 _atom_site_fract_z
 _atom_site_occupancy
  Cr  Cr0  1  0.50000000  0.00000000  0.00000000  1
  Cr  Cr1  1  0.50000000  0.50000000  0.00000000  1
  Cr  Cr2  1  0.00000000  0.50000000  0.00000000  1
  Cr  Cr3  1  0.00000000  0.50000000  0.50000000  1
  P  P4  1  0.75000000  0.14231914  0.35768086  1
  P  P5  1  0.25000000  0.85768086  0.64231914  1
  O  O6  1  0.89796699  0.29621966  0.27936669  1
  O  O7  1  0.60203301  0.22063331  0.20378034  1
  O  O8  1  0.87265231  0.83652483  0.28230256  1
  O  O9  1  0.62734769  0.21769744  0.66347517  1
  O  O10  1  0.25000000  0.38859588  0.11140412  1
  O  O11  1  0.75000000  0.61140412  0.88859588  1
  O  O12  1  0.37265231  0.78230256  0.33652483  1
  O  O13  1  0.12734769  0.16347517  0.71769744  1
  O  O14  1  0.39796699  0.77936669  0.79621966  1
  O  O15  1  0.10203301  0.70378034  0.72063331  1
