# generated using pymatgen
data_K3ZnPCO7
_symmetry_space_group_name_H-M   'P 1'
_cell_length_a   9.68220346
_cell_length_b   7.01203265
_cell_length_c   5.60628431
_cell_angle_alpha   90.00000000
_cell_angle_beta   90.63351952
_cell_angle_gamma   90.00000000
_symmetry_Int_Tables_number   1
_chemical_formula_structural   K3ZnPCO7
_chemical_formula_sum   'K6 Zn2 P2 C2 O14'
_cell_volume   380.59817721
_cell_formula_units_Z   2
loop_
 _symmetry_equiv_pos_site_id
 _symmetry_equiv_pos_as_xyz
  1  'x, y, z'
loop_
 _atom_site_type_symbol
 _atom_site_label
 _atom_site_symmetry_multiplicity
 _atom_site_fract_x
 _atom_site_fract_y
 _atom_site_fract_z
 _atom_site_occupancy
  K  K0  1  0.07789640  0.25000000  0.76246686  1
  K  K1  1  0.27209125  0.01110098  0.25863577  1
  K  K2  1  0.27209125  0.48889902  0.25863577  1
  K  K3  1  0.72790875  0.51110098  0.74136423  1
  K  K4  1  0.72790875  0.98889902  0.74136423  1
  K  K5  1  0.92210360  0.75000000  0.23753314  1
  Zn  Zn6  1  0.36478462  0.75000000  0.77398761  1
  Zn  Zn7  1  0.63521538  0.25000000  0.22601239  1
  P  P8  1  0.42586817  0.25000000  0.71858618  1
  P  P9  1  0.57413183  0.75000000  0.28141382  1
  C  C10  1  0.08724217  0.75000000  0.74059026  1
  C  C11  1  0.91275783  0.25000000  0.25940974  1
  O  O12  1  0.04676368  0.25000000  0.26376284  1
  O  O13  1  0.15596234  0.75000000  0.94231832  1
  O  O14  1  0.15793622  0.75000000  0.54359028  1
  O  O15  1  0.33395419  0.07008065  0.75940692  1
  O  O16  1  0.33395419  0.42991935  0.75940692  1
  O  O17  1  0.47564146  0.25000000  0.45273240  1
  O  O18  1  0.44594871  0.75000000  0.11233203  1
  O  O19  1  0.55405129  0.25000000  0.88766797  1
  O  O20  1  0.52435854  0.75000000  0.54726760  1
  O  O21  1  0.66604581  0.57008065  0.24059308  1
  O  O22  1  0.66604581  0.92991935  0.24059308  1
  O  O23  1  0.84206378  0.25000000  0.45640972  1
  O  O24  1  0.84403766  0.25000000  0.05768168  1
  O  O25  1  0.95323632  0.75000000  0.73623716  1
