# generated using pymatgen
data_Rb2Be2O3
_symmetry_space_group_name_H-M   'P 1'
_cell_length_a   7.57761160
_cell_length_b   7.57761160
_cell_length_c   7.39162642
_cell_angle_alpha   90.00000000
_cell_angle_beta   90.00000000
_cell_angle_gamma   90.00000000
_symmetry_Int_Tables_number   1
_chemical_formula_structural   Rb2Be2O3
_chemical_formula_sum   'Rb8 Be8 O12'
_cell_volume   424.42864933
_cell_formula_units_Z   4
loop_
 _symmetry_equiv_pos_site_id
 _symmetry_equiv_pos_as_xyz
  1  'x, y, z'
loop_
 _atom_site_type_symbol
 _atom_site_label
 _atom_site_symmetry_multiplicity
 _atom_site_fract_x
 _atom_site_fract_y
 _atom_site_fract_z
 _atom_site_occupancy
  Rb  Rb0  1  0.99587728  0.75379790  0.36303883  1
  Rb  Rb1  1  0.24620210  0.00412272  0.13696117  1
  Rb  Rb2  1  0.25379790  0.50412272  0.61303883  1
  Rb  Rb3  1  0.50412272  0.25379790  0.38696117  1
  Rb  Rb4  1  0.49587728  0.74620210  0.88696117  1
  Rb  Rb5  1  0.74620210  0.49587728  0.11303883  1
  Rb  Rb6  1  0.75379790  0.99587728  0.63696117  1
  Rb  Rb7  1  0.00412272  0.24620210  0.86303883  1
  Be  Be8  1  0.03254541  0.71957736  0.84192922  1
  Be  Be9  1  0.28042264  0.96745459  0.65807078  1
  Be  Be10  1  0.21957736  0.46745459  0.09192922  1
  Be  Be11  1  0.46745459  0.21957736  0.90807078  1
  Be  Be12  1  0.53254541  0.78042264  0.40807078  1
  Be  Be13  1  0.78042264  0.53254541  0.59192922  1
  Be  Be14  1  0.71957736  0.03254541  0.15807078  1
  Be  Be15  1  0.96745459  0.28042264  0.34192922  1
  O  O16  1  0.87161169  0.36670748  0.50627229  1
  O  O17  1  0.38741925  0.38741925  0.00000000  1
  O  O18  1  0.13329252  0.37161169  0.25627229  1
  O  O19  1  0.36670748  0.87161169  0.49372771  1
  O  O20  1  0.11258075  0.88741925  0.75000000  1
  O  O21  1  0.62838831  0.86670748  0.24372771  1
  O  O22  1  0.37161169  0.13329252  0.74372771  1
  O  O23  1  0.88741925  0.11258075  0.25000000  1
  O  O24  1  0.63329252  0.12838831  0.99372771  1
  O  O25  1  0.86670748  0.62838831  0.75627229  1
  O  O26  1  0.61258075  0.61258075  0.50000000  1
  O  O27  1  0.12838831  0.63329252  0.00627229  1
