# generated using pymatgen
data_Ti17(NO4)6
_symmetry_space_group_name_H-M   'P 1'
_cell_length_a   7.50170517
_cell_length_b   7.50170517
_cell_length_c   10.73655896
_cell_angle_alpha   74.21144134
_cell_angle_beta   74.21144134
_cell_angle_gamma   80.28099719
_symmetry_Int_Tables_number   1
_chemical_formula_structural   Ti17(NO4)6
_chemical_formula_sum   'Ti17 N6 O24'
_cell_volume   556.53671260
_cell_formula_units_Z   1
loop_
 _symmetry_equiv_pos_site_id
 _symmetry_equiv_pos_as_xyz
  1  'x, y, z'
loop_
 _atom_site_type_symbol
 _atom_site_label
 _atom_site_symmetry_multiplicity
 _atom_site_fract_x
 _atom_site_fract_y
 _atom_site_fract_z
 _atom_site_occupancy
  Ti  Ti0  1  0.28702595  0.00225235  0.07690820  1
  Ti  Ti1  1  0.05163180  0.32980081  0.92773540  1
  Ti  Ti2  1  0.17019919  0.44836820  0.57226460  1
  Ti  Ti3  1  0.21768628  0.61102783  0.24972561  1
  Ti  Ti4  1  0.49774765  0.21297405  0.42309180  1
  Ti  Ti5  1  0.44607111  0.05392889  0.75000000  1
  Ti  Ti6  1  0.61214593  0.32857650  0.07735836  1
  Ti  Ti7  1  0.17142350  0.88785407  0.42264164  1
  Ti  Ti8  1  0.83667357  0.11433961  0.57458857  1
  Ti  Ti9  1  0.88897217  0.28231372  0.25027439  1
  Ti  Ti10  1  0.11580086  0.72064047  0.74895437  1
  Ti  Ti11  1  0.77935953  0.38419914  0.75104563  1
  Ti  Ti12  1  0.38566039  0.66332643  0.92541143  1
  Ti  Ti13  1  0.94571727  0.67621298  0.06758136  1
  Ti  Ti14  1  0.50819557  0.78681546  0.55712418  1
  Ti  Ti15  1  0.82378702  0.55428273  0.43241864  1
  Ti  Ti16  1  0.71318454  0.99180443  0.94287582  1
  N  N17  1  0.01919154  0.48080846  0.75000000  1
  N  N18  1  0.65007787  0.20921744  0.25018255  1
  N  N19  1  0.68466240  0.14486891  0.75088019  1
  N  N20  1  0.29078256  0.84992213  0.24981745  1
  N  N21  1  0.97985674  0.52014326  0.25000000  1
  N  N22  1  0.35513109  0.81533760  0.74911981  1
  O  O23  1  0.08075068  0.17593532  0.11802139  1
  O  O24  1  0.36027476  0.00625903  0.45039864  1
  O  O25  1  0.49374097  0.13972524  0.04960136  1
  O  O26  1  0.04449714  0.66117817  0.43759400  1
  O  O27  1  0.32406468  0.41924932  0.38197861  1
  O  O28  1  0.34466407  0.24970374  0.62038103  1
  O  O29  1  0.25029626  0.15533593  0.87961897  1
  O  O30  1  0.41251916  0.50741375  0.11881171  1
  O  O31  1  0.16950329  0.78616717  0.06229206  1
  O  O32  1  0.71383283  0.33049671  0.43770794  1
  O  O33  1  0.29205094  0.66748985  0.56219033  1
  O  O34  1  0.17330292  0.54017633  0.93119357  1
  O  O35  1  0.99258625  0.08748084  0.38118829  1
  O  O36  1  0.83882183  0.45550286  0.06240600  1
  O  O37  1  0.00508811  0.90879416  0.61958787  1
  O  O38  1  0.59120584  0.49491189  0.88041213  1
  O  O39  1  0.83251015  0.20794906  0.93780967  1
  O  O40  1  0.65995995  0.74695667  0.39069367  1
  O  O41  1  0.75304333  0.84004005  0.10930633  1
  O  O42  1  0.67535032  0.57557475  0.62206144  1
  O  O43  1  0.95982367  0.32669708  0.56880643  1
  O  O44  1  0.49868592  0.87636282  0.93715903  1
  O  O45  1  0.62363718  0.00131408  0.56284097  1
  O  O46  1  0.92442525  0.82464968  0.87793856  1
