# generated using pymatgen
data_Li3AlCoO4
_symmetry_space_group_name_H-M   'P 1'
_cell_length_a   10.11568017
_cell_length_b   10.11568017
_cell_length_c   10.11568017
_cell_angle_alpha   116.75850661
_cell_angle_beta   116.75850661
_cell_angle_gamma   95.71256535
_symmetry_Int_Tables_number   1
_chemical_formula_structural   Li3AlCoO4
_chemical_formula_sum   'Li24 Al8 Co8 O32'
_cell_volume   763.68314360
_cell_formula_units_Z   8
loop_
 _symmetry_equiv_pos_site_id
 _symmetry_equiv_pos_as_xyz
  1  'x, y, z'
loop_
 _atom_site_type_symbol
 _atom_site_label
 _atom_site_symmetry_multiplicity
 _atom_site_fract_x
 _atom_site_fract_y
 _atom_site_fract_z
 _atom_site_occupancy
  Li  Li0  1  0.92632673  0.10759060  0.15433636  1
  Li  Li1  1  0.82367327  0.14240940  0.34566364  1
  Li  Li2  1  0.89240940  0.04674576  0.81873512  1
  Li  Li3  1  0.52198936  0.17632673  0.31873512  1
  Li  Li4  1  0.44351872  0.29459721  0.13564812  1
  Li  Li5  1  0.71957645  0.56734075  0.14657177  1
  Li  Li6  1  0.85759060  0.20325424  0.68126488  1
  Li  Li7  1  0.22801064  0.07367327  0.18126488  1
  Li  Li8  1  0.70540279  0.84105091  0.14892151  1
  Li  Li9  1  0.43265925  0.57923202  0.15223570  1
  Li  Li10  1  0.79674576  0.47801064  0.65433636  1
  Li  Li11  1  0.95325424  0.77198936  0.84566364  1
  Li  Li12  1  0.42699633  0.28042355  0.84776430  1
  Li  Li13  1  0.31734075  0.67076798  0.34776430  1
  Li  Li14  1  0.04459721  0.40894909  0.35107849  1
  Li  Li15  1  0.69212940  0.55648128  0.85107849  1
  Li  Li16  1  0.03042355  0.68265925  0.35342823  1
  Li  Li17  1  0.42076798  0.57300367  0.85342823  1
  Li  Li18  1  0.59105091  0.94212940  0.63564812  1
  Li  Li19  1  0.15894909  0.30787060  0.86435188  1
  Li  Li20  1  0.30648128  0.95540279  0.36435188  1
  Li  Li21  1  0.32923202  0.67699633  0.64657177  1
  Li  Li22  1  0.05787060  0.69351872  0.64892151  1
  Li  Li23  1  0.32300367  0.96957645  0.65223570  1
  Al  Al24  1  0.75035371  0.41421682  0.30223827  1
  Al  Al25  1  0.55188456  0.24964629  0.66386211  1
  Al  Al26  1  0.16421682  0.36197755  0.16386211  1
  Al  Al27  1  0.58578318  0.88802245  0.33613789  1
  Al  Al28  1  0.63802245  0.80188456  0.80223827  1
  Al  Al29  1  0.99964629  0.83578318  0.19776173  1
  Al  Al30  1  0.11197755  0.44811544  0.69776173  1
  Al  Al31  1  0.19811544  0.00035371  0.83613789  1
  Co  Co32  1  0.45019105  0.92556692  0.99841655  1
  Co  Co33  1  0.67556692  0.17715036  0.97537586  1
  Co  Co34  1  0.54822550  0.54980895  0.47537586  1
  Co  Co35  1  0.82284964  0.79822550  0.49841655  1
  Co  Co36  1  0.29980895  0.32443308  0.50158345  1
  Co  Co37  1  0.07443308  0.07284964  0.52462414  1
  Co  Co38  1  0.20177450  0.70019105  0.02462414  1
  Co  Co39  1  0.92715036  0.45177450  0.00158345  1
  O  O40  1  0.83292811  0.26709638  0.24429854  1
  O  O41  1  0.33862957  0.08292811  0.06583173  1
  O  O42  1  0.60091024  0.35236277  0.07944850  1
  O  O43  1  0.86404180  0.64078822  0.09339253  1
  O  O44  1  0.88595820  0.60921178  0.40660747  1
  O  O45  1  0.64505750  0.39467648  0.39747985  1
  O  O46  1  0.41137043  0.16707189  0.43416827  1
  O  O47  1  0.35921178  0.45260431  0.22325358  1
  O  O48  1  0.52064927  0.11404180  0.72325358  1
  O  O49  1  0.91707189  0.98290362  0.25570146  1
  O  O50  1  0.14467648  0.24719663  0.24961898  1
  O  O51  1  0.75242235  0.35494250  0.74961898  1
  O  O52  1  0.64763723  0.72708573  0.24854747  1
  O  O53  1  0.10236277  0.52291427  0.25145253  1
  O  O54  1  0.47853826  0.39908976  0.75145253  1
  O  O55  1  0.60532352  0.00280337  0.25038102  1
  O  O56  1  0.72720216  0.66137043  0.74429854  1
  O  O57  1  0.22935073  0.13595820  0.77674642  1
  O  O58  1  0.39078822  0.79739569  0.27674642  1
  O  O59  1  0.73290362  0.97720216  0.56583173  1
  O  O60  1  0.47708573  0.72853826  0.57944850  1
  O  O61  1  0.10494250  0.85532352  0.10252015  1
  O  O62  1  0.99719663  0.24757765  0.60252015  1
  O  O63  1  0.20260431  0.47935073  0.59339253  1
  O  O64  1  0.54739569  0.77064927  0.90660747  1
  O  O65  1  0.75280337  0.00242235  0.89747985  1
  O  O66  1  0.14908976  0.89763723  0.42055150  1
  O  O67  1  0.27291427  0.52146174  0.92055150  1
  O  O68  1  0.01709638  0.27279784  0.93416827  1
  O  O69  1  0.02279784  0.58862957  0.75570146  1
  O  O70  1  0.27146174  0.85091024  0.74854747  1
  O  O71  1  0.99757765  0.89505750  0.75038102  1
