# generated using pymatgen
data_KTiPCO7
_symmetry_space_group_name_H-M   'P 1'
_cell_length_a   9.85624544
_cell_length_b   6.41377642
_cell_length_c   5.63453830
_cell_angle_alpha   90.00000000
_cell_angle_beta   88.72022010
_cell_angle_gamma   90.00000000
_symmetry_Int_Tables_number   1
_chemical_formula_structural   KTiPCO7
_chemical_formula_sum   'K2 Ti2 P2 C2 O14'
_cell_volume   356.10273992
_cell_formula_units_Z   2
loop_
 _symmetry_equiv_pos_site_id
 _symmetry_equiv_pos_as_xyz
  1  'x, y, z'
loop_
 _atom_site_type_symbol
 _atom_site_label
 _atom_site_symmetry_multiplicity
 _atom_site_fract_x
 _atom_site_fract_y
 _atom_site_fract_z
 _atom_site_occupancy
  K  K0  1  0.22915810  0.43149805  0.24991903  1
  K  K1  1  0.77084190  0.93149805  0.75008097  1
  Ti  Ti2  1  0.34652940  0.77630560  0.77214041  1
  Ti  Ti3  1  0.65347060  0.27630560  0.22785959  1
  P  P4  1  0.45091104  0.27000092  0.73648419  1
  P  P5  1  0.54908896  0.77000092  0.26351581  1
  C  C6  1  0.10272982  0.73593403  0.71834005  1
  C  C7  1  0.89727018  0.23593403  0.28165995  1
  O  O8  1  0.01869870  0.20402882  0.30580140  1
  O  O9  1  0.16634027  0.74940708  0.92676699  1
  O  O10  1  0.19558351  0.75885168  0.54270618  1
  O  O11  1  0.35880088  0.07596879  0.77295931  1
  O  O12  1  0.35831358  0.46081351  0.77256830  1
  O  O13  1  0.43508747  0.76587872  0.08034634  1
  O  O14  1  0.51370299  0.26916281  0.48205771  1
  O  O15  1  0.48629701  0.76916281  0.51794229  1
  O  O16  1  0.56491253  0.26587872  0.91965366  1
  O  O17  1  0.64168642  0.96081351  0.22743170  1
  O  O18  1  0.64119912  0.57596879  0.22704069  1
  O  O19  1  0.80441649  0.25885168  0.45729382  1
  O  O20  1  0.83365973  0.24940708  0.07323301  1
  O  O21  1  0.98130130  0.70402882  0.69419860  1
