# generated using pymatgen
data_Li4Mn2P4H3O16
_symmetry_space_group_name_H-M   'P 1'
_cell_length_a   5.00215447
_cell_length_b   8.24532324
_cell_length_c   7.67719226
_cell_angle_alpha   88.73509458
_cell_angle_beta   100.28625899
_cell_angle_gamma   87.66082580
_symmetry_Int_Tables_number   1
_chemical_formula_structural   Li4Mn2P4H3O16
_chemical_formula_sum   'Li4 Mn2 P4 H3 O16'
_cell_volume   311.15346119
_cell_formula_units_Z   1
loop_
 _symmetry_equiv_pos_site_id
 _symmetry_equiv_pos_as_xyz
  1  'x, y, z'
loop_
 _atom_site_type_symbol
 _atom_site_label
 _atom_site_symmetry_multiplicity
 _atom_site_fract_x
 _atom_site_fract_y
 _atom_site_fract_z
 _atom_site_occupancy
  Li  Li0  1  0.13634281  0.34889677  0.68887715  1
  Li  Li1  1  0.37814610  0.87262926  0.84268337  1
  Li  Li2  1  0.60616149  0.12453238  0.16118138  1
  Li  Li3  1  0.86268613  0.65455668  0.31134367  1
  Mn  Mn4  1  0.99733719  0.99766660  0.49624019  1
  Mn  Mn5  1  0.49852655  0.50197392  0.00238819  1
  P  P6  1  0.10657201  0.32852742  0.25471254  1
  P  P7  1  0.36354213  0.84934831  0.23511979  1
  P  P8  1  0.63601949  0.15259929  0.75785904  1
  P  P9  1  0.89004359  0.67147438  0.74556384  1
  H  H10  1  0.43040801  0.42195316  0.43995955  1
  H  H11  1  0.56362419  0.58852170  0.55375594  1
  H  H12  1  0.95805018  0.01411576  0.97965590  1
  O  O13  1  0.11361323  0.54811235  0.82768616  1
  O  O14  1  0.98357298  0.16960323  0.30507316  1
  O  O15  1  0.13982839  0.82877062  0.35659210  1
  O  O16  1  0.24071774  0.40510445  0.44550882  1
  O  O17  1  0.41019422  0.04674432  0.67049532  1
  O  O18  1  0.53010600  0.32240040  0.79734066  1
  O  O19  1  0.24052715  0.93417532  0.05584476  1
  O  O20  1  0.33945818  0.30570005  0.15295674  1
  O  O21  1  0.65728787  0.69504336  0.84727701  1
  O  O22  1  0.76390687  0.06848954  0.94619104  1
  O  O23  1  0.46842793  0.67428061  0.20704033  1
  O  O24  1  0.59479572  0.94905758  0.33319676  1
  O  O25  1  0.75853702  0.59105972  0.55630707  1
  O  O26  1  0.86519581  0.16973375  0.64469383  1
  O  O27  1  0.00944932  0.83127970  0.69367967  1
  O  O28  1  0.88579970  0.45354735  0.17267401  1
