# generated using pymatgen
data_NbV5(PO4)6
_symmetry_space_group_name_H-M   'P 1'
_cell_length_a   8.65528675
_cell_length_b   8.72435559
_cell_length_c   8.72435557
_cell_angle_alpha   59.99999888
_cell_angle_beta   59.73566912
_cell_angle_gamma   59.73567332
_symmetry_Int_Tables_number   1
_chemical_formula_structural   NbV5(PO4)6
_chemical_formula_sum   'Nb1 V5 P6 O24'
_cell_volume   463.96628428
_cell_formula_units_Z   1
loop_
 _symmetry_equiv_pos_site_id
 _symmetry_equiv_pos_as_xyz
  1  'x, y, z'
loop_
 _atom_site_type_symbol
 _atom_site_label
 _atom_site_symmetry_multiplicity
 _atom_site_fract_x
 _atom_site_fract_y
 _atom_site_fract_z
 _atom_site_occupancy
  Nb  Nb0  1  0.56943601  0.14352166  0.14352166  1
  V  V1  1  0.00455998  0.99847967  0.99847967  1
  V  V2  1  0.06999284  0.64333572  0.64333572  1
  V  V3  1  0.50363005  0.49878998  0.49878998  1
  V  V4  1  0.43125945  0.85624718  0.85624718  1
  V  V5  1  0.92845956  0.35718048  0.35718048  1
  P  P6  1  0.24394067  0.25201886  0.55014567  1
  P  P7  1  0.24394067  0.95389479  0.25201886  1
  P  P8  1  0.24394067  0.55014567  0.95389479  1
  P  P9  1  0.75057083  0.46104573  0.04332232  1
  P  P10  1  0.75057083  0.04332232  0.74506112  1
  P  P11  1  0.75057083  0.74506112  0.46104573  1
  O  O12  1  0.06945321  0.11049249  0.31462874  1
  O  O13  1  0.06945321  0.50542457  0.11049249  1
  O  O14  1  0.06945321  0.31462874  0.50542457  1
  O  O15  1  0.23042766  0.09035659  0.74076670  1
  O  O16  1  0.42559869  0.18290028  0.38592393  1
  O  O17  1  0.27631688  0.40768629  0.55585576  1
  O  O18  1  0.23042766  0.93844904  0.09035659  1
  O  O19  1  0.27631688  0.76014108  0.40768629  1
  O  O20  1  0.57048511  0.61053690  0.00335724  1
  O  O21  1  0.27631688  0.55585576  0.76014108  1
  O  O22  1  0.76746120  0.26074826  0.06295032  1
  O  O23  1  0.57048511  0.00335724  0.81562075  1
  O  O24  1  0.42559869  0.00557711  0.18290028  1
  O  O25  1  0.23042766  0.74076670  0.93844904  1
  O  O26  1  0.73026278  0.43978048  0.24000343  1
  O  O27  1  0.42559869  0.38592393  0.00557711  1
  O  O28  1  0.73026278  0.24000343  0.58995231  1
  O  O29  1  0.76746120  0.06295032  0.90883922  1
  O  O30  1  0.73026278  0.58995231  0.43978048  1
  O  O31  1  0.57048511  0.81562075  0.61053690  1
  O  O32  1  0.76746120  0.90883922  0.26074826  1
  O  O33  1  0.93303568  0.68548811  0.49255160  1
  O  O34  1  0.93303568  0.49255160  0.88892461  1
  O  O35  1  0.93303568  0.88892461  0.68548811  1
