# generated using pymatgen
data_LiZr2(PO4)3
_symmetry_space_group_name_H-M   'P 1'
_cell_length_a   8.84141583
_cell_length_b   8.92477089
_cell_length_c   9.20023736
_cell_angle_alpha   61.02186348
_cell_angle_beta   118.61228422
_cell_angle_gamma   119.05317466
_symmetry_Int_Tables_number   1
_chemical_formula_structural   LiZr2(PO4)3
_chemical_formula_sum   'Li2 Zr4 P6 O24'
_cell_volume   526.24623440
_cell_formula_units_Z   2
loop_
 _symmetry_equiv_pos_site_id
 _symmetry_equiv_pos_as_xyz
  1  'x, y, z'
loop_
 _atom_site_type_symbol
 _atom_site_label
 _atom_site_symmetry_multiplicity
 _atom_site_fract_x
 _atom_site_fract_y
 _atom_site_fract_z
 _atom_site_occupancy
  Li  Li0  1  0.86018637  0.38093843  0.48266954  1
  Li  Li1  1  0.59611759  0.20928064  0.25701071  1
  Zr  Zr2  1  0.13389685  0.35586881  0.92966343  1
  Zr  Zr3  1  0.63650992  0.83971235  0.43493086  1
  Zr  Zr4  1  0.35363712  0.13748192  0.57253458  1
  Zr  Zr5  1  0.86268031  0.64848248  0.05991087  1
  P  P6  1  0.04421003  0.74810572  0.75837306  1
  P  P7  1  0.23936876  0.95308441  0.25939591  1
  P  P8  1  0.46381548  0.46977424  0.74849274  1
  P  P9  1  0.53400088  0.51519065  0.25492761  1
  P  P10  1  0.74737277  0.04652754  0.72988432  1
  P  P11  1  0.95078905  0.24455527  0.24712801  1
  O  O12  1  0.03219066  0.69531694  0.93994519  1
  O  O13  1  0.19534630  0.93356452  0.72550084  1
  O  O14  1  0.08528349  0.60077576  0.75596436  1
  O  O15  1  0.26462841  0.96781529  0.42959000  1
  O  O16  1  0.08545232  0.77638920  0.23450936  1
  O  O17  1  0.42261717  0.95885858  0.26650667  1
  O  O18  1  0.80426922  0.88379776  0.88065625  1
  O  O19  1  0.28743114  0.40614555  0.78715509  1
  O  O20  1  0.48418564  0.65647756  0.60183972  1
  O  O21  1  0.62976528  0.48771676  0.91622213  1
  O  O22  1  0.13417358  0.23607302  0.39247553  1
  O  O23  1  0.45551211  0.32989285  0.68982643  1
  O  O24  1  0.54380961  0.65387871  0.31514505  1
  O  O25  1  0.86009087  0.76298817  0.61482084  1
  O  O26  1  0.36975835  0.49621995  0.09008928  1
  O  O27  1  0.52648786  0.32581528  0.40024202  1
  O  O28  1  0.71609522  0.57635711  0.22398212  1
  O  O29  1  0.19566693  0.11899545  0.10108091  1
  O  O30  1  0.57515076  0.04319822  0.73604948  1
  O  O31  1  0.90186481  0.23091704  0.74371640  1
  O  O32  1  0.71758179  0.04710364  0.54852623  1
  O  O33  1  0.89019487  0.38109382  0.25285529  1
  O  O34  1  0.79374309  0.06072303  0.27715044  1
  O  O35  1  0.96876841  0.30289233  0.06756774  1
