# generated using pymatgen
data_KCoPCO7
_symmetry_space_group_name_H-M   'P 1'
_cell_length_a   9.92521768
_cell_length_b   6.08359312
_cell_length_c   5.28126349
_cell_angle_alpha   90.00000000
_cell_angle_beta   88.27583841
_cell_angle_gamma   90.00000000
_symmetry_Int_Tables_number   1
_chemical_formula_structural   KCoPCO7
_chemical_formula_sum   'K2 Co2 P2 C2 O14'
_cell_volume   318.74352368
_cell_formula_units_Z   2
loop_
 _symmetry_equiv_pos_site_id
 _symmetry_equiv_pos_as_xyz
  1  'x, y, z'
loop_
 _atom_site_type_symbol
 _atom_site_label
 _atom_site_symmetry_multiplicity
 _atom_site_fract_x
 _atom_site_fract_y
 _atom_site_fract_z
 _atom_site_occupancy
  K  K0  1  0.23772334  0.40258016  0.24458560  1
  K  K1  1  0.76227666  0.90258016  0.75541440  1
  Co  Co2  1  0.34964250  0.77057835  0.77429069  1
  Co  Co3  1  0.65035750  0.27057835  0.22570931  1
  P  P4  1  0.44354093  0.26543239  0.72109174  1
  P  P5  1  0.55645907  0.76543239  0.27890826  1
  C  C6  1  0.11403561  0.74892475  0.71975958  1
  C  C7  1  0.88596439  0.24892475  0.28024042  1
  O  O8  1  0.00669413  0.22154322  0.31221165  1
  O  O9  1  0.17381432  0.75861263  0.93918926  1
  O  O10  1  0.20795977  0.76802393  0.53639174  1
  O  O11  1  0.33981580  0.07497467  0.77603629  1
  O  O12  1  0.34251866  0.46043879  0.76922926  1
  O  O13  1  0.43569999  0.76184092  0.10770450  1
  O  O14  1  0.48650088  0.26490019  0.43701176  1
  O  O15  1  0.51349912  0.76490019  0.56298824  1
  O  O16  1  0.56430001  0.26184092  0.89229550  1
  O  O17  1  0.65748134  0.96043879  0.23077074  1
  O  O18  1  0.66018420  0.57497467  0.22396371  1
  O  O19  1  0.79204023  0.26802393  0.46360826  1
  O  O20  1  0.82618568  0.25861263  0.06081074  1
  O  O21  1  0.99330587  0.72154322  0.68778835  1
