# generated using pymatgen
data_CaBi2O5
_symmetry_space_group_name_H-M   'P 1'
_cell_length_a   8.70643546
_cell_length_b   11.34971833
_cell_length_c   8.70643567
_cell_angle_alpha   89.95738197
_cell_angle_beta   96.48345614
_cell_angle_gamma   90.04261481
_symmetry_Int_Tables_number   1
_chemical_formula_structural   CaBi2O5
_chemical_formula_sum   'Ca6 Bi12 O30'
_cell_volume   854.82890458
_cell_formula_units_Z   6
loop_
 _symmetry_equiv_pos_site_id
 _symmetry_equiv_pos_as_xyz
  1  'x, y, z'
loop_
 _atom_site_type_symbol
 _atom_site_label
 _atom_site_symmetry_multiplicity
 _atom_site_fract_x
 _atom_site_fract_y
 _atom_site_fract_z
 _atom_site_occupancy
  Ca  Ca0  1  0.02744495  0.57131454  0.69611948  1
  Ca  Ca1  1  0.30388052  0.07131454  0.97255505  1
  Ca  Ca2  1  0.32355625  0.25000000  0.32355625  1
  Ca  Ca3  1  0.67644375  0.75000000  0.67644375  1
  Ca  Ca4  1  0.69611948  0.92868546  0.02744495  1
  Ca  Ca5  1  0.97255505  0.42868546  0.30388052  1
  Bi  Bi6  1  0.02534276  0.93185348  0.70145433  1
  Bi  Bi7  1  0.01391746  0.74797219  0.34941854  1
  Bi  Bi8  1  0.29854567  0.43185248  0.97465724  1
  Bi  Bi9  1  0.35541357  0.55707609  0.36122868  1
  Bi  Bi10  1  0.36122868  0.94292391  0.35541357  1
  Bi  Bi11  1  0.34941854  0.75202781  0.01391746  1
  Bi  Bi12  1  0.65058146  0.24797219  0.98608254  1
  Bi  Bi13  1  0.63877132  0.05707609  0.64458643  1
  Bi  Bi14  1  0.64458643  0.44292391  0.63877132  1
  Bi  Bi15  1  0.70145433  0.56814652  0.02534276  1
  Bi  Bi16  1  0.98608254  0.25202781  0.65058146  1
  Bi  Bi17  1  0.97465724  0.06814652  0.29854567  1
  O  O18  1  0.13518277  0.91211375  0.45889335  1
  O  O19  1  0.13484967  0.59109512  0.46018492  1
  O  O20  1  0.10292704  0.11583112  0.78343527  1
  O  O21  1  0.07835141  0.24793889  0.43224337  1
  O  O22  1  0.21656473  0.61583112  0.89707296  1
  O  O23  1  0.20924742  0.42627114  0.20618146  1
  O  O24  1  0.11581755  0.38128304  0.78238245  1
  O  O25  1  0.24593593  0.75000000  0.24593593  1
  O  O26  1  0.20618146  0.07372886  0.20924742  1
  O  O27  1  0.21761755  0.88128304  0.88418245  1
  O  O28  1  0.43224337  0.25206111  0.07835141  1
  O  O29  1  0.45105675  0.39364216  0.46626729  1
  O  O30  1  0.45889335  0.58788625  0.13518277  1
  O  O31  1  0.53981508  0.09109512  0.86515033  1
  O  O32  1  0.46626729  0.10635784  0.45105675  1
  O  O33  1  0.53373271  0.89364216  0.54894325  1
  O  O34  1  0.46018492  0.90890488  0.13484967  1
  O  O35  1  0.54110665  0.41211375  0.86481723  1
  O  O36  1  0.54894325  0.60635784  0.53373271  1
  O  O37  1  0.56775663  0.74793889  0.92164859  1
  O  O38  1  0.78238245  0.11871696  0.11581755  1
  O  O39  1  0.79381854  0.92627114  0.79075258  1
  O  O40  1  0.75406407  0.25000000  0.75406407  1
  O  O41  1  0.88418245  0.61871696  0.21761755  1
  O  O42  1  0.79075258  0.57372886  0.79381854  1
  O  O43  1  0.78343527  0.38416888  0.10292704  1
  O  O44  1  0.92164859  0.75206111  0.56775663  1
  O  O45  1  0.89707296  0.88416888  0.21656473  1
  O  O46  1  0.86515033  0.40890488  0.53981508  1
  O  O47  1  0.86481723  0.08788625  0.54110665  1
