# generated using pymatgen
data_Na3Li3Mn2P2(CO7)2
_symmetry_space_group_name_H-M   'P 1'
_cell_length_a   8.77430368
_cell_length_b   6.77261374
_cell_length_c   10.18378500
_cell_angle_alpha   90.20391138
_cell_angle_beta   89.07586040
_cell_angle_gamma   88.83500057
_symmetry_Int_Tables_number   1
_chemical_formula_structural   Na3Li3Mn2P2(CO7)2
_chemical_formula_sum   'Na6 Li6 Mn4 P4 C4 O28'
_cell_volume   604.96274631
_cell_formula_units_Z   2
loop_
 _symmetry_equiv_pos_site_id
 _symmetry_equiv_pos_as_xyz
  1  'x, y, z'
loop_
 _atom_site_type_symbol
 _atom_site_label
 _atom_site_symmetry_multiplicity
 _atom_site_fract_x
 _atom_site_fract_y
 _atom_site_fract_z
 _atom_site_occupancy
  Na  Na0  1  0.08266503  0.24048029  0.87722437  1
  Na  Na1  1  0.25383524  0.50125938  0.62394040  1
  Na  Na2  1  0.25379005  0.99783481  0.12637442  1
  Na  Na3  1  0.25556668  0.50132914  0.12496078  1
  Na  Na4  1  0.74632024  0.50081419  0.87532731  1
  Na  Na5  1  0.74619673  0.49956241  0.37597472  1
  Li  Li6  1  0.08411450  0.23472458  0.37532022  1
  Li  Li7  1  0.27346122  0.02488003  0.61291642  1
  Li  Li8  1  0.72689848  0.97490860  0.88780644  1
  Li  Li9  1  0.73168256  0.98330539  0.38329471  1
  Li  Li10  1  0.91201564  0.77379755  0.62655198  1
  Li  Li11  1  0.90762698  0.76326399  0.12750571  1
  Mn  Mn12  1  0.36181769  0.75037080  0.88442424  1
  Mn  Mn13  1  0.35869995  0.75384525  0.38976871  1
  Mn  Mn14  1  0.64680389  0.24548633  0.61216517  1
  Mn  Mn15  1  0.64247277  0.24383286  0.11143071  1
  P  P16  1  0.41511541  0.23915926  0.84985650  1
  P  P17  1  0.40886395  0.24646917  0.35512187  1
  P  P18  1  0.59427749  0.75886320  0.64523826  1
  P  P19  1  0.59640086  0.75217313  0.14611666  1
  C  C20  1  0.04476117  0.76088142  0.86573810  1
  C  C21  1  0.04422035  0.76057257  0.36706233  1
  C  C22  1  0.95655874  0.23881748  0.62671736  1
  C  C23  1  0.94016112  0.24628603  0.14296008  1
  O  O24  1  0.10124398  0.22255729  0.64746095  1
  O  O25  1  0.08520715  0.25533440  0.16492792  1
  O  O26  1  0.08304150  0.75378091  0.98919257  1
  O  O27  1  0.08411811  0.75222628  0.48940114  1
  O  O28  1  0.14963518  0.75158165  0.77382667  1
  O  O29  1  0.14893988  0.75428599  0.27402192  1
  O  O30  1  0.31833422  0.06492177  0.90003819  1
  O  O31  1  0.32764577  0.43261146  0.89018344  1
  O  O32  1  0.30488040  0.07370038  0.40017905  1
  O  O33  1  0.32119073  0.43891226  0.39627570  1
  O  O34  1  0.42688321  0.22836168  0.69649807  1
  O  O35  1  0.42910774  0.77083059  0.59045357  1
  O  O36  1  0.42736186  0.24179689  0.20240155  1
  O  O37  1  0.43546133  0.74680108  0.08517743  1
  O  O38  1  0.57976192  0.23181502  0.90500980  1
  O  O39  1  0.58009604  0.77517112  0.79832281  1
  O  O40  1  0.57088656  0.23116406  0.41380767  1
  O  O41  1  0.57540825  0.77489712  0.29844103  1
  O  O42  1  0.67937961  0.56323321  0.60820176  1
  O  O43  1  0.69687883  0.92662753  0.59189276  1
  O  O44  1  0.69232737  0.56240378  0.11425340  1
  O  O45  1  0.69333120  0.92479362  0.09194420  1
  O  O46  1  0.86036424  0.24604925  0.72604077  1
  O  O47  1  0.84527010  0.23404230  0.24136182  1
  O  O48  1  0.90548881  0.24857021  0.50735806  1
  O  O49  1  0.88796871  0.24893027  0.02381829  1
  O  O50  1  0.90297346  0.77661775  0.83205223  1
  O  O51  1  0.90248712  0.77506528  0.33366177  1
