# generated using pymatgen
data_BaSr2I6
_symmetry_space_group_name_H-M   'P 1'
_cell_length_a   8.50314120
_cell_length_b   8.27989805
_cell_length_c   24.78888309
_cell_angle_alpha   90.00000000
_cell_angle_beta   92.42801560
_cell_angle_gamma   90.00000000
_symmetry_Int_Tables_number   1
_chemical_formula_structural   BaSr2I6
_chemical_formula_sum   'Ba4 Sr8 I24'
_cell_volume   1743.69800227
_cell_formula_units_Z   4
loop_
 _symmetry_equiv_pos_site_id
 _symmetry_equiv_pos_as_xyz
  1  'x, y, z'
loop_
 _atom_site_type_symbol
 _atom_site_label
 _atom_site_symmetry_multiplicity
 _atom_site_fract_x
 _atom_site_fract_y
 _atom_site_fract_z
 _atom_site_occupancy
  Ba  Ba0  1  0.16674848  0.03854463  0.59403776  1
  Ba  Ba1  1  0.16674848  0.46145537  0.09403776  1
  Ba  Ba2  1  0.83325152  0.53854463  0.90596224  1
  Ba  Ba3  1  0.83325152  0.96145537  0.40596224  1
  Sr  Sr4  1  0.23231715  0.53815124  0.74296927  1
  Sr  Sr5  1  0.33828264  0.97009580  0.90723411  1
  Sr  Sr6  1  0.23231715  0.96184876  0.24296927  1
  Sr  Sr7  1  0.33828264  0.52990420  0.40723411  1
  Sr  Sr8  1  0.66171736  0.47009580  0.59276589  1
  Sr  Sr9  1  0.76768285  0.03815124  0.75703073  1
  Sr  Sr10  1  0.66171736  0.02990420  0.09276589  1
  Sr  Sr11  1  0.76768285  0.46184876  0.25703073  1
  I  I12  1  0.04524943  0.80495247  0.81987498  1
  I  I13  1  0.10438598  0.28577321  0.83966543  1
  I  I14  1  0.13892353  0.71364860  0.98205798  1
  I  I15  1  0.04524943  0.69504753  0.31987498  1
  I  I16  1  0.10438598  0.21422679  0.33966543  1
  I  I17  1  0.13892353  0.78635140  0.48205798  1
  I  I18  1  0.36772666  0.30550275  0.51713542  1
  I  I19  1  0.40405447  0.72657349  0.64551590  1
  I  I20  1  0.46463862  0.23920340  0.68683352  1
  I  I21  1  0.53536138  0.73920340  0.81316648  1
  I  I22  1  0.36772666  0.19449725  0.01713542  1
  I  I23  1  0.59594553  0.22657349  0.85448410  1
  I  I24  1  0.40405447  0.77342651  0.14551590  1
  I  I25  1  0.63227334  0.80550275  0.98286458  1
  I  I26  1  0.46463862  0.26079660  0.18683352  1
  I  I27  1  0.53536138  0.76079660  0.31316648  1
  I  I28  1  0.59594553  0.27342651  0.35448410  1
  I  I29  1  0.63227334  0.69449725  0.48286458  1
  I  I30  1  0.86107647  0.21364860  0.51794202  1
  I  I31  1  0.89561402  0.78577321  0.66033457  1
  I  I32  1  0.95475057  0.30495247  0.68012502  1
  I  I33  1  0.86107647  0.28635140  0.01794202  1
  I  I34  1  0.89561402  0.71422679  0.16033457  1
  I  I35  1  0.95475057  0.19504753  0.18012502  1
