# generated using pymatgen
data_Li3Nb(CuO2)4
_symmetry_space_group_name_H-M   'P 1'
_cell_length_a   10.37835220
_cell_length_b   10.37835247
_cell_length_c   15.01123764
_cell_angle_alpha   19.29050667
_cell_angle_beta   19.29050689
_cell_angle_gamma   32.09353096
_symmetry_Int_Tables_number   1
_chemical_formula_structural   Li3Nb(CuO2)4
_chemical_formula_sum   'Li3 Nb1 Cu4 O8'
_cell_volume   161.70791207
_cell_formula_units_Z   1
loop_
 _symmetry_equiv_pos_site_id
 _symmetry_equiv_pos_as_xyz
  1  'x, y, z'
loop_
 _atom_site_type_symbol
 _atom_site_label
 _atom_site_symmetry_multiplicity
 _atom_site_fract_x
 _atom_site_fract_y
 _atom_site_fract_z
 _atom_site_occupancy
  Li  Li0  1  0.00000000  0.50000000  0.50000000  1
  Li  Li1  1  0.50000000  0.00000000  0.50000000  1
  Li  Li2  1  0.50000000  0.50000000  0.50000000  1
  Nb  Nb3  1  0.50000000  0.50000000  0.00000000  1
  Cu  Cu4  1  0.00000000  0.00000000  0.00000000  1
  Cu  Cu5  1  0.00000000  0.50000000  0.00000000  1
  Cu  Cu6  1  0.50000000  0.00000000  0.00000000  1
  Cu  Cu7  1  0.00000000  0.00000000  0.50000000  1
  O  O8  1  0.95041802  0.95041802  0.33298338  1
  O  O9  1  0.05610921  0.57106037  0.16264059  1
  O  O10  1  0.57106037  0.05610921  0.16264059  1
  O  O11  1  0.04958198  0.04958198  0.66701662  1
  O  O12  1  0.60978421  0.60978421  0.09959656  1
  O  O13  1  0.94389079  0.42893963  0.83735941  1
  O  O14  1  0.42893963  0.94389079  0.83735941  1
  O  O15  1  0.39021579  0.39021579  0.90040344  1
