# generated using pymatgen
data_Li3NiO3
_symmetry_space_group_name_H-M   'P 1'
_cell_length_a   8.70452787
_cell_length_b   8.70452787
_cell_length_c   3.62458146
_cell_angle_alpha   90.00000000
_cell_angle_beta   90.00000000
_cell_angle_gamma   90.00000000
_symmetry_Int_Tables_number   1
_chemical_formula_structural   Li3NiO3
_chemical_formula_sum   'Li12 Ni4 O12'
_cell_volume   274.63020744
_cell_formula_units_Z   4
loop_
 _symmetry_equiv_pos_site_id
 _symmetry_equiv_pos_as_xyz
  1  'x, y, z'
loop_
 _atom_site_type_symbol
 _atom_site_label
 _atom_site_symmetry_multiplicity
 _atom_site_fract_x
 _atom_site_fract_y
 _atom_site_fract_z
 _atom_site_occupancy
  Li  Li0  1  0.10451706  0.35995641  0.50000000  1
  Li  Li1  1  0.14004359  0.60451706  0.00000000  1
  Li  Li2  1  0.16446384  0.16446384  0.00000000  1
  Li  Li3  1  0.33553616  0.66446384  0.50000000  1
  Li  Li4  1  0.35995641  0.10451706  0.50000000  1
  Li  Li5  1  0.39548294  0.85995641  0.00000000  1
  Li  Li6  1  0.60451706  0.14004359  0.00000000  1
  Li  Li7  1  0.64004359  0.89548294  0.50000000  1
  Li  Li8  1  0.66446384  0.33553616  0.50000000  1
  Li  Li9  1  0.83553616  0.83553616  0.00000000  1
  Li  Li10  1  0.85995641  0.39548294  0.00000000  1
  Li  Li11  1  0.89548294  0.64004359  0.50000000  1
  Ni  Ni12  1  0.11476484  0.88523516  0.50000000  1
  Ni  Ni13  1  0.38523516  0.38523516  0.00000000  1
  Ni  Ni14  1  0.61476484  0.61476484  0.00000000  1
  Ni  Ni15  1  0.88523516  0.11476484  0.50000000  1
  O  O16  1  0.10163582  0.10163582  0.50000000  1
  O  O17  1  0.11196872  0.67721574  0.50000000  1
  O  O18  1  0.17721574  0.38803128  0.00000000  1
  O  O19  1  0.32278426  0.88803128  0.50000000  1
  O  O20  1  0.38803128  0.17721574  0.00000000  1
  O  O21  1  0.39836418  0.60163582  0.00000000  1
  O  O22  1  0.60163582  0.39836418  0.00000000  1
  O  O23  1  0.61196872  0.82278426  0.00000000  1
  O  O24  1  0.67721574  0.11196872  0.50000000  1
  O  O25  1  0.82278426  0.61196872  0.00000000  1
  O  O26  1  0.88803128  0.32278426  0.50000000  1
  O  O27  1  0.89836418  0.89836418  0.50000000  1
