# generated using pymatgen
data_La2Bi2O7
_symmetry_space_group_name_H-M   'P 1'
_cell_length_a   8.44202568
_cell_length_b   14.31471826
_cell_length_c   5.96037355
_cell_angle_alpha   90.00000000
_cell_angle_beta   90.00000000
_cell_angle_gamma   98.58261739
_symmetry_Int_Tables_number   1
_chemical_formula_structural   La2Bi2O7
_chemical_formula_sum   'La8 Bi8 O28'
_cell_volume   712.21670848
_cell_formula_units_Z   4
loop_
 _symmetry_equiv_pos_site_id
 _symmetry_equiv_pos_as_xyz
  1  'x, y, z'
loop_
 _atom_site_type_symbol
 _atom_site_label
 _atom_site_symmetry_multiplicity
 _atom_site_fract_x
 _atom_site_fract_y
 _atom_site_fract_z
 _atom_site_occupancy
  La  La0  1  0.23681394  0.92131735  0.77361788  1
  La  La1  1  0.14286894  0.56487011  0.33308683  1
  La  La2  1  0.28453720  0.12467645  0.25140987  1
  La  La3  1  0.35453608  0.38901921  0.78251869  1
  La  La4  1  0.64546392  0.61098079  0.28251869  1
  La  La5  1  0.71546280  0.87532355  0.75140987  1
  La  La6  1  0.85713106  0.43512989  0.83308683  1
  La  La7  1  0.76318606  0.07868265  0.27361788  1
  Bi  Bi8  1  0.07793097  0.31782339  0.26877008  1
  Bi  Bi9  1  0.02649650  0.11827350  0.76745696  1
  Bi  Bi10  1  0.41354180  0.67521777  0.77999483  1
  Bi  Bi11  1  0.46779322  0.87742542  0.26662783  1
  Bi  Bi12  1  0.53220678  0.12257458  0.76662783  1
  Bi  Bi13  1  0.58645820  0.32478223  0.27999483  1
  Bi  Bi14  1  0.97350350  0.88172650  0.26745696  1
  Bi  Bi15  1  0.92206903  0.68217661  0.76877008  1
  O  O16  1  0.00831574  0.18038154  0.39792567  1
  O  O17  1  0.07173011  0.41003892  0.55147663  1
  O  O18  1  0.16842416  0.67859286  0.65658623  1
  O  O19  1  0.22473101  0.88472652  0.39672068  1
  O  O20  1  0.13437992  0.43813104  0.05643934  1
  O  O21  1  0.08024084  0.01817904  0.05296170  1
  O  O22  1  0.15981030  0.24732653  0.98526559  1
  O  O23  1  0.37210499  0.61592733  0.10107795  1
  O  O24  1  0.42217569  0.81930384  0.90087010  1
  O  O25  1  0.32299365  0.30805149  0.41551935  1
  O  O26  1  0.26793153  0.07876670  0.62818840  1
  O  O27  1  0.40189703  0.54703809  0.58153776  1
  O  O28  1  0.56237893  0.98198000  0.55918244  1
  O  O29  1  0.51649889  0.74808715  0.49110919  1
  O  O30  1  0.48350111  0.25191285  0.99110919  1
  O  O31  1  0.43762107  0.01802000  0.05918244  1
  O  O32  1  0.59810297  0.45296191  0.08153776  1
  O  O33  1  0.73206847  0.92123330  0.12818840  1
  O  O34  1  0.67700635  0.69194851  0.91551935  1
  O  O35  1  0.57782431  0.18069616  0.40087010  1
  O  O36  1  0.62789401  0.38407267  0.60107795  1
  O  O37  1  0.84018970  0.75267347  0.48526559  1
  O  O38  1  0.91975916  0.98182096  0.55296170  1
  O  O39  1  0.86562008  0.56186896  0.55643934  1
  O  O40  1  0.77526899  0.11527348  0.89672068  1
  O  O41  1  0.83157584  0.32140714  0.15658623  1
  O  O42  1  0.92826989  0.58996108  0.05147663  1
  O  O43  1  0.99168426  0.81961846  0.89792567  1
