# generated using pymatgen
data_Li5Cu(PO4)2
_symmetry_space_group_name_H-M   'P 1'
_cell_length_a   6.21582605
_cell_length_b   5.32793828
_cell_length_c   9.95387160
_cell_angle_alpha   90.13877805
_cell_angle_beta   89.96284027
_cell_angle_gamma   89.86546478
_symmetry_Int_Tables_number   1
_chemical_formula_structural   Li5Cu(PO4)2
_chemical_formula_sum   'Li10 Cu2 P4 O16'
_cell_volume   329.64577016
_cell_formula_units_Z   2
loop_
 _symmetry_equiv_pos_site_id
 _symmetry_equiv_pos_as_xyz
  1  'x, y, z'
loop_
 _atom_site_type_symbol
 _atom_site_label
 _atom_site_symmetry_multiplicity
 _atom_site_fract_x
 _atom_site_fract_y
 _atom_site_fract_z
 _atom_site_occupancy
  Li  Li0  1  0.99956643  0.15563311  0.74436431  1
  Li  Li1  1  -0.00004108  0.15540823  0.24635616  1
  Li  Li2  1  0.24501029  0.32756827  0.49539462  1
  Li  Li3  1  0.25000110  0.32712989  0.99699214  1
  Li  Li4  1  0.25264888  0.67253150  0.24605075  1
  Li  Li5  1  0.25383315  0.67360087  0.74434086  1
  Li  Li6  1  0.49979934  0.84450980  0.49468623  1
  Li  Li7  1  0.74591346  0.67361981  0.74369184  1
  Li  Li8  1  0.74761641  0.67404426  0.24637416  1
  Li  Li9  1  0.75320226  0.32697413  0.49463480  1
  Cu  Cu10  1  0.50000966  0.82584108  0.99927518  1
  Cu  Cu11  1  0.75225712  0.33043047  0.00097289  1
  P  P12  1  0.00505031  0.82644401  0.99883323  1
  P  P13  1  0.00019481  0.82483934  0.49972378  1
  P  P14  1  0.49798338  0.17609163  0.25528319  1
  P  P15  1  0.49654082  0.17732638  0.74328086  1
  O  O16  1  0.00012312  0.81938552  0.65631435  1
  O  O17  1  0.99984813  0.10215373  0.44937915  1
  O  O18  1  0.00009162  0.82010809  0.15513765  1
  O  O19  1  0.01573140  0.10058380  0.94633006  1
  O  O20  1  0.20574298  0.68721121  0.44650316  1
  O  O21  1  0.20341848  0.67626316  0.94521754  1
  O  O22  1  0.29449174  0.31118428  0.19875090  1
  O  O23  1  0.29103464  0.31435742  0.69085191  1
  O  O24  1  0.48933007  0.18690366  0.90016770  1
  O  O25  1  0.49872447  0.89893546  0.69506512  1
  O  O26  1  0.49619166  0.18367324  0.41095699  1
  O  O27  1  0.50003155  0.89534754  0.20934868  1
  O  O28  1  0.70421363  0.31294609  0.69367219  1
  O  O29  1  0.70791965  0.31227073  0.20769948  1
  O  O30  1  0.79438637  0.68784540  0.44719438  1
  O  O31  1  0.79913612  0.69883890  0.93974674  1
