# generated using pymatgen
data_ErTa3O9
_symmetry_space_group_name_H-M   'P 1'
_cell_length_a   6.47126634
_cell_length_b   7.63995056
_cell_length_c   12.61082703
_cell_angle_alpha   90.00000000
_cell_angle_beta   90.00000000
_cell_angle_gamma   90.00000000
_symmetry_Int_Tables_number   1
_chemical_formula_structural   ErTa3O9
_chemical_formula_sum   'Er4 Ta12 O36'
_cell_volume   623.48124176
_cell_formula_units_Z   4
loop_
 _symmetry_equiv_pos_site_id
 _symmetry_equiv_pos_as_xyz
  1  'x, y, z'
loop_
 _atom_site_type_symbol
 _atom_site_label
 _atom_site_symmetry_multiplicity
 _atom_site_fract_x
 _atom_site_fract_y
 _atom_site_fract_z
 _atom_site_occupancy
  Er  Er0  1  0.05521036  0.25000000  0.46194977  1
  Er  Er1  1  0.44478964  0.75000000  0.96194977  1
  Er  Er2  1  0.55521036  0.25000000  0.03805023  1
  Er  Er3  1  0.94478964  0.75000000  0.53805023  1
  Ta  Ta4  1  0.00000000  0.00000000  0.00000000  1
  Ta  Ta5  1  0.00000000  0.50000000  0.00000000  1
  Ta  Ta6  1  0.20748856  0.00267141  0.71323587  1
  Ta  Ta7  1  0.20748856  0.49732859  0.71323587  1
  Ta  Ta8  1  0.29251144  0.50267141  0.21323587  1
  Ta  Ta9  1  0.29251144  0.99732859  0.21323587  1
  Ta  Ta10  1  0.50000000  0.00000000  0.50000000  1
  Ta  Ta11  1  0.50000000  0.50000000  0.50000000  1
  Ta  Ta12  1  0.70748856  0.00267141  0.78676413  1
  Ta  Ta13  1  0.70748856  0.49732859  0.78676413  1
  Ta  Ta14  1  0.79251144  0.50267141  0.28676413  1
  Ta  Ta15  1  0.79251144  0.99732859  0.28676413  1
  O  O16  1  0.01773263  0.04129060  0.84304695  1
  O  O17  1  0.01773263  0.45870940  0.84304695  1
  O  O18  1  0.08266254  0.75000000  0.97510757  1
  O  O19  1  0.10053566  0.03493504  0.33341957  1
  O  O20  1  0.10053566  0.46506496  0.33341957  1
  O  O21  1  0.16995423  0.25000000  0.67141587  1
  O  O22  1  0.20475437  0.75000000  0.69838880  1
  O  O23  1  0.20610214  0.53781122  0.53693986  1
  O  O24  1  0.20610214  0.96218878  0.53693986  1
  O  O25  1  0.29389786  0.03781122  0.03693986  1
  O  O26  1  0.29389786  0.46218878  0.03693986  1
  O  O27  1  0.29524563  0.25000000  0.19838880  1
  O  O28  1  0.33004577  0.75000000  0.17141587  1
  O  O29  1  0.39946434  0.53493504  0.83341957  1
  O  O30  1  0.39946434  0.96506496  0.83341957  1
  O  O31  1  0.41733746  0.25000000  0.47510757  1
  O  O32  1  0.48226737  0.54129060  0.34304695  1
  O  O33  1  0.48226737  0.95870940  0.34304695  1
  O  O34  1  0.51773263  0.04129060  0.65695305  1
  O  O35  1  0.51773263  0.45870940  0.65695305  1
  O  O36  1  0.58266254  0.75000000  0.52489243  1
  O  O37  1  0.60053566  0.03493504  0.16658043  1
  O  O38  1  0.60053566  0.46506496  0.16658043  1
  O  O39  1  0.66995423  0.25000000  0.82858413  1
  O  O40  1  0.70475437  0.75000000  0.80161120  1
  O  O41  1  0.70610214  0.53781122  0.96306014  1
  O  O42  1  0.70610214  0.96218878  0.96306014  1
  O  O43  1  0.79389786  0.03781122  0.46306014  1
  O  O44  1  0.79389786  0.46218878  0.46306014  1
  O  O45  1  0.79524563  0.25000000  0.30161120  1
  O  O46  1  0.83004577  0.75000000  0.32858413  1
  O  O47  1  0.89946434  0.53493504  0.66658043  1
  O  O48  1  0.89946434  0.96506496  0.66658043  1
  O  O49  1  0.91733746  0.25000000  0.02489243  1
  O  O50  1  0.98226737  0.54129060  0.15695305  1
  O  O51  1  0.98226737  0.95870940  0.15695305  1
