# generated using pymatgen
data_Li4Cr3Ni3(SbO8)2
_symmetry_space_group_name_H-M   'P 1'
_cell_length_a   5.92674726
_cell_length_b   5.91227359
_cell_length_c   9.62448859
_cell_angle_alpha   90.30482052
_cell_angle_beta   90.77785768
_cell_angle_gamma   119.74082183
_symmetry_Int_Tables_number   1
_chemical_formula_structural   Li4Cr3Ni3(SbO8)2
_chemical_formula_sum   'Li4 Cr3 Ni3 Sb2 O16'
_cell_volume   292.76937433
_cell_formula_units_Z   1
loop_
 _symmetry_equiv_pos_site_id
 _symmetry_equiv_pos_as_xyz
  1  'x, y, z'
loop_
 _atom_site_type_symbol
 _atom_site_label
 _atom_site_symmetry_multiplicity
 _atom_site_fract_x
 _atom_site_fract_y
 _atom_site_fract_z
 _atom_site_occupancy
  Li  Li0  1  0.32384719  0.66395692  0.90000419  1
  Li  Li1  1  0.99738297  0.99614959  0.98816740  1
  Li  Li2  1  0.00154995  0.99839750  0.49311873  1
  Li  Li3  1  0.66720009  0.33810430  0.40175314  1
  Cr  Cr4  1  0.18259698  0.83761911  0.21851680  1
  Cr  Cr5  1  0.17007176  0.33973052  0.21375926  1
  Cr  Cr6  1  0.34627403  0.17683569  0.71940911  1
  Ni  Ni7  1  0.65970893  0.82802029  0.21175314  1
  Ni  Ni8  1  0.83059072  0.65908970  0.71168665  1
  Ni  Ni9  1  0.82830081  0.16878209  0.71170115  1
  Sb  Sb10  1  0.34020142  0.66892832  0.49025856  1
  Sb  Sb11  1  0.67146955  0.33270435  0.98860746  1
  O  O12  1  0.17663454  0.84092305  0.59603942  1
  O  O13  1  0.03782666  0.52267739  0.34257848  1
  O  O14  1  0.30946695  0.66454660  0.10795257  1
  O  O15  1  0.01479005  0.99867822  0.30317268  1
  O  O16  1  0.01598709  0.01222109  0.79770137  1
  O  O17  1  0.17598717  0.33507546  0.59483151  1
  O  O18  1  0.47272481  0.96746000  0.34495977  1
  O  O19  1  0.47960388  0.51750679  0.34528803  1
  O  O20  1  0.33489265  0.16632621  0.09867770  1
  O  O21  1  0.67894275  0.84224408  0.59384990  1
  O  O22  1  0.50088887  0.46845138  0.84754100  1
  O  O23  1  0.50284794  0.03243771  0.84703656  1
  O  O24  1  0.64155455  0.31445116  0.61057048  1
  O  O25  1  0.84336105  0.67189562  0.09323031  1
  O  O26  1  0.95705075  0.47405173  0.84262133  1
  O  O27  1  0.83824488  0.16303214  0.09305429  1
