# generated using pymatgen
data_VO2F
_symmetry_space_group_name_H-M   'P 1'
_cell_length_a   5.13612218
_cell_length_b   13.01871137
_cell_length_c   5.20995520
_cell_angle_alpha   89.60876622
_cell_angle_beta   120.26968628
_cell_angle_gamma   89.23261908
_symmetry_Int_Tables_number   1
_chemical_formula_structural   VO2F
_chemical_formula_sum   'V6 O12 F6'
_cell_volume   300.80751192
_cell_formula_units_Z   6
loop_
 _symmetry_equiv_pos_site_id
 _symmetry_equiv_pos_as_xyz
  1  'x, y, z'
loop_
 _atom_site_type_symbol
 _atom_site_label
 _atom_site_symmetry_multiplicity
 _atom_site_fract_x
 _atom_site_fract_y
 _atom_site_fract_z
 _atom_site_occupancy
  V  V0  1  0.97227076  0.49987608  0.92526612  1
  V  V1  1  0.03450476  0.00368013  0.06748242  1
  V  V2  1  0.69961723  0.83641401  0.31937839  1
  V  V3  1  0.37924452  0.66640304  0.67247507  1
  V  V4  1  0.63743787  0.33367437  0.28481365  1
  V  V5  1  0.30415629  0.16613075  0.70046585  1
  O  O6  1  0.98125982  0.75093695  0.41300515  1
  O  O7  1  0.34126664  0.41617598  0.09236719  1
  O  O8  1  0.08973733  0.08577658  0.33963988  1
  O  O9  1  0.31992214  0.91692485  0.24568252  1
  O  O10  1  0.59469331  0.24937979  0.01047929  1
  O  O11  1  0.01244615  0.24893958  0.58932803  1
  O  O12  1  0.73616152  0.91911385  0.08116014  1
  O  O13  1  0.07492743  0.58093740  0.74365167  1
  O  O14  1  0.56958116  0.74884067  0.58655678  1
  O  O15  1  0.24882382  0.08118611  0.91851286  1
  O  O16  1  0.75605951  0.41471105  0.66803058  1
  O  O17  1  0.66014757  0.58233042  0.91959356  1
  F  F18  1  0.39725251  0.75053947  0.99671637  1
  F  F19  1  0.25608703  0.58433156  0.34028161  1
  F  F20  1  0.42794506  0.24983279  0.41593527  1
  F  F21  1  0.92720651  0.41536894  0.26174756  1
  F  F22  1  0.66979211  0.08307154  0.75078194  1
  F  F23  1  0.90945995  0.91542508  0.65664508  1
