# generated using pymatgen
data_Li2Mn3(CoO4)3
_symmetry_space_group_name_H-M   'P 1'
_cell_length_a   6.75002625
_cell_length_b   5.99331487
_cell_length_c   5.69472148
_cell_angle_alpha   92.15311689
_cell_angle_beta   103.53065115
_cell_angle_gamma   72.55741039
_symmetry_Int_Tables_number   1
_chemical_formula_structural   Li2Mn3(CoO4)3
_chemical_formula_sum   'Li2 Mn3 Co3 O12'
_cell_volume   213.55484084
_cell_formula_units_Z   1
loop_
 _symmetry_equiv_pos_site_id
 _symmetry_equiv_pos_as_xyz
  1  'x, y, z'
loop_
 _atom_site_type_symbol
 _atom_site_label
 _atom_site_symmetry_multiplicity
 _atom_site_fract_x
 _atom_site_fract_y
 _atom_site_fract_z
 _atom_site_occupancy
  Li  Li0  1  0.68968130  0.30621435  0.19683465  1
  Li  Li1  1  0.31031870  0.69378565  0.80316535  1
  Mn  Mn2  1  0.00000000  0.50000000  0.00000000  1
  Mn  Mn3  1  0.32909577  0.15939194  0.33105443  1
  Mn  Mn4  1  0.67090423  0.84060806  0.66894557  1
  Co  Co5  1  0.00000000  0.50000000  0.50000000  1
  Co  Co6  1  0.33313564  0.16564792  0.83290581  1
  Co  Co7  1  0.66686436  0.83435208  0.16709419  1
  O  O8  1  0.01549902  0.27957321  0.24875515  1
  O  O9  1  0.02732605  0.28223067  0.74504694  1
  O  O10  1  0.31061813  0.38761097  0.08473516  1
  O  O11  1  0.63624101  0.06333166  0.41190724  1
  O  O12  1  0.30327099  0.38949011  0.58362992  1
  O  O13  1  0.64053385  0.06009720  0.92228844  1
  O  O14  1  0.35946615  0.93990280  0.07771156  1
  O  O15  1  0.69672901  0.61050989  0.41637008  1
  O  O16  1  0.36375899  0.93666834  0.58809276  1
  O  O17  1  0.68938187  0.61238903  0.91526484  1
  O  O18  1  0.97267395  0.71776933  0.25495306  1
  O  O19  1  0.98450098  0.72042679  0.75124485  1
