# generated using pymatgen
data_Li3V6Fe4(CuO12)2
_symmetry_space_group_name_H-M   'P 1'
_cell_length_a   8.19832955
_cell_length_b   9.97774996
_cell_length_c   6.76997128
_cell_angle_alpha   104.28355227
_cell_angle_beta   103.08317400
_cell_angle_gamma   106.69839481
_symmetry_Int_Tables_number   1
_chemical_formula_structural   Li3V6Fe4(CuO12)2
_chemical_formula_sum   'Li3 V6 Fe4 Cu2 O24'
_cell_volume   486.96732155
_cell_formula_units_Z   1
loop_
 _symmetry_equiv_pos_site_id
 _symmetry_equiv_pos_as_xyz
  1  'x, y, z'
loop_
 _atom_site_type_symbol
 _atom_site_label
 _atom_site_symmetry_multiplicity
 _atom_site_fract_x
 _atom_site_fract_y
 _atom_site_fract_z
 _atom_site_occupancy
  Li  Li0  1  0.05747591  0.09955003  0.39523753  1
  Li  Li1  1  0.00000000  0.00000000  0.00000000  1
  Li  Li2  1  0.94252409  0.90044997  0.60476247  1
  V  V3  1  0.16151374  0.76639011  0.22155484  1
  V  V4  1  0.23205954  0.37983946  0.40834887  1
  V  V5  1  0.38935315  0.15965088  0.87834351  1
  V  V6  1  0.61064685  0.84034912  0.12165649  1
  V  V7  1  0.76794046  0.62016054  0.59165113  1
  V  V8  1  0.83848626  0.23360989  0.77844516  1
  Fe  Fe9  1  0.29605139  0.48897022  0.95530992  1
  Fe  Fe10  1  0.55038556  0.89304853  0.62167391  1
  Fe  Fe11  1  0.44961444  0.10695147  0.37832609  1
  Fe  Fe12  1  0.70394861  0.51102978  0.04469008  1
  Cu  Cu13  1  0.21439383  0.70204029  0.71708948  1
  Cu  Cu14  1  0.78560617  0.29795971  0.28291052  1
  O  O15  1  0.05846700  0.32047094  0.81296593  1
  O  O16  1  0.19178540  0.95366668  0.23173860  1
  O  O17  1  0.21519508  0.66514076  0.00519130  1
  O  O18  1  0.00806449  0.25961230  0.30925631  1
  O  O19  1  0.28019685  0.76667844  0.47622461  1
  O  O20  1  0.27486535  0.51174965  0.66109726  1
  O  O21  1  0.16503905  0.06532147  0.80508868  1
  O  O22  1  0.50067417  0.85401230  0.87966080  1
  O  O23  1  0.28679251  0.46811752  0.23158472  1
  O  O24  1  0.43845362  0.35245753  0.91818894  1
  O  O25  1  0.53049557  0.92318685  0.32847072  1
  O  O26  1  0.33668493  0.25194811  0.43605938  1
  O  O27  1  0.66331507  0.74805189  0.56394062  1
  O  O28  1  0.46950443  0.07681315  0.67152928  1
  O  O29  1  0.56154638  0.64754247  0.08181106  1
  O  O30  1  0.71320749  0.53188248  0.76841528  1
  O  O31  1  0.49932583  0.14598770  0.12033920  1
  O  O32  1  0.83496095  0.93467853  0.19491132  1
  O  O33  1  0.72513465  0.48825035  0.33890274  1
  O  O34  1  0.71980315  0.23332156  0.52377539  1
  O  O35  1  0.99193551  0.74038770  0.69074369  1
  O  O36  1  0.78480492  0.33485924  0.99480870  1
  O  O37  1  0.80821460  0.04633332  0.76826240  1
  O  O38  1  0.94153300  0.67952906  0.18703407  1
