# generated using pymatgen
data_NbSb3(PO4)6
_symmetry_space_group_name_H-M   'P 1'
_cell_length_a   9.08133043
_cell_length_b   9.08133081
_cell_length_c   9.08133049
_cell_angle_alpha   58.25157044
_cell_angle_beta   58.25157306
_cell_angle_gamma   58.25157855
_symmetry_Int_Tables_number   1
_chemical_formula_structural   NbSb3(PO4)6
_chemical_formula_sum   'Nb1 Sb3 P6 O24'
_cell_volume   508.37146771
_cell_formula_units_Z   1
loop_
 _symmetry_equiv_pos_site_id
 _symmetry_equiv_pos_as_xyz
  1  'x, y, z'
loop_
 _atom_site_type_symbol
 _atom_site_label
 _atom_site_symmetry_multiplicity
 _atom_site_fract_x
 _atom_site_fract_y
 _atom_site_fract_z
 _atom_site_occupancy
  Nb  Nb0  1  0.85845771  0.85845771  0.85845771  1
  Sb  Sb1  1  0.14337902  0.14337902  0.14337902  1
  Sb  Sb2  1  0.35793354  0.35793354  0.35793354  1
  Sb  Sb3  1  0.64448451  0.64448451  0.64448451  1
  P  P4  1  0.03908911  0.74994863  0.46263347  1
  P  P5  1  0.46263347  0.03908911  0.74994863  1
  P  P6  1  0.74994863  0.46263347  0.03908911  1
  P  P7  1  0.25225353  0.53788860  0.96087967  1
  P  P8  1  0.53788860  0.96087967  0.25225353  1
  P  P9  1  0.96087967  0.25225353  0.53788860  1
  O  O10  1  0.12705499  0.27315408  0.51902831  1
  O  O11  1  0.27315408  0.51902831  0.12705499  1
  O  O12  1  0.06263063  0.91929807  0.28350559  1
  O  O13  1  0.51902831  0.12705499  0.27315408  1
  O  O14  1  0.21648627  0.57999277  0.44610858  1
  O  O15  1  -0.00050657  0.78404655  0.63207928  1
  O  O16  1  0.28350559  0.06263063  0.91929807  1
  O  O17  1  0.44610858  0.21648627  0.57999277  1
  O  O18  1  0.57999277  0.44610858  0.21648627  1
  O  O19  1  0.22555766  0.37116004  0.98476263  1
  O  O20  1  0.07808342  0.71224093  0.93339860  1
  O  O21  1  0.37116004  0.98476263  0.22555766  1
  O  O22  1  0.63207928  -0.00050657  0.78404655  1
  O  O23  1  0.91929807  0.28350559  0.06263063  1
  O  O24  1  0.78404655  0.63207928  -0.00050657  1
  O  O25  1  0.42062650  0.56362971  0.78145019  1
  O  O26  1  0.56362971  0.78145019  0.42062650  1
  O  O27  1  0.71224093  0.93339860  0.07808342  1
  O  O28  1  0.98476263  0.22555766  0.37116004  1
  O  O29  1  0.78145019  0.42062650  0.56362971  1
  O  O30  1  0.48318415  0.87375954  0.72231829  1
  O  O31  1  0.93339860  0.07808342  0.71224093  1
  O  O32  1  0.72231829  0.48318415  0.87375954  1
  O  O33  1  0.87375954  0.72231829  0.48318415  1
