# generated using pymatgen
data_MnCo(PO4)2
_symmetry_space_group_name_H-M   'P 1'
_cell_length_a   9.90590290
_cell_length_b   5.92174404
_cell_length_c   4.83642261
_cell_angle_alpha   90.00000000
_cell_angle_beta   88.73809915
_cell_angle_gamma   90.00000000
_symmetry_Int_Tables_number   1
_chemical_formula_structural   MnCo(PO4)2
_chemical_formula_sum   'Mn2 Co2 P4 O16'
_cell_volume   283.63681531
_cell_formula_units_Z   2
loop_
 _symmetry_equiv_pos_site_id
 _symmetry_equiv_pos_as_xyz
  1  'x, y, z'
loop_
 _atom_site_type_symbol
 _atom_site_label
 _atom_site_symmetry_multiplicity
 _atom_site_fract_x
 _atom_site_fract_y
 _atom_site_fract_z
 _atom_site_occupancy
  Mn  Mn0  1  0.21572703  0.75000000  0.43622277  1
  Mn  Mn1  1  0.78427297  0.25000000  0.56377723  1
  Co  Co2  1  0.28134482  0.25000000  0.94526819  1
  Co  Co3  1  0.71865518  0.75000000  0.05473181  1
  P  P4  1  0.09805065  0.25000000  0.41741110  1
  P  P5  1  0.40192472  0.75000000  0.91265304  1
  P  P6  1  0.59807528  0.25000000  0.08734696  1
  P  P7  1  0.90194935  0.75000000  0.58258890  1
  O  O8  1  0.05298430  0.75000000  0.65196714  1
  O  O9  1  0.11589811  0.25000000  0.72963465  1
  O  O10  1  0.17142250  0.04990583  0.26327153  1
  O  O11  1  0.17142250  0.45009417  0.26327153  1
  O  O12  1  0.32780599  0.95609488  0.77521328  1
  O  O13  1  0.32780599  0.54390512  0.77521328  1
  O  O14  1  0.38103313  0.75000000  0.22948944  1
  O  O15  1  0.44742682  0.25000000  0.15934415  1
  O  O16  1  0.55257318  0.75000000  0.84065585  1
  O  O17  1  0.61896687  0.25000000  0.77051056  1
  O  O18  1  0.67219401  0.04390512  0.22478672  1
  O  O19  1  0.67219401  0.45609488  0.22478672  1
  O  O20  1  0.82857750  0.54990583  0.73672847  1
  O  O21  1  0.82857750  0.95009417  0.73672847  1
  O  O22  1  0.88410189  0.75000000  0.27036535  1
  O  O23  1  0.94701570  0.25000000  0.34803286  1
