# generated using pymatgen
data_MnV3(PO4)4
_symmetry_space_group_name_H-M   'P 1'
_cell_length_a   4.92036074
_cell_length_b   10.10035571
_cell_length_c   5.91865591
_cell_angle_alpha   90.00000000
_cell_angle_beta   90.00000000
_cell_angle_gamma   90.68985819
_symmetry_Int_Tables_number   1
_chemical_formula_structural   MnV3(PO4)4
_chemical_formula_sum   'Mn1 V3 P4 O16'
_cell_volume   294.12045247
_cell_formula_units_Z   1
loop_
 _symmetry_equiv_pos_site_id
 _symmetry_equiv_pos_as_xyz
  1  'x, y, z'
loop_
 _atom_site_type_symbol
 _atom_site_label
 _atom_site_symmetry_multiplicity
 _atom_site_fract_x
 _atom_site_fract_y
 _atom_site_fract_z
 _atom_site_occupancy
  Mn  Mn0  1  0.03531159  0.72334974  0.75000000  1
  V  V1  1  0.47979922  0.22847388  0.75000000  1
  V  V2  1  0.54224919  0.77930805  0.25000000  1
  V  V3  1  0.97954600  0.26795822  0.25000000  1
  P  P4  1  0.10469929  0.59971707  0.25000000  1
  P  P5  1  0.41054428  0.09515251  0.25000000  1
  P  P6  1  0.56093587  0.90798088  0.75000000  1
  P  P7  1  0.91557452  0.39868675  0.75000000  1
  O  O8  1  0.14097289  0.45007471  0.25000000  1
  O  O9  1  0.26442252  0.67159754  0.05281687  1
  O  O10  1  0.26442252  0.67159754  0.44718313  1
  O  O11  1  0.22004540  0.37231928  0.75000000  1
  O  O12  1  0.25687678  0.89443971  0.75000000  1
  O  O13  1  0.26650871  0.16931297  0.04817730  1
  O  O14  1  0.26650871  0.16931297  0.45182270  1
  O  O15  1  0.33555466  0.94642440  0.25000000  1
  O  O16  1  0.65324613  0.05228773  0.75000000  1
  O  O17  1  0.69905182  0.83241432  0.54113376  1
  O  O18  1  0.69905182  0.83241432  0.95886624  1
  O  O19  1  0.71694414  0.11729463  0.25000000  1
  O  O20  1  0.79912298  0.63135397  0.25000000  1
  O  O21  1  0.76864997  0.32262324  0.54675185  1
  O  O22  1  0.76864997  0.32262324  0.95324815  1
  O  O23  1  0.85131101  0.54328430  0.75000000  1
