# generated using pymatgen
data_Li2TiCo3O8
_symmetry_space_group_name_H-M   'P 1'
_cell_length_a   5.75910391
_cell_length_b   5.75910426
_cell_length_c   5.72902724
_cell_angle_alpha   59.82618024
_cell_angle_beta   120.17382623
_cell_angle_gamma   120.00000520
_symmetry_Int_Tables_number   1
_chemical_formula_structural   Li2TiCo3O8
_chemical_formula_sum   'Li2 Ti1 Co3 O8'
_cell_volume   134.00767735
_cell_formula_units_Z   1
loop_
 _symmetry_equiv_pos_site_id
 _symmetry_equiv_pos_as_xyz
  1  'x, y, z'
loop_
 _atom_site_type_symbol
 _atom_site_label
 _atom_site_symmetry_multiplicity
 _atom_site_fract_x
 _atom_site_fract_y
 _atom_site_fract_z
 _atom_site_occupancy
  Li  Li0  1  0.87665878  0.12334122  0.62997534  1
  Li  Li1  1  0.12334122  0.87665878  0.37002466  1
  Ti  Ti2  1  0.50000000  0.50000000  0.50000000  1
  Co  Co3  1  0.50000000  0.50000000  0.00000000  1
  Co  Co4  1  0.50000000  0.00000000  0.00000000  1
  Co  Co5  1  0.00000000  0.50000000  0.00000000  1
  O  O6  1  0.74186163  0.71230947  0.77141280  1
  O  O7  1  0.74186163  0.25813837  0.77141280  1
  O  O8  1  0.26369800  0.73630200  0.79109499  1
  O  O9  1  0.28769053  0.25813837  0.77141280  1
  O  O10  1  0.71230947  0.74186163  0.22858720  1
  O  O11  1  0.73630200  0.26369800  0.20890501  1
  O  O12  1  0.25813837  0.74186163  0.22858720  1
  O  O13  1  0.25813837  0.28769053  0.22858720  1
