# generated using pymatgen
data_Mn3Nb(PO4)6
_symmetry_space_group_name_H-M   'P 1'
_cell_length_a   8.75714943
_cell_length_b   8.75715019
_cell_length_c   8.75714916
_cell_angle_alpha   58.31185301
_cell_angle_beta   58.31185524
_cell_angle_gamma   58.31185415
_symmetry_Int_Tables_number   1
_chemical_formula_structural   Mn3Nb(PO4)6
_chemical_formula_sum   'Mn3 Nb1 P6 O24'
_cell_volume   456.51084443
_cell_formula_units_Z   1
loop_
 _symmetry_equiv_pos_site_id
 _symmetry_equiv_pos_as_xyz
  1  'x, y, z'
loop_
 _atom_site_type_symbol
 _atom_site_label
 _atom_site_symmetry_multiplicity
 _atom_site_fract_x
 _atom_site_fract_y
 _atom_site_fract_z
 _atom_site_occupancy
  Mn  Mn0  1  0.14463875  0.14463875  0.14463875  1
  Mn  Mn1  1  0.35659428  0.35659428  0.35659428  1
  Mn  Mn2  1  0.64457771  0.64457771  0.64457771  1
  Nb  Nb3  1  0.86101859  0.86101859  0.86101859  1
  P  P4  1  0.03689077  0.74956808  0.45797782  1
  P  P5  1  0.45797782  0.03689077  0.74956808  1
  P  P6  1  0.74956808  0.45797782  0.03689077  1
  P  P7  1  0.26403459  0.52336917  0.96769206  1
  P  P8  1  0.52336917  0.96769206  0.26403459  1
  P  P9  1  0.96769206  0.26403459  0.52336917  1
  O  O10  1  0.14219383  0.27926358  0.50737779  1
  O  O11  1  0.27926358  0.50737779  0.14219383  1
  O  O12  1  0.06182155  0.92578016  0.27583663  1
  O  O13  1  0.50737779  0.14219383  0.27926358  1
  O  O14  1  0.22048181  0.57487414  0.43628570  1
  O  O15  1  0.00725392  0.77838652  0.63262984  1
  O  O16  1  0.27583663  0.06182155  0.92578016  1
  O  O17  1  0.43628570  0.22048181  0.57487414  1
  O  O18  1  0.57487414  0.43628570  0.22048181  1
  O  O19  1  0.23200731  0.35540928  0.98911087  1
  O  O20  1  0.08561495  0.70686411  0.94027709  1
  O  O21  1  0.35540928  0.98911087  0.23200731  1
  O  O22  1  0.63262984  0.00725392  0.77838652  1
  O  O23  1  0.92578016  0.27583663  0.06182155  1
  O  O24  1  0.77838652  0.63262984  0.00725392  1
  O  O25  1  0.43521571  0.55046276  0.78386975  1
  O  O26  1  0.55046276  0.78386975  0.43521571  1
  O  O27  1  0.70686411  0.94027709  0.08561495  1
  O  O28  1  0.98911087  0.23200731  0.35540928  1
  O  O29  1  0.78386975  0.43521571  0.55046276  1
  O  O30  1  0.48495998  0.86067066  0.72698823  1
  O  O31  1  0.94027709  0.08561495  0.70686411  1
  O  O32  1  0.72698823  0.48495998  0.86067066  1
  O  O33  1  0.86067066  0.72698823  0.48495998  1
