# generated using pymatgen
data_Nb9VO25
_symmetry_space_group_name_H-M   'P 1'
_cell_length_a   3.88075791
_cell_length_b   11.50270558
_cell_length_c   11.50270558
_cell_angle_alpha   91.63062517
_cell_angle_beta   99.71159621
_cell_angle_gamma   80.28840379
_symmetry_Int_Tables_number   1
_chemical_formula_structural   Nb9VO25
_chemical_formula_sum   'Nb9 V1 O25'
_cell_volume   498.86043585
_cell_formula_units_Z   1
loop_
 _symmetry_equiv_pos_site_id
 _symmetry_equiv_pos_as_xyz
  1  'x, y, z'
loop_
 _atom_site_type_symbol
 _atom_site_label
 _atom_site_symmetry_multiplicity
 _atom_site_fract_x
 _atom_site_fract_y
 _atom_site_fract_z
 _atom_site_occupancy
  Nb  Nb0  1  0.00000000  0.00000000  0.00000000  1
  Nb  Nb1  1  0.09895261  0.11283381  0.32461421  1
  Nb  Nb2  1  0.89897575  0.44154698  0.20861494  1
  Nb  Nb3  1  0.65947727  0.20861494  0.55845302  1
  Nb  Nb4  1  0.22566161  0.67538579  0.11283381  1
  Nb  Nb5  1  0.78821358  0.32461421  0.88716619  1
  Nb  Nb6  1  0.30963819  0.79138506  0.44154698  1
  Nb  Nb7  1  0.13190779  0.55845302  0.79138506  1
  Nb  Nb8  1  0.88717121  0.88716619  0.67538579  1
  V  V9  1  0.75000000  0.50000000  0.50000000  1
  O  O10  1  0.50000000  0.00000000  0.00000000  1
  O  O11  1  0.05187695  0.06639322  0.16691161  1
  O  O12  1  0.82865565  0.39153147  0.04058441  1
  O  O13  1  0.60791528  0.13919049  0.36415104  1
  O  O14  1  0.99580822  0.29237531  0.26808058  1
  O  O15  1  0.77981188  0.04058441  0.60846853  1
  O  O16  1  0.35813691  0.48899886  0.19439863  1
  O  O17  1  0.15286423  0.19439863  0.51100114  1
  O  O18  1  0.75623576  0.63584896  0.13919049  1
  O  O19  1  0.56425473  0.37172939  0.48215722  1
  O  O20  1  0.91790249  0.51784278  0.37172939  1
  O  O21  1  0.11503466  0.83308839  0.06639322  1
  O  O22  1  0.71181647  0.26808058  0.70762469  1
  O  O23  1  0.27227236  0.73191942  0.29237531  1
  O  O24  1  0.88172983  0.16691161  0.93360678  1
  O  O25  1  0.06401688  0.48215722  0.62827061  1
  O  O26  1  0.45382690  0.62827061  0.51784278  1
  O  O27  1  0.25289423  0.36415104  0.86080951  1
  O  O28  1  0.83626172  0.80560137  0.48899886  1
  O  O29  1  0.65273714  0.51100114  0.80560137  1
  O  O30  1  0.21192777  0.95941559  0.39153147  1
  O  O31  1  0.02010295  0.70762469  0.73191942  1
  O  O32  1  0.38295473  0.86080951  0.63584896  1
  O  O33  1  0.17960371  0.60846853  0.95941559  1
  O  O34  1  0.95135856  0.93360678  0.83308839  1
