# generated using pymatgen
data_MgSb2P2O9
_symmetry_space_group_name_H-M   'P 1'
_cell_length_a   6.94778232
_cell_length_b   6.69528568
_cell_length_c   15.78809360
_cell_angle_alpha   90.00000000
_cell_angle_beta   90.00000000
_cell_angle_gamma   90.00000000
_symmetry_Int_Tables_number   1
_chemical_formula_structural   MgSb2P2O9
_chemical_formula_sum   'Mg4 Sb8 P8 O36'
_cell_volume   734.42086748
_cell_formula_units_Z   4
loop_
 _symmetry_equiv_pos_site_id
 _symmetry_equiv_pos_as_xyz
  1  'x, y, z'
loop_
 _atom_site_type_symbol
 _atom_site_label
 _atom_site_symmetry_multiplicity
 _atom_site_fract_x
 _atom_site_fract_y
 _atom_site_fract_z
 _atom_site_occupancy
  Mg  Mg0  1  0.75000000  0.92212409  0.76934302  1
  Mg  Mg1  1  0.75000000  0.57787591  0.26934302  1
  Mg  Mg2  1  0.25000100  0.42212309  0.73065698  1
  Mg  Mg3  1  0.25000100  0.07787591  0.23065698  1
  Sb  Sb4  1  0.75000000  0.40008101  0.88273481  1
  Sb  Sb5  1  0.25000100  0.59991899  0.11726519  1
  Sb  Sb6  1  0.25000100  0.90008101  0.61726519  1
  Sb  Sb7  1  0.75000000  0.09991899  0.38273481  1
  Sb  Sb8  1  0.50000000  -0.00000000  0.00000000  1
  Sb  Sb9  1  0.50000000  0.50000000  0.50000000  1
  Sb  Sb10  1  -0.00000000  0.50000000  0.50000000  1
  Sb  Sb11  1  -0.00000000  -0.00000000  0.00000000  1
  P  P12  1  0.25000100  0.41884039  0.91155973  1
  P  P13  1  0.75000000  0.58115961  0.08844127  1
  P  P14  1  0.75000000  0.91884039  0.58844027  1
  P  P15  1  0.25000100  0.08116061  0.41155973  1
  P  P16  1  0.75000000  0.42691919  0.69720819  1
  P  P17  1  0.75000000  0.07308081  0.19720819  1
  P  P18  1  0.25000100  0.92691919  0.80279181  1
  P  P19  1  0.25000100  0.57307981  0.30279181  1
  O  O20  1  0.06090911  0.58375705  0.35483644  1
  O  O21  1  0.56090811  0.41624195  0.64516356  1
  O  O22  1  0.93909089  0.08375705  0.14516356  1
  O  O23  1  0.43909089  0.91624295  0.85483644  1
  O  O24  1  0.93909089  0.41624195  0.64516356  1
  O  O25  1  0.43909089  0.58375705  0.35483644  1
  O  O26  1  0.06090911  0.91624295  0.85483644  1
  O  O27  1  0.56090811  0.08375705  0.14516356  1
  O  O28  1  0.25000100  0.26649876  0.47496361  1
  O  O29  1  0.75000000  0.73350224  0.52503639  1
  O  O30  1  0.75000000  0.76649776  0.02503539  1
  O  O31  1  0.25000100  0.23350224  0.97496361  1
  O  O32  1  0.75000000  0.10313609  0.91922194  1
  O  O33  1  0.25000100  0.89686391  0.08077706  1
  O  O34  1  0.25000100  0.60313609  0.58077706  1
  O  O35  1  0.75000000  0.39686491  0.41922294  1
  O  O36  1  0.75000000  0.24367651  0.76207444  1
  O  O37  1  0.25000100  0.75632349  0.23792656  1
  O  O38  1  0.25000100  0.74367651  0.73792556  1
  O  O39  1  0.75000000  0.25632449  0.26207344  1
  O  O40  1  0.42438590  0.09620630  0.35036612  1
  O  O41  1  0.92438590  0.90379370  0.64963388  1
  O  O42  1  0.57561410  0.59620530  0.14963388  1
  O  O43  1  0.07561410  0.40379370  0.85036612  1
  O  O44  1  0.57561410  0.90379370  0.64963388  1
  O  O45  1  0.07561410  0.09620630  0.35036612  1
  O  O46  1  0.42438590  0.40379370  0.85036612  1
  O  O47  1  0.92438590  0.59620530  0.14963388  1
  O  O48  1  0.75000000  0.39155890  0.03474462  1
  O  O49  1  0.25000100  0.11153216  0.74271951  1
  O  O50  1  0.25000100  0.38846684  0.24271951  1
  O  O51  1  0.75000000  0.61153216  0.75728049  1
  O  O52  1  0.75000000  0.10844110  0.53474462  1
  O  O53  1  0.25000100  0.89155890  0.46525538  1
  O  O54  1  0.25000100  0.60844010  0.96525438  1
  O  O55  1  0.75000000  0.88846784  0.25728049  1
