# generated using pymatgen
data_Li4Mn3Cr3(TeO8)2
_symmetry_space_group_name_H-M   'P 1'
_cell_length_a   6.04971344
_cell_length_b   6.00699644
_cell_length_c   9.81677281
_cell_angle_alpha   89.99931037
_cell_angle_beta   91.55289505
_cell_angle_gamma   119.76639301
_symmetry_Int_Tables_number   1
_chemical_formula_structural   Li4Mn3Cr3(TeO8)2
_chemical_formula_sum   'Li4 Mn3 Cr3 Te2 O16'
_cell_volume   309.52620192
_cell_formula_units_Z   1
loop_
 _symmetry_equiv_pos_site_id
 _symmetry_equiv_pos_as_xyz
  1  'x, y, z'
loop_
 _atom_site_type_symbol
 _atom_site_label
 _atom_site_symmetry_multiplicity
 _atom_site_fract_x
 _atom_site_fract_y
 _atom_site_fract_z
 _atom_site_occupancy
  Li  Li0  1  0.32332573  0.66167997  0.90974432  1
  Li  Li1  1  0.98967524  0.99484152  0.98550721  1
  Li  Li2  1  0.00751420  0.00378371  0.48819339  1
  Li  Li3  1  0.67307843  0.33654213  0.40438432  1
  Mn  Mn4  1  0.66858784  0.83428927  0.21159021  1
  Mn  Mn5  1  0.83473690  0.65998542  0.71243820  1
  Mn  Mn6  1  0.83472697  0.17474563  0.71243658  1
  Cr  Cr7  1  0.17065445  0.83370484  0.21331543  1
  Cr  Cr8  1  0.17070864  0.33701220  0.21330054  1
  Cr  Cr9  1  0.34535595  0.17268910  0.71518395  1
  Te  Te10  1  0.34327294  0.67165451  0.48273117  1
  Te  Te11  1  0.65857269  0.32929106  0.98645827  1
  O  O12  1  0.18578130  0.83760467  0.58538006  1
  O  O13  1  0.04699316  0.52350374  0.34447227  1
  O  O14  1  0.33896638  0.66950258  0.11576506  1
  O  O15  1  0.99744339  0.99874278  0.30462432  1
  O  O16  1  0.00427503  0.00213173  0.79596574  1
  O  O17  1  0.18577209  0.34821055  0.58538087  1
  O  O18  1  0.47625754  0.96251492  0.35072025  1
  O  O19  1  0.47627582  0.51377692  0.35072470  1
  O  O20  1  0.30679785  0.15340498  0.10087031  1
  O  O21  1  0.67000604  0.83501293  0.58715345  1
  O  O22  1  0.49518134  0.46821928  0.84797431  1
  O  O23  1  0.49517068  0.02698728  0.84798410  1
  O  O24  1  0.66301323  0.33152092  0.61277985  1
  O  O25  1  0.84189812  0.67990055  0.09637045  1
  O  O26  1  0.95404647  0.47702647  0.85002748  1
  O  O27  1  0.84191158  0.16202231  0.09636417  1
