# generated using pymatgen
data_Li4Cu3TeO8
_symmetry_space_group_name_H-M   'P 1'
_cell_length_a   10.24872281
_cell_length_b   10.25016056
_cell_length_c   14.43039842
_cell_angle_alpha   20.18444693
_cell_angle_beta   20.18714862
_cell_angle_gamma   34.76721030
_symmetry_Int_Tables_number   1
_chemical_formula_structural   Li4Cu3TeO8
_chemical_formula_sum   'Li4 Cu3 Te1 O8'
_cell_volume   156.39016823
_cell_formula_units_Z   1
loop_
 _symmetry_equiv_pos_site_id
 _symmetry_equiv_pos_as_xyz
  1  'x, y, z'
loop_
 _atom_site_type_symbol
 _atom_site_label
 _atom_site_symmetry_multiplicity
 _atom_site_fract_x
 _atom_site_fract_y
 _atom_site_fract_z
 _atom_site_occupancy
  Li  Li0  1  0.99999892  0.99999964  0.50000096  1
  Li  Li1  1  -0.00000016  0.49999930  0.50000000  1
  Li  Li2  1  0.50000028  0.00000009  0.49999978  1
  Li  Li3  1  0.49999957  0.49999814  0.50000168  1
  Cu  Cu4  1  -0.00000059  0.49999834  0.00000158  1
  Cu  Cu5  1  0.49999840  0.99999479  0.00000581  1
  Cu  Cu6  1  0.50000331  0.50000809  -0.00000931  1
  Te  Te7  1  0.00000333  0.00000059  -0.00000243  1
  O  O8  1  0.00066861  0.00068288  0.26907753  1
  O  O9  1  0.00011960  0.55372589  0.21604724  1
  O  O10  1  0.55371694  0.00040563  0.21588100  1
  O  O11  1  0.99933254  0.99931760  0.73092169  1
  O  O12  1  0.44608123  0.44606323  0.32382520  1
  O  O13  1  0.99987955  0.44627464  0.78395294  1
  O  O14  1  0.44628033  0.99959355  0.78412064  1
  O  O15  1  0.55391814  0.55393758  0.67617469  1
