# generated using pymatgen
data_Li5NiO4
_symmetry_space_group_name_H-M   'P 1'
_cell_length_a   6.35025071
_cell_length_b   6.35024241
_cell_length_c   4.73463723
_cell_angle_alpha   90.00025172
_cell_angle_beta   89.99976815
_cell_angle_gamma   85.16403606
_symmetry_Int_Tables_number   1
_chemical_formula_structural   Li5NiO4
_chemical_formula_sum   'Li10 Ni2 O8'
_cell_volume   190.24756128
_cell_formula_units_Z   2
loop_
 _symmetry_equiv_pos_site_id
 _symmetry_equiv_pos_as_xyz
  1  'x, y, z'
loop_
 _atom_site_type_symbol
 _atom_site_label
 _atom_site_symmetry_multiplicity
 _atom_site_fract_x
 _atom_site_fract_y
 _atom_site_fract_z
 _atom_site_occupancy
  Li  Li0  1  0.04133008  0.95015118  0.77520600  1
  Li  Li1  1  0.21137712  0.28321020  0.69256405  1
  Li  Li2  1  0.28320636  0.21137620  0.19256118  1
  Li  Li3  1  0.45014526  0.54133047  0.72479744  1
  Li  Li4  1  0.48260833  0.98260332  0.74999950  1
  Li  Li5  1  0.54132849  0.45014215  0.22479886  1
  Li  Li6  1  0.71137530  0.78320841  0.30743411  1
  Li  Li7  1  0.78321390  0.71136875  0.80743429  1
  Li  Li8  1  0.95014850  0.04133535  0.27520841  1
  Li  Li9  1  0.98260669  0.48260715  0.24999979  1
  Ni  Ni10  1  0.25672708  0.75673227  0.24999566  1
  Ni  Ni11  1  0.75673083  0.25672918  0.75000325  1
  O  O12  1  0.99815102  0.23940093  0.97807792  1
  O  O13  1  0.23939635  0.99815006  0.47807306  1
  O  O14  1  0.26568826  0.48735722  0.41511064  1
  O  O15  1  0.48735557  0.26568921  0.91511065  1
  O  O16  1  0.49814826  0.73939560  0.02192760  1
  O  O17  1  0.76569037  0.98735349  0.58488839  1
  O  O18  1  0.73939629  0.49814566  0.52192471  1
  O  O19  1  0.98735494  0.76569122  0.08488347  1
