# generated using pymatgen
data_V3Cu(PO4)4
_symmetry_space_group_name_H-M   'P 1'
_cell_length_a   4.91528717
_cell_length_b   9.98487967
_cell_length_c   5.91256964
_cell_angle_alpha   90.00000000
_cell_angle_beta   90.00000000
_cell_angle_gamma   91.53557103
_symmetry_Int_Tables_number   1
_chemical_formula_structural   V3Cu(PO4)4
_chemical_formula_sum   'V3 Cu1 P4 O16'
_cell_volume   290.07614105
_cell_formula_units_Z   1
loop_
 _symmetry_equiv_pos_site_id
 _symmetry_equiv_pos_as_xyz
  1  'x, y, z'
loop_
 _atom_site_type_symbol
 _atom_site_label
 _atom_site_symmetry_multiplicity
 _atom_site_fract_x
 _atom_site_fract_y
 _atom_site_fract_z
 _atom_site_occupancy
  V  V0  1  0.47980966  0.22944139  0.75000000  1
  V  V1  1  0.54257287  0.78059998  0.25000000  1
  V  V2  1  0.97735766  0.26804679  0.25000000  1
  Cu  Cu3  1  0.08926182  0.71060515  0.75000000  1
  P  P4  1  0.09666586  0.60074500  0.25000000  1
  P  P5  1  0.40444389  0.09449953  0.25000000  1
  P  P6  1  0.56172333  0.90245435  0.75000000  1
  P  P7  1  0.92143887  0.40380070  0.75000000  1
  O  O8  1  0.14050211  0.45025131  0.25000000  1
  O  O9  1  0.26084763  0.67317270  0.05408296  1
  O  O10  1  0.26084763  0.67317270  0.44591704  1
  O  O11  1  0.22418909  0.37558228  0.75000000  1
  O  O12  1  0.25344664  0.88339634  0.75000000  1
  O  O13  1  0.26236653  0.16908465  0.04753907  1
  O  O14  1  0.26236653  0.16908465  0.45246093  1
  O  O15  1  0.32851298  0.94471063  0.25000000  1
  O  O16  1  0.64295535  0.05117220  0.75000000  1
  O  O17  1  0.69202443  0.83238098  0.53721576  1
  O  O18  1  0.69202443  0.83238098  0.96278424  1
  O  O19  1  0.71156612  0.11775551  0.25000000  1
  O  O20  1  0.79389853  0.63047842  0.25000000  1
  O  O21  1  0.76905137  0.32772934  0.54768642  1
  O  O22  1  0.76905137  0.32772934  0.95231358  1
  O  O23  1  0.86307531  0.55172708  0.75000000  1
