# generated using pymatgen
data_CrP4O11
_symmetry_space_group_name_H-M   'P 1'
_cell_length_a   5.41781637
_cell_length_b   22.58777255
_cell_length_c   7.72662677
_cell_angle_alpha   90.00000000
_cell_angle_beta   108.10935065
_cell_angle_gamma   90.00000000
_symmetry_Int_Tables_number   1
_chemical_formula_structural   CrP4O11
_chemical_formula_sum   'Cr4 P16 O44'
_cell_volume   898.71865853
_cell_formula_units_Z   4
loop_
 _symmetry_equiv_pos_site_id
 _symmetry_equiv_pos_as_xyz
  1  'x, y, z'
loop_
 _atom_site_type_symbol
 _atom_site_label
 _atom_site_symmetry_multiplicity
 _atom_site_fract_x
 _atom_site_fract_y
 _atom_site_fract_z
 _atom_site_occupancy
  Cr  Cr0  1  0.00470637  0.11282000  0.87418775  1
  Cr  Cr1  1  0.00470637  0.38718000  0.37418775  1
  Cr  Cr2  1  0.99529363  0.61282000  0.62581225  1
  Cr  Cr3  1  0.99529363  0.88718000  0.12581225  1
  P  P4  1  0.31087001  0.42803099  0.82259168  1
  P  P5  1  0.40383361  0.80489303  0.96561803  1
  P  P6  1  0.33122580  0.82042032  0.56038713  1
  P  P7  1  0.40591289  0.03463008  0.70794157  1
  P  P8  1  0.31087001  0.07196901  0.32259168  1
  P  P9  1  0.40383361  0.69510697  0.46561803  1
  P  P10  1  0.59408711  0.53463008  0.79205843  1
  P  P11  1  0.66877420  0.32042032  0.93961287  1
  P  P12  1  0.33122580  0.67957968  0.06038713  1
  P  P13  1  0.40591289  0.46536992  0.20794157  1
  P  P14  1  0.59616639  0.30489303  0.53438197  1
  P  P15  1  0.68912999  0.92803099  0.67740832  1
  P  P16  1  0.59408711  0.96536992  0.29205843  1
  P  P17  1  0.66877420  0.17957968  0.43961287  1
  P  P18  1  0.59616639  0.19510697  0.03438197  1
  P  P19  1  0.68912999  0.57196901  0.17740832  1
  O  O20  1  0.09793972  0.65744453  0.92172645  1
  O  O21  1  0.07997724  0.42649866  0.66216278  1
  O  O22  1  0.24381211  0.45403218  0.99246851  1
  O  O23  1  0.22146154  0.04460210  0.81200814  1
  O  O24  1  0.34736839  0.16257047  0.98551460  1
  O  O25  1  0.09793972  0.84255547  0.42172645  1
  O  O26  1  0.27377494  0.80455408  0.74343812  1
  O  O27  1  0.19380219  0.68089208  0.54506431  1
  O  O28  1  0.33692127  0.56390754  0.74778043  1
  O  O29  1  0.47158455  0.73462200  0.00362093  1
  O  O30  1  0.42351727  0.36357461  0.88598210  1
  O  O31  1  0.07997724  0.07350134  0.16216278  1
  O  O32  1  0.24381211  0.04596782  0.49246851  1
  O  O33  1  0.22146154  0.45539790  0.31200814  1
  O  O34  1  0.44323151  0.96247738  0.69857249  1
  O  O35  1  0.34736839  0.33743053  0.48551460  1
  O  O36  1  0.27377494  0.69544592  0.24343812  1
  O  O37  1  0.19380219  0.81910792  0.04506431  1
  O  O38  1  0.55676849  0.46247738  0.80142751  1
  O  O39  1  0.33692127  0.93609246  0.24778043  1
  O  O40  1  0.47158455  0.76537800  0.50362093  1
  O  O41  1  0.42351727  0.13642539  0.38598210  1
  O  O42  1  0.57648273  0.86357461  0.61401790  1
  O  O43  1  0.52841545  0.23462200  0.49637907  1
  O  O44  1  0.66307873  0.06390754  0.75221957  1
  O  O45  1  0.44323151  0.53752262  0.19857249  1
  O  O46  1  0.80619781  0.18089208  0.95493569  1
  O  O47  1  0.72622506  0.30455408  0.75656188  1
  O  O48  1  0.65263161  0.66256947  0.51448540  1
  O  O49  1  0.55676849  0.03752262  0.30142751  1
  O  O50  1  0.77853846  0.54460210  0.68799186  1
  O  O51  1  0.75618789  0.95403218  0.50753149  1
  O  O52  1  0.92002276  0.92649866  0.83783722  1
  O  O53  1  0.57648273  0.63642539  0.11401790  1
  O  O54  1  0.52841545  0.26537800  0.99637907  1
  O  O55  1  0.66307873  0.43609246  0.25221957  1
  O  O56  1  0.80619781  0.31910792  0.45493569  1
  O  O57  1  0.72622506  0.19544592  0.25656188  1
  O  O58  1  0.90206028  0.15744453  0.57827355  1
  O  O59  1  0.65263161  0.83743053  0.01448540  1
  O  O60  1  0.77853846  0.95539790  0.18799186  1
  O  O61  1  0.75618789  0.54596782  0.00753149  1
  O  O62  1  0.92002276  0.57350134  0.33783722  1
  O  O63  1  0.90206028  0.34255547  0.07827355  1
