# generated using pymatgen
data_Li16V3Ga13O32
_symmetry_space_group_name_H-M   'P 1'
_cell_length_a   5.51326869
_cell_length_b   6.48001434
_cell_length_c   20.39473069
_cell_angle_alpha   89.98269098
_cell_angle_beta   89.99289603
_cell_angle_gamma   89.99317506
_symmetry_Int_Tables_number   1
_chemical_formula_structural   Li16V3Ga13O32
_chemical_formula_sum   'Li16 V3 Ga13 O32'
_cell_volume   728.62333140
_cell_formula_units_Z   1
loop_
 _symmetry_equiv_pos_site_id
 _symmetry_equiv_pos_as_xyz
  1  'x, y, z'
loop_
 _atom_site_type_symbol
 _atom_site_label
 _atom_site_symmetry_multiplicity
 _atom_site_fract_x
 _atom_site_fract_y
 _atom_site_fract_z
 _atom_site_occupancy
  Li  Li0  1  0.08380089  0.62583557  0.12591435  1
  Li  Li1  1  0.08211719  0.62443345  0.37554719  1
  Li  Li2  1  0.08054119  0.62413061  0.62593768  1
  Li  Li3  1  0.08152274  0.62508130  0.87569934  1
  Li  Li4  1  0.41928683  0.12439106  0.00074946  1
  Li  Li5  1  0.41836426  0.12507219  0.50080927  1
  Li  Li6  1  0.41649300  0.12317193  0.25095647  1
  Li  Li7  1  0.41753658  0.12436039  0.75054428  1
  Li  Li8  1  0.58139077  0.87488388  0.12587810  1
  Li  Li9  1  0.58359205  0.87413310  0.87572791  1
  Li  Li10  1  0.58294860  0.87551744  0.37548192  1
  Li  Li11  1  0.58336800  0.87672233  0.62599711  1
  Li  Li12  1  0.91954756  0.37568274  0.25091416  1
  Li  Li13  1  0.91738564  0.37541474  0.75049205  1
  Li  Li14  1  0.91668192  0.37685583  0.00084784  1
  Li  Li15  1  0.91642097  0.37402216  0.50084410  1
  V  V16  1  0.08372089  0.12782567  0.87563902  1
  V  V17  1  0.41630743  0.62782698  0.50058351  1
  V  V18  1  0.58351376  0.37239651  0.12585159  1
  Ga  Ga19  1  0.08253537  0.12310807  0.12465531  1
  Ga  Ga20  1  0.08192736  0.12628965  0.37470223  1
  Ga  Ga21  1  0.08211765  0.12620504  0.62498999  1
  Ga  Ga22  1  0.41734460  0.62713133  0.99927342  1
  Ga  Ga23  1  0.41682238  0.62853225  0.25025743  1
  Ga  Ga24  1  0.41797910  0.62637277  0.74951997  1
  Ga  Ga25  1  0.58233682  0.37285500  0.37387572  1
  Ga  Ga26  1  0.58242526  0.37715310  0.87503728  1
  Ga  Ga27  1  0.58324649  0.37136566  0.62503037  1
  Ga  Ga28  1  0.91788413  0.87377458  0.24976769  1
  Ga  Ga29  1  0.91777083  0.87299792  0.74911834  1
  Ga  Ga30  1  0.91647454  0.87117617  0.00003288  1
  Ga  Ga31  1  0.91750652  0.87701133  0.50000083  1
  O  O32  1  0.06871538  0.11170086  0.28266063  1
  O  O33  1  0.06802412  0.11123240  0.03205636  1
  O  O34  1  0.07210799  0.11286531  0.53267363  1
  O  O35  1  0.06810076  0.11096430  0.78054596  1
  O  O36  1  0.09352138  0.63814986  0.02721874  1
  O  O37  1  0.09196061  0.63883760  0.27693873  1
  O  O38  1  0.08123992  0.63832491  0.52731649  1
  O  O39  1  0.09320494  0.63840876  0.77657960  1
  O  O40  1  0.40366646  0.13099358  0.15236387  1
  O  O41  1  0.41883568  0.13830495  0.90228905  1
  O  O42  1  0.40697876  0.13857302  0.40157324  1
  O  O43  1  0.40665228  0.13794556  0.65204036  1
  O  O44  1  0.42723085  0.61873297  0.15834280  1
  O  O45  1  0.43188951  0.61083214  0.40535491  1
  O  O46  1  0.43146839  0.61141963  0.65701766  1
  O  O47  1  0.42733905  0.61371890  0.90712395  1
  O  O48  1  0.56803724  0.38914123  0.03069210  1
  O  O49  1  0.57272359  0.38143204  0.53316099  1
  O  O50  1  0.56818838  0.38844341  0.78265039  1
  O  O51  1  0.56917305  0.38755711  0.28140807  1
  O  O52  1  0.59211999  0.86131954  0.02716106  1
  O  O53  1  0.59367952  0.86221900  0.27700897  1
  O  O54  1  0.59585607  0.86887174  0.52742306  1
  O  O55  1  0.59313919  0.86100220  0.77655208  1
  O  O56  1  0.91903793  0.36136069  0.15225022  1
  O  O57  1  0.90419377  0.36900158  0.90239144  1
  O  O58  1  0.90663189  0.36117305  0.40155486  1
  O  O59  1  0.90763356  0.36124154  0.65196474  1
  O  O60  1  0.92715991  0.88132664  0.90821960  1
  O  O61  1  0.92803501  0.88739853  0.15753785  1
  O  O62  1  0.93177395  0.88836538  0.40775216  1
  O  O63  1  0.93077356  0.88740881  0.65709762  1
