# generated using pymatgen
data_TiMn(PO4)2
_symmetry_space_group_name_H-M   'P 1'
_cell_length_a   10.07499139
_cell_length_b   6.02667749
_cell_length_c   4.98386561
_cell_angle_alpha   90.00000000
_cell_angle_beta   89.20921362
_cell_angle_gamma   90.00000000
_symmetry_Int_Tables_number   1
_chemical_formula_structural   TiMn(PO4)2
_chemical_formula_sum   'Ti2 Mn2 P4 O16'
_cell_volume   302.58513724
_cell_formula_units_Z   2
loop_
 _symmetry_equiv_pos_site_id
 _symmetry_equiv_pos_as_xyz
  1  'x, y, z'
loop_
 _atom_site_type_symbol
 _atom_site_label
 _atom_site_symmetry_multiplicity
 _atom_site_fract_x
 _atom_site_fract_y
 _atom_site_fract_z
 _atom_site_occupancy
  Ti  Ti0  1  0.22262822  0.75000000  0.47305048  1
  Ti  Ti1  1  0.77737178  0.25000000  0.52694952  1
  Mn  Mn2  1  0.27074703  0.25000000  0.96687614  1
  Mn  Mn3  1  0.72925297  0.75000000  0.03312386  1
  P  P4  1  0.09325750  0.25000000  0.44221947  1
  P  P5  1  0.39714992  0.75000000  0.89311535  1
  P  P6  1  0.60285008  0.25000000  0.10688465  1
  P  P7  1  0.90674250  0.75000000  0.55778053  1
  O  O8  1  0.05413685  0.75000000  0.65197898  1
  O  O9  1  0.09871619  0.25000000  0.74339332  1
  O  O10  1  0.16736298  0.04528050  0.30912637  1
  O  O11  1  0.16736298  0.45471950  0.30912637  1
  O  O12  1  0.32389605  0.94448778  0.74054682  1
  O  O13  1  0.32389605  0.55551222  0.74054682  1
  O  O14  1  0.35574646  0.75000000  0.19433829  1
  O  O15  1  0.45555061  0.25000000  0.14503275  1
  O  O16  1  0.54444939  0.75000000  0.85496725  1
  O  O17  1  0.64425354  0.25000000  0.80566171  1
  O  O18  1  0.67610395  0.05551222  0.25945318  1
  O  O19  1  0.67610395  0.44448778  0.25945318  1
  O  O20  1  0.83263702  0.54528050  0.69087363  1
  O  O21  1  0.83263702  0.95471950  0.69087363  1
  O  O22  1  0.90128381  0.75000000  0.25660668  1
  O  O23  1  0.94586315  0.25000000  0.34802102  1
