# generated using pymatgen
data_LiVO2
_symmetry_space_group_name_H-M   'P 1'
_cell_length_a   4.09956378
_cell_length_b   5.27857785
_cell_length_c   8.78320520
_cell_angle_alpha   33.75885517
_cell_angle_beta   89.89513156
_cell_angle_gamma   112.73357073
_symmetry_Int_Tables_number   1
_chemical_formula_structural   LiVO2
_chemical_formula_sum   'Li2 V2 O4'
_cell_volume   75.61738070
_cell_formula_units_Z   2
loop_
 _symmetry_equiv_pos_site_id
 _symmetry_equiv_pos_as_xyz
  1  'x, y, z'
loop_
 _atom_site_type_symbol
 _atom_site_label
 _atom_site_symmetry_multiplicity
 _atom_site_fract_x
 _atom_site_fract_y
 _atom_site_fract_z
 _atom_site_occupancy
  Li  Li0  1  0.50672497  0.50975231  0.86874307  1
  Li  Li1  1  0.00134408  0.51080085  0.62035953  1
  V  V2  1  0.50565317  0.50829575  0.37376547  1
  V  V3  1  0.00244498  0.51206642  0.11731444  1
  O  O4  1  0.00420484  0.50731153  0.89154221  1
  O  O5  1  0.00361807  0.50630397  0.35566534  1
  O  O6  1  0.50365122  0.51258562  0.59997352  1
  O  O7  1  0.50414567  0.51343855  0.13586442  1
