# generated using pymatgen
data_Li2V3FeO8
_symmetry_space_group_name_H-M   'P 1'
_cell_length_a   5.90489765
_cell_length_b   5.96414891
_cell_length_c   9.61075832
_cell_angle_alpha   90.03592481
_cell_angle_beta   89.98184950
_cell_angle_gamma   120.33248398
_symmetry_Int_Tables_number   1
_chemical_formula_structural   Li2V3FeO8
_chemical_formula_sum   'Li4 V6 Fe2 O16'
_cell_volume   292.13544521
_cell_formula_units_Z   2
loop_
 _symmetry_equiv_pos_site_id
 _symmetry_equiv_pos_as_xyz
  1  'x, y, z'
loop_
 _atom_site_type_symbol
 _atom_site_label
 _atom_site_symmetry_multiplicity
 _atom_site_fract_x
 _atom_site_fract_y
 _atom_site_fract_z
 _atom_site_occupancy
  Li  Li0  1  0.33153543  0.66609873  0.89421047  1
  Li  Li1  1  0.00614677  0.00248860  0.99534673  1
  Li  Li2  1  0.99385323  0.99634183  0.49534673  1
  Li  Li3  1  0.66846457  0.33456430  0.39421047  1
  V  V4  1  0.17597212  0.83476037  0.21562194  1
  V  V5  1  0.17575467  0.34115040  0.21540155  1
  V  V6  1  0.65790606  0.82908897  0.21026972  1
  V  V7  1  0.34209394  0.17118291  0.71026972  1
  V  V8  1  0.82402788  0.65878824  0.71562194  1
  V  V9  1  0.82424533  0.16539472  0.71540155  1
  Fe  Fe10  1  0.32242666  0.66119706  0.49185250  1
  Fe  Fe11  1  0.67757334  0.33876941  0.99185250  1
  O  O12  1  0.15294271  0.82995095  0.60396776  1
  O  O13  1  0.03768709  0.51893163  0.33699832  1
  O  O14  1  0.31371874  0.65688192  0.09997123  1
  O  O15  1  0.00847859  0.00443151  0.30993349  1
  O  O16  1  0.99152141  0.99595192  0.80993349  1
  O  O17  1  0.15292366  0.32281708  0.60378067  1
  O  O18  1  0.46943976  0.96077562  0.33715936  1
  O  O19  1  0.46947011  0.50894424  0.33687872  1
  O  O20  1  0.33366232  0.16666877  0.10252852  1
  O  O21  1  0.66633768  0.83300645  0.60252852  1
  O  O22  1  0.53056024  0.49133486  0.83715936  1
  O  O23  1  0.53052989  0.03947414  0.83687872  1
  O  O24  1  0.68628126  0.34316317  0.59997123  1
  O  O25  1  0.84705729  0.67700724  0.10396776  1
  O  O26  1  0.96231291  0.48124454  0.83699832  1
  O  O27  1  0.84707634  0.16989342  0.10378067  1
