# generated using pymatgen
data_Ba2Ti6N2O11
_symmetry_space_group_name_H-M   'P 1'
_cell_length_a   3.95550414
_cell_length_b   7.93027034
_cell_length_c   9.20173851
_cell_angle_alpha   81.63222223
_cell_angle_beta   90.00000000
_cell_angle_gamma   75.55841403
_symmetry_Int_Tables_number   1
_chemical_formula_structural   Ba2Ti6N2O11
_chemical_formula_sum   'Ba2 Ti6 N2 O11'
_cell_volume   276.34755180
_cell_formula_units_Z   1
loop_
 _symmetry_equiv_pos_site_id
 _symmetry_equiv_pos_as_xyz
  1  'x, y, z'
loop_
 _atom_site_type_symbol
 _atom_site_label
 _atom_site_symmetry_multiplicity
 _atom_site_fract_x
 _atom_site_fract_y
 _atom_site_fract_z
 _atom_site_occupancy
  Ba  Ba0  1  0.54785244  0.90429413  0.76562818  1
  Ba  Ba1  1  0.45214756  0.09570587  0.23437182  1
  Ti  Ti2  1  0.11985723  0.76028555  0.09325028  1
  Ti  Ti3  1  0.17542491  0.64914918  0.44467893  1
  Ti  Ti4  1  0.24188442  0.51623016  0.76349413  1
  Ti  Ti5  1  0.75811558  0.48376984  0.23650587  1
  Ti  Ti6  1  0.82457509  0.35085082  0.55532107  1
  Ti  Ti7  1  0.88014277  0.23971445  0.90674972  1
  N  N8  1  0.70402307  0.59195386  0.42087898  1
  N  N9  1  0.29597693  0.40804614  0.57912102  1
  O  O10  1  0.07583172  0.84833557  0.28736604  1
  O  O11  1  0.12769555  0.74460890  0.61846905  1
  O  O12  1  0.16212443  0.67575214  0.90941282  1
  O  O13  1  0.63787438  0.72425124  0.10882551  1
  O  O14  1  0.75724124  0.48551652  0.77173819  1
  O  O15  1  0.24275876  0.51448348  0.22826181  1
  O  O16  1  0.36212562  0.27574876  0.89117449  1
  O  O17  1  0.83787557  0.32424786  0.09058718  1
  O  O18  1  0.87230445  0.25539110  0.38153095  1
  O  O19  1  0.92416828  0.15166443  0.71263396  1
  O  O20  1  0.00000000  0.00000000  0.00000000  1
