# generated using pymatgen
data_Li4Ti3Ni3(SbO8)2
_symmetry_space_group_name_H-M   'P 1'
_cell_length_a   5.98651832
_cell_length_b   5.96488567
_cell_length_c   9.70472971
_cell_angle_alpha   90.00036208
_cell_angle_beta   90.51697432
_cell_angle_gamma   119.88052147
_symmetry_Int_Tables_number   1
_chemical_formula_structural   Li4Ti3Ni3(SbO8)2
_chemical_formula_sum   'Li4 Ti3 Ni3 Sb2 O16'
_cell_volume   300.46133455
_cell_formula_units_Z   1
loop_
 _symmetry_equiv_pos_site_id
 _symmetry_equiv_pos_as_xyz
  1  'x, y, z'
loop_
 _atom_site_type_symbol
 _atom_site_label
 _atom_site_symmetry_multiplicity
 _atom_site_fract_x
 _atom_site_fract_y
 _atom_site_fract_z
 _atom_site_occupancy
  Li  Li0  1  0.32679105  0.66340652  0.89502753  1
  Li  Li1  1  0.98443267  0.99221875  0.98183746  1
  Li  Li2  1  0.99861936  0.99931604  0.49549258  1
  Li  Li3  1  0.66456891  0.33229194  0.40702281  1
  Ti  Ti4  1  0.17533765  0.83469353  0.21402860  1
  Ti  Ti5  1  0.17534019  0.34065339  0.21403139  1
  Ti  Ti6  1  0.34657557  0.17328762  0.71743634  1
  Ni  Ni7  1  0.65624320  0.82812542  0.21147481  1
  Ni  Ni8  1  0.82816476  0.65753216  0.71150234  1
  Ni  Ni9  1  0.82819952  0.17070474  0.71149181  1
  Sb  Sb10  1  0.34374327  0.67188313  0.49400851  1
  Sb  Sb11  1  0.68416586  0.34208940  0.98233892  1
  O  O12  1  0.17803596  0.83831316  0.59506912  1
  O  O13  1  0.04100986  0.52051390  0.33943342  1
  O  O14  1  0.30574201  0.65287577  0.10529150  1
  O  O15  1  0.01109450  0.00555530  0.30311176  1
  O  O16  1  0.01677241  0.00841172  0.79788363  1
  O  O17  1  0.17804008  0.33974946  0.59506427  1
  O  O18  1  0.46543518  0.95820291  0.34250459  1
  O  O19  1  0.46543568  0.50724789  0.34250374  1
  O  O20  1  0.34438843  0.17219622  0.10554966  1
  O  O21  1  0.67545446  0.83774703  0.58804952  1
  O  O22  1  0.50638460  0.47194263  0.85320016  1
  O  O23  1  0.50639757  0.03446578  0.85318921  1
  O  O24  1  0.63836476  0.31920492  0.60375421  1
  O  O25  1  0.84394860  0.66934402  0.09946692  1
  O  O26  1  0.96736587  0.48370894  0.84861214  1
  O  O27  1  0.84394804  0.17461371  0.09946305  1
