# generated using pymatgen
data_CaGeO3
_symmetry_space_group_name_H-M   'P 1'
_cell_length_a   7.01354411
_cell_length_b   7.01354411
_cell_length_c   10.99971602
_cell_angle_alpha   71.99172481
_cell_angle_beta   108.00827519
_cell_angle_gamma   119.79651444
_symmetry_Int_Tables_number   1
_chemical_formula_structural   CaGeO3
_chemical_formula_sum   'Ca6 Ge6 O18'
_cell_volume   438.53839974
_cell_formula_units_Z   6
loop_
 _symmetry_equiv_pos_site_id
 _symmetry_equiv_pos_as_xyz
  1  'x, y, z'
loop_
 _atom_site_type_symbol
 _atom_site_label
 _atom_site_symmetry_multiplicity
 _atom_site_fract_x
 _atom_site_fract_y
 _atom_site_fract_z
 _atom_site_occupancy
  Ca  Ca0  1  0.00000000  0.50000000  0.50000000  1
  Ca  Ca1  1  0.67126491  0.84529100  0.50063531  1
  Ca  Ca2  1  0.84529100  0.67126491  0.99936469  1
  Ca  Ca3  1  0.15470900  0.32873509  0.00063531  1
  Ca  Ca4  1  0.32873509  0.15470900  0.49936469  1
  Ca  Ca5  1  0.50000000  0.00000000  0.00000000  1
  Ge  Ge6  1  0.41911373  0.68712608  0.75486478  1
  Ge  Ge7  1  0.14779595  0.14779595  0.75000000  1
  Ge  Ge8  1  0.31287392  0.58088627  0.25486478  1
  Ge  Ge9  1  0.68712608  0.41911373  0.74513522  1
  Ge  Ge10  1  0.85220405  0.85220405  0.25000000  1
  Ge  Ge11  1  0.58088627  0.31287392  0.24513522  1
  O  O12  1  0.36834234  0.83201858  0.60014032  1
  O  O13  1  0.47080276  0.72113565  0.91344845  1
  O  O14  1  0.17232460  0.41807077  0.75192556  1
  O  O15  1  0.16798142  0.63165766  0.10014032  1
  O  O16  1  0.27886435  0.52919724  0.41344845  1
  O  O17  1  0.00283941  0.10953011  0.59456846  1
  O  O18  1  0.66436303  0.66436303  0.75000000  1
  O  O19  1  0.10953011  0.00283941  0.90543154  1
  O  O20  1  0.58192923  0.82767540  0.25192556  1
  O  O21  1  0.41807077  0.17232460  0.74807444  1
  O  O22  1  0.89046989  0.99716059  0.09456846  1
  O  O23  1  0.33563697  0.33563697  0.25000000  1
  O  O24  1  0.99716059  0.89046989  0.40543154  1
  O  O25  1  0.72113565  0.47080276  0.58655155  1
  O  O26  1  0.83201858  0.36834234  0.89985968  1
  O  O27  1  0.82767540  0.58192923  0.24807444  1
  O  O28  1  0.52919724  0.27886435  0.08655155  1
  O  O29  1  0.63165766  0.16798142  0.39985968  1
