# generated using pymatgen
data_NaTi2(PO4)3
_symmetry_space_group_name_H-M   'P 1'
_cell_length_a   8.62797139
_cell_length_b   9.01909802
_cell_length_c   8.58597089
_cell_angle_alpha   61.24059427
_cell_angle_beta   59.85248973
_cell_angle_gamma   61.31405584
_symmetry_Int_Tables_number   1
_chemical_formula_structural   NaTi2(PO4)3
_chemical_formula_sum   'Na2 Ti4 P6 O24'
_cell_volume   480.79731844
_cell_formula_units_Z   2
loop_
 _symmetry_equiv_pos_site_id
 _symmetry_equiv_pos_as_xyz
  1  'x, y, z'
loop_
 _atom_site_type_symbol
 _atom_site_label
 _atom_site_symmetry_multiplicity
 _atom_site_fract_x
 _atom_site_fract_y
 _atom_site_fract_z
 _atom_site_occupancy
  Na  Na0  1  0.91498740  0.16747182  0.66834279  1
  Na  Na1  1  0.08501260  0.83252818  0.33165721  1
  Ti  Ti2  1  0.85688436  0.43179253  0.86172622  1
  Ti  Ti3  1  0.36463553  0.93765234  0.35148865  1
  Ti  Ti4  1  0.63536447  0.06234766  0.64851135  1
  Ti  Ti5  1  0.14311564  0.56820747  0.13827378  1
  P  P6  1  0.75048560  0.74670132  0.46878058  1
  P  P7  1  0.96838671  0.24929017  0.24772830  1
  P  P8  1  0.53289541  0.25093412  0.96897970  1
  P  P9  1  0.46710459  0.74906588  0.03102030  1
  P  P10  1  0.03161329  0.75070983  0.75227170  1
  P  P11  1  0.24951440  0.25329868  0.53121942  1
  O  O12  1  0.84795549  0.91029251  0.75646258  1
  O  O13  1  0.76008597  0.90308379  0.49152550  1
  O  O14  1  0.91315512  0.72303777  0.28031563  1
  O  O15  1  0.78305471  0.57535211  0.63323898  1
  O  O16  1  0.49205367  0.90667470  0.84392057  1
  O  O17  1  0.72053998  0.27742478  0.91226050  1
  O  O18  1  0.99754565  0.41876474  0.21653419  1
  O  O19  1  0.55775335  0.79343987  0.45822689  1
  O  O20  1  0.81145055  0.20539588  0.44426364  1
  O  O21  1  0.90927226  0.27782747  0.09082553  1
  O  O22  1  0.36697639  0.42018828  0.99570227  1
  O  O23  1  0.54926839  0.20505737  0.80739091  1
  O  O24  1  0.45073161  0.79494263  0.19260909  1
  O  O25  1  0.63302361  0.57981172  0.00429773  1
  O  O26  1  0.09072774  0.72217253  0.90917447  1
  O  O27  1  0.18854945  0.79460412  0.55573636  1
  O  O28  1  0.44224665  0.20656013  0.54177311  1
  O  O29  1  0.00245435  0.58123526  0.78346581  1
  O  O30  1  0.27946002  0.72257522  0.08773950  1
  O  O31  1  0.50794633  0.09332530  0.15607943  1
  O  O32  1  0.21694529  0.42464789  0.36676102  1
  O  O33  1  0.08684488  0.27696223  0.71968437  1
  O  O34  1  0.23991403  0.09691621  0.50847450  1
  O  O35  1  0.15204451  0.08970749  0.24353742  1
