# generated using pymatgen
data_LiV6O15
_symmetry_space_group_name_H-M   'P 1'
_cell_length_a   10.27280981
_cell_length_b   7.30919015
_cell_length_c   15.37879709
_cell_angle_alpha   89.99714504
_cell_angle_beta   72.82778393
_cell_angle_gamma   89.99797685
_symmetry_Int_Tables_number   1
_chemical_formula_structural   LiV6O15
_chemical_formula_sum   'Li4 V24 O60'
_cell_volume   1103.25511683
_cell_formula_units_Z   4
loop_
 _symmetry_equiv_pos_site_id
 _symmetry_equiv_pos_as_xyz
  1  'x, y, z'
loop_
 _atom_site_type_symbol
 _atom_site_label
 _atom_site_symmetry_multiplicity
 _atom_site_fract_x
 _atom_site_fract_y
 _atom_site_fract_z
 _atom_site_occupancy
  Li  Li0  1  0.66226371  0.49605959  0.98788102  1
  Li  Li1  1  0.83781492  0.25392347  0.51212563  1
  Li  Li2  1  0.16215210  0.75385689  0.48797938  1
  Li  Li3  1  0.33771417  0.99613821  0.01210279  1
  V  V4  1  0.87648607  0.49797940  0.71032971  1
  V  V5  1  0.87362687  0.00189080  0.71057427  1
  V  V6  1  0.99844541  0.49987844  0.12208729  1
  V  V7  1  0.99403872  0.99973806  0.11504752  1
  V  V8  1  0.62628045  0.74808544  0.78945076  1
  V  V9  1  0.62334218  0.25203353  0.78969779  1
  V  V10  1  0.76941048  0.00440754  0.33794611  1
  V  V11  1  0.76654138  0.49780907  0.33919508  1
  V  V12  1  0.73049334  0.74562906  0.16204657  1
  V  V13  1  0.73336555  0.25214650  0.16076190  1
  V  V14  1  0.49847558  0.74996591  0.62207375  1
  V  V15  1  0.49414083  0.25048636  0.61502556  1
  V  V16  1  0.50591952  0.75019758  0.38500550  1
  V  V17  1  0.50153420  0.25018242  0.37801272  1
  V  V18  1  0.26661849  0.75228985  0.83911490  1
  V  V19  1  0.26942964  0.24552542  0.83792827  1
  V  V20  1  0.23342599  0.99773641  0.66080166  1
  V  V21  1  0.23050320  0.50437112  0.66208416  1
  V  V22  1  0.37659989  0.75197379  0.21031942  1
  V  V23  1  0.37376064  0.24814031  0.21057106  1
  V  V24  1  0.00583642  0.49962860  0.88500747  1
  V  V25  1  0.00144049  -0.00007280  0.87798627  1
  V  V26  1  0.12626988  0.50187328  0.28941093  1
  V  V27  1  0.12341737  0.99802119  0.28968887  1
  O  O28  1  0.83930015  0.99917757  0.89048707  1
  O  O29  1  0.84318250  0.50048499  0.88861640  1
  O  O30  1  0.91784241  0.48632139  0.60045822  1
  O  O31  1  0.91536672  0.01430088  0.60069605  1
  O  O32  1  0.82800965  0.25107922  0.74479397  1
  O  O33  1  0.83012498  0.74894063  0.73937420  1
  O  O34  1  0.96624082  0.50124179  0.26212295  1
  O  O35  1  0.95875935  0.99920313  0.26538323  1
  O  O36  1  0.94057740  0.25189187  0.13384675  1
  O  O37  1  0.94029818  0.74727084  0.13353095  1
  O  O38  1  0.67193836  0.49889005  0.75524096  1
  O  O39  1  0.66984545  0.00108093  0.76063323  1
  O  O40  1  0.78934317  0.02989464  0.43849066  1
  O  O41  1  0.79197671  0.46386834  0.43864891  1
  O  O42  1  0.58467225  0.73583700  0.89933146  1
  O  O43  1  0.58216034  0.26358096  0.89956904  1
  O  O44  1  0.66060003  0.75087045  0.60956487  1
  O  O45  1  0.65678901  0.24949392  0.61143646  1
  O  O46  1  0.73556716  0.75941019  0.32282516  1
  O  O47  1  0.73928353  0.24108272  0.30679532  1
  O  O48  1  0.76063065  0.50885747  0.19316011  1
  O  O49  1  0.76442565  0.99065022  0.17719131  1
  O  O50  1  0.46626094  0.74872464  0.76217582  1
  O  O51  1  0.45873591  0.25081338  0.76541593  1
  O  O52  1  0.44035560  0.50269957  0.63345280  1
  O  O53  1  0.44042391  0.99815569  0.63386445  1
  O  O54  1  0.70798327  0.28608736  0.06129878  1
  O  O55  1  0.71064412  0.72016706  0.06147139  1
  O  O56  1  0.49884942  0.74998591  0.50003849  1
  O  O57  1  0.50097073  0.24994844  0.50003110  1
  O  O58  1  0.28938613  0.22005041  0.93851824  1
  O  O59  1  0.29206181  0.78611295  0.93855562  1
  O  O60  1  0.55944781  0.49810611  0.36610921  1
  O  O61  1  0.55977520  0.00271372  0.36643293  1
  O  O62  1  0.54134897  0.75085875  0.23457428  1
  O  O63  1  0.53382723  0.24869553  0.23781184  1
  O  O64  1  0.23925160  0.00888848  0.80665854  1
  O  O65  1  0.23552354  0.49067767  0.82290211  1
  O  O66  1  0.26473393  0.25904168  0.67722745  1
  O  O67  1  0.26092904  0.74150583  0.69320948  1
  O  O68  1  0.34329821  0.74947334  0.38861537  1
  O  O69  1  0.33941407  0.25088657  0.39048869  1
  O  O70  1  0.41784614  0.76359025  0.10046130  1
  O  O71  1  0.41535634  0.23585327  0.10067458  1
  O  O72  1  0.20798852  0.96381238  0.56137955  1
  O  O73  1  0.21063246  0.52989205  0.56146942  1
  O  O74  1  0.33018390  0.50110242  0.23941034  1
  O  O75  1  0.32807228  0.99886702  0.24478896  1
  O  O76  1  0.05937856  0.75182648  0.86610137  1
  O  O77  1  0.05967366  0.24731609  0.86643833  1
  O  O78  1  0.04136599  0.49919452  0.73459588  1
  O  O79  1  0.03391274  0.00129354  0.73777662  1
  O  O80  1  0.17198328  0.75112822  0.25517652  1
  O  O81  1  0.16987025  0.24891104  0.26059950  1
  O  O82  1  0.08471439  0.51423664  0.39929276  1
  O  O83  1  0.08221202  0.98634542  0.39953109  1
  O  O84  1  0.16059667  0.49912594  0.10958373  1
  O  O85  1  0.15667154  0.00052720  0.11139968  1
  O  O86  1  0.00111378  0.00004561  0.00000132  1
  O  O87  1  0.99892406  0.50001415  0.00001288  1
