# generated using pymatgen
data_Li2TiFe2O5
_symmetry_space_group_name_H-M   'P 1'
_cell_length_a   5.30278792
_cell_length_b   7.90410011
_cell_length_c   5.29868597
_cell_angle_alpha   69.92264760
_cell_angle_beta   112.37198042
_cell_angle_gamma   96.91892018
_symmetry_Int_Tables_number   1
_chemical_formula_structural   Li2TiFe2O5
_chemical_formula_sum   'Li4 Ti2 Fe4 O10'
_cell_volume   192.87810053
_cell_formula_units_Z   2
loop_
 _symmetry_equiv_pos_site_id
 _symmetry_equiv_pos_as_xyz
  1  'x, y, z'
loop_
 _atom_site_type_symbol
 _atom_site_label
 _atom_site_symmetry_multiplicity
 _atom_site_fract_x
 _atom_site_fract_y
 _atom_site_fract_z
 _atom_site_occupancy
  Li  Li0  1  0.48836457  0.59779264  0.70690563  1
  Li  Li1  1  0.50291553  0.39705097  0.29885104  1
  Li  Li2  1  0.99115341  0.20207168  0.41081700  1
  Li  Li3  1  0.00293321  0.00401260  0.99559453  1
  Ti  Ti4  1  0.50812145  0.19892940  0.89484773  1
  Ti  Ti5  1  0.00614635  0.58910660  0.20029486  1
  Fe  Fe6  1  0.99952157  0.39281035  0.81302709  1
  Fe  Fe7  1  0.00334526  0.81097421  0.59614373  1
  Fe  Fe8  1  0.50273729  0.79959563  0.10624850  1
  Fe  Fe9  1  0.49411282  0.99773253  0.49773977  1
  O  O10  1  0.74707753  0.78968588  0.86229577  1
  O  O11  1  0.23124050  0.59822125  0.97815076  1
  O  O12  1  0.72040197  0.20089747  0.66986664  1
  O  O13  1  0.79199838  0.60127820  0.43830612  1
  O  O14  1  0.24246630  0.78386962  0.33720873  1
  O  O15  1  0.25280527  0.01475879  0.74469399  1
  O  O16  1  0.24649035  0.40035553  0.54353535  1
  O  O17  1  0.74335688  0.01903169  0.23343445  1
  O  O18  1  0.74829973  0.40278288  0.05126343  1
  O  O19  1  0.27651064  0.19904107  0.12077490  1
