# generated using pymatgen
data_NbV3O8
_symmetry_space_group_name_H-M   'P 1'
_cell_length_a   6.52683888
_cell_length_b   6.52683957
_cell_length_c   6.68174379
_cell_angle_alpha   74.61959005
_cell_angle_beta   105.38040732
_cell_angle_gamma   145.87667322
_symmetry_Int_Tables_number   1
_chemical_formula_structural   NbV3O8
_chemical_formula_sum   'Nb1 V3 O8'
_cell_volume   153.40787412
_cell_formula_units_Z   1
loop_
 _symmetry_equiv_pos_site_id
 _symmetry_equiv_pos_as_xyz
  1  'x, y, z'
loop_
 _atom_site_type_symbol
 _atom_site_label
 _atom_site_symmetry_multiplicity
 _atom_site_fract_x
 _atom_site_fract_y
 _atom_site_fract_z
 _atom_site_occupancy
  Nb  Nb0  1  0.69624644  0.30375356  0.27228692  1
  V  V1  1  0.39956987  0.60043013  0.31637463  1
  V  V2  1  0.60112057  0.39887943  0.68486109  1
  V  V3  1  0.30589700  0.69410300  0.73388114  1
  O  O4  1  0.13571824  0.86428176  0.69867187  1
  O  O5  1  0.23296679  0.76703321  0.34645748  1
  O  O6  1  0.36053183  0.63946817  0.99399183  1
  O  O7  1  0.44217526  0.55782474  0.62961465  1
  O  O8  1  0.56465120  0.43534880  0.37603362  1
  O  O9  1  0.63428786  0.36571214  0.99328019  1
  O  O10  1  0.76420022  0.23579978  0.65653551  1
  O  O11  1  0.86263572  0.13736428  0.29801108  1
