# generated using pymatgen
data_LiV4O10
_symmetry_space_group_name_H-M   'P 1'
_cell_length_a   10.32761365
_cell_length_b   8.09233978
_cell_length_c   14.68995814
_cell_angle_alpha   76.85554001
_cell_angle_beta   90.04222137
_cell_angle_gamma   108.41220502
_symmetry_Int_Tables_number   1
_chemical_formula_structural   LiV4O10
_chemical_formula_sum   'Li6 V24 O60'
_cell_volume   1130.97678342
_cell_formula_units_Z   6
loop_
 _symmetry_equiv_pos_site_id
 _symmetry_equiv_pos_as_xyz
  1  'x, y, z'
loop_
 _atom_site_type_symbol
 _atom_site_label
 _atom_site_symmetry_multiplicity
 _atom_site_fract_x
 _atom_site_fract_y
 _atom_site_fract_z
 _atom_site_occupancy
  Li  Li0  1  0.67424043  0.88592951  0.88991806  1
  Li  Li1  1  0.67739342  0.88173634  0.13939041  1
  Li  Li2  1  0.67513882  0.88530394  0.39007908  1
  Li  Li3  1  0.32575957  0.11407049  0.86008194  1
  Li  Li4  1  0.32260558  0.11826366  0.61060959  1
  Li  Li5  1  0.32486118  0.11469606  0.35992092  1
  V  V6  1  0.89770586  0.32929571  0.83422036  1
  V  V7  1  0.89576821  0.32479301  0.58435100  1
  V  V8  1  0.89789038  0.32846808  0.33362437  1
  V  V9  1  0.89814022  0.33190037  0.08351850  1
  V  V10  1  0.88935749  0.76523949  0.27993462  1
  V  V11  1  0.88578568  0.76604722  0.77971216  1
  V  V12  1  0.89262022  0.77096315  0.02804549  1
  V  V13  1  0.89059929  0.77150940  0.52839723  1
  V  V14  1  0.59286886  0.42771551  0.32176731  1
  V  V15  1  0.59344519  0.43176744  0.57156631  1
  V  V16  1  0.59330639  0.43056020  0.82067440  1
  V  V17  1  0.58906471  0.42066907  0.07261289  1
  V  V18  1  0.40669361  0.56943980  0.92932560  1
  V  V19  1  0.40713114  0.57228449  0.42823269  1
  V  V20  1  0.41093529  0.57933093  0.67738711  1
  V  V21  1  0.40655481  0.56823256  0.17843369  1
  V  V22  1  0.10940071  0.22849060  0.22160277  1
  V  V23  1  0.11064251  0.23476051  0.47006538  1
  V  V24  1  0.11421432  0.23395278  0.97028784  1
  V  V25  1  0.10737978  0.22903685  0.72195451  1
  V  V26  1  0.10185978  0.66809963  0.66648150  1
  V  V27  1  0.10423179  0.67520699  0.16564900  1
  V  V28  1  0.10229414  0.67070429  0.91577964  1
  V  V29  1  0.10210962  0.67153192  0.41637563  1
  O  O30  1  0.95008168  0.36837900  0.70053093  1
  O  O31  1  0.95322257  0.37553321  0.45673990  1
  O  O32  1  0.94913325  0.36769338  0.19974539  1
  O  O33  1  0.95322853  0.37863448  0.95663700  1
  O  O34  1  0.78155581  0.12905994  0.86233877  1
  O  O35  1  0.78100719  0.12858802  0.35934198  1
  O  O36  1  0.78338014  0.12767119  0.60735190  1
  O  O37  1  0.78566737  0.13053292  0.10605348  1
  O  O38  1  0.92479408  0.73451712  0.65815723  1
  O  O39  1  0.92682177  0.73551843  0.15752720  1
  O  O40  1  0.92688489  0.73431330  0.90841397  1
  O  O41  1  0.92706812  0.73408930  0.40864348  1
  O  O42  1  0.77464064  0.47781907  0.81505751  1
  O  O43  1  0.77668001  0.47105172  0.56633752  1
  O  O44  1  0.77410283  0.47738989  0.31537451  1
  O  O45  1  0.77637987  0.47154992  0.06610685  1
  O  O46  1  0.73266466  0.78714803  0.78583230  1
  O  O47  1  0.73455567  0.78407821  0.51800873  1
  O  O48  1  0.73402355  0.79192299  0.27571190  1
  O  O49  1  0.73584926  0.79226643  0.02592607  1
  O  O50  1  0.52461738  0.21394688  0.59916389  1
  O  O51  1  0.52702041  0.20951908  0.35006900  1
  O  O52  1  0.52707526  0.21199172  0.84624126  1
  O  O53  1  0.53042289  0.20501900  0.09985170  1
  O  O54  1  0.57499481  0.49382689  0.43889309  1
  O  O55  1  0.57344478  0.48901885  0.93992467  1
  O  O56  1  0.57818920  0.49794619  0.68657910  1
  O  O57  1  0.57524014  0.49049829  0.18830217  1
  O  O58  1  0.42655522  0.51098115  0.81007533  1
  O  O59  1  0.42475986  0.50950171  0.56169783  1
  O  O60  1  0.42500519  0.50617311  0.31110691  1
  O  O61  1  0.42181080  0.50205381  0.06342090  1
  O  O62  1  0.46957711  0.79498100  0.65014830  1
  O  O63  1  0.47297959  0.79048092  0.39993100  1
  O  O64  1  0.47292474  0.78800828  0.90375874  1
  O  O65  1  0.47538362  0.78605312  0.15083611  1
  O  O66  1  0.26415074  0.20773357  0.72407393  1
  O  O67  1  0.26597645  0.20807701  0.47428810  1
  O  O68  1  0.26544433  0.21592179  0.23199127  1
  O  O69  1  0.26733534  0.21285197  0.96416770  1
  O  O70  1  0.22362013  0.52845008  0.68389315  1
  O  O71  1  0.22589717  0.52261011  0.43462549  1
  O  O72  1  0.22535936  0.52218093  0.93494249  1
  O  O73  1  0.22331999  0.52894828  0.18366248  1
  O  O74  1  0.07311511  0.26568670  0.84158603  1
  O  O75  1  0.07293188  0.26591070  0.34135652  1
  O  O76  1  0.07317823  0.26448157  0.59247280  1
  O  O77  1  0.07520592  0.26548288  0.09184277  1
  O  O78  1  0.21433263  0.86946708  0.64394652  1
  O  O79  1  0.21661986  0.87232881  0.14264810  1
  O  O80  1  0.21844419  0.87094006  0.88766123  1
  O  O81  1  0.21899281  0.87141198  0.39065802  1
  O  O82  1  0.99710228  0.00124074  0.49926190  1
  O  O83  1  0.99843982  0.99960350  0.75075812  1
  O  O84  1  0.00156018  0.00039650  0.99924188  1
  O  O85  1  0.00289772  0.99875926  0.25073810  1
  O  O86  1  0.04677743  0.62446679  0.29326010  1
  O  O87  1  0.04677147  0.62136552  0.79336300  1
  O  O88  1  0.05086675  0.63230662  0.55025461  1
  O  O89  1  0.04991832  0.63162100  0.04946907  1
