# generated using pymatgen
data_LiCuC2O5
_symmetry_space_group_name_H-M   'P 1'
_cell_length_a   7.30364191
_cell_length_b   7.30364191
_cell_length_c   10.04410664
_cell_angle_alpha   68.75490510
_cell_angle_beta   111.24509490
_cell_angle_gamma   90.18997363
_symmetry_Int_Tables_number   1
_chemical_formula_structural   LiCuC2O5
_chemical_formula_sum   'Li4 Cu4 C8 O20'
_cell_volume   460.35491906
_cell_formula_units_Z   4
loop_
 _symmetry_equiv_pos_site_id
 _symmetry_equiv_pos_as_xyz
  1  'x, y, z'
loop_
 _atom_site_type_symbol
 _atom_site_label
 _atom_site_symmetry_multiplicity
 _atom_site_fract_x
 _atom_site_fract_y
 _atom_site_fract_z
 _atom_site_occupancy
  Li  Li0  1  0.04157402  0.65701391  0.64307818  1
  Li  Li1  1  0.34298609  0.95842598  0.14307818  1
  Li  Li2  1  0.65701391  0.04157402  0.85692182  1
  Li  Li3  1  0.95842598  0.34298609  0.35692182  1
  Cu  Cu4  1  0.17026552  0.17026552  0.75000000  1
  Cu  Cu5  1  0.62008801  0.62008801  0.75000000  1
  Cu  Cu6  1  0.37991199  0.37991199  0.25000000  1
  Cu  Cu7  1  0.82973448  0.82973448  0.25000000  1
  C  C8  1  0.23358658  0.77363626  0.89839492  1
  C  C9  1  0.25850309  0.39939527  0.96519849  1
  C  C10  1  0.22636374  0.76641342  0.39839492  1
  C  C11  1  0.60060473  0.74149691  0.46519849  1
  C  C12  1  0.39939527  0.25850309  0.53480151  1
  C  C13  1  0.77363626  0.23358658  0.60160508  1
  C  C14  1  0.74149691  0.60060473  0.03480151  1
  C  C15  1  0.76641342  0.22636374  0.10160508  1
  O  O16  1  0.28792476  0.89062657  0.96637035  1
  O  O17  1  0.14795691  0.81489120  0.75757747  1
  O  O18  1  0.10937343  0.71207524  0.46637035  1
  O  O19  1  0.18397281  0.41381309  0.82832107  1
  O  O20  1  0.67511341  0.75333590  0.91003711  1
  O  O21  1  0.18510880  0.85204309  0.25757747  1
  O  O22  1  0.43048764  0.71738708  0.50523437  1
  O  O23  1  0.71738708  0.43048764  0.99476563  1
  O  O24  1  0.58618691  0.81602719  0.32832107  1
  O  O25  1  0.24666410  0.32488659  0.41003711  1
  O  O26  1  0.75333590  0.67511341  0.58996289  1
  O  O27  1  0.41381309  0.18397281  0.67167893  1
  O  O28  1  0.28261292  0.56951236  0.00523437  1
  O  O29  1  0.56951236  0.28261292  0.49476563  1
  O  O30  1  0.81489120  0.14795691  0.74242253  1
  O  O31  1  0.32488659  0.24666410  0.08996289  1
  O  O32  1  0.81602719  0.58618691  0.17167893  1
  O  O33  1  0.89062657  0.28792476  0.53362965  1
  O  O34  1  0.85204309  0.18510880  0.24242253  1
  O  O35  1  0.71207524  0.10937343  0.03362965  1
