# generated using pymatgen
data_Li4FeBi(TeO6)2
_symmetry_space_group_name_H-M   'P 1'
_cell_length_a   5.49953369
_cell_length_b   5.24111046
_cell_length_c   7.62376113
_cell_angle_alpha   89.98108689
_cell_angle_beta   93.90397223
_cell_angle_gamma   90.21067112
_symmetry_Int_Tables_number   1
_chemical_formula_structural   Li4FeBi(TeO6)2
_chemical_formula_sum   'Li4 Fe1 Bi1 Te2 O12'
_cell_volume   219.23333864
_cell_formula_units_Z   1
loop_
 _symmetry_equiv_pos_site_id
 _symmetry_equiv_pos_as_xyz
  1  'x, y, z'
loop_
 _atom_site_type_symbol
 _atom_site_label
 _atom_site_symmetry_multiplicity
 _atom_site_fract_x
 _atom_site_fract_y
 _atom_site_fract_z
 _atom_site_occupancy
  Li  Li0  1  0.91235660  0.50684096  0.31170923  1
  Li  Li1  1  0.90977656  0.49775148  0.76388944  1
  Li  Li2  1  0.46269067  0.99219549  0.74778769  1
  Li  Li3  1  0.44266266  0.00201454  0.30799425  1
  Fe  Fe4  1  0.48350580  0.50055487  0.50244681  1
  Bi  Bi5  1  0.99720028  0.99924927  0.00519789  1
  Te  Te6  1  0.99868191  0.00120450  0.50168459  1
  Te  Te7  1  0.49595311  0.49924275  0.00066392  1
  O  O8  1  0.82210869  0.64896974  0.06690159  1
  O  O9  1  0.81936652  0.30343031  0.55089107  1
  O  O10  1  0.70913907  0.80343287  0.43656324  1
  O  O11  1  0.67607509  0.19944764  0.91227711  1
  O  O12  1  0.50757660  0.37074577  0.23591324  1
  O  O13  1  0.53010908  0.62401315  0.76195844  1
  O  O14  1  0.34759099  0.82243393  0.06713037  1
  O  O15  1  0.31118630  0.17785832  0.54844186  1
  O  O16  1  0.19403636  0.71274772  0.42956394  1
  O  O17  1  0.19201482  0.33180098  0.91626428  1
  O  O18  1  0.01658591  0.14690941  0.26161632  1
  O  O19  1  0.02898397  0.85915530  0.74230273  1
