# generated using pymatgen
data_Na4Bi2C4SO16
_symmetry_space_group_name_H-M   'P 1'
_cell_length_a   10.45099696
_cell_length_b   10.20944061
_cell_length_c   10.28996452
_cell_angle_alpha   118.77426727
_cell_angle_beta   59.42437195
_cell_angle_gamma   119.38656109
_symmetry_Int_Tables_number   1
_chemical_formula_structural   Na4Bi2C4SO16
_chemical_formula_sum   'Na8 Bi4 C8 S2 O32'
_cell_volume   783.35196177
_cell_formula_units_Z   2
loop_
 _symmetry_equiv_pos_site_id
 _symmetry_equiv_pos_as_xyz
  1  'x, y, z'
loop_
 _atom_site_type_symbol
 _atom_site_label
 _atom_site_symmetry_multiplicity
 _atom_site_fract_x
 _atom_site_fract_y
 _atom_site_fract_z
 _atom_site_occupancy
  Na  Na0  1  0.91995145  0.16560846  0.31913375  1
  Na  Na1  1  0.91881522  0.16397867  0.92691438  1
  Na  Na2  1  0.92337878  0.57376729  0.32566270  1
  Na  Na3  1  0.67167607  0.43326329  0.07611885  1
  Na  Na4  1  0.32804511  0.17351824  0.92117241  1
  Na  Na5  1  0.33772915  0.58041041  0.92730900  1
  Na  Na6  1  0.07570535  0.43038548  0.67056653  1
  Na  Na7  1  0.07710597  0.81441361  0.67064257  1
  Bi  Bi8  1  0.49710969  0.99598773  0.00380518  1
  Bi  Bi9  1  0.50419548  0.99339409  0.48980710  1
  Bi  Bi10  1  0.50010744  0.50469299  0.50152856  1
  Bi  Bi11  1  0.00004850  0.99588105  0.49376523  1
  C  C12  1  0.72383838  0.16348234  0.71917294  1
  C  C13  1  0.67392873  0.22905447  0.26952026  1
  C  C14  1  0.28364348  0.22876084  0.27767916  1
  C  C15  1  0.26624330  0.21730635  0.67188965  1
  C  C16  1  0.72148365  0.78116998  0.71945800  1
  C  C17  1  0.72750353  0.78113486  0.33766450  1
  C  C18  1  0.33427506  0.77944383  0.72896241  1
  C  C19  1  0.26963768  0.83013026  0.28625101  1
  S  S20  1  0.87662140  0.62281882  0.87169529  1
  S  S21  1  0.12153042  0.37005787  0.12086788  1
  O  O22  1  0.85506532  0.17431801  0.71644607  1
  O  O23  1  0.67797956  0.11097812  0.28254526  1
  O  O24  1  0.71559688  0.14742232  0.59119543  1
  O  O25  1  0.67593972  0.21712566  0.13635399  1
  O  O26  1  0.60151804  0.16761890  0.85180350  1
  O  O27  1  0.94211965  0.56527625  0.69187244  1
  O  O28  1  0.93155395  0.55425929  0.92875096  1
  O  O29  1  0.67227054  0.35996710  0.38637951  1
  O  O30  1  0.28927932  0.11308114  0.14585790  1
  O  O31  1  0.38280084  0.20204048  0.66960064  1
  O  O32  1  0.94027218  0.79841450  0.92453854  1
  O  O33  1  0.70201115  0.56364974  0.93118511  1
  O  O34  1  0.72931641  0.64894493  0.32747546  1
  O  O35  1  0.85364902  0.77841901  0.59722772  1
  O  O36  1  0.13345820  0.10065264  0.67715190  1
  O  O37  1  0.41105394  0.34791504  0.28789126  1
  O  O38  1  0.59518451  0.66091490  0.71744064  1
  O  O39  1  0.84937874  0.90780891  0.34375805  1
  O  O40  1  0.27815794  0.35146469  0.67215911  1
  O  O41  1  0.15130160  0.22423784  0.39869624  1
  O  O42  1  0.29638712  0.42431567  0.05755395  1
  O  O43  1  0.06228461  0.19181058  0.06214125  1
  O  O44  1  0.71993628  0.90922258  0.84037200  1
  O  O45  1  0.60129658  0.78288616  0.34489674  1
  O  O46  1  0.32132810  0.64707481  0.61450627  1
  O  O47  1  0.05583268  0.42452779  0.29725959  1
  O  O48  1  0.06504105  0.43137703  0.05917852  1
  O  O49  1  0.38782204  0.82189439  0.15319801  1
  O  O50  1  0.34868935  0.78831197  0.85143062  1
  O  O51  1  0.28097759  0.85195323  0.41565557  1
  O  O52  1  0.33364375  0.90253814  0.72018934  1
  O  O53  1  0.13627751  0.81736625  0.29215503  1
