# generated using pymatgen
data_Li2Fe3F8
_symmetry_space_group_name_H-M   'P 1'
_cell_length_a   6.05287890
_cell_length_b   10.25179662
_cell_length_c   10.72676415
_cell_angle_alpha   90.00000000
_cell_angle_beta   92.43600584
_cell_angle_gamma   90.00000000
_symmetry_Int_Tables_number   1
_chemical_formula_structural   Li2Fe3F8
_chemical_formula_sum   'Li8 Fe12 F32'
_cell_volume   665.02513018
_cell_formula_units_Z   4
loop_
 _symmetry_equiv_pos_site_id
 _symmetry_equiv_pos_as_xyz
  1  'x, y, z'
loop_
 _atom_site_type_symbol
 _atom_site_label
 _atom_site_symmetry_multiplicity
 _atom_site_fract_x
 _atom_site_fract_y
 _atom_site_fract_z
 _atom_site_occupancy
  Li  Li0  1  0.12086993  0.94706664  0.79079130  1
  Li  Li1  1  0.12086993  0.55293336  0.29079130  1
  Li  Li2  1  0.36255874  0.35710277  0.88577360  1
  Li  Li3  1  0.36255874  0.14289723  0.38577360  1
  Li  Li4  1  0.63744126  0.85710277  0.61422640  1
  Li  Li5  1  0.63744126  0.64289723  0.11422640  1
  Li  Li6  1  0.87913007  0.44706664  0.70920870  1
  Li  Li7  1  0.87913007  0.05293336  0.20920870  1
  Fe  Fe8  1  0.11045554  0.63732906  0.96290654  1
  Fe  Fe9  1  0.11045554  0.86267094  0.46290554  1
  Fe  Fe10  1  0.35374797  0.64282422  0.71337146  1
  Fe  Fe11  1  0.36886011  0.37148970  0.55769949  1
  Fe  Fe12  1  0.35374797  0.85717578  0.21337146  1
  Fe  Fe13  1  0.36886011  0.12851030  0.05769949  1
  Fe  Fe14  1  0.63113989  0.87148970  0.94230051  1
  Fe  Fe15  1  0.64625203  0.14282422  0.78662854  1
  Fe  Fe16  1  0.63113989  0.62851030  0.44230051  1
  Fe  Fe17  1  0.64625203  0.35717578  0.28662854  1
  Fe  Fe18  1  0.88954446  0.13732906  0.53709346  1
  Fe  Fe19  1  0.88954446  0.36267094  0.03709346  1
  F  F20  1  0.15120112  0.50703106  0.63378815  1
  F  F21  1  0.12713006  0.76015605  0.80588515  1
  F  F22  1  0.10149046  0.98806844  0.61631879  1
  F  F23  1  0.15189008  0.26023049  0.97466657  1
  F  F24  1  0.15120112  0.99296894  0.13378815  1
  F  F25  1  0.12713006  0.73984395  0.30588515  1
  F  F26  1  0.10149046  0.51193156  0.11631879  1
  F  F27  1  0.15189008  0.23976951  0.47466657  1
  F  F28  1  0.36298787  0.53709828  0.87964599  1
  F  F29  1  0.38987538  0.02193720  0.88599732  1
  F  F30  1  0.41523983  0.27931937  0.72406281  1
  F  F31  1  0.36298787  0.96290172  0.37964599  1
  F  F32  1  0.38987538  0.47806280  0.38599732  1
  F  F33  1  0.38964069  0.74782398  0.54256938  1
  F  F34  1  0.41523983  0.22068063  0.22406281  1
  F  F35  1  0.38964069  0.75217602  0.04256938  1
  F  F36  1  0.61035931  0.24782398  0.95743062  1
  F  F37  1  0.58476017  0.77931937  0.77593719  1
  F  F38  1  0.61035931  0.25217602  0.45743062  1
  F  F39  1  0.61012462  0.52193720  0.61400268  1
  F  F40  1  0.63701213  0.03709828  0.62035401  1
  F  F41  1  0.58476017  0.72068063  0.27593719  1
  F  F42  1  0.61012462  0.97806280  0.11400268  1
  F  F43  1  0.63701213  0.46290172  0.12035401  1
  F  F44  1  0.84810992  0.76023049  0.52533343  1
  F  F45  1  0.89850954  0.48806844  0.88368121  1
  F  F46  1  0.87286994  0.26015605  0.69411485  1
  F  F47  1  0.84879888  0.00703106  0.86621185  1
  F  F48  1  0.84810992  0.73976951  0.02533343  1
  F  F49  1  0.89850954  0.01193156  0.38368121  1
  F  F50  1  0.87286994  0.23984395  0.19411485  1
  F  F51  1  0.84879888  0.49296894  0.36621185  1
