# generated using pymatgen
data_Li3V2(PO4)3
_symmetry_space_group_name_H-M   'P 1'
_cell_length_a   8.77830987
_cell_length_b   8.86841595
_cell_length_c   8.69052827
_cell_angle_alpha   120.98175660
_cell_angle_beta   90.00000292
_cell_angle_gamma   60.33553587
_symmetry_Int_Tables_number   1
_chemical_formula_structural   Li3V2(PO4)3
_chemical_formula_sum   'Li6 V4 P6 O24'
_cell_volume   473.62296675
_cell_formula_units_Z   2
loop_
 _symmetry_equiv_pos_site_id
 _symmetry_equiv_pos_as_xyz
  1  'x, y, z'
loop_
 _atom_site_type_symbol
 _atom_site_label
 _atom_site_symmetry_multiplicity
 _atom_site_fract_x
 _atom_site_fract_y
 _atom_site_fract_z
 _atom_site_occupancy
  Li  Li0  1  0.23787655  0.88351643  0.18593397  1
  Li  Li1  1  0.80624040  0.58757011  0.32236669  1
  Li  Li2  1  0.37860702  0.88351643  0.68593397  1
  Li  Li3  1  0.10619049  0.58757011  0.82236669  1
  Li  Li4  1  0.48733590  0.07296833  0.48583138  1
  Li  Li5  1  0.93969577  0.07296833  0.98583138  1
  V  V6  1  0.64228448  0.71371289  0.07247044  1
  V  V7  1  0.14400263  0.71371289  0.57247044  1
  V  V8  1  0.85579117  0.28560945  0.42639558  1
  V  V9  1  0.35859939  0.28560945  0.92639558  1
  P  P10  1  0.96007953  0.79011014  0.24646516  1
  P  P11  1  0.74981033  0.79011014  0.74646516  1
  P  P12  1  0.54189148  0.50621309  0.25627270  1
  P  P13  1  0.45189543  0.50621309  0.75627270  1
  P  P14  1  0.25103329  0.20897915  0.24945784  1
  P  P15  1  0.03998756  0.20897915  0.74945784  1
  O  O16  1  0.95169080  0.96790781  0.24399202  1
  O  O17  1  0.01198512  0.78233597  0.41087169  1
  O  O18  1  0.76826555  0.81982154  0.26514868  1
  O  O19  1  0.91191291  0.81982154  0.76514868  1
  O  O20  1  0.58040139  0.96790781  0.74399202  1
  O  O21  1  0.56334877  0.67632761  0.26714846  1
  O  O22  1  0.80982231  0.57905281  0.55036582  1
  O  O23  1  0.70567891  0.78233597  0.91087169  1
  O  O24  1  0.39170141  0.63650145  0.45018552  1
  O  O25  1  0.11112388  0.57905281  0.05036582  1
  O  O26  1  0.49356049  0.39146046  0.08552444  1
  O  O27  1  0.73801548  0.33631955  0.23828890  1
  O  O28  1  0.26032361  0.67632761  0.76714846  1
  O  O29  1  0.47179713  0.63650145  0.95018552  1
  O  O30  1  0.61497904  0.39146046  0.58552444  1
  O  O31  1  0.88195428  0.41923044  0.93627717  1
  O  O32  1  0.30201280  0.19242567  0.07063492  1
  O  O33  1  0.19881527  0.41923044  0.43627717  1
  O  O34  1  0.42566497  0.33631955  0.73828890  1
  O  O35  1  0.09138101  0.17445180  0.23667443  1
  O  O36  1  0.40916901  0.02308128  0.25467621  1
  O  O37  1  0.23416820  0.17445180  0.73667443  1
  O  O38  1  0.00556153  0.19242567  0.57063492  1
  O  O39  1  0.06774970  0.02308128  0.75467621  1
