# generated using pymatgen
data_LiV3OF11
_symmetry_space_group_name_H-M   'P 1'
_cell_length_a   5.25380592
_cell_length_b   5.40275675
_cell_length_c   15.63009087
_cell_angle_alpha   79.90556717
_cell_angle_beta   90.00000000
_cell_angle_gamma   90.00000000
_symmetry_Int_Tables_number   1
_chemical_formula_structural   LiV3OF11
_chemical_formula_sum   'Li2 V6 O2 F22'
_cell_volume   436.79291041
_cell_formula_units_Z   2
loop_
 _symmetry_equiv_pos_site_id
 _symmetry_equiv_pos_as_xyz
  1  'x, y, z'
loop_
 _atom_site_type_symbol
 _atom_site_label
 _atom_site_symmetry_multiplicity
 _atom_site_fract_x
 _atom_site_fract_y
 _atom_site_fract_z
 _atom_site_occupancy
  Li  Li0  1  0.71970946  0.36599616  0.84119094  1
  Li  Li1  1  0.21971146  0.80067084  0.82547606  1
  V  V2  1  0.49168193  0.15929356  0.65942933  1
  V  V3  1  0.00056379  0.33330639  0.33321422  1
  V  V4  1  0.52584949  0.48414860  0.00789710  1
  V  V5  1  0.99168193  0.00737244  0.00723767  1
  V  V6  1  0.02584949  0.68251840  0.65876990  1
  V  V7  1  0.50056379  0.83336061  0.33345178  1
  O  O8  1  0.77832014  0.29916707  0.97857017  1
  O  O9  1  0.27832014  0.86749893  0.68809683  1
  F  F10  1  0.19525866  0.01887745  0.35668360  1
  F  F11  1  0.28519368  0.20113899  0.02859678  1
  F  F12  1  0.69525866  0.14778955  0.30998340  1
  F  F13  1  0.07264337  0.04830912  0.88870698  1
  F  F14  1  0.08609299  0.36990541  0.22232473  1
  F  F15  1  0.42479687  0.23076405  0.54817984  1
  F  F16  1  0.91743272  0.29281852  0.44433573  1
  F  F17  1  0.57483139  0.46805569  0.12175282  1
  F  F18  1  0.57264337  0.11835788  0.77795902  1
  F  F19  1  0.20238661  0.35671227  0.68626393  1
  F  F20  1  0.30604950  0.51961870  0.35658562  1
  F  F21  1  0.21233215  0.70364183  0.01613198  1
  F  F22  1  0.71233215  0.46302517  0.65053502  1
  F  F23  1  0.80604950  0.64704830  0.31008138  1
  F  F24  1  0.43180124  0.54590651  0.88268118  1
  F  F25  1  0.07483139  0.69861031  0.54491318  1
  F  F26  1  0.41743272  0.87384848  0.22233127  1
  F  F27  1  0.92479687  0.93590295  0.11848716  1
  F  F28  1  0.93180124  0.62076049  0.78398582  1
  F  F29  1  0.58609299  0.79676059  0.44434227  1
  F  F30  1  0.70238661  0.80995373  0.98040207  1
  F  F31  1  0.78519368  0.96552801  0.63807022  1
