# generated using pymatgen
data_LiV4OF11
_symmetry_space_group_name_H-M   'P 1'
_cell_length_a   5.26605766
_cell_length_b   5.49829749
_cell_length_c   17.42365241
_cell_angle_alpha   91.71785285
_cell_angle_beta   98.49641357
_cell_angle_gamma   61.89819743
_symmetry_Int_Tables_number   1
_chemical_formula_structural   LiV4OF11
_chemical_formula_sum   'Li2 V8 O2 F22'
_cell_volume   439.67915603
_cell_formula_units_Z   2
loop_
 _symmetry_equiv_pos_site_id
 _symmetry_equiv_pos_as_xyz
  1  'x, y, z'
loop_
 _atom_site_type_symbol
 _atom_site_label
 _atom_site_symmetry_multiplicity
 _atom_site_fract_x
 _atom_site_fract_y
 _atom_site_fract_z
 _atom_site_occupancy
  Li  Li0  1  0.55249143  0.79460627  0.92870748  1
  Li  Li1  1  0.29980022  0.92725785  0.55139658  1
  V  V2  1  0.01660580  0.98027215  0.99819430  1
  V  V3  1  0.24912392  0.40557244  0.87890231  1
  V  V4  1  0.24576035  0.87151521  0.37255756  1
  V  V5  1  0.49965075  0.24506493  0.24876270  1
  V  V6  1  0.50241397  0.75658134  0.74974667  1
  V  V7  1  0.75062484  0.14229761  0.62110371  1
  V  V8  1  0.97508843  0.49791356  0.50098687  1
  V  V9  1  0.74840828  0.61605915  0.12469770  1
  O  O10  1  0.24223051  0.69269290  0.93807102  1
  O  O11  1  0.84685938  0.27653359  0.54094996  1
  F  F12  1  0.21015263  0.19300274  0.96167837  1
  F  F13  1  0.28680681  0.06244337  0.81562124  1
  F  F14  1  0.23652232  0.16822838  0.44061157  1
  F  F15  1  0.32018143  0.03423926  0.28412588  1
  F  F16  1  0.31501358  0.35324857  0.58679818  1
  F  F17  1  0.31350782  0.55197390  0.78414711  1
  F  F18  1  0.17416324  0.72411719  0.46869335  1
  F  F19  1  0.19977966  0.89799173  0.65387834  1
  F  F20  1  0.17207770  0.41506091  0.16027487  1
  F  F21  1  0.68399929  0.15574873  0.91316054  1
  F  F22  1  0.27208152  0.55365965  0.31369997  1
  F  F23  1  0.74232967  0.43068392  0.69355431  1
  F  F24  1  0.32583597  0.83018023  0.09143869  1
  F  F25  1  0.82512890  0.08158405  0.33813316  1
  F  F26  1  0.79810057  0.60628903  0.84653117  1
  F  F27  1  0.66952960  0.66370500  0.40898886  1
  F  F28  1  0.67840704  0.45605970  0.21555505  1
  F  F29  1  0.67648263  0.96543017  0.71225857  1
  F  F30  1  0.71909596  0.83137852  0.56260214  1
  F  F31  1  0.77968680  0.30280093  0.06290189  1
  F  F32  1  0.72599826  0.93339082  0.18605054  1
  F  F33  1  0.80053772  0.77517519  0.02886831  1
