# generated using pymatgen
data_Li2Cu2(Si2O5)3
_symmetry_space_group_name_H-M   'P 1'
_cell_length_a   11.22073662
_cell_length_b   11.22073662
_cell_length_c   10.18600103
_cell_angle_alpha   90.00000000
_cell_angle_beta   90.00000000
_cell_angle_gamma   79.88411617
_symmetry_Int_Tables_number   1
_chemical_formula_structural   Li2Cu2(Si2O5)3
_chemical_formula_sum   'Li8 Cu8 Si24 O60'
_cell_volume   1262.53118166
_cell_formula_units_Z   4
loop_
 _symmetry_equiv_pos_site_id
 _symmetry_equiv_pos_as_xyz
  1  'x, y, z'
loop_
 _atom_site_type_symbol
 _atom_site_label
 _atom_site_symmetry_multiplicity
 _atom_site_fract_x
 _atom_site_fract_y
 _atom_site_fract_z
 _atom_site_occupancy
  Li  Li0  1  0.49618898  0.99618898  0.25000000  1
  Li  Li1  1  0.00381102  0.50381102  0.75000000  1
  Li  Li2  1  0.59713327  0.59713327  0.74296912  1
  Li  Li3  1  0.90286673  0.90286673  0.24296912  1
  Li  Li4  1  0.40286673  0.40286673  0.25703088  1
  Li  Li5  1  0.09713327  0.09713327  0.75703088  1
  Li  Li6  1  0.99618898  0.49618898  0.25000000  1
  Li  Li7  1  0.50381102  0.00381102  0.75000000  1
  Cu  Cu8  1  0.24767539  0.75232461  0.00000000  1
  Cu  Cu9  1  0.15786463  0.65786463  0.25000000  1
  Cu  Cu10  1  0.34213537  0.84213537  0.75000000  1
  Cu  Cu11  1  0.25232461  0.74767539  0.50000000  1
  Cu  Cu12  1  0.74767539  0.25232461  0.50000000  1
  Cu  Cu13  1  0.84213537  0.34213537  0.75000000  1
  Cu  Cu14  1  0.65786463  0.15786463  0.25000000  1
  Cu  Cu15  1  0.75232461  0.24767539  0.00000000  1
  Si  Si16  1  0.18106321  0.95807180  0.18707333  1
  Si  Si17  1  0.04192820  0.81893679  0.81292667  1
  Si  Si18  1  0.57979481  0.80528751  0.54396915  1
  Si  Si19  1  0.19471249  0.42020519  0.45603085  1
  Si  Si20  1  0.07979481  0.30528751  0.95603085  1
  Si  Si21  1  0.69471249  0.92020519  0.04396915  1
  Si  Si22  1  0.31893679  0.54192820  0.68707333  1
  Si  Si23  1  0.45807180  0.68106321  0.31292667  1
  Si  Si24  1  0.76073709  0.98240072  0.51573325  1
  Si  Si25  1  0.51759928  0.73926291  0.01573325  1
  Si  Si26  1  0.01759928  0.23926291  0.48426675  1
  Si  Si27  1  0.26073709  0.48240072  0.98426675  1
  Si  Si28  1  0.98240072  0.76073709  0.51573325  1
  Si  Si29  1  0.73926291  0.51759928  0.01573325  1
  Si  Si30  1  0.23926291  0.01759928  0.48426675  1
  Si  Si31  1  0.48240072  0.26073709  0.98426675  1
  Si  Si32  1  0.68106321  0.45807180  0.31292667  1
  Si  Si33  1  0.54192820  0.31893679  0.68707333  1
  Si  Si34  1  0.92020519  0.69471249  0.04396915  1
  Si  Si35  1  0.42020519  0.19471249  0.45603085  1
  Si  Si36  1  0.80528751  0.57979481  0.54396915  1
  Si  Si37  1  0.30528751  0.07979481  0.95603085  1
  Si  Si38  1  0.95807180  0.18106321  0.18707333  1
  Si  Si39  1  0.81893679  0.04192820  0.81292667  1
  O  O40  1  0.24476678  0.97687161  0.32877385  1
  O  O41  1  0.02312839  0.75523322  0.67122615  1
  O  O42  1  0.15471385  0.82411307  0.15534947  1
  O  O43  1  0.17588693  0.84528615  0.84465053  1
  O  O44  1  0.09347794  0.76375850  0.41693692  1
  O  O45  1  0.23624150  0.90652206  0.58306308  1
  O  O46  1  0.26375850  0.59347794  0.08306308  1
  O  O47  1  0.40652206  0.73624150  0.91693692  1
  O  O48  1  0.34528615  0.67588693  0.65534947  1
  O  O49  1  0.32411307  0.65471385  0.34465053  1
  O  O50  1  0.65676279  0.98745585  0.18036509  1
  O  O51  1  0.01254415  0.34323721  0.81963491  1
  O  O52  1  0.15676279  0.48745585  0.31963491  1
  O  O53  1  0.51254415  0.84323721  0.68036509  1
  O  O54  1  0.22262340  0.50549097  0.57931259  1
  O  O55  1  0.99450903  0.27737660  0.07931259  1
  O  O56  1  0.72262340  0.00549097  0.92068741  1
  O  O57  1  0.49450903  0.77737660  0.42068741  1
  O  O58  1  0.14370256  0.41657252  0.01065090  1
  O  O59  1  0.64370256  0.91657252  0.48934910  1
  O  O60  1  0.08342748  0.35629744  0.51065090  1
  O  O61  1  0.58342748  0.85629744  0.98934910  1
  O  O62  1  0.47687161  0.74476678  0.17122615  1
  O  O63  1  0.25523322  0.52312839  0.82877385  1
  O  O64  1  0.61816313  0.61816313  0.98238617  1
  O  O65  1  0.95092030  0.95092030  0.81813879  1
  O  O66  1  0.88183687  0.88183687  0.48238617  1
  O  O67  1  0.32041137  0.32041137  0.42802208  1
  O  O68  1  0.04907970  0.04907970  0.18186121  1
  O  O69  1  0.17958863  0.17958863  0.92802208  1
  O  O70  1  0.45092030  0.45092030  0.68186121  1
  O  O71  1  0.11816313  0.11816313  0.51761383  1
  O  O72  1  0.38183687  0.38183687  0.01761383  1
  O  O73  1  0.82041137  0.82041137  0.07197792  1
  O  O74  1  0.54907970  0.54907970  0.31813879  1
  O  O75  1  0.67958863  0.67958863  0.57197792  1
  O  O76  1  0.74476678  0.47687161  0.17122615  1
  O  O77  1  0.52312839  0.25523322  0.82877385  1
  O  O78  1  0.85629744  0.58342748  0.98934910  1
  O  O79  1  0.41657252  0.14370256  0.01065090  1
  O  O80  1  0.35629744  0.08342748  0.51065090  1
  O  O81  1  0.91657252  0.64370256  0.48934910  1
  O  O82  1  0.00549097  0.72262340  0.92068741  1
  O  O83  1  0.77737660  0.49450903  0.42068741  1
  O  O84  1  0.50549097  0.22262340  0.57931259  1
  O  O85  1  0.27737660  0.99450903  0.07931259  1
  O  O86  1  0.98745585  0.65676279  0.18036509  1
  O  O87  1  0.48745585  0.15676279  0.31963491  1
  O  O88  1  0.34323721  0.01254415  0.81963491  1
  O  O89  1  0.84323721  0.51254415  0.68036509  1
  O  O90  1  0.65471385  0.32411307  0.34465053  1
  O  O91  1  0.67588693  0.34528615  0.65534947  1
  O  O92  1  0.59347794  0.26375850  0.08306308  1
  O  O93  1  0.73624150  0.40652206  0.91693692  1
  O  O94  1  0.76375850  0.09347794  0.41693692  1
  O  O95  1  0.90652206  0.23624150  0.58306308  1
  O  O96  1  0.82411307  0.15471385  0.15534947  1
  O  O97  1  0.84528615  0.17588693  0.84465053  1
  O  O98  1  0.97687161  0.24476678  0.32877385  1
  O  O99  1  0.75523322  0.02312839  0.67122615  1
