# generated using pymatgen
data_LaTa2NO5
_symmetry_space_group_name_H-M   'P 1'
_cell_length_a   11.31170845
_cell_length_b   7.73470669
_cell_length_c   5.53339763
_cell_angle_alpha   90.00000000
_cell_angle_beta   90.00000000
_cell_angle_gamma   89.94742392
_symmetry_Int_Tables_number   1
_chemical_formula_structural   LaTa2NO5
_chemical_formula_sum   'La4 Ta8 N4 O20'
_cell_volume   484.13195490
_cell_formula_units_Z   4
loop_
 _symmetry_equiv_pos_site_id
 _symmetry_equiv_pos_as_xyz
  1  'x, y, z'
loop_
 _atom_site_type_symbol
 _atom_site_label
 _atom_site_symmetry_multiplicity
 _atom_site_fract_x
 _atom_site_fract_y
 _atom_site_fract_z
 _atom_site_occupancy
  La  La0  1  0.03560497  0.74433567  0.54624963  1
  La  La1  1  0.45584657  0.25746214  0.04574865  1
  La  La2  1  0.53560497  0.74433567  0.95375037  1
  La  La3  1  0.95584657  0.25746214  0.45425135  1
  Ta  Ta4  1  0.14238556  0.00263999  0.04212470  1
  Ta  Ta5  1  0.14889737  0.49367016  0.03922465  1
  Ta  Ta6  1  0.35778276  0.00487414  0.53429744  1
  Ta  Ta7  1  0.35496255  0.49913578  0.54500757  1
  Ta  Ta8  1  0.64238556  0.00263999  0.45787530  1
  Ta  Ta9  1  0.64889737  0.49367016  0.46077535  1
  Ta  Ta10  1  0.85496255  0.49913578  0.95499243  1
  Ta  Ta11  1  0.85778276  0.00487414  0.96570256  1
  N  N12  1  0.29097661  0.44637185  0.87208593  1
  N  N13  1  0.35584887  0.24806255  0.45136758  1
  N  N14  1  0.79097661  0.44637185  0.62791407  1
  N  N15  1  0.85584887  0.24806255  0.04863242  1
  O  O16  1  0.02432473  0.03375723  0.77404769  1
  O  O17  1  0.02631547  0.46691689  0.77507569  1
  O  O18  1  0.12255658  0.24722300  0.14925065  1
  O  O19  1  0.14238032  0.75250473  0.95530259  1
  O  O20  1  0.20979273  0.55918236  0.36964750  1
  O  O21  1  0.21132749  0.94141887  0.36575204  1
  O  O22  1  0.28672772  0.05133419  0.86972084  1
  O  O23  1  0.37978095  0.75147870  0.64928645  1
  O  O24  1  0.47649716  0.53688109  0.26649988  1
  O  O25  1  0.47799259  0.96274967  0.26890028  1
  O  O26  1  0.52432473  0.03375723  0.72595231  1
  O  O27  1  0.52631547  0.46691689  0.72492431  1
  O  O28  1  0.62255658  0.24722300  0.35074935  1
  O  O29  1  0.64238032  0.75250473  0.54469741  1
  O  O30  1  0.70979273  0.55918236  0.13035250  1
  O  O31  1  0.71132749  0.94141887  0.13424796  1
  O  O32  1  0.78672772  0.05133419  0.63027916  1
  O  O33  1  0.87978095  0.75147870  0.85071355  1
  O  O34  1  0.97649716  0.53688109  0.23350012  1
  O  O35  1  0.97799259  0.96274967  0.23109972  1
