# generated using pymatgen
data_V6O5F19
_symmetry_space_group_name_H-M   'P 1'
_cell_length_a   5.48393897
_cell_length_b   5.33866975
_cell_length_c   14.82566227
_cell_angle_alpha   89.65141749
_cell_angle_beta   100.72379266
_cell_angle_gamma   90.87187995
_symmetry_Int_Tables_number   1
_chemical_formula_structural   V6O5F19
_chemical_formula_sum   'V6 O5 F19'
_cell_volume   426.41788057
_cell_formula_units_Z   1
loop_
 _symmetry_equiv_pos_site_id
 _symmetry_equiv_pos_as_xyz
  1  'x, y, z'
loop_
 _atom_site_type_symbol
 _atom_site_label
 _atom_site_symmetry_multiplicity
 _atom_site_fract_x
 _atom_site_fract_y
 _atom_site_fract_z
 _atom_site_occupancy
  V  V0  1  0.04010702  0.96588251  0.00329484  1
  V  V1  1  0.14355379  0.55804615  0.33925007  1
  V  V2  1  0.31701494  0.99113346  0.66733321  1
  V  V3  1  0.53028794  0.46019252  0.99665855  1
  V  V4  1  0.68393052  0.05438284  0.32763131  1
  V  V5  1  0.78894001  0.47437503  0.66388253  1
  O  O6  1  0.53858747  0.29454062  0.64368583  1
  O  O7  1  0.70676496  0.23104858  0.98156780  1
  O  O8  1  0.27965215  0.78848174  0.01841480  1
  O  O9  1  0.87582219  0.28595281  0.31207324  1
  O  O10  1  0.96028226  0.78561445  0.35803636  1
  F  F11  1  0.01910105  0.20269715  0.64135959  1
  F  F12  1  0.21395995  0.27292760  0.97127464  1
  F  F13  1  0.14057765  0.70583332  0.69043706  1
  F  F14  1  0.05194068  0.09238618  0.11459416  1
  F  F15  1  0.21912813  0.40207806  0.44683251  1
  F  F16  1  0.37659605  0.09541170  0.78238556  1
  F  F17  1  0.11309460  0.56306120  0.21833732  1
  F  F18  1  0.29991731  0.92752304  0.54949901  1
  F  F19  1  0.45755711  0.59672766  0.88557124  1
  F  F20  1  0.38783769  0.20777616  0.30681306  1
  F  F21  1  0.44702121  0.71144541  0.35580382  1
  F  F22  1  0.63238543  0.77928036  0.69202971  1
  F  F23  1  0.52159931  0.43705268  0.11550038  1
  F  F24  1  0.71170547  0.05663779  0.44846690  1
  F  F25  1  0.89869915  0.42070601  0.78205855  1
  F  F26  1  0.62569385  0.90117822  0.21976295  1
  F  F27  1  0.80646111  0.59232709  0.55336330  1
  F  F28  1  0.91507319  0.92963921  0.88475138  1
  F  F29  1  0.79670679  0.71565643  0.02933132  1
