# generated using pymatgen
data_Sm2Pb2O7
_symmetry_space_group_name_H-M   'P 1'
_cell_length_a   7.59562840
_cell_length_b   7.17776163
_cell_length_c   13.48936718
_cell_angle_alpha   90.00000000
_cell_angle_beta   112.56789123
_cell_angle_gamma   90.00000000
_symmetry_Int_Tables_number   1
_chemical_formula_structural   Sm2Pb2O7
_chemical_formula_sum   'Sm8 Pb8 O28'
_cell_volume   679.11941914
_cell_formula_units_Z   4
loop_
 _symmetry_equiv_pos_site_id
 _symmetry_equiv_pos_as_xyz
  1  'x, y, z'
loop_
 _atom_site_type_symbol
 _atom_site_label
 _atom_site_symmetry_multiplicity
 _atom_site_fract_x
 _atom_site_fract_y
 _atom_site_fract_z
 _atom_site_occupancy
  Sm  Sm0  1  0.17194173  0.89929925  0.64427880  1
  Sm  Sm1  1  0.32805827  0.39929925  0.85572120  1
  Sm  Sm2  1  0.11664512  0.68566826  0.38711566  1
  Sm  Sm3  1  0.38335488  0.18566826  0.11288434  1
  Sm  Sm4  1  0.61664512  0.81433174  0.88711566  1
  Sm  Sm5  1  0.88335488  0.31433174  0.61288434  1
  Sm  Sm6  1  0.67194173  0.60070075  0.14427880  1
  Sm  Sm7  1  0.82805827  0.10070075  0.35572120  1
  Pb  Pb8  1  0.13100198  0.88532722  0.89805221  1
  Pb  Pb9  1  0.36899802  0.38532722  0.60194779  1
  Pb  Pb10  1  0.33072137  0.11099551  0.38807552  1
  Pb  Pb11  1  0.16927863  0.61099551  0.11192448  1
  Pb  Pb12  1  0.83072137  0.38900449  0.88807552  1
  Pb  Pb13  1  0.66927863  0.88900449  0.61192448  1
  Pb  Pb14  1  0.63100198  0.61467278  0.39805121  1
  Pb  Pb15  1  0.86899802  0.11467278  0.10194779  1
  O  O16  1  0.93660265  0.68911706  0.93507026  1
  O  O17  1  0.20696158  0.23480488  0.67621033  1
  O  O18  1  0.32555142  0.11589396  0.93246103  1
  O  O19  1  0.04783440  0.03572443  0.26268532  1
  O  O20  1  0.00826138  0.60645805  0.20603275  1
  O  O21  1  0.17444858  0.61589396  0.56753897  1
  O  O22  1  0.15098834  0.99375823  0.46894149  1
  O  O23  1  0.29303842  0.73480488  0.82378967  1
  O  O24  1  0.26807772  0.39252994  0.42388003  1
  O  O25  1  0.54783440  0.46427557  0.76268532  1
  O  O26  1  0.56339735  0.18911706  0.56492974  1
  O  O27  1  0.50826138  0.89354195  0.70603275  1
  O  O28  1  0.23192228  0.89252994  0.07611997  1
  O  O29  1  0.65098834  0.50624177  0.96894149  1
  O  O30  1  0.34901166  0.49375823  0.03105851  1
  O  O31  1  0.76807772  0.10747006  0.92388003  1
  O  O32  1  0.49173862  0.10645805  0.29396725  1
  O  O33  1  0.43660265  0.81088294  0.43507026  1
  O  O34  1  0.45216560  0.53572443  0.23731468  1
  O  O35  1  0.73192228  0.60747006  0.57611997  1
  O  O36  1  0.70696158  0.26519512  0.17621033  1
  O  O37  1  0.84901166  0.00624177  0.53105851  1
  O  O38  1  0.82555142  0.38410604  0.43246103  1
  O  O39  1  0.99173862  0.39354195  0.79396725  1
  O  O40  1  0.95216560  0.96427557  0.73731468  1
  O  O41  1  0.67444858  0.88410604  0.06753897  1
  O  O42  1  0.79303842  0.76519512  0.32378967  1
  O  O43  1  0.06339735  0.31088294  0.06492974  1
