# generated using pymatgen
data_V5CuO12
_symmetry_space_group_name_H-M   'P 1'
_cell_length_a   6.75536764
_cell_length_b   6.75536769
_cell_length_c   5.91215873
_cell_angle_alpha   75.54370434
_cell_angle_beta   104.45629853
_cell_angle_gamma   95.64983369
_symmetry_Int_Tables_number   1
_chemical_formula_structural   V5CuO12
_chemical_formula_sum   'V5 Cu1 O12'
_cell_volume   252.79922236
_cell_formula_units_Z   1
loop_
 _symmetry_equiv_pos_site_id
 _symmetry_equiv_pos_as_xyz
  1  'x, y, z'
loop_
 _atom_site_type_symbol
 _atom_site_label
 _atom_site_symmetry_multiplicity
 _atom_site_fract_x
 _atom_site_fract_y
 _atom_site_fract_z
 _atom_site_occupancy
  V  V0  1  0.91645971  0.91645971  0.25000000  1
  V  V1  1  0.20332689  0.61324307  0.75659687  1
  V  V2  1  0.39218125  0.78801067  0.27037862  1
  V  V3  1  0.61324307  0.20332689  0.74340313  1
  V  V4  1  0.78801067  0.39218125  0.22962138  1
  Cu  Cu5  1  0.09342735  0.09342735  0.75000000  1
  O  O6  1  0.03417436  0.80938967  0.62183510  1
  O  O7  1  0.08435416  0.38164346  0.78178224  1
  O  O8  1  0.19879462  0.95892517  0.17717224  1
  O  O9  1  0.37221777  0.63223884  0.55590591  1
  O  O10  1  0.38164346  0.08435416  0.71821776  1
  O  O11  1  0.34723690  0.63861636  0.05344070  1
  O  O12  1  0.63223884  0.37221777  0.94409409  1
  O  O13  1  0.63132455  0.90443719  0.29051765  1
  O  O14  1  0.63861636  0.34723690  0.44655930  1
  O  O15  1  0.80938967  0.03417436  0.87816490  1
  O  O16  1  0.90443719  0.63132455  0.20948235  1
  O  O17  1  0.95892517  0.19879462  0.32282776  1
