# generated using pymatgen
data_K8Al2O7
_symmetry_space_group_name_H-M   'P 1'
_cell_length_a   9.55706599
_cell_length_b   12.24138996
_cell_length_c   11.25948780
_cell_angle_alpha   90.00000000
_cell_angle_beta   107.96577678
_cell_angle_gamma   90.00000000
_symmetry_Int_Tables_number   1
_chemical_formula_structural   K8Al2O7
_chemical_formula_sum   'K32 Al8 O28'
_cell_volume   1253.03868497
_cell_formula_units_Z   4
loop_
 _symmetry_equiv_pos_site_id
 _symmetry_equiv_pos_as_xyz
  1  'x, y, z'
loop_
 _atom_site_type_symbol
 _atom_site_label
 _atom_site_symmetry_multiplicity
 _atom_site_fract_x
 _atom_site_fract_y
 _atom_site_fract_z
 _atom_site_occupancy
  K  K0  1  0.11635587  0.47576291  0.92392912  1
  K  K1  1  0.07956517  0.46096495  0.64298211  1
  K  K2  1  0.10494108  0.74067835  0.53128764  1
  K  K3  1  0.11635587  0.02423709  0.42392912  1
  K  K4  1  0.24593299  0.94200938  0.71217476  1
  K  K5  1  0.07956517  0.03903505  0.14298211  1
  K  K6  1  0.29138329  0.24332960  0.56865244  1
  K  K7  1  0.10494108  0.75932165  0.03128764  1
  K  K8  1  0.42690657  0.46684386  0.85840690  1
  K  K9  1  0.33605027  0.50843533  0.51762202  1
  K  K10  1  0.24593299  0.55799062  0.21217476  1
  K  K11  1  0.49537774  0.22792901  0.87128559  1
  K  K12  1  0.29138329  0.25667040  0.06865244  1
  K  K13  1  0.50462226  0.72792901  0.62871441  1
  K  K14  1  0.42690657  0.03315614  0.35840690  1
  K  K15  1  0.66394973  0.00843533  0.98237798  1
  K  K16  1  0.33605027  0.99156467  0.01762202  1
  K  K17  1  0.57309343  0.96684386  0.64159310  1
  K  K18  1  0.49537774  0.27207099  0.37128559  1
  K  K19  1  0.70861671  0.74332960  0.93134756  1
  K  K20  1  0.50462226  0.77207099  0.12871441  1
  K  K21  1  0.75406701  0.44200938  0.78782524  1
  K  K22  1  0.66394973  0.49156467  0.48237798  1
  K  K23  1  0.57309343  0.53315614  0.14159310  1
  K  K24  1  0.89505892  0.24067835  0.96871236  1
  K  K25  1  0.70861671  0.75667040  0.43134756  1
  K  K26  1  0.92043483  0.96096495  0.85701789  1
  K  K27  1  0.75406701  0.05799062  0.28782524  1
  K  K28  1  0.88364413  0.97576291  0.57607088  1
  K  K29  1  0.89505892  0.25932165  0.46871236  1
  K  K30  1  0.92043483  0.53903505  0.35701789  1
  K  K31  1  0.88364413  0.52423709  0.07607088  1
  Al  Al32  1  0.08451615  0.20066646  0.76849580  1
  Al  Al33  1  0.08451615  0.29933354  0.26849580  1
  Al  Al34  1  0.29483780  0.70823239  0.84037465  1
  Al  Al35  1  0.29483780  0.79176761  0.34037465  1
  Al  Al36  1  0.70516220  0.20823239  0.65962535  1
  Al  Al37  1  0.70516220  0.29176761  0.15962535  1
  Al  Al38  1  0.91548385  0.70066646  0.73150420  1
  Al  Al39  1  0.91548385  0.79933354  0.23150420  1
  O  O40  1  0.11292508  0.11731034  0.90803318  1
  O  O41  1  0.10408091  0.76395890  0.78138097  1
  O  O42  1  0.10079547  0.12140867  0.63828023  1
  O  O43  1  0.11292508  0.38268966  0.40803318  1
  O  O44  1  0.21582246  0.31260159  0.80514052  1
  O  O45  1  0.10408091  0.73604110  0.28138097  1
  O  O46  1  0.10079547  0.37859133  0.13828023  1
  O  O47  1  0.31887144  0.62527083  0.71437828  1
  O  O48  1  0.21582246  0.18739841  0.30514052  1
  O  O49  1  0.42015721  0.82612133  0.88249349  1
  O  O50  1  0.32435636  0.87562927  0.47918695  1
  O  O51  1  0.31887144  0.87472917  0.21437828  1
  O  O52  1  0.42015721  0.67387867  0.38249349  1
  O  O53  1  0.67564364  0.37562927  0.02081305  1
  O  O54  1  0.32435636  0.62437073  0.97918695  1
  O  O55  1  0.57984279  0.32612133  0.61750651  1
  O  O56  1  0.68112856  0.12527083  0.78562172  1
  O  O57  1  0.67564364  0.12437073  0.52081305  1
  O  O58  1  0.57984279  0.17387867  0.11750651  1
  O  O59  1  0.78417754  0.81260159  0.69485948  1
  O  O60  1  0.68112856  0.37472917  0.28562172  1
  O  O61  1  0.89920453  0.62140867  0.86171977  1
  O  O62  1  0.89591909  0.26395890  0.71861903  1
  O  O63  1  0.78417754  0.68739841  0.19485948  1
  O  O64  1  0.88707492  0.61731034  0.59196682  1
  O  O65  1  0.89920453  0.87859133  0.36171977  1
  O  O66  1  0.89591909  0.23604110  0.21861903  1
  O  O67  1  0.88707492  0.88268966  0.09196682  1
