# generated using pymatgen
data_Mn6OF11
_symmetry_space_group_name_H-M   'P 1'
_cell_length_a   4.94820699
_cell_length_b   5.85620352
_cell_length_c   16.24889962
_cell_angle_alpha   90.00000000
_cell_angle_beta   90.00000000
_cell_angle_gamma   88.16174306
_symmetry_Int_Tables_number   1
_chemical_formula_structural   Mn6OF11
_chemical_formula_sum   'Mn12 O2 F22'
_cell_volume   470.61353627
_cell_formula_units_Z   2
loop_
 _symmetry_equiv_pos_site_id
 _symmetry_equiv_pos_as_xyz
  1  'x, y, z'
loop_
 _atom_site_type_symbol
 _atom_site_label
 _atom_site_symmetry_multiplicity
 _atom_site_fract_x
 _atom_site_fract_y
 _atom_site_fract_z
 _atom_site_occupancy
  Mn  Mn0  1  0.00476322  0.16605071  0.41473049  1
  Mn  Mn1  1  0.02374818  0.83518202  0.23796321  1
  Mn  Mn2  1  0.99401041  0.16023267  0.08152568  1
  Mn  Mn3  1  0.01071530  0.17495105  0.75363190  1
  Mn  Mn4  1  0.99526102  0.82956746  0.58399520  1
  Mn  Mn5  1  0.99337720  0.83004347  0.91826454  1
  Mn  Mn6  1  0.49526102  0.32956746  0.58267180  1
  Mn  Mn7  1  0.52374818  0.33518202  0.92870379  1
  Mn  Mn8  1  0.49337720  0.33004347  0.24840146  1
  Mn  Mn9  1  0.49401041  0.66023267  0.08514132  1
  Mn  Mn10  1  0.51071530  0.67495105  0.41303510  1
  Mn  Mn11  1  0.50476322  0.66605071  0.75193651  1
  O  O12  1  0.21999418  0.88959233  0.12941629  1
  O  O13  1  0.71999418  0.38959233  0.03725071  1
  F  F14  1  0.23674936  0.10116533  0.30532706  1
  F  F15  1  0.22831729  0.10473480  0.64129154  1
  F  F16  1  0.21029103  0.12074642  0.97297058  1
  F  F17  1  0.23521333  0.89413567  0.47487075  1
  F  F18  1  0.22660122  0.88994342  0.80977264  1
  F  F19  1  0.24961753  0.39371293  0.14072132  1
  F  F20  1  0.26503745  0.60695690  0.30568948  1
  F  F21  1  0.27012870  0.39670573  0.47175564  1
  F  F22  1  0.26716987  0.60227110  0.64381378  1
  F  F23  1  0.28759811  0.38744322  0.81570206  1
  F  F24  1  0.28140860  0.61656378  0.97640082  1
  F  F25  1  0.71029103  0.62074642  0.19369542  1
  F  F26  1  0.72660122  0.38994342  0.35689336  1
  F  F27  1  0.72831729  0.60473480  0.52537546  1
  F  F28  1  0.73674936  0.60116533  0.86133994  1
  F  F29  1  0.73521233  0.39413567  0.69179625  1
  F  F30  1  0.78140860  0.11656378  0.19026618  1
  F  F31  1  0.76716987  0.10227110  0.52285322  1
  F  F32  1  0.78759811  0.88744322  0.35096394  1
  F  F33  1  0.74961753  0.89371293  0.02594568  1
  F  F34  1  0.76503745  0.10695690  0.86097752  1
  F  F35  1  0.77012870  0.89670573  0.69491136  1
