# generated using pymatgen
data_Ti17(NO4)6
_symmetry_space_group_name_H-M   'P 1'
_cell_length_a   10.39777687
_cell_length_b   11.47914298
_cell_length_c   11.30154482
_cell_angle_alpha   99.74432397
_cell_angle_beta   70.37167675
_cell_angle_gamma   68.40226644
_symmetry_Int_Tables_number   1
_chemical_formula_structural   Ti17(NO4)6
_chemical_formula_sum   'Ti34 N12 O48'
_cell_volume   1113.30837289
_cell_formula_units_Z   2
loop_
 _symmetry_equiv_pos_site_id
 _symmetry_equiv_pos_as_xyz
  1  'x, y, z'
loop_
 _atom_site_type_symbol
 _atom_site_label
 _atom_site_symmetry_multiplicity
 _atom_site_fract_x
 _atom_site_fract_y
 _atom_site_fract_z
 _atom_site_occupancy
  Ti  Ti0  1  0.85253977  0.97789642  0.57164590  1
  Ti  Ti1  1  0.82536130  0.90429350  0.07247134  1
  Ti  Ti2  1  0.92725316  0.81676073  0.74830885  1
  Ti  Ti3  1  0.35402755  0.98260097  0.57660551  1
  Ti  Ti4  1  0.32307574  0.90428232  0.07206392  1
  Ti  Ti5  1  0.57227760  0.85307093  0.25065804  1
  Ti  Ti6  1  0.82106819  0.56734575  0.07644025  1
  Ti  Ti7  1  0.67692426  0.76238468  0.92793608  1
  Ti  Ti8  1  0.85256477  0.64457703  0.57257009  1
  Ti  Ti9  1  0.64597245  0.68406603  0.42339449  1
  Ti  Ti10  1  0.42772240  0.81359507  0.74934196  1
  Ti  Ti11  1  0.07274684  0.84990627  0.25169115  1
  Ti  Ti12  1  0.92855422  0.48025727  0.75027766  1
  Ti  Ti13  1  0.32789064  0.56879367  0.07005891  1
  Ti  Ti14  1  0.35933290  0.63892835  0.55285703  1
  Ti  Ti15  1  0.14746023  0.68877058  0.42835410  1
  Ti  Ti16  1  0.17463870  0.76237250  0.92752866  1
  Ti  Ti17  1  0.82059352  0.24356159  0.07705270  1
  Ti  Ti18  1  0.07149123  0.51699695  0.24927386  1
  Ti  Ti19  1  0.85179354  0.31180047  0.57461584  1
  Ti  Ti20  1  0.66578212  0.43496445  0.94274853  1
  Ti  Ti21  1  0.64669348  0.35937013  0.42333481  1
  Ti  Ti22  1  0.42753104  0.48425818  0.74920228  1
  Ti  Ti23  1  0.92850877  0.14967005  0.75072614  1
  Ti  Ti24  1  0.17940648  0.42310541  0.92294730  1
  Ti  Ti25  1  0.35330652  0.30729587  0.57666519  1
  Ti  Ti26  1  0.57246896  0.18240882  0.25079772  1
  Ti  Ti27  1  0.33421788  0.23170155  0.05725147  1
  Ti  Ti28  1  0.14820646  0.35486653  0.42538416  1
  Ti  Ti29  1  0.67210936  0.09787233  0.92994109  1
  Ti  Ti30  1  0.64066710  0.02773865  0.44714297  1
  Ti  Ti31  1  0.07144578  0.18640973  0.24972234  1
  Ti  Ti32  1  0.17893181  0.09932025  0.92355975  1
  Ti  Ti33  1  0.14743523  0.02208897  0.42742991  1
  N  N34  1  0.64786956  0.99168323  0.24936196  1
  N  N35  1  0.14434877  0.99469514  0.24977296  1
  N  N36  1  0.85565123  0.67197186  0.75022704  1
  N  N37  1  0.65465259  0.67140450  0.25046005  1
  N  N38  1  0.35213044  0.67498277  0.75063804  1
  N  N39  1  0.14213324  0.65953069  0.24983444  1
  N  N40  1  0.85543201  0.33982508  0.75082937  1
  N  N41  1  0.65440399  0.31008985  0.25059694  1
  N  N42  1  0.14456799  0.32684192  0.24917063  1
  N  N43  1  0.34559601  0.35657715  0.74940306  1
  N  N44  1  0.85786676  0.00713631  0.75016556  1
  N  N45  1  0.34534741  0.99526150  0.74953995  1
  O  O46  1  0.86015330  0.94312887  0.37728208  1
  O  O47  1  0.98982970  0.85606866  0.11782001  1
  O  O48  1  0.59060760  0.87791206  0.43817836  1
  O  O49  1  0.72001875  0.91588521  0.93562471  1
  O  O50  1  0.77781604  0.75316548  0.06347177  1
  O  O51  1  0.35689130  0.94196523  0.37957819  1
  O  O52  1  0.90313314  0.79313490  0.56500719  1
  O  O53  1  0.48801482  0.85736009  0.11848481  1
  O  O54  1  0.51198518  0.80930691  0.88151519  1
  O  O55  1  0.09686686  0.87353210  0.43499281  1
  O  O56  1  0.98757087  0.52615689  0.11983749  1
  O  O57  1  0.64310870  0.72470177  0.62042181  1
  O  O58  1  0.22218396  0.91350052  0.93652823  1
  O  O59  1  0.40939240  0.78875494  0.56182164  1
  O  O60  1  0.27998125  0.75078179  0.06437529  1
  O  O61  1  0.85710540  0.61011637  0.38182729  1
  O  O62  1  0.59959411  0.54164567  0.44868979  1
  O  O63  1  0.71955349  0.58276300  0.93827804  1
  O  O64  1  0.79817261  0.40945749  0.05230865  1
  O  O65  1  0.90472353  0.45854225  0.56421641  1
  O  O66  1  0.34865908  0.61518622  0.38924001  1
  O  O67  1  0.01017030  0.81059834  0.88217999  1
  O  O68  1  0.48843261  0.52180599  0.10915006  1
  O  O69  1  0.13984670  0.72353813  0.62271792  1
  O  O70  1  0.85816284  0.27872406  0.38095669  1
  O  O71  1  0.51243749  0.47552859  0.87709497  1
  O  O72  1  0.40909301  0.45900505  0.56166980  1
  O  O73  1  0.98866018  0.18829290  0.11922817  1
  O  O74  1  0.64366243  0.38596911  0.61890408  1
  O  O75  1  0.09282462  0.54113173  0.43659839  1
  O  O76  1  0.22017401  0.58432423  0.93391199  1
  O  O77  1  0.27934623  0.41653077  0.06142821  1
  O  O78  1  0.14183716  0.38794294  0.61904331  1
  O  O79  1  0.90717538  0.12553527  0.56340161  1
  O  O80  1  0.01133982  0.47837410  0.88077183  1
  O  O81  1  0.72065377  0.25013623  0.93857179  1
  O  O82  1  0.48756251  0.19113741  0.12290503  1
  O  O83  1  0.59090699  0.20766095  0.43833020  1
  O  O84  1  0.77982599  0.08234177  0.06608801  1
  O  O85  1  0.35633757  0.28069689  0.38109592  1
  O  O86  1  0.65134092  0.05147978  0.61075999  1
  O  O87  1  0.28044651  0.08390300  0.06172196  1
  O  O88  1  0.51156739  0.14486101  0.89084994  1
  O  O89  1  0.20182739  0.25720951  0.94769135  1
  O  O90  1  0.40040589  0.12502133  0.55131021  1
  O  O91  1  0.09527647  0.20812475  0.43578359  1
  O  O92  1  0.01242913  0.14051011  0.88016251  1
  O  O93  1  0.14289460  0.05655063  0.61817271  1
