# generated using pymatgen
data_Ti17(NO4)6
_symmetry_space_group_name_H-M   'P 1'
_cell_length_a   10.39998436
_cell_length_b   10.71156801
_cell_length_c   10.73826124
_cell_angle_alpha   71.46362966
_cell_angle_beta   82.46704657
_cell_angle_gamma   95.30093975
_symmetry_Int_Tables_number   1
_chemical_formula_structural   Ti17(NO4)6
_chemical_formula_sum   'Ti34 N12 O48'
_cell_volume   1112.90097451
_cell_formula_units_Z   2
loop_
 _symmetry_equiv_pos_site_id
 _symmetry_equiv_pos_as_xyz
  1  'x, y, z'
loop_
 _atom_site_type_symbol
 _atom_site_label
 _atom_site_symmetry_multiplicity
 _atom_site_fract_x
 _atom_site_fract_y
 _atom_site_fract_z
 _atom_site_occupancy
  Ti  Ti0  1  0.18665383  0.09663786  0.07170653  1
  Ti  Ti1  1  0.37367752  0.02189837  0.57118375  1
  Ti  Ti2  1  0.37839179  0.15071770  0.25098396  1
  Ti  Ti3  1  0.68826794  0.09473431  0.07321709  1
  Ti  Ti4  1  0.29298948  0.31143563  0.42881625  1
  Ti  Ti5  1  0.87462147  0.14669987  0.25084914  1
  Ti  Ti6  1  0.28827521  0.18261530  0.74901604  1
  Ti  Ti7  1  0.04347569  0.36124203  0.55481343  1
  Ti  Ti8  1  0.86490608  0.01719173  0.57698910  1
  Ti  Ti9  1  0.35270620  0.43142799  0.07016786  1
  Ti  Ti10  1  0.80175992  0.31614127  0.42301090  1
  Ti  Ti11  1  0.48001317  0.23669514  0.92829347  1
  Ti  Ti12  1  0.85701904  0.43263536  0.07678102  1
  Ti  Ti13  1  0.79204553  0.18663313  0.74915086  1
  Ti  Ti14  1  0.54084055  0.35467883  0.57075623  1
  Ti  Ti15  1  0.54571124  0.48312536  0.24888093  1
  Ti  Ti16  1  0.01959772  0.75686821  0.07741453  1
  Ti  Ti17  1  0.14562217  0.56512200  0.94336948  1
  Ti  Ti18  1  0.97839906  0.23859869  0.92678291  1
  Ti  Ti19  1  0.46222116  0.64428109  0.42559653  1
  Ti  Ti20  1  0.52104483  0.76821200  0.05663052  1
  Ti  Ti21  1  0.20444584  0.68905191  0.57440347  1
  Ti  Ti22  1  0.45645886  0.51688483  0.74979576  1
  Ti  Ti23  1  0.21020814  0.81644917  0.25020424  1
  Ti  Ti24  1  0.12582545  0.97865417  0.42924377  1
  Ti  Ti25  1  0.64706928  0.57646579  0.92258547  1
  Ti  Ti26  1  0.12095576  0.85020864  0.75111907  1
  Ti  Ti27  1  0.96172939  0.64183104  0.42294798  1
  Ti  Ti28  1  0.95513860  0.51985207  0.74993226  1
  Ti  Ti29  1  0.70493761  0.69150196  0.57705202  1
  Ti  Ti30  1  0.71152840  0.81348093  0.25006774  1
  Ti  Ti31  1  0.31395980  0.90190601  0.92983214  1
  Ti  Ti32  1  0.62319131  0.97209097  0.44518657  1
  Ti  Ti33  1  0.80964796  0.90069764  0.92321898  1
  N  N34  1  0.23251703  0.00704140  0.25020448  1
  N  N35  1  0.73228218  0.00644192  0.24926384  1
  N  N36  1  0.40359149  0.33963140  0.24972990  1
  N  N37  1  0.43414897  0.32629160  0.74979552  1
  N  N38  1  0.88535284  0.32940220  0.25041929  1
  N  N39  1  0.06469775  0.68747711  0.25033467  1
  N  N40  1  0.93438482  0.32689208  0.75073616  1
  N  N41  1  0.09771246  0.65940370  0.75062598  1
  N  N42  1  0.56895354  0.67392930  0.24937402  1
  N  N43  1  0.60196925  0.64585689  0.74966533  1
  N  N44  1  0.26307451  0.99370160  0.75027010  1
  N  N45  1  0.78131316  0.00393080  0.74958071  1
  O  O46  1  0.02374308  0.14278622  0.11884329  1
  O  O47  1  0.47982245  0.05759068  0.37710943  1
  O  O48  1  0.31255707  0.24851144  0.06408979  1
  O  O49  1  0.52392474  0.14388965  0.11749358  1
  O  O50  1  0.24921540  0.12592066  0.43454476  1
  O  O51  1  0.41745160  0.20741234  0.56545524  1
  O  O52  1  0.98199833  0.05810451  0.37930807  1
  O  O53  1  0.14884323  0.38442928  0.39029699  1
  O  O54  1  0.14274226  0.18944335  0.88250642  1
  O  O55  1  0.18684455  0.27574232  0.62289057  1
  O  O56  1  0.35410993  0.08482256  0.93591021  1
  O  O57  1  0.75163067  0.12232112  0.43816057  1
  O  O58  1  0.81398482  0.24764784  0.06327449  1
  O  O59  1  0.19549726  0.47737974  0.10927277  1
  O  O60  1  0.01994574  0.41693431  0.93674559  1
  O  O61  1  0.08202567  0.54113139  0.56419833  1
  O  O62  1  0.41762682  0.45932565  0.43507412  1
  O  O63  1  0.48068928  0.58370668  0.06231624  1
  O  O64  1  0.91503533  0.21101188  0.56183943  1
  O  O65  1  0.68986262  0.47412170  0.12074216  1
  O  O66  1  0.64292392  0.19054778  0.88115671  1
  O  O67  1  0.85268118  0.08568616  0.93672551  1
  O  O68  1  0.64690555  0.38986500  0.38262559  1
  O  O69  1  0.68466767  0.27522849  0.62069193  1
  O  O70  1  0.31126665  0.52483915  0.87731770  1
  O  O71  1  0.58118701  0.54142199  0.56211462  1
  O  O72  1  0.52082487  0.41618329  0.93500924  1
  O  O73  1  0.35344449  0.61182070  0.61800212  1
  O  O74  1  0.08547899  0.79191101  0.43788538  1
  O  O75  1  0.14584113  0.91715071  0.06499076  1
  O  O76  1  0.31322251  0.72151230  0.38199788  1
  O  O77  1  0.35540035  0.80849385  0.12268230  1
  O  O78  1  0.97189727  0.59049266  0.05098731  1
  O  O79  1  0.90618150  0.45824287  0.44967756  1
  O  O80  1  0.18597772  0.74962732  0.93768376  1
  O  O81  1  0.58464133  0.79220161  0.43580167  1
  O  O82  1  0.81217366  0.71951573  0.37977069  1
  O  O83  1  0.80886961  0.52162529  0.88084926  1
  O  O84  1  0.01976145  0.94346800  0.61737441  1
  O  O85  1  0.24904018  0.87400735  0.56492588  1
  O  O86  1  0.85779639  0.81170771  0.11915074  1
  O  O87  1  0.64672126  0.91639969  0.06325441  1
  O  O88  1  0.85449234  0.61381727  0.62022931  1
  O  O89  1  0.69476973  0.74284034  0.94901269  1
  O  O90  1  0.51782377  0.94890372  0.60970301  1
  O  O91  1  0.47116874  0.85595326  0.89072723  1
  O  O92  1  0.76048550  0.87509113  0.55032244  1
  O  O93  1  0.97680438  0.85921130  0.87925784  1
