# generated using pymatgen
data_Ti17(NO4)6
_symmetry_space_group_name_H-M   'P 1'
_cell_length_a   10.39552605
_cell_length_b   11.47774007
_cell_length_c   11.30289787
_cell_angle_alpha   80.24244637
_cell_angle_beta   62.55042698
_cell_angle_gamma   68.39152316
_symmetry_Int_Tables_number   1
_chemical_formula_structural   Ti17(NO4)6
_chemical_formula_sum   'Ti34 N12 O48'
_cell_volume   1112.68807894
_cell_formula_units_Z   2
loop_
 _symmetry_equiv_pos_site_id
 _symmetry_equiv_pos_as_xyz
  1  'x, y, z'
loop_
 _atom_site_type_symbol
 _atom_site_label
 _atom_site_symmetry_multiplicity
 _atom_site_fract_x
 _atom_site_fract_y
 _atom_site_fract_z
 _atom_site_occupancy
  Ti  Ti0  1  0.10250812  0.12084836  0.07124251  1
  Ti  Ti1  1  0.32271428  0.10108635  0.75030888  1
  Ti  Ti2  1  0.07809202  0.21114856  0.57153675  1
  Ti  Ti3  1  0.60357795  0.12383399  0.07657311  1
  Ti  Ti4  1  0.43180138  0.12351910  0.42249209  1
  Ti  Ti5  1  0.17862690  0.23134631  0.24904601  1
  Ti  Ti6  1  0.58433107  0.21234772  0.55736314  1
  Ti  Ti7  1  0.82266296  0.10334755  0.75061249  1
  Ti  Ti8  1  0.39874386  0.21270196  0.92482390  1
  Ti  Ti9  1  0.10282059  0.45309406  0.07229311  1
  Ti  Ti10  1  0.92224731  0.12127464  0.42978828  1
  Ti  Ti11  1  0.07096117  0.55191556  0.57670313  1
  Ti  Ti12  1  0.89107016  0.21169962  0.94682294  1
  Ti  Ti13  1  0.42903883  0.44808444  0.42329687  1
  Ti  Ti14  1  0.32187937  0.43321233  0.74947990  1
  Ti  Ti15  1  0.17812063  0.56678767  0.25052010  1
  Ti  Ti16  1  0.60418350  0.44807034  0.07653908  1
  Ti  Ti17  1  0.39717941  0.54690594  0.92770689  1
  Ti  Ti18  1  0.10125614  0.78729804  0.07517610  1
  Ti  Ti19  1  0.67753812  0.56843677  0.24959629  1
  Ti  Ti20  1  0.57312384  0.54733161  0.57178030  1
  Ti  Ti21  1  0.92687616  0.45266839  0.42821970  1
  Ti  Ti22  1  0.82246188  0.43156323  0.75040371  1
  Ti  Ti23  1  0.06819862  0.87648090  0.57750791  1
  Ti  Ti24  1  0.17728572  0.89891365  0.24969112  1
  Ti  Ti25  1  0.42190798  0.78885144  0.42846325  1
  Ti  Ti26  1  0.89581650  0.55192966  0.92346092  1
  Ti  Ti27  1  0.32137310  0.76865369  0.75095399  1
  Ti  Ti28  1  0.60892984  0.78830038  0.05317706  1
  Ti  Ti29  1  0.39749188  0.87915164  0.92875749  1
  Ti  Ti30  1  0.91566893  0.78765228  0.44263686  1
  Ti  Ti31  1  0.67733704  0.89665245  0.24938751  1
  Ti  Ti32  1  0.57775269  0.87872536  0.57021172  1
  Ti  Ti33  1  0.89642205  0.87616601  0.92342689  1
  N  N34  1  0.10813972  0.08852634  0.25006874  1
  N  N35  1  0.59613106  0.07968290  0.24934012  1
  N  N36  1  0.10537095  0.42391640  0.25005434  1
  N  N37  1  0.39452402  0.24404209  0.74909157  1
  N  N38  1  0.59507019  0.44135538  0.24955642  1
  N  N39  1  0.89784666  0.24306661  0.74940293  1
  N  N40  1  0.10547598  0.75595791  0.25090843  1
  N  N41  1  0.39462905  0.57608360  0.74994566  1
  N  N42  1  0.60215334  0.75693439  0.25059707  1
  N  N43  1  0.90492981  0.55864462  0.75044358  1
  N  N44  1  0.39186028  0.91147366  0.74993126  1
  N  N45  1  0.90386894  0.92031710  0.75065988  1
  O  O46  1  0.02985135  0.06432585  0.56600814  1
  O  O47  1  0.10987678  0.15072736  0.87771643  1
  O  O48  1  0.26068395  0.18370871  0.38175496  1
  O  O49  1  0.34666628  0.06239110  0.93434451  1
  O  O50  1  0.52978347  0.06363017  0.56121332  1
  O  O51  1  0.15628186  0.27087453  0.06312750  1
  O  O52  1  0.23846308  0.14838417  0.61923153  1
  O  O53  1  0.39201174  0.18363899  0.11926130  1
  O  O54  1  0.02810812  0.39481796  0.56369786  1
  O  O55  1  0.73764464  0.15083026  0.62290534  1
  O  O56  1  0.60671828  0.14886336  0.88105057  1
  O  O57  1  0.84088395  0.06503579  0.93841476  1
  O  O58  1  0.45178364  0.27492995  0.44833584  1
  O  O59  1  0.64993155  0.27487906  0.05144865  1
  O  O60  1  0.76156551  0.18070820  0.39087886  1
  O  O61  1  0.90122613  0.18139596  0.11075969  1
  O  O62  1  0.26175759  0.51238972  0.38031911  1
  O  O63  1  0.34488946  0.39564126  0.93581637  1
  O  O64  1  0.10761247  0.48437389  0.88176503  1
  O  O65  1  0.15511054  0.60435874  0.06418363  1
  O  O66  1  0.23824241  0.48761028  0.61968089  1
  O  O67  1  0.97027320  0.27089388  0.43524226  1
  O  O68  1  0.53032196  0.39604748  0.56176306  1
  O  O69  1  0.39238753  0.51562611  0.11823497  1
  O  O70  1  0.04821636  0.72507005  0.55166416  1
  O  O71  1  0.84029831  0.39504441  0.93825284  1
  O  O72  1  0.47189188  0.60518204  0.43630214  1
  O  O73  1  0.65970169  0.60495559  0.06174716  1
  O  O74  1  0.76191251  0.51610004  0.38157183  1
  O  O75  1  0.73808749  0.48389996  0.61842817  1
  O  O76  1  0.89342961  0.51284908  0.12040666  1
  O  O77  1  0.60657039  0.48715092  0.87959334  1
  O  O78  1  0.26153692  0.85161583  0.38076847  1
  O  O79  1  0.10798826  0.81636101  0.88073870  1
  O  O80  1  0.34371814  0.72912547  0.93687250  1
  O  O81  1  0.23931605  0.81629129  0.61824504  1
  O  O82  1  0.52972680  0.72910612  0.56475774  1
  O  O83  1  0.15333372  0.93760890  0.06565549  1
  O  O84  1  0.39012322  0.84927264  0.12228357  1
  O  O85  1  0.96967804  0.60395252  0.43823694  1
  O  O86  1  0.47014865  0.93567415  0.43399186  1
  O  O87  1  0.76235536  0.84916974  0.37709466  1
  O  O88  1  0.89328172  0.85113664  0.11894943  1
  O  O89  1  0.59877387  0.81860404  0.88924031  1
  O  O90  1  0.65911605  0.93496421  0.06158524  1
  O  O91  1  0.73843449  0.81929180  0.60912114  1
  O  O92  1  0.85006845  0.72512094  0.94855135  1
  O  O93  1  0.97021653  0.93636983  0.43878668  1
