# generated using pymatgen
data_Ti17(NO4)6
_symmetry_space_group_name_H-M   'P 1'
_cell_length_a   10.39393972
_cell_length_b   11.48669815
_cell_length_c   10.02672100
_cell_angle_alpha   90.00000000
_cell_angle_beta   90.00000000
_cell_angle_gamma   68.37148067
_symmetry_Int_Tables_number   1
_chemical_formula_structural   Ti17(NO4)6
_chemical_formula_sum   'Ti34 N12 O48'
_cell_volume   1112.82594096
_cell_formula_units_Z   2
loop_
 _symmetry_equiv_pos_site_id
 _symmetry_equiv_pos_as_xyz
  1  'x, y, z'
loop_
 _atom_site_type_symbol
 _atom_site_label
 _atom_site_symmetry_multiplicity
 _atom_site_fract_x
 _atom_site_fract_y
 _atom_site_fract_z
 _atom_site_occupancy
  Ti  Ti0  1  0.80240903  0.90041408  0.75000000  1
  Ti  Ti1  1  0.86431188  0.87868828  0.42925782  1
  Ti  Ti2  1  0.86431188  0.87868828  0.07074218  1
  Ti  Ti3  1  0.63789369  0.78798446  0.92791054  1
  Ti  Ti4  1  0.69562496  0.76921886  0.25000000  1
  Ti  Ti5  1  0.63789369  0.78798446  0.57208946  1
  Ti  Ti6  1  0.35633774  0.87666307  0.07685599  1
  Ti  Ti7  1  0.35633774  0.87666307  0.42314401  1
  Ti  Ti8  1  0.30160952  0.89472208  0.75000000  1
  Ti  Ti9  1  0.86188194  0.54637078  0.42809639  1
  Ti  Ti10  1  0.13682835  0.78772463  0.94273434  1
  Ti  Ti11  1  0.13682835  0.78772463  0.55726566  1
  Ti  Ti12  1  0.86188194  0.54637078  0.07190361  1
  Ti  Ti13  1  0.80377240  0.56512690  0.75000000  1
  Ti  Ti14  1  0.63811806  0.45362922  0.57190361  1
  Ti  Ti15  1  0.63811806  0.45362922  0.92809639  1
  Ti  Ti16  1  0.35646484  0.55255802  0.07681454  1
  Ti  Ti17  1  0.69622760  0.43487310  0.25000000  1
  Ti  Ti18  1  0.35646484  0.55255802  0.42318546  1
  Ti  Ti19  1  0.30157224  0.57084218  0.75000000  1
  Ti  Ti20  1  0.86210631  0.21201554  0.42791054  1
  Ti  Ti21  1  0.80437504  0.23078114  0.75000000  1
  Ti  Ti22  1  0.14353516  0.44744198  0.92318546  1
  Ti  Ti23  1  0.19842776  0.42915782  0.25000000  1
  Ti  Ti24  1  0.86210631  0.21201554  0.07208946  1
  Ti  Ti25  1  0.14353516  0.44744198  0.57681454  1
  Ti  Ti26  1  0.36317165  0.21227537  0.05726566  1
  Ti  Ti27  1  0.36317165  0.21227537  0.44273434  1
  Ti  Ti28  1  0.69759097  0.09958592  0.25000000  1
  Ti  Ti29  1  0.63568812  0.12131172  0.57074218  1
  Ti  Ti30  1  0.63568812  0.12131172  0.92925782  1
  Ti  Ti31  1  0.19839048  0.10527792  0.25000000  1
  Ti  Ti32  1  0.14366226  0.12333693  0.92314401  1
  Ti  Ti33  1  0.14366226  0.12333693  0.57685599  1
  N  N34  1  0.76631762  0.91021066  0.25000000  1
  N  N35  1  0.27979518  0.92196125  0.25000000  1
  N  N36  1  0.73122794  0.75557336  0.75000000  1
  N  N37  1  0.76918200  0.57721294  0.25000000  1
  N  N38  1  0.22777649  0.75737795  0.75000000  1
  N  N39  1  0.27999419  0.55801152  0.25000000  1
  N  N40  1  0.73081800  0.42278706  0.75000000  1
  N  N41  1  0.76877206  0.24442664  0.25000000  1
  N  N42  1  0.22000581  0.44198848  0.75000000  1
  N  N43  1  0.73368238  0.08978934  0.75000000  1
  N  N44  1  0.27222351  0.24262205  0.25000000  1
  N  N45  1  0.22020482  0.07803875  0.75000000  1
  O  O46  1  0.95045579  0.84954476  0.87838069  1
  O  O47  1  0.68521258  0.93833917  0.93429792  1
  O  O48  1  0.95045579  0.84954476  0.62161931  1
  O  O49  1  0.68521258  0.93833917  0.56570208  1
  O  O50  1  0.54825753  0.81659840  0.38120700  1
  O  O51  1  0.45334638  0.85042706  0.88020671  1
  O  O52  1  0.19069166  0.93467573  0.93842308  1
  O  O53  1  0.81168201  0.72924083  0.43655218  1
  O  O54  1  0.45334638  0.85042706  0.61979329  1
  O  O55  1  0.81168201  0.72924083  0.06344782  1
  O  O56  1  0.54825753  0.81659840  0.11879300  1
  O  O57  1  0.19069166  0.93467573  0.56157692  1
  O  O58  1  0.68670706  0.60425448  0.93610337  1
  O  O59  1  0.95115408  0.51541437  0.61884719  1
  O  O60  1  0.95115408  0.51541437  0.88115281  1
  O  O61  1  0.68670706  0.60425448  0.56389663  1
  O  O62  1  0.04407286  0.81842858  0.11013519  1
  O  O63  1  0.04407286  0.81842858  0.38986481  1
  O  O64  1  0.32438166  0.72516814  0.05264059  1
  O  O65  1  0.32438166  0.72516814  0.44735941  1
  O  O66  1  0.45370287  0.51342867  0.88029842  1
  O  O67  1  0.54884592  0.48458563  0.11884719  1
  O  O68  1  0.19077125  0.60483151  0.93843217  1
  O  O69  1  0.81329294  0.39574552  0.06389663  1
  O  O70  1  0.81329294  0.39574552  0.43610337  1
  O  O71  1  0.54884592  0.48458563  0.38115281  1
  O  O72  1  0.45370287  0.51342867  0.61970158  1
  O  O73  1  0.19077125  0.60483151  0.56156783  1
  O  O74  1  0.95174247  0.18340160  0.88120700  1
  O  O75  1  0.68831799  0.27075917  0.93655218  1
  O  O76  1  0.30922875  0.39516849  0.06156783  1
  O  O77  1  0.04629713  0.48657133  0.38029842  1
  O  O78  1  0.30922875  0.39516849  0.43843217  1
  O  O79  1  0.04629713  0.48657133  0.11970158  1
  O  O80  1  0.95174247  0.18340160  0.61879300  1
  O  O81  1  0.68831799  0.27075917  0.56344782  1
  O  O82  1  0.54954421  0.15045524  0.12161931  1
  O  O83  1  0.81478742  0.06166083  0.43429792  1
  O  O84  1  0.54954421  0.15045524  0.37838069  1
  O  O85  1  0.45592714  0.18157142  0.88986481  1
  O  O86  1  0.81478742  0.06166083  0.06570208  1
  O  O87  1  0.45592714  0.18157142  0.61013519  1
  O  O88  1  0.17561834  0.27483186  0.55264059  1
  O  O89  1  0.17561834  0.27483186  0.94735941  1
  O  O90  1  0.30930834  0.06532427  0.43842308  1
  O  O91  1  0.04665362  0.14957294  0.11979329  1
  O  O92  1  0.04665362  0.14957294  0.38020671  1
  O  O93  1  0.30930834  0.06532427  0.06157692  1
