# generated using pymatgen
data_LiNi2(SO4)3
_symmetry_space_group_name_H-M   'P 1'
_cell_length_a   8.46303025
_cell_length_b   8.73627073
_cell_length_c   12.12857436
_cell_angle_alpha   90.00000000
_cell_angle_beta   89.38930906
_cell_angle_gamma   90.00000000
_symmetry_Int_Tables_number   1
_chemical_formula_structural   LiNi2(SO4)3
_chemical_formula_sum   'Li4 Ni8 S12 O48'
_cell_volume   896.67913192
_cell_formula_units_Z   4
loop_
 _symmetry_equiv_pos_site_id
 _symmetry_equiv_pos_as_xyz
  1  'x, y, z'
loop_
 _atom_site_type_symbol
 _atom_site_label
 _atom_site_symmetry_multiplicity
 _atom_site_fract_x
 _atom_site_fract_y
 _atom_site_fract_z
 _atom_site_occupancy
  Li  Li0  1  0.18742866  0.71760095  0.82131354  1
  Li  Li1  1  0.31257134  0.21760095  0.67868646  1
  Li  Li2  1  0.68742866  0.78239905  0.32131354  1
  Li  Li3  1  0.81257134  0.28239905  0.17868646  1
  Ni  Ni4  1  0.25046763  0.96643222  0.38317464  1
  Ni  Ni5  1  0.24719965  0.53789100  0.60928823  1
  Ni  Ni6  1  0.24953237  0.46643222  0.11682536  1
  Ni  Ni7  1  0.25280035  0.03789100  0.89071177  1
  Ni  Ni8  1  0.74719965  0.96210900  0.10928823  1
  Ni  Ni9  1  0.75046763  0.53356778  0.88317464  1
  Ni  Ni10  1  0.75280035  0.46210900  0.39071177  1
  Ni  Ni11  1  0.74953237  0.03356778  0.61682536  1
  S  S12  1  0.03618198  0.24913771  0.50681152  1
  S  S13  1  0.10381107  0.11657572  0.14970142  1
  S  S14  1  0.10991414  0.38840422  0.85416133  1
  S  S15  1  0.39008586  0.88840422  0.64583867  1
  S  S16  1  0.39618893  0.61657572  0.35029858  1
  S  S17  1  0.46381802  0.74913771  0.99318848  1
  S  S18  1  0.53618198  0.25086229  0.00681152  1
  S  S19  1  0.60381107  0.38342428  0.64970142  1
  S  S20  1  0.60991414  0.11159578  0.35416133  1
  S  S21  1  0.89008586  0.61159578  0.14583867  1
  S  S22  1  0.89618893  0.88342428  0.85029858  1
  S  S23  1  0.96381802  0.75086229  0.49318848  1
  O  O24  1  0.04254099  0.63194461  0.55975039  1
  O  O25  1  0.06238507  0.62465600  0.12250660  1
  O  O26  1  0.06704649  0.91685421  0.82456298  1
  O  O27  1  0.06674209  0.80970953  0.40257967  1
  O  O28  1  0.08649028  0.12654979  0.43045860  1
  O  O29  1  0.11585049  0.28511361  0.17189092  1
  O  O30  1  0.13559610  0.08333625  0.03297129  1
  O  O31  1  0.14012759  0.50728576  0.76775574  1
  O  O32  1  0.17777692  0.31750410  0.56157003  1
  O  O33  1  0.17146667  0.23812224  0.81323534  1
  O  O34  1  0.19690426  0.43629800  0.95336974  1
  O  O35  1  0.20814978  0.02444933  0.22006384  1
  O  O36  1  0.29185022  0.52444933  0.27993616  1
  O  O37  1  0.30309574  0.93629800  0.54663026  1
  O  O38  1  0.32853333  0.73812224  0.68676466  1
  O  O39  1  0.32222308  0.81750410  0.93842997  1
  O  O40  1  0.36440390  0.58333625  0.46702871  1
  O  O41  1  0.35987241  0.00728576  0.73224426  1
  O  O42  1  0.38414951  0.78511361  0.32810908  1
  O  O43  1  0.41350972  0.62654979  0.06954140  1
  O  O44  1  0.43325791  0.30970953  0.09742033  1
  O  O45  1  0.43761493  0.12465600  0.37749340  1
  O  O46  1  0.43295351  0.41685421  0.67543702  1
  O  O47  1  0.45745901  0.13194461  0.94024961  1
  O  O48  1  0.54254099  0.86805539  0.05975039  1
  O  O49  1  0.56704649  0.58314579  0.32456298  1
  O  O50  1  0.56238507  0.87534400  0.62250660  1
  O  O51  1  0.56674209  0.69029047  0.90257967  1
  O  O52  1  0.58649028  0.37345021  0.93045860  1
  O  O53  1  0.61585049  0.21488639  0.67189092  1
  O  O54  1  0.64012759  0.99271424  0.26775574  1
  O  O55  1  0.63559610  0.41666375  0.53297129  1
  O  O56  1  0.67777692  0.18249590  0.06157003  1
  O  O57  1  0.67146667  0.26187776  0.31323534  1
  O  O58  1  0.69690426  0.06370200  0.45336974  1
  O  O59  1  0.70814978  0.47555067  0.72006384  1
  O  O60  1  0.79185022  0.97555067  0.77993616  1
  O  O61  1  0.80309574  0.56370200  0.04663026  1
  O  O62  1  0.82853333  0.76187776  0.18676466  1
  O  O63  1  0.82222308  0.68249590  0.43842997  1
  O  O64  1  0.85987241  0.49271424  0.23224426  1
  O  O65  1  0.86440390  0.91666375  0.96702871  1
  O  O66  1  0.88414951  0.71488639  0.82810908  1
  O  O67  1  0.91350972  0.87345021  0.56954140  1
  O  O68  1  0.93325791  0.19029047  0.59742033  1
  O  O69  1  0.93295351  0.08314579  0.17543702  1
  O  O70  1  0.93761493  0.37534400  0.87749340  1
  O  O71  1  0.95745901  0.36805539  0.44024961  1
