# generated using pymatgen
data_Ti17(NO4)6
_symmetry_space_group_name_H-M   'P 1'
_cell_length_a   7.64740219
_cell_length_b   14.64258671
_cell_length_c   10.04166938
_cell_angle_alpha   90.00000000
_cell_angle_beta   90.00000000
_cell_angle_gamma   97.50692332
_symmetry_Int_Tables_number   1
_chemical_formula_structural   Ti17(NO4)6
_chemical_formula_sum   'Ti34 N12 O48'
_cell_volume   1114.80602606
_cell_formula_units_Z   2
loop_
 _symmetry_equiv_pos_site_id
 _symmetry_equiv_pos_as_xyz
  1  'x, y, z'
loop_
 _atom_site_type_symbol
 _atom_site_label
 _atom_site_symmetry_multiplicity
 _atom_site_fract_x
 _atom_site_fract_y
 _atom_site_fract_z
 _atom_site_occupancy
  Ti  Ti0  1  0.06043908  0.24358196  0.42968951  1
  Ti  Ti1  1  0.06043908  0.24358196  0.07031049  1
  Ti  Ti2  1  0.04806894  0.20196321  0.75000000  1
  Ti  Ti3  1  0.10635858  0.42566548  0.94024586  1
  Ti  Ti4  1  0.10635858  0.42566548  0.55975414  1
  Ti  Ti5  1  0.22631161  0.90494455  0.42814579  1
  Ti  Ti6  1  0.22631161  0.90494455  0.07185421  1
  Ti  Ti7  1  0.21671059  0.86642309  0.75000000  1
  Ti  Ti8  1  0.44715471  0.76009103  0.92365010  1
  Ti  Ti9  1  0.38617829  0.57324197  0.42365010  1
  Ti  Ti10  1  0.27242714  0.09260567  0.92776155  1
  Ti  Ti11  1  0.27242714  0.09260567  0.57223845  1
  Ti  Ti12  1  0.37832172  0.53617575  0.75000000  1
  Ti  Ti13  1  0.38617829  0.57324197  0.07634990  1
  Ti  Ti14  1  0.44715471  0.76009103  0.57634990  1
  Ti  Ti15  1  0.27985433  0.13022236  0.25000000  1
  Ti  Ti16  1  0.45501128  0.79715825  0.25000000  1
  Ti  Ti17  1  0.55347867  0.20311064  0.75000000  1
  Ti  Ti18  1  0.56090586  0.24072733  0.07223845  1
  Ti  Ti19  1  0.56090586  0.24072733  0.42776155  1
  Ti  Ti20  1  0.61662241  0.46690991  0.25000000  1
  Ti  Ti21  1  0.60702139  0.42838945  0.92814579  1
  Ti  Ti22  1  0.72697442  0.90766752  0.05975414  1
  Ti  Ti23  1  0.72697442  0.90766752  0.44024586  1
  Ti  Ti24  1  0.60702139  0.42838945  0.57185421  1
  Ti  Ti25  1  0.77289492  0.08975104  0.92968951  1
  Ti  Ti26  1  0.88974332  0.53618467  0.75000000  1
  Ti  Ti27  1  0.93301208  0.76009688  0.92362932  1
  Ti  Ti28  1  0.90032092  0.57323712  0.07637068  1
  Ti  Ti29  1  0.90032092  0.57323712  0.42362932  1
  Ti  Ti30  1  0.77289492  0.08975104  0.57031049  1
  Ti  Ti31  1  0.78526406  0.13136979  0.25000000  1
  Ti  Ti32  1  0.94358968  0.79714833  0.25000000  1
  Ti  Ti33  1  0.93301208  0.76009688  0.57637068  1
  N  N34  1  0.12214159  0.48877048  0.75000000  1
  N  N35  1  0.04585762  0.17745880  0.25000000  1
  N  N36  1  0.21187073  0.84729403  0.25000000  1
  N  N37  1  0.28981512  0.15337811  0.75000000  1
  N  N38  1  0.43433589  0.81158664  0.75000000  1
  N  N39  1  0.39899811  0.52174636  0.25000000  1
  N  N40  1  0.62146227  0.48603897  0.75000000  1
  N  N41  1  0.71119141  0.84456252  0.25000000  1
  N  N42  1  0.54351788  0.17995489  0.25000000  1
  N  N43  1  0.78747538  0.15587520  0.75000000  1
  N  N44  1  0.97154758  0.81161733  0.75000000  1
  N  N45  1  0.86178542  0.52171567  0.25000000  1
  O  O46  1  0.03121415  0.12409607  0.56716598  1
  O  O47  1  0.09112185  0.36274262  0.10889061  1
  O  O48  1  0.07523180  0.30032315  0.87831377  1
  O  O49  1  0.03121415  0.12409607  0.93283402  1
  O  O50  1  0.07523180  0.30032315  0.62168623  1
  O  O51  1  0.13701232  0.54831955  0.04941978  1
  O  O52  1  0.19874467  0.79479231  0.55975417  1
  O  O53  1  0.09112185  0.36274262  0.39110939  1
  O  O54  1  0.13701232  0.54831955  0.45058022  1
  O  O55  1  0.19874467  0.79479231  0.94024583  1
  O  O56  1  0.24261834  0.96890335  0.88194845  1
  O  O57  1  0.24261834  0.96890335  0.61805155  1
  O  O58  1  0.46957870  0.87483813  0.43531615  1
  O  O59  1  0.42100359  0.69873419  0.38024924  1
  O  O60  1  0.25791523  0.03167581  0.38134713  1
  O  O61  1  0.36375530  0.45849487  0.93531615  1
  O  O62  1  0.25791523  0.03167581  0.11865287  1
  O  O63  1  0.30188857  0.20690085  0.43533977  1
  O  O64  1  0.30188857  0.20690085  0.06466023  1
  O  O65  1  0.36375530  0.45849487  0.56468385  1
  O  O66  1  0.42100359  0.69873419  0.11975076  1
  O  O67  1  0.41232941  0.63459881  0.88024924  1
  O  O68  1  0.41232941  0.63459881  0.61975076  1
  O  O69  1  0.46957870  0.87483813  0.06468385  1
  O  O70  1  0.69632068  0.78501345  0.95058022  1
  O  O71  1  0.74221115  0.97059138  0.89110939  1
  O  O72  1  0.57541777  0.30165719  0.88134713  1
  O  O73  1  0.63458833  0.53854169  0.05975417  1
  O  O74  1  0.59071566  0.36443065  0.11805155  1
  O  O75  1  0.59071566  0.36443065  0.38194845  1
  O  O76  1  0.69632068  0.78501345  0.54941978  1
  O  O77  1  0.74221115  0.97059138  0.60889061  1
  O  O78  1  0.53144443  0.12643215  0.93533977  1
  O  O79  1  0.57541777  0.30165719  0.61865287  1
  O  O80  1  0.53144443  0.12643215  0.56466023  1
  O  O81  1  0.63458833  0.53854169  0.44024583  1
  O  O82  1  0.90509599  0.63459172  0.88024981  1
  O  O83  1  0.92823701  0.69874128  0.11975019  1
  O  O84  1  0.75810120  0.03300985  0.12168623  1
  O  O85  1  0.86533029  0.45841675  0.93535547  1
  O  O86  1  0.96800271  0.87491625  0.06464453  1
  O  O87  1  0.80211885  0.20923793  0.06716598  1
  O  O88  1  0.86533029  0.45841675  0.56464453  1
  O  O89  1  0.90509599  0.63459172  0.61975019  1
  O  O90  1  0.96800271  0.87491625  0.43535547  1
  O  O91  1  0.75810120  0.03300985  0.37831377  1
  O  O92  1  0.92823701  0.69874128  0.38024981  1
  O  O93  1  0.80211885  0.20923793  0.43283402  1
