# generated using pymatgen
data_V6O7F5
_symmetry_space_group_name_H-M   'P 1'
_cell_length_a   7.39209837
_cell_length_b   5.61496832
_cell_length_c   5.62935994
_cell_angle_alpha   71.80766502
_cell_angle_beta   71.90979690
_cell_angle_gamma   72.51004399
_symmetry_Int_Tables_number   1
_chemical_formula_structural   V6O7F5
_chemical_formula_sum   'V6 O7 F5'
_cell_volume   205.57015217
_cell_formula_units_Z   1
loop_
 _symmetry_equiv_pos_site_id
 _symmetry_equiv_pos_as_xyz
  1  'x, y, z'
loop_
 _atom_site_type_symbol
 _atom_site_label
 _atom_site_symmetry_multiplicity
 _atom_site_fract_x
 _atom_site_fract_y
 _atom_site_fract_z
 _atom_site_occupancy
  V  V0  1  0.83789382  0.68651369  0.67983322  1
  V  V1  1  0.67012156  0.33405744  0.33862517  1
  V  V2  1  0.31415152  0.68812819  0.61640919  1
  V  V3  1  0.15768169  0.33769037  0.32991507  1
  V  V4  1  0.51267382  0.98162152  0.98920534  1
  V  V5  1  0.00387957  0.97966650  0.03148559  1
  O  O6  1  0.66430885  0.04588936  0.63973899  1
  O  O7  1  0.96691801  0.22637776  0.23122389  1
  O  O8  1  0.04533860  0.76805638  0.76830178  1
  O  O9  1  0.36331427  0.44022356  0.43723612  1
  O  O10  1  0.66866105  0.63521061  0.03227745  1
  O  O11  1  0.33535488  0.97018968  0.35328917  1
  O  O12  1  0.99565997  0.68486806  0.31947632  1
  F  F13  1  0.33782469  0.36985041  0.95217074  1
  F  F14  1  0.62179822  0.57787142  0.57373662  1
  F  F15  1  0.30459193  0.88493658  0.89000518  1
  F  F16  1  0.70315363  0.09557448  0.10540703  1
  F  F17  1  0.99667494  0.29327200  0.71166211  1
