# generated using pymatgen
data_Mn4(P2O7)3
_symmetry_space_group_name_H-M   'P 1'
_cell_length_a   7.55320292
_cell_length_b   21.78930178
_cell_length_c   9.61009239
_cell_angle_alpha   90.00000000
_cell_angle_beta   90.96807872
_cell_angle_gamma   90.00000000
_symmetry_Int_Tables_number   1
_chemical_formula_structural   Mn4(P2O7)3
_chemical_formula_sum   'Mn16 P24 O84'
_cell_volume   1581.39381110
_cell_formula_units_Z   4
loop_
 _symmetry_equiv_pos_site_id
 _symmetry_equiv_pos_as_xyz
  1  'x, y, z'
loop_
 _atom_site_type_symbol
 _atom_site_label
 _atom_site_symmetry_multiplicity
 _atom_site_fract_x
 _atom_site_fract_y
 _atom_site_fract_z
 _atom_site_occupancy
  Mn  Mn0  1  0.04064956  0.75863990  0.71182744  1
  Mn  Mn1  1  0.04166742  0.50216561  0.26403231  1
  Mn  Mn2  1  0.06056311  0.25403177  0.77764732  1
  Mn  Mn3  1  0.05666395  0.99347464  0.24696751  1
  Mn  Mn4  1  0.44333605  0.49347464  0.25303249  1
  Mn  Mn5  1  0.43943689  0.75403177  0.72235268  1
  Mn  Mn6  1  0.45833258  0.00216561  0.23596769  1
  Mn  Mn7  1  0.45935044  0.25863990  0.78817256  1
  Mn  Mn8  1  0.54064956  0.74136010  0.21182744  1
  Mn  Mn9  1  0.54166742  0.99783439  0.76403231  1
  Mn  Mn10  1  0.56056311  0.24596823  0.27764732  1
  Mn  Mn11  1  0.55666395  0.50652536  0.74696751  1
  Mn  Mn12  1  0.94333605  0.00652536  0.75303249  1
  Mn  Mn13  1  0.93943689  0.74596823  0.22235268  1
  Mn  Mn14  1  0.95833258  0.49783439  0.73596769  1
  Mn  Mn15  1  0.95935044  0.24136010  0.28817256  1
  P  P16  1  0.23424234  0.68541391  0.99510076  1
  P  P17  1  0.23442978  0.88821265  0.83280429  1
  P  P18  1  0.24708021  0.85750170  0.15950781  1
  P  P19  1  0.24142333  0.69951262  0.44396263  1
  P  P20  1  0.25526937  0.54718258  0.96475909  1
  P  P21  1  0.25073932  0.56131079  0.52769268  1
  P  P22  1  0.24926068  0.06131079  0.97230732  1
  P  P23  1  0.24473063  0.04718258  0.53524091  1
  P  P24  1  0.25857667  0.19951262  0.05603737  1
  P  P25  1  0.25291979  0.35750170  0.34049219  1
  P  P26  1  0.26557022  0.38821265  0.66719571  1
  P  P27  1  0.26575766  0.18541391  0.50489924  1
  P  P28  1  0.73424234  0.81458609  0.49510076  1
  P  P29  1  0.73442978  0.61178735  0.33280429  1
  P  P30  1  0.74708021  0.64249830  0.65950781  1
  P  P31  1  0.74142333  0.80048738  0.94396263  1
  P  P32  1  0.75526937  0.95281742  0.46475909  1
  P  P33  1  0.75073932  0.93868921  0.02769268  1
  P  P34  1  0.74926068  0.43868921  0.47230732  1
  P  P35  1  0.74473063  0.45281742  0.03524091  1
  P  P36  1  0.75857667  0.30048738  0.55603737  1
  P  P37  1  0.75291979  0.14249830  0.84049219  1
  P  P38  1  0.76557022  0.11178735  0.16719571  1
  P  P39  1  0.76575766  0.31458609  0.00489924  1
  O  O40  1  0.06154573  0.04378224  0.59595261  1
  O  O41  1  0.06199193  0.70784789  0.37504024  1
  O  O42  1  0.07301545  0.92574297  0.79423777  1
  O  O43  1  0.08092574  0.55474993  0.60431667  1
  O  O44  1  0.07954523  0.82533103  0.20375398  1
  O  O45  1  0.07077474  0.70525068  0.07384754  1
  O  O46  1  0.07767892  0.04865146  0.89357850  1
  O  O47  1  0.08259303  0.31914932  0.32347328  1
  O  O48  1  0.08646881  0.41908471  0.68787615  1
  O  O49  1  0.09152260  0.18696925  0.42785580  1
  O  O50  1  0.09790423  0.21884225  0.13284355  1
  O  O51  1  0.11446014  0.50878195  0.89080835  1
  O  O52  1  0.18543942  0.61521466  0.95522596  1
  O  O53  1  0.22271660  0.87098781  0.99497582  1
  O  O54  1  0.22844495  0.82642477  0.75008699  1
  O  O55  1  0.23202261  0.12957577  0.02383903  1
  O  O56  1  0.23524138  0.41924095  0.26252245  1
  O  O57  1  0.24694754  0.71687912  0.85093079  1
  O  O58  1  0.24137728  0.73331487  0.58677074  1
  O  O59  1  0.24081424  0.02894126  0.37748343  1
  O  O60  1  0.25513407  0.02238971  0.10893888  1
  O  O61  1  0.24486593  0.52238971  0.39106112  1
  O  O62  1  0.25918576  0.52894126  0.12251657  1
  O  O63  1  0.25862272  0.23331487  0.91322926  1
  O  O64  1  0.25305246  0.21687912  0.64906921  1
  O  O65  1  0.26475862  0.91924095  0.23747755  1
  O  O66  1  0.26797739  0.62957577  0.47616097  1
  O  O67  1  0.27155505  0.32642477  0.74991301  1
  O  O68  1  0.27728340  0.37098781  0.50502418  1
  O  O69  1  0.31456058  0.11521466  0.54477404  1
  O  O70  1  0.38553986  0.00878195  0.60919165  1
  O  O71  1  0.40209577  0.71884225  0.36715645  1
  O  O72  1  0.40847740  0.68696925  0.07214420  1
  O  O73  1  0.41353119  0.91908471  0.81212385  1
  O  O74  1  0.41740697  0.81914932  0.17652672  1
  O  O75  1  0.42232108  0.54865146  0.60642150  1
  O  O76  1  0.42922526  0.20525068  0.42615246  1
  O  O77  1  0.42045477  0.32533103  0.29624602  1
  O  O78  1  0.41907426  0.05474993  0.89568333  1
  O  O79  1  0.42698455  0.42574297  0.70576223  1
  O  O80  1  0.43800807  0.20784789  0.12495976  1
  O  O81  1  0.43845427  0.54378224  0.90404739  1
  O  O82  1  0.56154573  0.45621776  0.09595261  1
  O  O83  1  0.56199193  0.79215211  0.87504024  1
  O  O84  1  0.57301545  0.57425703  0.29423777  1
  O  O85  1  0.58092574  0.94525007  0.10431667  1
  O  O86  1  0.57954523  0.67466897  0.70375398  1
  O  O87  1  0.57077474  0.79474932  0.57384754  1
  O  O88  1  0.57767892  0.45134854  0.39357850  1
  O  O89  1  0.58259303  0.18085068  0.82347328  1
  O  O90  1  0.58646881  0.08091529  0.18787615  1
  O  O91  1  0.59152260  0.31303075  0.92785580  1
  O  O92  1  0.59790423  0.28115775  0.63284355  1
  O  O93  1  0.61446014  0.99121805  0.39080835  1
  O  O94  1  0.68543942  0.88478534  0.45522596  1
  O  O95  1  0.72271660  0.62901219  0.49497582  1
  O  O96  1  0.72844495  0.67357523  0.25008699  1
  O  O97  1  0.73202261  0.37042423  0.52383903  1
  O  O98  1  0.73524138  0.08075905  0.76252245  1
  O  O99  1  0.74694754  0.78312088  0.35093079  1
  O  O100  1  0.74137728  0.76668513  0.08677074  1
  O  O101  1  0.74081424  0.47105874  0.87748343  1
  O  O102  1  0.75513407  0.47761029  0.60893888  1
  O  O103  1  0.74486593  0.97761029  0.89106112  1
  O  O104  1  0.75918576  0.97105874  0.62251657  1
  O  O105  1  0.75862272  0.26668513  0.41322926  1
  O  O106  1  0.75305246  0.28312088  0.14906921  1
  O  O107  1  0.76475862  0.58075905  0.73747755  1
  O  O108  1  0.76797739  0.87042423  0.97616097  1
  O  O109  1  0.77155505  0.17357523  0.24991301  1
  O  O110  1  0.77728340  0.12901219  0.00502418  1
  O  O111  1  0.81456058  0.38478534  0.04477404  1
  O  O112  1  0.88553986  0.49121805  0.10919165  1
  O  O113  1  0.90209577  0.78115775  0.86715645  1
  O  O114  1  0.90847740  0.81303075  0.57214420  1
  O  O115  1  0.91353119  0.58091529  0.31212385  1
  O  O116  1  0.91740697  0.68085068  0.67652672  1
  O  O117  1  0.92232108  0.95134854  0.10642150  1
  O  O118  1  0.92922526  0.29474932  0.92615246  1
  O  O119  1  0.92045477  0.17466897  0.79624602  1
  O  O120  1  0.91907426  0.44525007  0.39568333  1
  O  O121  1  0.92698455  0.07425703  0.20576223  1
  O  O122  1  0.93800807  0.29215211  0.62495976  1
  O  O123  1  0.93845427  0.95621776  0.40404739  1
