# generated using pymatgen
data_Ti17(NO4)6
_symmetry_space_group_name_H-M   'P 1'
_cell_length_a   10.39994760
_cell_length_b   10.71063743
_cell_length_c   11.30108899
_cell_angle_alpha   92.37038582
_cell_angle_beta   62.59380392
_cell_angle_gamma   95.25774160
_symmetry_Int_Tables_number   1
_chemical_formula_structural   Ti17(NO4)6
_chemical_formula_sum   'Ti34 N12 O48'
_cell_volume   1112.84267342
_cell_formula_units_Z   2
loop_
 _symmetry_equiv_pos_site_id
 _symmetry_equiv_pos_as_xyz
  1  'x, y, z'
loop_
 _atom_site_type_symbol
 _atom_site_label
 _atom_site_symmetry_multiplicity
 _atom_site_fract_x
 _atom_site_fract_y
 _atom_site_fract_z
 _atom_site_occupancy
  Ti  Ti0  1  0.16498027  0.12289246  0.07797103  1
  Ti  Ti1  1  0.00559798  0.21266481  0.92658297  1
  Ti  Ti2  1  0.66347944  0.12150923  0.07003679  1
  Ti  Ti3  1  0.19183490  0.21270431  0.55494783  1
  Ti  Ti4  1  0.37198955  0.10053686  0.75029019  1
  Ti  Ti5  1  0.48298577  0.12133271  0.42913641  1
  Ti  Ti6  1  0.32875932  0.44738254  0.07640610  1
  Ti  Ti7  1  0.15417407  0.44882624  0.42263476  1
  Ti  Ti8  1  0.49746426  0.21145812  0.94487154  1
  Ti  Ti9  1  0.68187900  0.21113025  0.57358016  1
  Ti  Ti10  1  0.99312386  0.12350575  0.42331366  1
  Ti  Ti11  1  0.87555692  0.10362428  0.74952805  1
  Ti  Ti12  1  0.03828309  0.43432035  0.74905918  1
  Ti  Ti13  1  0.79432293  0.23126296  0.25018278  1
  Ti  Ti14  1  0.53823913  0.43069038  0.75065284  1
  Ti  Ti15  1  0.34727815  0.54766666  0.57190220  1
  Ti  Ti16  1  0.65272185  0.45233334  0.42809780  1
  Ti  Ti17  1  0.46176087  0.56930962  0.24934716  1
  Ti  Ti18  1  0.17126514  0.54679951  0.92804966  1
  Ti  Ti19  1  0.82873486  0.45320049  0.07195034  1
  Ti  Ti20  1  0.31812100  0.78886975  0.42641984  1
  Ti  Ti21  1  0.20567707  0.76873704  0.74981722  1
  Ti  Ti22  1  0.12444308  0.89637572  0.25047195  1
  Ti  Ti23  1  0.00687614  0.87649425  0.57668634  1
  Ti  Ti24  1  0.67124068  0.55261746  0.92359390  1
  Ti  Ti25  1  0.84582593  0.55117376  0.57736524  1
  Ti  Ti26  1  0.50253574  0.78854188  0.05512846  1
  Ti  Ti27  1  0.96171691  0.56567965  0.25094082  1
  Ti  Ti28  1  0.51701423  0.87866729  0.57086359  1
  Ti  Ti29  1  0.33652056  0.87849077  0.92996321  1
  Ti  Ti30  1  0.80816510  0.78729569  0.44505217  1
  Ti  Ti31  1  0.62801045  0.89946314  0.24970981  1
  Ti  Ti32  1  0.99440202  0.78733519  0.07341703  1
  Ti  Ti33  1  0.83501973  0.87710754  0.92202897  1
  N  N34  1  0.13534680  0.08043508  0.25069162  1
  N  N35  1  0.01778407  0.24392721  0.74977779  1
  N  N36  1  0.65281555  0.08804047  0.24962373  1
  N  N37  1  0.51757138  0.24292767  0.75007626  1
  N  N38  1  0.31528313  0.44073263  0.24956783  1
  N  N39  1  0.18173083  0.57619507  0.74990222  1
  N  N40  1  0.81826917  0.42380493  0.25009778  1
  N  N41  1  0.48242862  0.75707233  0.24992374  1
  N  N42  1  0.68471687  0.55926737  0.75043217  1
  N  N43  1  0.34718445  0.91195953  0.75037627  1
  N  N44  1  0.98221593  0.75607279  0.25022221  1
  N  N45  1  0.86465320  0.91956492  0.74930838  1
  O  O46  1  0.06194400  0.06470907  0.56086715  1
  O  O47  1  0.35229317  0.18123912  0.38984807  1
  O  O48  1  0.08904675  0.27536107  0.44948515  1
  O  O49  1  0.31311539  0.15003193  0.62217816  1
  O  O50  1  0.37362977  0.06371895  0.93800771  1
  O  O51  1  0.18163614  0.14866962  0.88020090  1
  O  O52  1  0.28765074  0.27431317  0.05083833  1
  O  O53  1  0.56153645  0.06290033  0.56641183  1
  O  O54  1  0.49265379  0.18134354  0.10994387  1
  O  O55  1  0.01884611  0.51281080  0.37968205  1
  O  O56  1  0.15009507  0.51539423  0.11767868  1
  O  O57  1  0.04257084  0.39561853  0.93512557  1
  O  O58  1  0.68535814  0.15040654  0.87777632  1
  O  O59  1  0.60493292  0.27054913  0.43546645  1
  O  O60  1  0.79124570  0.27141609  0.06404607  1
  O  O61  1  0.98398316  0.18349941  0.11863808  1
  O  O62  1  0.22806172  0.39577355  0.56268196  1
  O  O63  1  0.87724169  0.06413205  0.93503443  1
  O  O64  1  0.81217589  0.14891400  0.61948908  1
  O  O65  1  0.85264041  0.18378457  0.38155285  1
  O  O66  1  0.72597425  0.39499783  0.56290493  1
  O  O67  1  0.27402575  0.60500217  0.43709507  1
  O  O68  1  0.48018383  0.48400966  0.61826454  1
  O  O69  1  0.53763845  0.39539288  0.93882282  1
  O  O70  1  0.51981617  0.51599034  0.38173546  1
  O  O71  1  0.35009688  0.48692801  0.87917339  1
  O  O72  1  0.64990312  0.51307199  0.12082661  1
  O  O73  1  0.46236155  0.60460712  0.06117718  1
  O  O74  1  0.01601684  0.81650059  0.88136192  1
  O  O75  1  0.12275831  0.93586795  0.06496557  1
  O  O76  1  0.20875430  0.72858391  0.93595393  1
  O  O77  1  0.31464186  0.84959346  0.12222368  1
  O  O78  1  0.14735959  0.81621543  0.61844715  1
  O  O79  1  0.39506708  0.72945087  0.56453355  1
  O  O80  1  0.98115389  0.48718920  0.62031795  1
  O  O81  1  0.84990493  0.48460577  0.88232132  1
  O  O82  1  0.77193828  0.60422645  0.43731804  1
  O  O83  1  0.18782411  0.85108600  0.38051092  1
  O  O84  1  0.95742916  0.60438147  0.06487443  1
  O  O85  1  0.62637023  0.93628105  0.06199229  1
  O  O86  1  0.43846355  0.93709967  0.43358817  1
  O  O87  1  0.50734621  0.81865646  0.89005613  1
  O  O88  1  0.71234926  0.72568683  0.94916167  1
  O  O89  1  0.64770683  0.81876088  0.61015193  1
  O  O90  1  0.68688461  0.84996807  0.37782184  1
  O  O91  1  0.91095325  0.72463893  0.55051485  1
  O  O92  1  0.81836386  0.85133038  0.11979910  1
  O  O93  1  0.93805600  0.93529093  0.43913285  1
