# generated using pymatgen
data_Ti17(NO4)6
_symmetry_space_group_name_H-M   'P 1'
_cell_length_a   15.00101368
_cell_length_b   7.50097561
_cell_length_c   10.73911837
_cell_angle_alpha   74.20179084
_cell_angle_beta   74.21440631
_cell_angle_gamma   80.26803833
_symmetry_Int_Tables_number   1
_chemical_formula_structural   Ti17(NO4)6
_chemical_formula_sum   'Ti34 N12 O48'
_cell_volume   1112.99158124
_cell_formula_units_Z   2
loop_
 _symmetry_equiv_pos_site_id
 _symmetry_equiv_pos_as_xyz
  1  'x, y, z'
loop_
 _atom_site_type_symbol
 _atom_site_label
 _atom_site_symmetry_multiplicity
 _atom_site_fract_x
 _atom_site_fract_y
 _atom_site_fract_z
 _atom_site_occupancy
  Ti  Ti0  1  0.99875057  0.71800081  0.92566610  1
  Ti  Ti1  1  0.97281299  0.54917347  0.25013967  1
  Ti  Ti2  1  0.82913898  0.38843470  0.93031899  1
  Ti  Ti3  1  0.88945644  0.50739415  0.56910393  1
  Ti  Ti4  1  0.77423833  0.82389483  0.44290886  1
  Ti  Ti5  1  0.83458343  0.94866619  0.07433390  1
  Ti  Ti6  1  0.94387756  0.15927285  0.43089607  1
  Ti  Ti7  1  0.86052001  0.11749353  0.74986033  1
  Ti  Ti8  1  0.64027396  0.88627181  0.24948183  1
  Ti  Ti9  1  0.56114300  0.83539978  0.57744892  1
  Ti  Ti10  1  0.50231602  0.72255652  0.92252775  1
  Ti  Ti11  1  0.72262686  0.16214565  0.57775025  1
  Ti  Ti12  1  0.80599818  0.21858332  0.25051940  1
  Ti  Ti13  1  0.60939348  0.49761377  0.42602826  1
  Ti  Ti14  1  0.52549299  0.44630469  0.74960595  1
  Ti  Ti15  1  0.66587538  0.04565491  0.92211158  1
  Ti  Ti16  1  0.67091002  0.61963205  0.05753026  1
  Ti  Ti17  1  0.39019247  0.50630025  0.57089460  1
  Ti  Ti18  1  0.19306004  0.78039419  0.75051817  1
  Ti  Ti19  1  0.47450287  0.55580861  0.24877743  1
  Ti  Ti20  1  0.33060699  0.38516336  0.92956975  1
  Ti  Ti21  1  0.27219100  0.83126622  0.42255108  1
  Ti  Ti22  1  0.33101698  0.94410948  0.07747225  1
  Ti  Ti23  1  0.44314053  0.16036575  0.42910540  1
  Ti  Ti24  1  0.35883013  0.11085839  0.75122257  1
  Ti  Ti25  1  0.05909467  0.84277217  0.55709114  1
  Ti  Ti26  1  0.50272601  0.28150264  0.07043025  1
  Ti  Ti27  1  0.30784001  0.22036131  0.25039405  1
  Ti  Ti28  1  0.11070614  0.50452035  0.42224975  1
  Ti  Ti29  1  0.02733482  0.44808368  0.74948060  1
  Ti  Ti30  1  0.16745862  0.62101209  0.07788842  1
  Ti  Ti31  1  0.16242398  0.04703495  0.94246974  1
  Ti  Ti32  1  0.22393952  0.16905223  0.57397174  1
  Ti  Ti33  1  0.00419502  0.27823130  0.06968101  1
  N  N34  1  0.90780655  0.35305342  0.74962555  1
  N  N35  1  0.75898452  0.98123878  0.25053766  1
  N  N36  1  0.56302652  0.68363748  0.74986496  1
  N  N37  1  0.92552745  0.31361358  0.25037445  1
  N  N38  1  0.74136749  0.04009396  0.75038754  1
  N  N39  1  0.59278145  0.64895002  0.24926899  1
  N  N40  1  0.40579751  0.35399388  0.75021633  1
  N  N41  1  0.27030648  0.98302852  0.25013504  1
  N  N42  1  0.42753549  0.31267312  0.24978367  1
  N  N43  1  0.07434848  0.68542822  0.74946234  1
  N  N44  1  0.24055155  0.01771598  0.75073101  1
  N  N45  1  0.09196551  0.62657304  0.24961246  1
  O  O46  1  0.91294231  0.92110114  0.88197005  1
  O  O47  1  0.00090802  0.62282823  0.56281311  1
  O  O48  1  0.93771373  0.50256201  0.93194196  1
  O  O49  1  0.59701952  0.83935702  0.94978705  1
  O  O50  1  0.87788965  0.65926708  0.37748231  1
  O  O51  1  0.79319638  0.67467681  0.60913314  1
  O  O52  1  0.74588439  0.58000500  0.89066578  1
  O  O53  1  0.66333367  0.97299804  0.55065732  1
  O  O54  1  0.92039069  0.74556586  0.11802995  1
  O  O55  1  0.83342160  0.29053777  0.56588629  1
  O  O56  1  0.95544335  0.00739892  0.62251769  1
  O  O57  1  0.54214986  0.99041076  0.37954760  1
  O  O58  1  0.41429304  0.92427438  0.87954245  1
  O  O59  1  0.77296507  0.16454177  0.93715246  1
  O  O60  1  0.66627089  0.70986376  0.43731472  1
  O  O61  1  0.72881210  0.83418980  0.06291817  1
  O  O62  1  0.89561927  0.16410399  0.06805804  1
  O  O63  1  0.71118865  0.32884096  0.38028193  1
  O  O64  1  0.57856348  0.25317158  0.88195959  1
  O  O65  1  0.50046028  0.62160855  0.56265571  1
  O  O66  1  0.83242498  0.04383877  0.43718689  1
  O  O67  1  0.75392338  0.40989161  0.12224454  1
  O  O68  1  0.43822179  0.49785863  0.93643690  1
  O  O69  1  0.62220504  0.34119921  0.61878791  1
  O  O70  1  0.16706311  0.95680324  0.56268528  1
  O  O71  1  0.10452190  0.83247720  0.93708183  1
  O  O72  1  0.50039256  0.37514883  0.43444091  1
  O  O73  1  0.41904096  0.74239262  0.12045755  1
  O  O74  1  0.29118314  0.67625624  0.62045240  1
  O  O75  1  0.24521043  0.58462560  0.87959120  1
  O  O76  1  0.56204761  0.50035923  0.06263808  1
  O  O77  1  0.37719778  0.65717583  0.38216406  1
  O  O78  1  0.33294044  0.29151817  0.56555909  1
  O  O79  1  0.45613622  0.00949117  0.61783594  1
  O  O80  1  0.27128639  0.16630677  0.93736192  1
  O  O81  1  0.17000033  0.69366796  0.44934268  1
  O  O82  1  0.23631448  0.82730998  0.05021295  1
  O  O83  1  0.04013762  0.99198919  0.39086686  1
  O  O84  1  0.58812257  0.08204140  0.12040880  1
  O  O85  1  0.33287372  0.04505745  0.43734429  1
  O  O86  1  0.25476952  0.41349542  0.11804041  1
  O  O87  1  0.07941062  0.25677439  0.87775546  1
  O  O88  1  0.12214435  0.33782604  0.61971807  1
  O  O89  1  0.39511121  0.16880837  0.06356310  1
  O  O90  1  0.21112796  0.32546779  0.38121209  1
  O  O91  1  0.99991240  0.37612823  0.43411371  1
  O  O92  1  0.06036893  0.50212523  0.06284754  1
  O  O93  1  0.08744961  0.08666200  0.10933422  1
