# generated using pymatgen
data_YZr4O9
_symmetry_space_group_name_H-M   'P 1'
_cell_length_a   6.63437721
_cell_length_b   5.25440534
_cell_length_c   6.40285851
_cell_angle_alpha   117.01163483
_cell_angle_beta   76.94377017
_cell_angle_gamma   116.58325653
_symmetry_Int_Tables_number   1
_chemical_formula_structural   YZr4O9
_chemical_formula_sum   'Y1 Zr4 O9'
_cell_volume   177.75986916
_cell_formula_units_Z   1
loop_
 _symmetry_equiv_pos_site_id
 _symmetry_equiv_pos_as_xyz
  1  'x, y, z'
loop_
 _atom_site_type_symbol
 _atom_site_label
 _atom_site_symmetry_multiplicity
 _atom_site_fract_x
 _atom_site_fract_y
 _atom_site_fract_z
 _atom_site_occupancy
  Y  Y0  1  0.20925200  0.76392660  0.36728875  1
  Zr  Zr1  1  0.42136553  0.65276768  0.79902644  1
  Zr  Zr2  1  0.00395469  0.97375174  0.02751326  1
  Zr  Zr3  1  0.76043098  0.20780017  0.61238520  1
  Zr  Zr4  1  0.63839778  0.40288145  0.21641029  1
  O  O5  1  0.09007799  0.63691693  0.71212245  1
  O  O6  1  0.49918704  0.72225453  0.46426562  1
  O  O7  1  0.32783432  0.01670315  0.10619241  1
  O  O8  1  0.68637406  0.56520800  0.94969385  1
  O  O9  1  0.74842673  0.04189508  0.86654484  1
  O  O10  1  0.21689318  0.39461455  0.99471395  1
  O  O11  1  0.48908503  0.26337577  0.53280452  1
  O  O12  1  0.87759819  0.31929605  0.30523809  1
  O  O13  1  0.93112347  0.88860727  0.34579933  1
