# generated using pymatgen
data_LiV4OF11
_symmetry_space_group_name_H-M   'P 1'
_cell_length_a   5.28945615
_cell_length_b   5.50490850
_cell_length_c   17.42086521
_cell_angle_alpha   92.35822554
_cell_angle_beta   98.81557208
_cell_angle_gamma   61.19201540
_symmetry_Int_Tables_number   1
_chemical_formula_structural   LiV4OF11
_chemical_formula_sum   'Li2 V8 O2 F22'
_cell_volume   438.91737013
_cell_formula_units_Z   2
loop_
 _symmetry_equiv_pos_site_id
 _symmetry_equiv_pos_as_xyz
  1  'x, y, z'
loop_
 _atom_site_type_symbol
 _atom_site_label
 _atom_site_symmetry_multiplicity
 _atom_site_fract_x
 _atom_site_fract_y
 _atom_site_fract_z
 _atom_site_occupancy
  Li  Li0  1  0.04812457  0.53758862  0.67973246  1
  Li  Li1  1  0.65791212  0.58549393  0.94603341  1
  V  V2  1  0.24638596  0.38635438  0.87703751  1
  V  V3  1  0.02286219  0.96712067  0.99573131  1
  V  V4  1  0.49957097  0.24809475  0.25003700  1
  V  V5  1  0.24759505  0.87745229  0.37502943  1
  V  V6  1  0.50771635  0.73795031  0.74793764  1
  V  V7  1  0.74677779  0.15634122  0.62912828  1
  V  V8  1  0.74935078  0.61790184  0.12561606  1
  V  V9  1  0.99256654  0.50698704  0.49936665  1
  O  O10  1  0.24619518  0.68014550  0.93591320  1
  O  O11  1  0.73848315  0.44572579  0.68867366  1
  F  F12  1  0.18107376  0.21329008  0.96370810  1
  F  F13  1  0.28089526  0.06243119  0.81260968  1
  F  F14  1  0.22869489  0.18760214  0.43832100  1
  F  F15  1  0.32313192  0.03412161  0.28732985  1
  F  F16  1  0.29250736  0.52815463  0.77716593  1
  F  F17  1  0.29535977  0.35666921  0.59466115  1
  F  F18  1  0.18108902  0.91311771  0.66124882  1
  F  F19  1  0.17303344  0.41217719  0.16196561  1
  F  F20  1  0.17241428  0.71606437  0.46232373  1
  F  F21  1  0.68887680  0.17954171  0.91221461  1
  F  F22  1  0.27353885  0.56106226  0.31229077  1
  F  F23  1  0.32610876  0.83007174  0.09137381  1
  F  F24  1  0.81389155  0.29450128  0.53398505  1
  F  F25  1  0.82095883  0.08954723  0.33802241  1
  F  F26  1  0.79499046  0.59522956  0.84801966  1
  F  F27  1  0.68005694  0.45895080  0.21466721  1
  F  F28  1  0.67433700  0.66658982  0.41086133  1
  F  F29  1  0.70654499  0.94557927  0.71233983  1
  F  F30  1  0.78345992  0.81097105  0.56712367  1
  F  F31  1  0.77889557  0.31369936  0.05787493  1
  F  F32  1  0.72724791  0.93837382  0.18708586  1
  F  F33  1  0.80507107  0.76911262  0.02970740  1
