# generated using pymatgen
data_Ti17(NO4)6
_symmetry_space_group_name_H-M   'P 1'
_cell_length_a   11.47860746
_cell_length_b   9.66617628
_cell_length_c   11.29218595
_cell_angle_alpha   115.27496200
_cell_angle_beta   80.25780029
_cell_angle_gamma   89.99377032
_symmetry_Int_Tables_number   1
_chemical_formula_structural   Ti17(NO4)6
_chemical_formula_sum   'Ti34 N12 O48'
_cell_volume   1112.94857398
_cell_formula_units_Z   2
loop_
 _symmetry_equiv_pos_site_id
 _symmetry_equiv_pos_as_xyz
  1  'x, y, z'
loop_
 _atom_site_type_symbol
 _atom_site_label
 _atom_site_symmetry_multiplicity
 _atom_site_fract_x
 _atom_site_fract_y
 _atom_site_fract_z
 _atom_site_occupancy
  Ti  Ti0  1  0.09198287  0.06964456  0.42308444  1
  Ti  Ti1  1  0.03961629  0.17663919  0.74944523  1
  Ti  Ti2  1  0.07161864  0.42599467  0.57477858  1
  Ti  Ti3  1  0.01034364  0.60825012  0.94251375  1
  Ti  Ti4  1  0.14959931  0.89770334  0.07690194  1
  Ti  Ti5  1  0.12512667  0.32066278  0.24970789  1
  Ti  Ti6  1  0.18373469  0.10229666  0.92309806  1
  Ti  Ti7  1  0.20820633  0.67933722  0.75029211  1
  Ti  Ti8  1  0.26171536  0.57400533  0.42522142  1
  Ti  Ti9  1  0.24135013  0.93035544  0.57691556  1
  Ti  Ti10  1  0.32298936  0.39174988  0.05748625  1
  Ti  Ti11  1  0.29371771  0.82336081  0.25055477  1
  Ti  Ti12  1  0.45624076  0.32345811  0.25050633  1
  Ti  Ti13  1  0.40453576  0.42406473  0.57105722  1
  Ti  Ti14  1  0.48751069  0.89956616  0.07176888  1
  Ti  Ti15  1  0.34491280  0.60194348  0.92994252  1
  Ti  Ti16  1  0.42523664  0.08786258  0.44691938  1
  Ti  Ti17  1  0.59582416  0.57461763  0.42708845  1
  Ti  Ti18  1  0.56592741  0.93060235  0.57626661  1
  Ti  Ti19  1  0.54013497  0.67775218  0.74952923  1
  Ti  Ti20  1  0.65525851  0.39512082  0.07207503  1
  Ti  Ti21  1  0.62217251  0.82290288  0.25050680  1
  Ti  Ti22  1  0.50755118  0.10447613  0.92302541  1
  Ti  Ti23  1  0.71116049  0.17709712  0.74949320  1
  Ti  Ti24  1  0.76740659  0.06939765  0.42373339  1
  Ti  Ti25  1  0.73750884  0.42538237  0.57291155  1
  Ti  Ti26  1  0.79319803  0.32224782  0.25047077  1
  Ti  Ti27  1  0.67807449  0.60487918  0.92792497  1
  Ti  Ti28  1  0.82578182  0.89552387  0.07697459  1
  Ti  Ti29  1  0.84582331  0.10043384  0.92823112  1
  Ti  Ti30  1  0.92879824  0.57593527  0.42894278  1
  Ti  Ti31  1  0.90809636  0.91213742  0.55308062  1
  Ti  Ti32  1  0.87709224  0.67654189  0.74949367  1
  Ti  Ti33  1  0.98842020  0.39805652  0.07005748  1
  N  N34  1  0.04232618  0.60655628  0.75089355  1
  N  N35  1  0.13844277  0.90465644  0.25051300  1
  N  N36  1  0.29100682  0.39344372  0.24910645  1
  N  N37  1  0.19489023  0.09534356  0.74948700  1
  N  N38  1  0.37421386  0.60792993  0.74991986  1
  N  N39  1  0.45911015  0.89756933  0.24940016  1
  N  N40  1  0.55620668  0.09507954  0.74944626  1
  N  N41  1  0.62482853  0.39430055  0.24975569  1
  N  N42  1  0.70850447  0.60569945  0.75024431  1
  N  N43  1  0.77712732  0.90492046  0.25055374  1
  N  N44  1  0.95911914  0.39207007  0.25008014  1
  N  N45  1  0.87422385  0.10243067  0.75059984  1
  O  O46  1  0.14330332  0.10757579  0.11944932  1
  O  O47  1  0.07128213  0.97073166  0.56162073  1
  O  O48  1  0.09405560  0.52969039  0.43642474  1
  O  O49  1  0.06599246  0.26224592  0.61915133  1
  O  O50  1  0.10290149  0.23878796  0.38130553  1
  O  O51  1  0.15671876  0.34125013  0.06155705  1
  O  O52  1  0.02010247  0.38949467  0.87725222  1
  O  O53  1  0.00891242  0.15364876  0.93373856  1
  O  O54  1  0.23927840  0.47030961  0.56357526  1
  O  O55  1  0.19002968  0.89242421  0.88055068  1
  O  O56  1  0.31323153  0.61050533  0.12274778  1
  O  O57  1  0.17661424  0.65874987  0.93844295  1
  O  O58  1  0.26205087  0.02926834  0.43837927  1
  O  O59  1  0.23043151  0.76121204  0.61869447  1
  O  O60  1  0.32442058  0.84635124  0.06626144  1
  O  O61  1  0.26734054  0.73775408  0.38084867  1
  O  O62  1  0.42724816  0.53223917  0.43363774  1
  O  O63  1  0.48941058  0.34203227  0.06141856  1
  O  O64  1  0.40829753  0.95157962  0.55120188  1
  O  O65  1  0.39851539  0.26235743  0.61060050  1
  O  O66  1  0.48311001  0.10791953  0.11890277  1
  O  O67  1  0.34211648  0.15022121  0.94831255  1
  O  O68  1  0.35132819  0.40239073  0.89085807  1
  O  O69  1  0.43630591  0.23806367  0.37758917  1
  O  O70  1  0.56265576  0.76105749  0.61851384  1
  O  O71  1  0.60625174  0.73660136  0.37982820  1
  O  O72  1  0.51927838  0.89250652  0.88141336  1
  O  O73  1  0.57253712  0.46975252  0.56304346  1
  O  O74  1  0.59183625  0.02858729  0.43812815  1
  O  O75  1  0.64623278  0.60652611  0.11858211  1
  O  O76  1  0.65427905  0.84112010  0.06343716  1
  O  O77  1  0.51070367  0.65564368  0.93529083  1
  O  O78  1  0.82262933  0.34435632  0.06470917  1
  O  O79  1  0.68710022  0.39347389  0.88141789  1
  O  O80  1  0.67905495  0.15887990  0.93656284  1
  O  O81  1  0.72708126  0.26339864  0.62017180  1
  O  O82  1  0.77067724  0.23894251  0.38148616  1
  O  O83  1  0.74149675  0.97141271  0.56187185  1
  O  O84  1  0.81405462  0.10749348  0.11858664  1
  O  O85  1  0.76079588  0.53024748  0.43695654  1
  O  O86  1  0.85022399  0.89208047  0.88109723  1
  O  O87  1  0.99121652  0.84977879  0.05168745  1
  O  O88  1  0.90608484  0.46776083  0.56636226  1
  O  O89  1  0.84392242  0.65796773  0.93858144  1
  O  O90  1  0.89702709  0.76193633  0.62241083  1
  O  O91  1  0.93481861  0.73764257  0.38939950  1
  O  O92  1  0.98200581  0.59760927  0.10914193  1
  O  O93  1  0.92503647  0.04842038  0.44879812  1
