# generated using pymatgen
data_Ti17(NO4)6
_symmetry_space_group_name_H-M   'P 1'
_cell_length_a   7.50209543
_cell_length_b   7.50209543
_cell_length_c   20.06791852
_cell_angle_alpha   90.00000000
_cell_angle_beta   90.00000000
_cell_angle_gamma   80.34062269
_symmetry_Int_Tables_number   1
_chemical_formula_structural   Ti17(NO4)6
_chemical_formula_sum   'Ti34 N12 O48'
_cell_volume   1113.43867755
_cell_formula_units_Z   2
loop_
 _symmetry_equiv_pos_site_id
 _symmetry_equiv_pos_as_xyz
  1  'x, y, z'
loop_
 _atom_site_type_symbol
 _atom_site_label
 _atom_site_symmetry_multiplicity
 _atom_site_fract_x
 _atom_site_fract_y
 _atom_site_fract_z
 _atom_site_occupancy
  Ti  Ti0  1  0.97270514  0.69408220  0.77851305  1
  Ti  Ti1  1  0.69555190  0.97879184  0.21140985  1
  Ti  Ti2  1  0.69555190  0.97879184  0.03859015  1
  Ti  Ti3  1  0.97244749  0.69480316  0.28721577  1
  Ti  Ti4  1  0.97270514  0.69408220  0.47148695  1
  Ti  Ti5  1  0.97244749  0.69480316  0.96278423  1
  Ti  Ti6  1  0.69881482  0.96829095  0.71625703  1
  Ti  Ti7  1  0.69881482  0.96829095  0.53374297  1
  Ti  Ti8  1  0.36087058  0.96775910  0.12500000  1
  Ti  Ti9  1  0.36557390  0.97246342  0.62500000  1
  Ti  Ti10  1  0.97074788  0.36258612  0.87500000  1
  Ti  Ti11  1  0.97074788  0.36258612  0.37500000  1
  Ti  Ti12  1  0.36504205  0.63451918  0.03374297  1
  Ti  Ti13  1  0.69410384  0.30130713  0.62500000  1
  Ti  Ti14  1  0.63852984  0.36088551  0.78721577  1
  Ti  Ti15  1  0.63925180  0.36062786  0.97148695  1
  Ti  Ti16  1  0.63852984  0.36088551  0.46278423  1
  Ti  Ti17  1  0.35454216  0.63778110  0.53859015  1
  Ti  Ti18  1  0.35454216  0.63778110  0.71140985  1
  Ti  Ti19  1  0.36504205  0.63451918  0.21625703  1
  Ti  Ti20  1  0.63925180  0.36062786  0.27851305  1
  Ti  Ti21  1  0.30112101  0.69623425  0.87448754  1
  Ti  Ti22  1  0.30112101  0.69623425  0.37551246  1
  Ti  Ti23  1  0.63709875  0.03221199  0.37448754  1
  Ti  Ti24  1  0.63709875  0.03221199  0.87551246  1
  Ti  Ti25  1  0.03202687  0.63922916  0.12500000  1
  Ti  Ti26  1  0.30574635  0.02765223  0.46392989  1
  Ti  Ti27  1  0.30568177  0.02758665  0.96392989  1
  Ti  Ti28  1  0.02779370  0.31257845  0.71151277  1
  Ti  Ti29  1  0.30574635  0.02765223  0.78607011  1
  Ti  Ti30  1  0.02779370  0.31257845  0.53848723  1
  Ti  Ti31  1  0.30568177  0.02758665  0.28607011  1
  Ti  Ti32  1  0.02075455  0.30553930  0.03848723  1
  Ti  Ti33  1  0.02075455  0.30553930  0.21151277  1
  N  N34  1  0.39719365  0.93613935  0.87500000  1
  N  N35  1  0.39719365  0.93613935  0.37500000  1
  N  N36  1  0.93313502  0.37420941  0.62500000  1
  N  N37  1  0.95912359  0.40019898  0.12500000  1
  N  N38  1  0.73148033  0.27161912  0.87548285  1
  N  N39  1  0.29262903  0.73368283  0.62500000  1
  N  N40  1  0.73148033  0.27161912  0.37451715  1
  N  N41  1  0.27042010  0.72964503  0.12500000  1
  N  N42  1  0.60368897  0.06291390  0.62500000  1
  N  N43  1  0.06171388  0.60185267  0.37548285  1
  N  N44  1  0.59965017  0.04070497  0.12500000  1
  N  N45  1  0.06171388  0.60185267  0.87451715  1
  O  O46  1  0.87626983  0.78942089  0.55461708  1
  O  O47  1  0.88137986  0.78638677  0.19070086  1
  O  O48  1  0.78219809  0.87839417  0.30981250  1
  O  O49  1  0.78390462  0.88391585  0.81100028  1
  O  O50  1  0.78219809  0.87839417  0.94018750  1
  O  O51  1  0.78390462  0.88391585  0.43899972  1
  O  O52  1  0.87626983  0.78942089  0.69538292  1
  O  O53  1  0.88137986  0.78638677  0.05929914  1
  O  O54  1  0.47628348  0.85975389  0.71879632  1
  O  O55  1  0.47628348  0.85975389  0.53120368  1
  O  O56  1  0.47358011  0.85704952  0.03120368  1
  O  O57  1  0.47358011  0.85704952  0.21879632  1
  O  O58  1  0.85574010  0.47790611  0.96866469  1
  O  O59  1  0.85542689  0.47759290  0.46866469  1
  O  O60  1  0.85574010  0.47790611  0.28133531  1
  O  O61  1  0.85542689  0.47759290  0.78133531  1
  O  O62  1  0.80704458  0.19026597  0.71883838  1
  O  O63  1  0.54391211  0.45706417  0.05461708  1
  O  O64  1  0.80704458  0.19026597  0.53116162  1
  O  O65  1  0.54694723  0.45195314  0.55929914  1
  O  O66  1  0.54694723  0.45195314  0.69070086  1
  O  O67  1  0.45493883  0.55113491  0.80981250  1
  O  O68  1  0.45493883  0.55113491  0.44018750  1
  O  O69  1  0.44941715  0.54942838  0.93899972  1
  O  O70  1  0.18312298  0.81595011  0.96570754  1
  O  O71  1  0.82327972  0.17689680  0.02473744  1
  O  O72  1  0.54391211  0.45706417  0.19538292  1
  O  O73  1  0.44941715  0.54942838  0.31100028  1
  O  O74  1  0.18729216  0.81181217  0.78103651  1
  O  O75  1  0.18729216  0.81181217  0.46896349  1
  O  O76  1  0.82327972  0.17689680  0.22526256  1
  O  O77  1  0.18312298  0.81595011  0.28429246  1
  O  O78  1  0.14306703  0.52628842  0.03116162  1
  O  O79  1  0.14306703  0.52628842  0.21883838  1
  O  O80  1  0.52152083  0.14604184  0.28103651  1
  O  O81  1  0.51738389  0.15021002  0.46570754  1
  O  O82  1  0.52152083  0.14604184  0.96896349  1
  O  O83  1  0.15643620  0.51005328  0.72526256  1
  O  O84  1  0.15643620  0.51005328  0.52473744  1
  O  O85  1  0.51738389  0.15021002  0.78429246  1
  O  O86  1  0.21331110  0.11838075  0.19084201  1
  O  O87  1  0.12267053  0.21752919  0.93989775  1
  O  O88  1  0.21495225  0.12002190  0.55915799  1
  O  O89  1  0.21331110  0.11838075  0.05915799  1
  O  O90  1  0.21495225  0.12002190  0.69084201  1
  O  O91  1  0.12267053  0.21752919  0.31010225  1
  O  O92  1  0.11580481  0.21066247  0.43989775  1
  O  O93  1  0.11580481  0.21066247  0.81010225  1
