# generated using pymatgen
data_Li5Cu(PO4)2
_symmetry_space_group_name_H-M   'P 1'
_cell_length_a   6.21188231
_cell_length_b   5.33075001
_cell_length_c   9.95261522
_cell_angle_alpha   90.09321704
_cell_angle_beta   89.94541031
_cell_angle_gamma   89.88711609
_symmetry_Int_Tables_number   1
_chemical_formula_structural   Li5Cu(PO4)2
_chemical_formula_sum   'Li10 Cu2 P4 O16'
_cell_volume   329.56959103
_cell_formula_units_Z   2
loop_
 _symmetry_equiv_pos_site_id
 _symmetry_equiv_pos_as_xyz
  1  'x, y, z'
loop_
 _atom_site_type_symbol
 _atom_site_label
 _atom_site_symmetry_multiplicity
 _atom_site_fract_x
 _atom_site_fract_y
 _atom_site_fract_z
 _atom_site_occupancy
  Li  Li0  1  0.99949447  0.15538184  0.74578371  1
  Li  Li1  1  0.99994179  0.15606898  0.24484790  1
  Li  Li2  1  0.24838598  0.32668048  0.49601714  1
  Li  Li3  1  0.24678927  0.32823005  0.99621326  1
  Li  Li4  1  0.25384598  0.67332228  0.24510872  1
  Li  Li5  1  0.25270909  0.67261978  0.74519146  1
  Li  Li6  1  0.50054096  0.84541224  0.99500080  1
  Li  Li7  1  0.74702881  0.67234960  0.74479160  1
  Li  Li8  1  0.74636331  0.67482662  0.24554647  1
  Li  Li9  1  0.74992719  0.32610528  0.49505380  1
  Cu  Cu10  1  0.49991143  0.82679653  0.49711217  1
  Cu  Cu11  1  0.75754456  0.33402399  0.99846479  1
  P  P12  1  0.00410840  0.82458228  0.99936794  1
  P  P13  1  0.00010634  0.82634488  0.49977090  1
  P  P14  1  0.49808269  0.17733981  0.24953687  1
  P  P15  1  0.49700127  0.17539758  0.74905572  1
  O  O16  1  0.00004416  0.81885165  0.65616791  1
  O  O17  1  0.99990143  0.10223608  0.44957057  1
  O  O18  1  0.00007215  0.82053865  0.15596796  1
  O  O19  1  0.01437427  0.09951057  0.94615965  1
  O  O20  1  0.20163310  0.68214560  0.44438904  1
  O  O21  1  0.20709596  0.68150184  0.94742937  1
  O  O22  1  0.29349846  0.31415274  0.19533838  1
  O  O23  1  0.29190841  0.31145110  0.69500468  1
  O  O24  1  0.49038439  0.17853467  0.90574162  1
  O  O25  1  0.49896541  0.89333823  0.70565171  1
  O  O26  1  0.49609830  0.19047398  0.40599683  1
  O  O27  1  0.50014127  0.90114041  0.19859840  1
  O  O28  1  0.70357859  0.30993860  0.69684260  1
  O  O29  1  0.70890650  0.31487810  0.20436471  1
  O  O30  1  0.79860458  0.68263394  0.44496982  1
  O  O31  1  0.79301150  0.70319361  0.94353350  1
