# generated using pymatgen
data_Li6Fe5O12
_symmetry_space_group_name_H-M   'P 1'
_cell_length_a   5.07274076
_cell_length_b   5.07240674
_cell_length_c   9.52160745
_cell_angle_alpha   94.00200022
_cell_angle_beta   85.98232152
_cell_angle_gamma   63.46544590
_symmetry_Int_Tables_number   1
_chemical_formula_structural   Li6Fe5O12
_chemical_formula_sum   'Li6 Fe5 O12'
_cell_volume   217.24748333
_cell_formula_units_Z   1
loop_
 _symmetry_equiv_pos_site_id
 _symmetry_equiv_pos_as_xyz
  1  'x, y, z'
loop_
 _atom_site_type_symbol
 _atom_site_label
 _atom_site_symmetry_multiplicity
 _atom_site_fract_x
 _atom_site_fract_y
 _atom_site_fract_z
 _atom_site_occupancy
  Li  Li0  1  0.74807920  0.74812227  0.25002440  1
  Li  Li1  1  0.34410409  0.83748527  0.49474465  1
  Li  Li2  1  0.14078054  0.68041074  0.00935590  1
  Li  Li3  1  0.83734581  0.34425142  0.00534755  1
  Li  Li4  1  0.68060395  0.14060697  0.49056213  1
  Li  Li5  1  0.07836388  0.07834843  0.24999495  1
  Fe  Fe6  1  0.93036232  0.93031459  0.74999946  1
  Fe  Fe7  1  0.00673435  0.48984448  0.49723205  1
  Fe  Fe8  1  0.48984780  0.00677259  0.00272749  1
  Fe  Fe9  1  0.57577482  0.57574788  0.74999864  1
  Fe  Fe10  1  0.42473186  0.42471385  0.24999991  1
  O  O11  1  0.68420805  0.82144499  0.61525529  1
  O  O12  1  0.82147013  0.68421552  0.88471692  1
  O  O13  1  0.23554513  0.92628947  0.87662238  1
  O  O14  1  0.45008448  0.71056830  0.13153377  1
  O  O15  1  0.05727479  0.74919226  0.37210099  1
  O  O16  1  0.71051214  0.45006052  0.36846626  1
  O  O17  1  0.26251754  0.59462077  0.63269632  1
  O  O18  1  0.92636623  0.23545943  0.62335079  1
  O  O19  1  0.59458501  0.26253097  0.86732954  1
  O  O20  1  0.17200972  0.34099732  0.11377916  1
  O  O21  1  0.74912941  0.05733675  0.12791555  1
  O  O22  1  0.34092679  0.17206620  0.38626289  1
