# generated using pymatgen
data_Ti17(NO4)6
_symmetry_space_group_name_H-M   'P 1'
_cell_length_a   10.39700234
_cell_length_b   10.71706765
_cell_length_c   10.03128263
_cell_angle_alpha   90.00000000
_cell_angle_beta   90.00000000
_cell_angle_gamma   95.25530524
_symmetry_Int_Tables_number   1
_chemical_formula_structural   Ti17(NO4)6
_chemical_formula_sum   'Ti34 N12 O48'
_cell_volume   1113.04098100
_cell_formula_units_Z   2
loop_
 _symmetry_equiv_pos_site_id
 _symmetry_equiv_pos_as_xyz
  1  'x, y, z'
loop_
 _atom_site_type_symbol
 _atom_site_label
 _atom_site_symmetry_multiplicity
 _atom_site_fract_x
 _atom_site_fract_y
 _atom_site_fract_z
 _atom_site_occupancy
  Ti  Ti0  1  0.75320928  0.90059306  0.75000000  1
  Ti  Ti1  1  0.80405085  0.87867517  0.42922075  1
  Ti  Ti2  1  0.80405085  0.87867517  0.07077925  1
  Ti  Ti3  1  0.53053096  0.78917353  0.92900000  1
  Ti  Ti4  1  0.29390624  0.87661080  0.42290819  1
  Ti  Ti5  1  0.58056672  0.76897764  0.25000000  1
  Ti  Ti6  1  0.53053096  0.78917353  0.57100000  1
  Ti  Ti7  1  0.24814735  0.89438580  0.75000000  1
  Ti  Ti8  1  0.29390624  0.87661080  0.07709181  1
  Ti  Ti9  1  0.86703002  0.45240654  0.92822041  1
  Ti  Ti10  1  0.03113357  0.78718106  0.94179309  1
  Ti  Ti11  1  0.03113357  0.78718106  0.55820691  1
  Ti  Ti12  1  0.63296998  0.54759346  0.42822041  1
  Ti  Ti13  1  0.91500517  0.43334422  0.25000000  1
  Ti  Ti14  1  0.63296998  0.54759346  0.07177959  1
  Ti  Ti15  1  0.58499483  0.56665578  0.75000000  1
  Ti  Ti16  1  0.86703002  0.45240654  0.57177959  1
  Ti  Ti17  1  0.36503050  0.44867960  0.92331033  1
  Ti  Ti18  1  0.96946904  0.21082647  0.42900000  1
  Ti  Ti19  1  0.41161282  0.43149330  0.25000000  1
  Ti  Ti20  1  0.36503050  0.44867960  0.57668967  1
  Ti  Ti21  1  0.13496950  0.55132040  0.42331033  1
  Ti  Ti22  1  0.96946904  0.21082647  0.07100000  1
  Ti  Ti23  1  0.91943328  0.23102236  0.75000000  1
  Ti  Ti24  1  0.13496950  0.55132040  0.07668967  1
  Ti  Ti25  1  0.08838718  0.56850670  0.75000000  1
  Ti  Ti26  1  0.69594915  0.12132483  0.57077925  1
  Ti  Ti27  1  0.74679072  0.09940694  0.25000000  1
  Ti  Ti28  1  0.69594915  0.12132483  0.92922075  1
  Ti  Ti29  1  0.46886643  0.21281894  0.44179309  1
  Ti  Ti30  1  0.46886643  0.21281894  0.05820691  1
  Ti  Ti31  1  0.25185265  0.10561420  0.25000000  1
  Ti  Ti32  1  0.20609376  0.12338920  0.92290819  1
  Ti  Ti33  1  0.20609376  0.12338920  0.57709181  1
  N  N34  1  0.72077875  0.91113593  0.25000000  1
  N  N35  1  0.60631885  0.75650148  0.75000000  1
  N  N36  1  0.24051998  0.92100831  0.25000000  1
  N  N37  1  0.10759550  0.75594238  0.75000000  1
  N  N38  1  0.94240993  0.42479357  0.75000000  1
  N  N39  1  0.55759007  0.57520643  0.25000000  1
  N  N40  1  0.06000227  0.56058657  0.25000000  1
  N  N41  1  0.43999773  0.43941443  0.75000000  1
  N  N42  1  0.89368115  0.24349852  0.25000000  1
  N  N43  1  0.77922125  0.08886407  0.75000000  1
  N  N44  1  0.39240550  0.24405762  0.25000000  1
  N  N45  1  0.25948002  0.07899169  0.75000000  1
  O  O46  1  0.95327571  0.81866420  0.39033949  1
  O  O47  1  0.87528282  0.85001141  0.87843755  1
  O  O48  1  0.65426401  0.93761564  0.56583637  1
  O  O49  1  0.65426401  0.93761564  0.93416363  1
  O  O50  1  0.95327571  0.81866420  0.10966051  1
  O  O51  1  0.87528282  0.85001141  0.62156245  1
  O  O52  1  0.99063767  0.60411974  0.56348664  1
  O  O53  1  0.99063767  0.60411974  0.93651336  1
  O  O54  1  0.67696490  0.72928791  0.43530228  1
  O  O55  1  0.67696490  0.72928791  0.06469772  1
  O  O56  1  0.15806507  0.93501209  0.56137356  1
  O  O57  1  0.45635265  0.81602417  0.11838946  1
  O  O58  1  0.45635265  0.81602417  0.38161054  1
  O  O59  1  0.15806507  0.93501209  0.93862644  1
  O  O60  1  0.37801270  0.85052474  0.87991391  1
  O  O61  1  0.37801270  0.85052474  0.62008609  1
  O  O62  1  0.71049251  0.51513187  0.88140248  1
  O  O63  1  0.49252025  0.60448565  0.93752024  1
  O  O64  1  0.71049251  0.51513187  0.61859752  1
  O  O65  1  0.18598750  0.72512249  0.05108793  1
  O  O66  1  0.18598750  0.72512249  0.44891207  1
  O  O67  1  0.78950749  0.48486813  0.11859752  1
  O  O68  1  0.49252025  0.60448565  0.56247976  1
  O  O69  1  0.78950749  0.48486813  0.38140248  1
  O  O70  1  0.82303510  0.27071209  0.93530228  1
  O  O71  1  0.29103374  0.48613193  0.11992333  1
  O  O72  1  0.50936233  0.39588026  0.06348664  1
  O  O73  1  0.20896626  0.51386807  0.61992333  1
  O  O74  1  0.20896626  0.51386807  0.88007667  1
  O  O75  1  0.50936233  0.39588026  0.43651336  1
  O  O76  1  0.82303510  0.27071209  0.56469772  1
  O  O77  1  0.29103374  0.48613193  0.38007667  1
  O  O78  1  0.84573599  0.06238436  0.43416363  1
  O  O79  1  0.62471718  0.14998859  0.37843755  1
  O  O80  1  0.54672429  0.18133580  0.60966051  1
  O  O81  1  0.31401250  0.27487751  0.94891207  1
  O  O82  1  0.62471718  0.14998859  0.12156245  1
  O  O83  1  0.84573599  0.06238436  0.06583637  1
  O  O84  1  0.54672429  0.18133580  0.89033949  1
  O  O85  1  0.31401250  0.27487751  0.55108793  1
  O  O86  1  0.00747975  0.39551435  0.06247976  1
  O  O87  1  0.00747975  0.39551435  0.43752024  1
  O  O88  1  0.12198730  0.14947526  0.12008609  1
  O  O89  1  0.04364735  0.18397583  0.88161054  1
  O  O90  1  0.34193493  0.06498791  0.43862644  1
  O  O91  1  0.34193493  0.06498791  0.06137356  1
  O  O92  1  0.12198730  0.14947526  0.37991391  1
  O  O93  1  0.04364735  0.18397583  0.61838946  1
