# generated using pymatgen
data_Ni7(P2O7)4
_symmetry_space_group_name_H-M   'P 1'
_cell_length_a   6.43546968
_cell_length_b   6.43546968
_cell_length_c   23.74702459
_cell_angle_alpha   90.00000000
_cell_angle_beta   90.00000000
_cell_angle_gamma   81.80882144
_symmetry_Int_Tables_number   1
_chemical_formula_structural   Ni7(P2O7)4
_chemical_formula_sum   'Ni14 P16 O56'
_cell_volume   973.45605092
_cell_formula_units_Z   2
loop_
 _symmetry_equiv_pos_site_id
 _symmetry_equiv_pos_as_xyz
  1  'x, y, z'
loop_
 _atom_site_type_symbol
 _atom_site_label
 _atom_site_symmetry_multiplicity
 _atom_site_fract_x
 _atom_site_fract_y
 _atom_site_fract_z
 _atom_site_occupancy
  Ni  Ni0  1  0.06902468  0.93097532  0.00000000  1
  Ni  Ni1  1  0.32945217  0.96062556  0.13723210  1
  Ni  Ni2  1  0.03937444  0.67054783  0.86276790  1
  Ni  Ni3  1  0.30115881  0.69884119  0.50000000  1
  Ni  Ni4  1  0.29303368  0.41917880  0.62089283  1
  Ni  Ni5  1  0.58082120  0.70696632  0.37910717  1
  Ni  Ni6  1  0.27423163  0.27423163  0.25000000  1
  Ni  Ni7  1  0.72576837  0.72576837  0.75000000  1
  Ni  Ni8  1  0.70696632  0.58082120  0.12089283  1
  Ni  Ni9  1  0.41917880  0.29303368  0.87910717  1
  Ni  Ni10  1  0.69884119  0.30115881  0.00000000  1
  Ni  Ni11  1  0.67054783  0.03937444  0.63723210  1
  Ni  Ni12  1  0.96062556  0.32945217  0.36276790  1
  Ni  Ni13  1  0.93097532  0.06902468  0.50000000  1
  P  P14  1  0.07037664  0.81950163  0.37653609  1
  P  P15  1  0.18049837  0.92962336  0.62346391  1
  P  P16  1  0.30126650  0.77631502  0.26739502  1
  P  P17  1  0.22368498  0.69873350  0.73260498  1
  P  P18  1  0.23805025  0.47508976  0.12103097  1
  P  P19  1  0.52491024  0.76194975  0.87896903  1
  P  P20  1  0.59598451  0.81034008  0.00335654  1
  P  P21  1  0.18965992  0.40401549  0.99664346  1
  P  P22  1  0.81034008  0.59598451  0.49664346  1
  P  P23  1  0.40401549  0.18965992  0.50335654  1
  P  P24  1  0.47508976  0.23805025  0.37896903  1
  P  P25  1  0.76194975  0.52491024  0.62103097  1
  P  P26  1  0.77631502  0.30126650  0.23260498  1
  P  P27  1  0.69873350  0.22368498  0.76739502  1
  P  P28  1  0.81950163  0.07037664  0.12346391  1
  P  P29  1  0.92962336  0.18049837  0.87653609  1
  O  O30  1  0.01852156  0.96508118  0.90179178  1
  O  O31  1  0.03491882  0.98147844  0.09820822  1
  O  O32  1  0.12963197  0.87709188  0.31328666  1
  O  O33  1  0.12290812  0.87036803  0.68671334  1
  O  O34  1  0.29513124  0.95673875  0.22444476  1
  O  O35  1  0.04326125  0.70486876  0.77555524  1
  O  O36  1  0.01403867  0.58096750  0.12329160  1
  O  O37  1  0.41903250  0.98596133  0.87670840  1
  O  O38  1  0.37611601  0.90704095  0.02057246  1
  O  O39  1  0.09295905  0.62388399  0.97942754  1
  O  O40  1  0.27172462  0.71864067  0.40639659  1
  O  O41  1  0.28135933  0.72827538  0.59360341  1
  O  O42  1  0.41479266  0.77250806  0.75773377  1
  O  O43  1  0.22749194  0.58520734  0.24226623  1
  O  O44  1  0.66007629  0.91296680  0.12811816  1
  O  O45  1  0.08703320  0.33992371  0.87188184  1
  O  O46  1  0.38706869  0.64052742  0.13039718  1
  O  O47  1  0.35947258  0.61293131  0.86960282  1
  O  O48  1  0.74696679  0.97654755  0.00329959  1
  O  O49  1  0.02345245  0.25303321  0.99670041  1
  O  O50  1  0.51477100  0.72935246  0.29689969  1
  O  O51  1  0.27064754  0.48522900  0.70310031  1
  O  O52  1  0.29025496  0.39176754  0.05853527  1
  O  O53  1  0.60823246  0.70974504  0.94146473  1
  O  O54  1  0.60939789  0.68265451  0.46431601  1
  O  O55  1  0.31734549  0.39060211  0.53568399  1
  O  O56  1  0.70664791  0.72219178  0.65772572  1
  O  O57  1  0.27780822  0.29335209  0.34227428  1
  O  O58  1  0.29335209  0.27780822  0.15772572  1
  O  O59  1  0.72219178  0.70664791  0.84227428  1
  O  O60  1  0.39060211  0.31734549  0.96431601  1
  O  O61  1  0.68265451  0.60939789  0.03568399  1
  O  O62  1  0.39176754  0.29025496  0.44146473  1
  O  O63  1  0.70974504  0.60823246  0.55853527  1
  O  O64  1  0.72935246  0.51477100  0.20310031  1
  O  O65  1  0.48522900  0.27064754  0.79689969  1
  O  O66  1  0.25303321  0.02345245  0.50329959  1
  O  O67  1  0.97654755  0.74696679  0.49670041  1
  O  O68  1  0.64052742  0.38706869  0.36960282  1
  O  O69  1  0.61293131  0.35947258  0.63039718  1
  O  O70  1  0.33992371  0.08703320  0.62811816  1
  O  O71  1  0.91296680  0.66007629  0.37188184  1
  O  O72  1  0.58520734  0.22749194  0.25773377  1
  O  O73  1  0.77250806  0.41479266  0.74226623  1
  O  O74  1  0.71864067  0.27172462  0.09360341  1
  O  O75  1  0.72827538  0.28135933  0.90639659  1
  O  O76  1  0.62388399  0.09295905  0.52057246  1
  O  O77  1  0.90704095  0.37611601  0.47942754  1
  O  O78  1  0.58096750  0.01403867  0.37670840  1
  O  O79  1  0.98596133  0.41903250  0.62329160  1
  O  O80  1  0.70486876  0.04326125  0.72444476  1
  O  O81  1  0.95673875  0.29513124  0.27555524  1
  O  O82  1  0.87709188  0.12963197  0.18671334  1
  O  O83  1  0.87036803  0.12290812  0.81328666  1
  O  O84  1  0.96508118  0.01852156  0.59820822  1
  O  O85  1  0.98147844  0.03491882  0.40179178  1
