# generated using pymatgen
data_LiVP2HO8
_symmetry_space_group_name_H-M   'P 1'
_cell_length_a   9.71853306
_cell_length_b   7.99837891
_cell_length_c   7.75006608
_cell_angle_alpha   90.00000000
_cell_angle_beta   68.34590572
_cell_angle_gamma   90.00000000
_symmetry_Int_Tables_number   1
_chemical_formula_structural   LiVP2HO8
_chemical_formula_sum   'Li4 V4 P8 H4 O32'
_cell_volume   559.91756173
_cell_formula_units_Z   4
loop_
 _symmetry_equiv_pos_site_id
 _symmetry_equiv_pos_as_xyz
  1  'x, y, z'
loop_
 _atom_site_type_symbol
 _atom_site_label
 _atom_site_symmetry_multiplicity
 _atom_site_fract_x
 _atom_site_fract_y
 _atom_site_fract_z
 _atom_site_occupancy
  Li  Li0  1  0.22046954  0.13172277  0.14743242  1
  Li  Li1  1  0.22540785  0.37031587  0.64797752  1
  Li  Li2  1  0.77953046  0.63172277  0.35256758  1
  Li  Li3  1  0.77459215  0.87031587  0.85202248  1
  V  V4  1  0.25095742  0.51000747  0.00746992  1
  V  V5  1  0.25277023  0.99080119  0.50149909  1
  V  V6  1  0.74722977  0.49080119  0.99850091  1
  V  V7  1  0.74904258  0.01000747  0.49253008  1
  P  P8  1  0.06697874  0.85082897  0.23103500  1
  P  P9  1  0.06639931  0.65395349  0.73625624  1
  P  P10  1  0.43197216  0.34646174  0.26724465  1
  P  P11  1  0.56802784  0.84646174  0.23275535  1
  P  P12  1  0.43310285  0.15587830  0.76156771  1
  P  P13  1  0.56689715  0.65587830  0.73843229  1
  P  P14  1  0.93302126  0.35082897  0.26896500  1
  P  P15  1  0.93360069  0.15395349  0.76374376  1
  H  H16  1  0.00843774  0.50773804  0.50828439  1
  H  H17  1  0.50878041  0.50647478  0.50960585  1
  H  H18  1  0.49121959  0.00647478  0.99039415  1
  H  H19  1  0.99156226  0.00773804  0.99171561  1
  O  O20  1  0.09278884  0.95900721  0.06031796  1
  O  O21  1  0.09886271  0.33075981  0.14252476  1
  O  O22  1  0.13565910  0.67557381  0.18263500  1
  O  O23  1  0.14492012  0.94821663  0.34716201  1
  O  O24  1  0.09450597  0.54494406  0.56101746  1
  O  O25  1  0.09963498  0.17242510  0.64321170  1
  O  O26  1  0.13715121  0.82669476  0.68267268  1
  O  O27  1  0.14482541  0.55257489  0.84658179  1
  O  O28  1  0.35658828  0.44712239  0.14912297  1
  O  O29  1  0.35046725  0.17624955  0.30952155  1
  O  O30  1  0.40378587  0.82899070  0.36022528  1
  O  O31  1  0.40861972  0.43748120  0.44861699  1
  O  O32  1  0.35817764  0.05479634  0.64650458  1
  O  O33  1  0.35035099  0.32387374  0.81191668  1
  O  O34  1  0.59138028  0.93748120  0.05138301  1
  O  O35  1  0.59621413  0.32899070  0.13977472  1
  O  O36  1  0.40226648  0.67212202  0.85856067  1
  O  O37  1  0.40622406  0.06283617  0.94713367  1
  O  O38  1  0.64953275  0.67624955  0.19047845  1
  O  O39  1  0.64341172  0.94712239  0.35087703  1
  O  O40  1  0.59377594  0.56283617  0.55286633  1
  O  O41  1  0.59773352  0.17212202  0.64143933  1
  O  O42  1  0.64964901  0.82387374  0.68808332  1
  O  O43  1  0.64182236  0.55479634  0.85349542  1
  O  O44  1  0.85507988  0.44821663  0.15283799  1
  O  O45  1  0.86434090  0.17557381  0.31736500  1
  O  O46  1  0.90113729  0.83075981  0.35747524  1
  O  O47  1  0.90721116  0.45900721  0.43968204  1
  O  O48  1  0.85517459  0.05257489  0.65341821  1
  O  O49  1  0.86284879  0.32669476  0.81732732  1
  O  O50  1  0.90036502  0.67242510  0.85678830  1
  O  O51  1  0.90549403  0.04494406  0.93898254  1
