# generated using pymatgen
data_Li2VP4(H2O3)6
_symmetry_space_group_name_H-M   'P 1'
_cell_length_a   8.14121457
_cell_length_b   11.54307082
_cell_length_c   8.96567721
_cell_angle_alpha   90.00000000
_cell_angle_beta   115.52764165
_cell_angle_gamma   90.00000000
_symmetry_Int_Tables_number   1
_chemical_formula_structural   Li2VP4(H2O3)6
_chemical_formula_sum   'Li4 V2 P8 H24 O36'
_cell_volume   760.29460863
_cell_formula_units_Z   2
loop_
 _symmetry_equiv_pos_site_id
 _symmetry_equiv_pos_as_xyz
  1  'x, y, z'
loop_
 _atom_site_type_symbol
 _atom_site_label
 _atom_site_symmetry_multiplicity
 _atom_site_fract_x
 _atom_site_fract_y
 _atom_site_fract_z
 _atom_site_occupancy
  Li  Li0  1  0.02391209  0.25000000  0.57514564  1
  Li  Li1  1  0.24966508  0.75000000  0.90877761  1
  Li  Li2  1  0.75033492  0.25000000  0.09122239  1
  Li  Li3  1  0.97608791  0.75000000  0.42485436  1
  V  V4  1  0.47159377  0.25000000  0.73920767  1
  V  V5  1  0.52840623  0.75000000  0.26079233  1
  P  P6  1  0.28786420  0.51319946  0.64335437  1
  P  P7  1  0.28786420  0.98680054  0.64335437  1
  P  P8  1  0.30503823  0.49959951  0.16164842  1
  P  P9  1  0.30503823  0.00040049  0.16164842  1
  P  P10  1  0.69496177  0.99959951  0.83835158  1
  P  P11  1  0.69496177  0.50040049  0.83835158  1
  P  P12  1  0.71213580  0.01319946  0.35664563  1
  P  P13  1  0.71213580  0.48680054  0.35664563  1
  H  H14  1  0.05965554  0.18275204  0.86591199  1
  H  H15  1  0.05965554  0.31724796  0.86591199  1
  H  H16  1  0.25094207  0.50924840  0.87297293  1
  H  H17  1  0.25094207  0.99075160  0.87297293  1
  H  H18  1  0.39432271  0.18168213  0.99530238  1
  H  H19  1  0.39432271  0.31831787  0.99530238  1
  H  H20  1  0.08454656  0.18210418  0.28182056  1
  H  H21  1  0.08454656  0.31789582  0.28182056  1
  H  H22  1  0.17575227  0.51721164  0.33561376  1
  H  H23  1  0.17575227  0.98278836  0.33561376  1
  H  H24  1  0.41587991  0.81657916  0.49539404  1
  H  H25  1  0.41587991  0.68342084  0.49539404  1
  H  H26  1  0.58412009  0.18342084  0.50460596  1
  H  H27  1  0.58412009  0.31657916  0.50460596  1
  H  H28  1  0.82424773  0.01721164  0.66438624  1
  H  H29  1  0.82424773  0.48278836  0.66438624  1
  H  H30  1  0.91545344  0.68210418  0.71817944  1
  H  H31  1  0.91545344  0.81789582  0.71817944  1
  H  H32  1  0.60567729  0.68168213  0.00469762  1
  H  H33  1  0.60567729  0.81831787  0.00469762  1
  H  H34  1  0.74905793  0.00924840  0.12702707  1
  H  H35  1  0.74905793  0.49075160  0.12702707  1
  H  H36  1  0.94034446  0.68275204  0.13408801  1
  H  H37  1  0.94034446  0.81724796  0.13408801  1
  O  O38  1  0.24839025  0.56861428  0.78541990  1
  O  O39  1  0.24839025  0.93138572  0.78541990  1
  O  O40  1  0.01173458  0.25000000  0.28190388  1
  O  O41  1  0.98050323  0.75000000  0.20756083  1
  O  O42  1  0.19046549  0.58394454  0.48652200  1
  O  O43  1  0.19046549  0.91605546  0.48652200  1
  O  O44  1  0.26201215  0.11689476  0.63407666  1
  O  O45  1  0.26201215  0.38310524  0.63407666  1
  O  O46  1  0.46114494  0.25000000  0.98032276  1
  O  O47  1  0.16792182  0.46699803  0.23591322  1
  O  O48  1  0.16792182  0.03300197  0.23591322  1
  O  O49  1  0.50196729  0.54183831  0.69336097  1
  O  O50  1  0.50196729  0.95816169  0.69336097  1
  O  O51  1  0.26120403  0.07444570  0.00842294  1
  O  O52  1  0.26120403  0.42555430  0.00842294  1
  O  O53  1  0.31423343  0.62800033  0.13328143  1
  O  O54  1  0.31423343  0.87199967  0.13328143  1
  O  O55  1  0.48490608  0.75000000  0.48473557  1
  O  O56  1  0.51509392  0.25000000  0.51526443  1
  O  O57  1  0.68576657  0.37199967  0.86671857  1
  O  O58  1  0.68576657  0.12800033  0.86671857  1
  O  O59  1  0.73879597  0.57444570  0.99157706  1
  O  O60  1  0.73879597  0.92555430  0.99157706  1
  O  O61  1  0.49803271  0.04183831  0.30663903  1
  O  O62  1  0.49803271  0.45816169  0.30663903  1
  O  O63  1  0.83207818  0.53300197  0.76408678  1
  O  O64  1  0.83207818  0.96699803  0.76408678  1
  O  O65  1  0.53885506  0.75000000  0.01967724  1
  O  O66  1  0.73798785  0.88310524  0.36592334  1
  O  O67  1  0.73798785  0.61689476  0.36592334  1
  O  O68  1  0.80953451  0.08394454  0.51347800  1
  O  O69  1  0.80953451  0.41605546  0.51347800  1
  O  O70  1  0.01949677  0.25000000  0.79243917  1
  O  O71  1  0.98826542  0.75000000  0.71809612  1
  O  O72  1  0.75160975  0.06861428  0.21458010  1
  O  O73  1  0.75160975  0.43138572  0.21458010  1
