# generated using pymatgen
data_Cd(BO2)2
_symmetry_space_group_name_H-M   'P 1'
_cell_length_a   11.35028108
_cell_length_b   6.46109487
_cell_length_c   11.37281755
_cell_angle_alpha   90.00000000
_cell_angle_beta   90.00000000
_cell_angle_gamma   90.00000000
_symmetry_Int_Tables_number   1
_chemical_formula_structural   Cd(BO2)2
_chemical_formula_sum   'Cd12 B24 O48'
_cell_volume   834.02833702
_cell_formula_units_Z   12
loop_
 _symmetry_equiv_pos_site_id
 _symmetry_equiv_pos_as_xyz
  1  'x, y, z'
loop_
 _atom_site_type_symbol
 _atom_site_label
 _atom_site_symmetry_multiplicity
 _atom_site_fract_x
 _atom_site_fract_y
 _atom_site_fract_z
 _atom_site_occupancy
  Cd  Cd0  1  0.03229753  0.65440514  0.23293022  1
  Cd  Cd1  1  0.07264708  0.04875530  0.00333194  1
  Cd  Cd2  1  0.24679838  0.61431746  0.77469080  1
  Cd  Cd3  1  0.25320162  0.11431746  0.27469080  1
  Cd  Cd4  1  0.42735292  0.54875530  0.50333194  1
  Cd  Cd5  1  0.46770247  0.15440514  0.73293022  1
  Cd  Cd6  1  0.53229753  0.84559486  0.23293022  1
  Cd  Cd7  1  0.57264708  0.45124470  0.00333194  1
  Cd  Cd8  1  0.74679838  0.88568254  0.77469080  1
  Cd  Cd9  1  0.75320162  0.38568254  0.27469080  1
  Cd  Cd10  1  0.92735292  0.95124470  0.50333194  1
  Cd  Cd11  1  0.96770247  0.34559486  0.73293022  1
  B  B12  1  0.02577918  0.87517491  0.75134096  1
  B  B13  1  0.03735171  0.52028744  0.98026859  1
  B  B14  1  0.13791242  0.24895539  0.53822487  1
  B  B15  1  0.17651765  0.59627552  0.44321585  1
  B  B16  1  0.21208028  0.11673081  0.74076271  1
  B  B17  1  0.24870118  0.91970235  0.54893389  1
  B  B18  1  0.25129882  0.41970235  0.04893389  1
  B  B19  1  0.28791972  0.61673081  0.24076271  1
  B  B20  1  0.32348235  0.09627552  0.94321585  1
  B  B21  1  0.36208758  0.74895539  0.03822487  1
  B  B22  1  0.46264829  0.02028744  0.48026859  1
  B  B23  1  0.47422082  0.37517491  0.25134096  1
  B  B24  1  0.52577918  0.62482509  0.75134096  1
  B  B25  1  0.53735171  0.97971256  0.98026859  1
  B  B26  1  0.63791242  0.25104461  0.53822487  1
  B  B27  1  0.67651765  0.90372448  0.44321585  1
  B  B28  1  0.71208028  0.38326919  0.74076271  1
  B  B29  1  0.74870118  0.58029765  0.54893389  1
  B  B30  1  0.75129882  0.08029765  0.04893389  1
  B  B31  1  0.78791972  0.88326919  0.24076271  1
  B  B32  1  0.82348235  0.40372448  0.94321585  1
  B  B33  1  0.86208758  0.75104461  0.03822487  1
  B  B34  1  0.96264829  0.47971256  0.48026859  1
  B  B35  1  0.97422082  0.12482509  0.25134096  1
  O  O36  1  0.00387834  0.29747967  0.53001523  1
  O  O37  1  0.04140700  0.63487480  0.45025470  1
  O  O38  1  0.05263273  0.67173715  0.75553991  1
  O  O39  1  0.07479077  0.03747541  0.20306062  1
  O  O40  1  0.10458206  0.02344660  0.80340922  1
  O  O41  1  0.14180228  0.02913998  0.51251166  1
  O  O42  1  0.15451324  0.48839391  0.96708942  1
  O  O43  1  0.17038096  0.28953554  0.66449550  1
  O  O44  1  0.19833441  0.37290768  0.44901775  1
  O  O45  1  0.20794337  0.69699815  0.33025241  1
  O  O46  1  0.22110426  0.46305767  0.17286060  1
  O  O47  1  0.23863598  0.69388969  0.53990614  1
  O  O48  1  0.26136402  0.19388969  0.03990614  1
  O  O49  1  0.27889574  0.96305767  0.67286060  1
  O  O50  1  0.29205663  0.19699815  0.83025241  1
  O  O51  1  0.30166559  0.87290768  0.94901775  1
  O  O52  1  0.32961904  0.78953554  0.16449550  1
  O  O53  1  0.34548676  0.98839391  0.46708942  1
  O  O54  1  0.35819772  0.52913998  0.01251166  1
  O  O55  1  0.39541794  0.52344660  0.30340922  1
  O  O56  1  0.42520923  0.53747541  0.70306162  1
  O  O57  1  0.44736727  0.17173715  0.25553991  1
  O  O58  1  0.45859300  0.13487480  0.95025470  1
  O  O59  1  0.49612166  0.79747967  0.03001523  1
  O  O60  1  0.50387834  0.20252033  0.53001523  1
  O  O61  1  0.54140700  0.86512520  0.45025470  1
  O  O62  1  0.55263273  0.82826285  0.75553991  1
  O  O63  1  0.57479077  0.46252459  0.20306062  1
  O  O64  1  0.60458206  0.47655340  0.80340922  1
  O  O65  1  0.64180228  0.47086002  0.51251166  1
  O  O66  1  0.65451324  0.01160609  0.96708942  1
  O  O67  1  0.67038096  0.21046446  0.66449550  1
  O  O68  1  0.69833441  0.12709232  0.44901775  1
  O  O69  1  0.70794337  0.80300185  0.33025241  1
  O  O70  1  0.72110426  0.03694233  0.17286060  1
  O  O71  1  0.73863598  0.80611031  0.53990614  1
  O  O72  1  0.76136402  0.30611031  0.03990614  1
  O  O73  1  0.77889574  0.53694233  0.67286060  1
  O  O74  1  0.79205663  0.30300185  0.83025241  1
  O  O75  1  0.80166559  0.62709232  0.94901775  1
  O  O76  1  0.82961904  0.71046446  0.16449550  1
  O  O77  1  0.84548676  0.51160609  0.46708942  1
  O  O78  1  0.85819772  0.97086002  0.01251166  1
  O  O79  1  0.89541794  0.97655340  0.30340922  1
  O  O80  1  0.92520923  0.96252459  0.70306162  1
  O  O81  1  0.94736727  0.32826285  0.25553991  1
  O  O82  1  0.95859300  0.36512520  0.95025470  1
  O  O83  1  0.99612166  0.70252033  0.03001523  1
