# generated using pymatgen
data_Tm(HO)3
_symmetry_space_group_name_H-M   'P 1'
_cell_length_a   10.58131783
_cell_length_b   6.16216122
_cell_length_c   10.51870614
_cell_angle_alpha   90.00000000
_cell_angle_beta   93.07203880
_cell_angle_gamma   90.00000000
_symmetry_Int_Tables_number   1
_chemical_formula_structural   Tm(HO)3
_chemical_formula_sum   'Tm8 H24 O24'
_cell_volume   684.87384883
_cell_formula_units_Z   8
loop_
 _symmetry_equiv_pos_site_id
 _symmetry_equiv_pos_as_xyz
  1  'x, y, z'
loop_
 _atom_site_type_symbol
 _atom_site_label
 _atom_site_symmetry_multiplicity
 _atom_site_fract_x
 _atom_site_fract_y
 _atom_site_fract_z
 _atom_site_occupancy
  Tm  Tm0  1  0.16767303  0.53593492  0.99822274  1
  Tm  Tm1  1  0.16571196  0.52566252  0.50197107  1
  Tm  Tm2  1  0.33428804  0.02566252  0.99802893  1
  Tm  Tm3  1  0.33232697  0.03593492  0.50177726  1
  Tm  Tm4  1  0.66767303  0.96406508  0.49822274  1
  Tm  Tm5  1  0.66571196  0.97433748  0.00197107  1
  Tm  Tm6  1  0.83428804  0.47433748  0.49802893  1
  Tm  Tm7  1  0.83232697  0.46406508  0.00177726  1
  H  H8  1  0.00104605  0.37251555  0.29605814  1
  H  H9  1  0.03463326  0.20670838  0.11403894  1
  H  H10  1  0.09932376  0.14891844  0.86848620  1
  H  H11  1  0.09286059  0.92849392  0.39222741  1
  H  H12  1  0.20321552  0.22719433  0.71046909  1
  H  H13  1  0.18702178  0.84710808  0.20261014  1
  H  H14  1  0.29678448  0.72719433  0.78953091  1
  H  H15  1  0.31297822  0.34710808  0.29738986  1
  H  H16  1  0.40067624  0.64891844  0.63151380  1
  H  H17  1  0.40713941  0.42849392  0.10777259  1
  H  H18  1  0.50104605  0.12748445  0.79605814  1
  H  H19  1  0.46536674  0.70670838  0.38596106  1
  H  H20  1  0.53463326  0.29329162  0.61403894  1
  H  H21  1  0.49895395  0.87251555  0.20394186  1
  H  H22  1  0.59286059  0.57150608  0.89222741  1
  H  H23  1  0.59932376  0.35108156  0.36848620  1
  H  H24  1  0.68702178  0.65289192  0.70261014  1
  H  H25  1  0.70321552  0.27280567  0.21046909  1
  H  H26  1  0.81297822  0.15289192  0.79738986  1
  H  H27  1  0.79678448  0.77280567  0.28953091  1
  H  H28  1  0.90713941  0.07150608  0.60777259  1
  H  H29  1  0.90067624  0.85108156  0.13151380  1
  H  H30  1  0.96536674  0.79329162  0.88596106  1
  H  H31  1  0.99895395  0.62748445  0.70394186  1
  O  O32  1  0.99954096  0.61096456  0.61125063  1
  O  O33  1  0.01590148  0.36143644  0.10698666  1
  O  O34  1  0.18022733  0.22160057  0.88572164  1
  O  O35  1  0.17348306  0.85073480  0.39626890  1
  O  O36  1  0.21254511  0.23308976  0.61771499  1
  O  O37  1  0.18917643  0.84415961  0.10931692  1
  O  O38  1  0.28745489  0.73308976  0.88228501  1
  O  O39  1  0.31977267  0.72160057  0.61427836  1
  O  O40  1  0.31082357  0.34415961  0.39068308  1
  O  O41  1  0.32651694  0.35073480  0.10373110  1
  O  O42  1  0.50045904  0.11096456  0.88874937  1
  O  O43  1  0.48409852  0.86143644  0.39301334  1
  O  O44  1  0.51590148  0.13856356  0.60698666  1
  O  O45  1  0.49954096  0.88903544  0.11125063  1
  O  O46  1  0.67348306  0.64926520  0.89626890  1
  O  O47  1  0.68917643  0.65584039  0.60931692  1
  O  O48  1  0.68022733  0.27839943  0.38572164  1
  O  O49  1  0.71254511  0.26691024  0.11771499  1
  O  O50  1  0.81082357  0.15584039  0.89068308  1
  O  O51  1  0.78745489  0.76691024  0.38228501  1
  O  O52  1  0.82651694  0.14926520  0.60373110  1
  O  O53  1  0.81977267  0.77839943  0.11427836  1
  O  O54  1  0.98409852  0.63856356  0.89301334  1
  O  O55  1  0.00045904  0.38903544  0.38874937  1
