# generated using pymatgen
data_Li5Mn6(BO3)6
_symmetry_space_group_name_H-M   'P 1'
_cell_length_a   6.20539795
_cell_length_b   12.01104985
_cell_length_c   5.21508109
_cell_angle_alpha   78.48244515
_cell_angle_beta   87.20282353
_cell_angle_gamma   84.79472246
_symmetry_Int_Tables_number   1
_chemical_formula_structural   Li5Mn6(BO3)6
_chemical_formula_sum   'Li5 Mn6 B6 O18'
_cell_volume   379.11218124
_cell_formula_units_Z   1
loop_
 _symmetry_equiv_pos_site_id
 _symmetry_equiv_pos_as_xyz
  1  'x, y, z'
loop_
 _atom_site_type_symbol
 _atom_site_label
 _atom_site_symmetry_multiplicity
 _atom_site_fract_x
 _atom_site_fract_y
 _atom_site_fract_z
 _atom_site_occupancy
  Li  Li0  1  0.41806515  0.10027767  0.04240036  1
  Li  Li1  1  0.77237365  0.42377179  0.36150511  1
  Li  Li2  1  0.25178512  0.56405937  0.63057175  1
  Li  Li3  1  0.57762885  0.89893868  0.96678075  1
  Li  Li4  1  0.08712063  0.76812805  0.69780716  1
  Mn  Mn5  1  0.24680268  0.00285260  0.59746973  1
  Mn  Mn6  1  0.57783788  0.32997343  0.93861356  1
  Mn  Mn7  1  0.91338909  0.66798644  0.26144720  1
  Mn  Mn8  1  0.08490769  0.32682250  0.73893371  1
  Mn  Mn9  1  0.43017917  0.66537483  0.06573636  1
  Mn  Mn10  1  0.76301053  0.00484945  0.40302558  1
  B  B11  1  0.83393739  0.11239326  0.84461007  1
  B  B12  1  0.47929922  0.22397491  0.48688822  1
  B  B13  1  0.81793215  0.55118070  0.82329252  1
  B  B14  1  0.19903060  0.44472522  0.18420430  1
  B  B15  1  0.51874210  0.78155152  0.50891726  1
  B  B16  1  0.14608485  0.88888321  0.15183359  1
  O  O17  1  0.93646564  0.09070563  0.61719583  1
  O  O18  1  0.71934151  0.03061244  0.00380080  1
  O  O19  1  0.46062410  0.12179699  0.40362497  1
  O  O20  1  0.84364010  0.22093154  0.90368111  1
  O  O21  1  0.57116562  0.31388424  0.33249294  1
  O  O22  1  0.40322656  0.23142179  0.74376638  1
  O  O23  1  0.74090345  0.56284150  0.07373713  1
  O  O24  1  0.77985023  0.45273643  0.73359512  1
  O  O25  1  0.93900103  0.63315768  0.67331243  1
  O  O26  1  0.07880841  0.36541576  0.33205294  1
  O  O27  1  0.22604664  0.54767532  0.26143793  1
  O  O28  1  0.28520965  0.42916889  0.93117096  1
  O  O29  1  0.59893153  0.76928406  0.25948023  1
  O  O30  1  0.39862962  0.69889211  0.65671960  1
  O  O31  1  0.10999254  0.79214856  0.05649711  1
  O  O32  1  0.55456449  0.87984137  0.60045254  1
  O  O33  1  0.26951340  0.97106402  0.00960335  1
  O  O34  1  0.06494869  0.90018805  0.40211238  1
