# generated using pymatgen
data_Li5Cu(PO4)2
_symmetry_space_group_name_H-M   'P 1'
_cell_length_a   6.21500916
_cell_length_b   5.33800732
_cell_length_c   9.95567516
_cell_angle_alpha   89.81502533
_cell_angle_beta   89.87822354
_cell_angle_gamma   89.91042582
_symmetry_Int_Tables_number   1
_chemical_formula_structural   Li5Cu(PO4)2
_chemical_formula_sum   'Li10 Cu2 P4 O16'
_cell_volume   330.28426593
_cell_formula_units_Z   2
loop_
 _symmetry_equiv_pos_site_id
 _symmetry_equiv_pos_as_xyz
  1  'x, y, z'
loop_
 _atom_site_type_symbol
 _atom_site_label
 _atom_site_symmetry_multiplicity
 _atom_site_fract_x
 _atom_site_fract_y
 _atom_site_fract_z
 _atom_site_occupancy
  Li  Li0  1  -0.00001634  0.15519351  0.24482775  1
  Li  Li1  1  0.24505560  0.32653206  0.49489190  1
  Li  Li2  1  0.24809546  0.32832815  0.99644678  1
  Li  Li3  1  0.25333520  0.67234482  0.24551643  1
  Li  Li4  1  0.25022788  0.67347141  0.74534842  1
  Li  Li5  1  0.50042554  0.84497744  0.99636263  1
  Li  Li6  1  0.49984069  0.84371243  0.49477132  1
  Li  Li7  1  0.74951029  0.67309707  0.74501607  1
  Li  Li8  1  0.74679186  0.67373158  0.24595241  1
  Li  Li9  1  0.75354639  0.32605834  0.49401738  1
  Cu  Cu10  1  0.99776745  0.17418464  0.74629799  1
  Cu  Cu11  1  0.75562241  0.33527380  0.99740953  1
  P  P12  1  0.00434594  0.82186936  0.00202773  1
  P  P13  1  0.00007489  0.82131344  0.49676061  1
  P  P14  1  0.49818405  0.17374756  0.25247521  1
  P  P15  1  0.49705345  0.17165966  0.74687271  1
  O  O16  1  -0.00001196  0.80673496  0.65359632  1
  O  O17  1  0.99994857  0.09888696  0.44813986  1
  O  O18  1  0.99989473  0.81367518  0.15805815  1
  O  O19  1  0.01578244  0.10121119  0.95607563  1
  O  O20  1  0.20689062  0.68592511  0.44428284  1
  O  O21  1  0.20725091  0.68215357  0.94824908  1
  O  O22  1  0.29479866  0.31247090  0.19793049  1
  O  O23  1  0.29673948  0.31767440  0.69242321  1
  O  O24  1  0.49044387  0.17295384  0.90346373  1
  O  O25  1  0.49903996  0.89617346  0.69683395  1
  O  O26  1  0.49619620  0.17740297  0.40875164  1
  O  O27  1  0.50014159  0.89854201  0.20013606  1
  O  O28  1  0.69917557  0.31592216  0.69387834  1
  O  O29  1  0.70751457  0.31331254  0.20634447  1
  O  O30  1  0.79330877  0.68656827  0.44488140  1
  O  O31  1  0.79302426  0.70489722  0.94455096  1
