# generated using pymatgen
data_Li5Mn6(BO3)6
_symmetry_space_group_name_H-M   'P 1'
_cell_length_a   9.70024082
_cell_length_b   7.94921269
_cell_length_c   5.21694602
_cell_angle_alpha   88.12662283
_cell_angle_beta   103.60545434
_cell_angle_gamma   104.32918079
_symmetry_Int_Tables_number   1
_chemical_formula_structural   Li5Mn6(BO3)6
_chemical_formula_sum   'Li5 Mn6 B6 O18'
_cell_volume   378.68366064
_cell_formula_units_Z   1
loop_
 _symmetry_equiv_pos_site_id
 _symmetry_equiv_pos_as_xyz
  1  'x, y, z'
loop_
 _atom_site_type_symbol
 _atom_site_label
 _atom_site_symmetry_multiplicity
 _atom_site_fract_x
 _atom_site_fract_y
 _atom_site_fract_z
 _atom_site_occupancy
  Li  Li0  1  0.31187543  0.00197080  0.24196181  1
  Li  Li1  1  0.35395291  0.32663460  0.08694605  1
  Li  Li2  1  0.01249201  0.64444723  0.43206750  1
  Li  Li3  1  0.64876199  0.67210714  0.91119968  1
  Li  Li4  1  0.68523710  0.99333153  0.75789252  1
  Mn  Mn5  1  0.15593369  0.08350286  0.67287591  1
  Mn  Mn6  1  0.50393509  0.25558189  0.65288574  1
  Mn  Mn7  1  0.16890343  0.57893990  0.98046547  1
  Mn  Mn8  1  0.83322944  0.40710941  0.01489763  1
  Mn  Mn9  1  0.49385817  0.74745758  0.34897596  1
  Mn  Mn10  1  0.83538524  0.92156009  0.32060942  1
  B  B11  1  0.07265959  0.20464586  0.13533586  1
  B  B12  1  0.60455682  0.13366700  0.20359785  1
  B  B13  1  0.27171529  0.47050115  0.53706776  1
  B  B14  1  0.72460548  0.53554308  0.45901066  1
  B  B15  1  0.38771664  0.86116404  0.79297498  1
  B  B16  1  0.93993101  0.79873583  0.87250803  1
  O  O17  1  0.02899097  0.34486593  0.99886362  1
  O  O18  1  0.01292379  0.14237709  0.34454043  1
  O  O19  1  0.17644813  0.13320214  0.06897482  1
  O  O20  1  0.65494669  0.17323596  0.97240200  1
  O  O21  1  0.65636842  0.01200496  0.37223244  1
  O  O22  1  0.32127066  0.34268801  0.69699605  1
  O  O23  1  0.49681705  0.20378124  0.25348260  1
  O  O24  1  0.18241757  0.56158080  0.60287479  1
  O  O25  1  0.31846293  0.50617622  0.30029837  1
  O  O26  1  0.67738168  0.49253758  0.69447207  1
  O  O27  1  0.82650732  0.46582367  0.39531350  1
  O  O28  1  0.49932030  0.79575587  0.74772274  1
  O  O29  1  0.66760071  0.65885871  0.29663294  1
  O  O30  1  0.33617848  0.98561688  0.63132725  1
  O  O31  1  0.33318983  0.81171820  0.02170705  1
  O  O32  1  0.83063565  0.86647580  0.92318159  1
  O  O33  1  0.98922521  0.84282204  0.64129288  1
  O  O34  1  0.99807028  0.68058992  0.03963902  1
