# generated using pymatgen
data_Co6OF11
_symmetry_space_group_name_H-M   'P 1'
_cell_length_a   4.72733116
_cell_length_b   4.72733116
_cell_length_c   9.59031326
_cell_angle_alpha   90.00000000
_cell_angle_beta   90.00000000
_cell_angle_gamma   88.68881727
_symmetry_Int_Tables_number   1
_chemical_formula_structural   Co6OF11
_chemical_formula_sum   'Co6 O1 F11'
_cell_volume   214.26494156
_cell_formula_units_Z   1
loop_
 _symmetry_equiv_pos_site_id
 _symmetry_equiv_pos_as_xyz
  1  'x, y, z'
loop_
 _atom_site_type_symbol
 _atom_site_label
 _atom_site_symmetry_multiplicity
 _atom_site_fract_x
 _atom_site_fract_y
 _atom_site_fract_z
 _atom_site_occupancy
  Co  Co0  1  0.00614053  0.99385947  0.00677684  1
  Co  Co1  1  0.00614053  0.99385947  0.32655616  1
  Co  Co2  1  0.00327795  0.99672105  0.66666700  1
  Co  Co3  1  0.46910747  0.53089253  0.16666700  1
  Co  Co4  1  0.50404989  0.49595011  0.83432277  1
  Co  Co5  1  0.50404989  0.49595011  0.49901123  1
  O  O6  1  0.20079826  0.79920174  0.16666700  1
  F  F7  1  0.19923375  0.80076625  0.83480559  1
  F  F8  1  0.19923375  0.80076625  0.49852841  1
  F  F9  1  0.30515434  0.30556271  0.33047631  1
  F  F10  1  0.30515434  0.30556271  0.00285669  1
  F  F11  1  0.30778524  0.29961520  0.66666700  1
  F  F12  1  0.70038480  0.69221476  0.66666700  1
  F  F13  1  0.69443729  0.69484566  0.00285669  1
  F  F14  1  0.69443729  0.69484566  0.33047631  1
  F  F15  1  0.78354911  0.21645089  0.16666700  1
  F  F16  1  0.80853378  0.19146622  0.83657288  1
  F  F17  1  0.80853378  0.19146622  0.49676012  1
