# generated using pymatgen
data_Li6Fe5O12
_symmetry_space_group_name_H-M   'P 1'
_cell_length_a   5.12639624
_cell_length_b   8.83470919
_cell_length_c   9.90607946
_cell_angle_alpha   90.70985846
_cell_angle_beta   100.02990413
_cell_angle_gamma   89.59254062
_symmetry_Int_Tables_number   1
_chemical_formula_structural   Li6Fe5O12
_chemical_formula_sum   'Li12 Fe10 O24'
_cell_volume   441.75232000
_cell_formula_units_Z   2
loop_
 _symmetry_equiv_pos_site_id
 _symmetry_equiv_pos_as_xyz
  1  'x, y, z'
loop_
 _atom_site_type_symbol
 _atom_site_label
 _atom_site_symmetry_multiplicity
 _atom_site_fract_x
 _atom_site_fract_y
 _atom_site_fract_z
 _atom_site_occupancy
  Li  Li0  1  0.24123118  0.74070009  0.00229610  1
  Li  Li1  1  0.25819960  0.42016006  0.00013572  1
  Li  Li2  1  0.24513039  0.91384128  0.49342224  1
  Li  Li3  1  0.25533540  0.24559866  0.49464669  1
  Li  Li4  1  0.25085392  0.58975713  0.49505813  1
  Li  Li5  1  0.25009462  0.08741917  0.00132515  1
  Li  Li6  1  0.74691031  0.89802497  0.00912673  1
  Li  Li7  1  0.75222237  0.25768597  0.00522575  1
  Li  Li8  1  0.50203509  0.24571708  0.25411022  1
  Li  Li9  1  0.74996154  0.75999646  0.49873537  1
  Li  Li10  1  0.74902751  0.40082968  0.49742262  1
  Li  Li11  1  0.99829627  0.74714045  0.24553682  1
  Fe  Fe12  1  0.99373534  0.58803144  0.74936158  1
  Fe  Fe13  1  0.50629489  0.08542524  0.75015578  1
  Fe  Fe14  1  0.49989581  0.75088877  0.75569984  1
  Fe  Fe15  1  -0.00064356  0.25028855  0.74564868  1
  Fe  Fe16  1  0.49777192  0.41899361  0.75311270  1
  Fe  Fe17  1  0.99661937  0.91922163  0.74619616  1
  Fe  Fe18  1  0.00910934  0.41523262  0.24973992  1
  Fe  Fe19  1  0.49665251  0.91608615  0.25202584  1
  Fe  Fe20  1  0.51189988  0.58051346  0.25297821  1
  Fe  Fe21  1  0.99137031  0.08139114  0.24600481  1
  O  O22  1  0.13298733  0.09484274  0.64194367  1
  O  O23  1  0.12255458  0.75129094  0.63117901  1
  O  O24  1  0.12186209  0.41316458  0.63611094  1
  O  O25  1  0.37086956  0.92120966  0.86474917  1
  O  O26  1  0.37729416  0.25353401  0.86892128  1
  O  O27  1  0.10665539  0.23791312  0.13564484  1
  O  O28  1  0.35561086  0.58509362  0.86070023  1
  O  O29  1  0.13158851  0.93223441  0.13456501  1
  O  O30  1  0.16573799  0.56616729  0.14380386  1
  O  O31  1  0.33981628  0.06635770  0.35569257  1
  O  O32  1  0.34749842  0.42172520  0.36601480  1
  O  O33  1  0.39943195  0.74712058  0.36488257  1
  O  O34  1  0.62471580  0.58195133  0.64011373  1
  O  O35  1  0.62255431  0.25597306  0.63836308  1
  O  O36  1  0.62092357  0.91288617  0.63937884  1
  O  O37  1  0.59432525  0.76336719  0.14081544  1
  O  O38  1  0.88459088  0.40525528  0.85742660  1
  O  O39  1  0.87758593  0.75661903  0.86240167  1
  O  O40  1  0.88010096  0.09108784  0.86003426  1
  O  O41  1  0.64878990  0.07537167  0.13844309  1
  O  O42  1  0.65247445  0.42496086  0.14563771  1
  O  O43  1  0.86869513  0.93137669  0.35406688  1
  O  O44  1  0.84913336  0.57415898  0.36479198  1
  O  O45  1  0.90219534  0.24993942  0.35635671  1
