# generated using pymatgen
data_V6O5F19
_symmetry_space_group_name_H-M   'P 1'
_cell_length_a   5.49263730
_cell_length_b   5.29305033
_cell_length_c   14.76392011
_cell_angle_alpha   89.89354121
_cell_angle_beta   100.38197082
_cell_angle_gamma   90.80717485
_symmetry_Int_Tables_number   1
_chemical_formula_structural   V6O5F19
_chemical_formula_sum   'V6 O5 F19'
_cell_volume   422.15934974
_cell_formula_units_Z   1
loop_
 _symmetry_equiv_pos_site_id
 _symmetry_equiv_pos_as_xyz
  1  'x, y, z'
loop_
 _atom_site_type_symbol
 _atom_site_label
 _atom_site_symmetry_multiplicity
 _atom_site_fract_x
 _atom_site_fract_y
 _atom_site_fract_z
 _atom_site_occupancy
  V  V0  1  0.04112191  0.96819671  0.00349878  1
  V  V1  1  0.12392571  0.47706185  0.33069456  1
  V  V2  1  0.27618616  0.02450808  0.66374327  1
  V  V3  1  0.52999133  0.45947918  0.99648338  1
  V  V4  1  0.65145896  0.99288741  0.33392591  1
  V  V5  1  0.78040769  0.48117699  0.66441534  1
  O  O6  1  0.03407692  0.21025442  0.64226626  1
  O  O7  1  0.53647074  0.28886202  0.64370565  1
  O  O8  1  0.69755080  0.22187303  0.97967747  1
  O  O9  1  0.28337719  0.79377684  0.02059761  1
  O  O10  1  0.87333220  0.29678550  0.31088811  1
  F  F11  1  0.20921891  0.27971603  0.97306328  1
  F  F12  1  0.14015888  0.72422499  0.69074871  1
  F  F13  1  0.04241941  0.09746656  0.11467805  1
  F  F14  1  0.23152075  0.42353734  0.44930760  1
  F  F15  1  0.39657764  0.08183693  0.78158311  1
  F  F16  1  0.13586069  0.59857685  0.21972290  1
  F  F17  1  0.30919941  0.91726292  0.55294330  1
  F  F18  1  0.45357025  0.59369720  0.88495079  1
  F  F19  1  0.35290069  0.20381515  0.30774167  1
  F  F20  1  0.47693162  0.70363251  0.35698065  1
  F  F21  1  0.64357612  0.77358760  0.69175884  1
  F  F22  1  0.52296278  0.43649434  0.11600752  1
  F  F23  1  0.71270426  0.09374588  0.44993238  1
  F  F24  1  0.90250266  0.41991548  0.78169712  1
  F  F25  1  0.63837527  0.92706477  0.21590816  1
  F  F26  1  0.81061748  0.58355382  0.55241524  1
  F  F27  1  0.92686798  0.93053527  0.88406708  1
  F  F28  1  0.79775921  0.71238490  0.02727448  1
  F  F29  1  0.96837739  0.78408846  0.35932479  1
