# generated using pymatgen
data_Li4Cu2Ni5O12
_symmetry_space_group_name_H-M   'P 1'
_cell_length_a   5.27088700
_cell_length_b   8.56290069
_cell_length_c   9.57282687
_cell_angle_alpha   89.99999893
_cell_angle_beta   97.20321869
_cell_angle_gamma   89.99999288
_symmetry_Int_Tables_number   1
_chemical_formula_structural   Li4Cu2Ni5O12
_chemical_formula_sum   'Li8 Cu4 Ni10 O24'
_cell_volume   428.65078172
_cell_formula_units_Z   2
loop_
 _symmetry_equiv_pos_site_id
 _symmetry_equiv_pos_as_xyz
  1  'x, y, z'
loop_
 _atom_site_type_symbol
 _atom_site_label
 _atom_site_symmetry_multiplicity
 _atom_site_fract_x
 _atom_site_fract_y
 _atom_site_fract_z
 _atom_site_occupancy
  Li  Li0  1  0.74551504  0.09095811  0.50428744  1
  Li  Li1  1  0.24661554  0.39679571  0.99191806  1
  Li  Li2  1  0.49160939  0.42417129  0.73994194  1
  Li  Li3  1  0.76102595  0.41568285  0.50921722  1
  Li  Li4  1  0.00839061  0.92417129  0.76005806  1
  Li  Li5  1  0.75448496  0.59095811  0.99571256  1
  Li  Li6  1  0.25338446  0.89679571  0.50808194  1
  Li  Li7  1  0.73897405  0.91568285  0.99078278  1
  Cu  Cu8  1  0.99903050  0.25646262  0.75116459  1
  Cu  Cu9  1  0.49877502  0.23827872  0.24487227  1
  Cu  Cu10  1  0.00122498  0.73827872  0.25512773  1
  Cu  Cu11  1  0.50096950  0.75646262  0.74883541  1
  Ni  Ni12  1  0.00748200  0.07879428  0.24846987  1
  Ni  Ni13  1  0.49578694  0.09125204  0.74989499  1
  Ni  Ni14  1  0.25017485  0.25502051  0.50164209  1
  Ni  Ni15  1  0.99518457  0.41061136  0.25155974  1
  Ni  Ni16  1  0.74503743  0.25054081  0.99501250  1
  Ni  Ni17  1  0.00421306  0.59125204  0.75010501  1
  Ni  Ni18  1  0.49251800  0.57879428  0.25153013  1
  Ni  Ni19  1  0.24982515  0.75502051  0.99835791  1
  Ni  Ni20  1  0.75496257  0.75054081  0.50498750  1
  Ni  Ni21  1  0.50481543  0.91061136  0.24844026  1
  O  O22  1  0.12336242  0.10750342  0.63310471  1
  O  O23  1  0.38037864  0.08353308  0.35732082  1
  O  O24  1  0.06605250  0.25718945  0.11787077  1
  O  O25  1  0.64366259  0.08020120  0.14422424  1
  O  O26  1  0.43190621  0.25107271  0.87825879  1
  O  O27  1  0.85490230  0.10679168  0.86074985  1
  O  O28  1  0.10577005  0.41278170  0.63808115  1
  O  O29  1  0.57057065  0.24755549  0.61181091  1
  O  O30  1  0.37527886  0.38989833  0.35758193  1
  O  O31  1  0.92671104  0.25048319  0.38577733  1
  O  O32  1  0.61461233  0.39480739  0.13054661  1
  O  O33  1  0.11962136  0.58353308  0.14267918  1
  O  O34  1  0.90186610  0.41838306  0.86542375  1
  O  O35  1  0.37663758  0.60750342  0.86689529  1
  O  O36  1  0.06809379  0.75107271  0.62174121  1
  O  O37  1  0.64509770  0.60679168  0.63925015  1
  O  O38  1  0.43394750  0.75718945  0.38212923  1
  O  O39  1  0.85633741  0.58020120  0.35577576  1
  O  O40  1  0.12472114  0.88989833  0.14241807  1
  O  O41  1  0.57328896  0.75048319  0.11422267  1
  O  O42  1  0.39422995  0.91278170  0.86191885  1
  O  O43  1  0.92942935  0.74755549  0.88818909  1
  O  O44  1  0.59813390  0.91838306  0.63457625  1
  O  O45  1  0.88538767  0.89480739  0.36945339  1
