# generated using pymatgen
data_Ba2YI7
_symmetry_space_group_name_H-M   'P 1'
_cell_length_a   8.34697557
_cell_length_b   15.18447319
_cell_length_c   14.87646468
_cell_angle_alpha   90.00000000
_cell_angle_beta   101.36333405
_cell_angle_gamma   90.00000000
_symmetry_Int_Tables_number   1
_chemical_formula_structural   Ba2YI7
_chemical_formula_sum   'Ba8 Y4 I28'
_cell_volume   1848.54822776
_cell_formula_units_Z   4
loop_
 _symmetry_equiv_pos_site_id
 _symmetry_equiv_pos_as_xyz
  1  'x, y, z'
loop_
 _atom_site_type_symbol
 _atom_site_label
 _atom_site_symmetry_multiplicity
 _atom_site_fract_x
 _atom_site_fract_y
 _atom_site_fract_z
 _atom_site_occupancy
  Ba  Ba0  1  0.22881976  0.45536130  0.76625993  1
  Ba  Ba1  1  0.24579406  0.87065964  0.64157744  1
  Ba  Ba2  1  0.22985458  0.20534909  0.14376738  1
  Ba  Ba3  1  0.33364767  0.63869619  0.25044405  1
  Ba  Ba4  1  0.66635233  0.13869619  0.74955595  1
  Ba  Ba5  1  0.77014542  0.70534909  0.85623262  1
  Ba  Ba6  1  0.75420594  0.37065964  0.35842256  1
  Ba  Ba7  1  0.77118024  0.95536130  0.23374007  1
  Y  Y8  1  0.16649493  0.15569868  0.55193839  1
  Y  Y9  1  0.18331557  0.92253555  0.05235190  1
  Y  Y10  1  0.81668443  0.42253555  0.94764810  1
  Y  Y11  1  0.83350507  0.65569868  0.44806161  1
  I  I12  1  0.05101809  0.28655022  0.89475503  1
  I  I13  1  0.08261480  0.56174387  0.99326501  1
  I  I14  1  0.05127261  0.49950688  0.51367668  1
  I  I15  1  0.12737409  0.83980394  0.86508713  1
  I  I16  1  0.12651617  0.76008082  0.40921169  1
  I  I17  1  0.12664953  0.24279318  0.36647983  1
  I  I18  1  0.20916719  0.08417836  0.74641615  1
  I  I19  1  0.20161453  0.99144396  0.24958180  1
  I  I20  1  0.38529029  0.65963797  0.71286427  1
  I  I21  1  0.38358310  0.41482735  0.20681180  1
  I  I22  1  0.40208400  0.30677993  0.62143314  1
  I  I23  1  0.53191961  0.29451988  0.89399379  1
  I  I24  1  0.46472171  0.04430579  0.53730943  1
  I  I25  1  0.55582639  0.55247340  0.97027145  1
  I  I26  1  0.44417361  0.05247340  0.02972855  1
  I  I27  1  0.53527829  0.54430579  0.46269057  1
  I  I28  1  0.46808039  0.79451988  0.10600621  1
  I  I29  1  0.59791600  0.80677993  0.37856686  1
  I  I30  1  0.61641690  0.91482735  0.79318820  1
  I  I31  1  0.61470971  0.15963797  0.28713573  1
  I  I32  1  0.79838547  0.49144396  0.75041820  1
  I  I33  1  0.79083281  0.58417836  0.25358385  1
  I  I34  1  0.87335047  0.74279318  0.63352017  1
  I  I35  1  0.87348383  0.26008082  0.59078831  1
  I  I36  1  0.87262591  0.33980394  0.13491287  1
  I  I37  1  0.94872739  0.99950688  0.48632332  1
  I  I38  1  0.91738520  0.06174387  0.00673499  1
  I  I39  1  0.94898191  0.78655022  0.10524497  1
