# generated using pymatgen
data_LiSi6BiO14
_symmetry_space_group_name_H-M   'P 1'
_cell_length_a   13.14930429
_cell_length_b   13.14930429
_cell_length_c   7.65905383
_cell_angle_alpha   73.06813838
_cell_angle_beta   106.93186162
_cell_angle_gamma   82.72329686
_symmetry_Int_Tables_number   1
_chemical_formula_structural   LiSi6BiO14
_chemical_formula_sum   'Li4 Si24 Bi4 O56'
_cell_volume   1179.15896883
_cell_formula_units_Z   4
loop_
 _symmetry_equiv_pos_site_id
 _symmetry_equiv_pos_as_xyz
  1  'x, y, z'
loop_
 _atom_site_type_symbol
 _atom_site_label
 _atom_site_symmetry_multiplicity
 _atom_site_fract_x
 _atom_site_fract_y
 _atom_site_fract_z
 _atom_site_occupancy
  Li  Li0  1  0.75000000  0.75000000  0.00000000  1
  Li  Li1  1  0.25000000  0.25000000  0.00000000  1
  Li  Li2  1  0.00000000  0.00000000  0.50000000  1
  Li  Li3  1  0.50000000  0.50000000  0.50000000  1
  Si  Si4  1  0.86758090  0.13241910  0.04329119  1
  Si  Si5  1  0.63241910  0.36758090  0.30812940  1
  Si  Si6  1  0.33375402  0.66624598  0.07285522  1
  Si  Si7  1  0.42516936  0.27788684  0.33241130  1
  Si  Si8  1  0.07483064  0.22211316  0.18512978  1
  Si  Si9  1  0.77788684  0.92516936  0.18512978  1
  Si  Si10  1  0.72211316  0.57483064  0.33241130  1
  Si  Si11  1  0.83375402  0.16624598  0.59465282  1
  Si  Si12  1  0.26984685  0.02631757  0.47596125  1
  Si  Si13  1  0.52631757  0.76984685  0.23243197  1
  Si  Si14  1  0.97368243  0.73015315  0.47596125  1
  Si  Si15  1  0.23015315  0.47368243  0.23243197  1
  Si  Si16  1  0.02631757  0.26984685  0.52403875  1
  Si  Si17  1  0.73015315  0.97368243  0.52403875  1
  Si  Si18  1  0.47368243  0.23015315  0.76756803  1
  Si  Si19  1  0.76984685  0.52631757  0.76756803  1
  Si  Si20  1  0.16624598  0.83375402  0.40534718  1
  Si  Si21  1  0.92516936  0.77788684  0.81487022  1
  Si  Si22  1  0.27788684  0.42516936  0.66758870  1
  Si  Si23  1  0.57483064  0.72211316  0.66758870  1
  Si  Si24  1  0.22211316  0.07483064  0.81487022  1
  Si  Si25  1  0.66624598  0.33375402  0.92714478  1
  Si  Si26  1  0.36758090  0.63241910  0.69187060  1
  Si  Si27  1  0.13241910  0.86758090  0.95670881  1
  Bi  Bi28  1  0.46550490  0.03449510  0.21550490  1
  Bi  Bi29  1  0.96550490  0.53449510  0.21550490  1
  Bi  Bi30  1  0.03449510  0.46550490  0.78449510  1
  Bi  Bi31  1  0.53449510  0.96550490  0.78449510  1
  O  O32  1  0.98695436  0.14146230  0.17313010  1
  O  O33  1  0.85853770  0.01304564  0.17313010  1
  O  O34  1  0.77052773  0.22947227  0.02536784  1
  O  O35  1  0.91840852  0.70844610  0.01896774  1
  O  O36  1  0.29155390  0.08159148  0.01896774  1
  O  O37  1  0.63632106  0.36367894  0.10045447  1
  O  O38  1  0.41840852  0.20844610  0.19099568  1
  O  O39  1  0.79155390  0.58159148  0.19099568  1
  O  O40  1  0.93976865  0.18827285  0.53211930  1
  O  O41  1  0.81172715  0.06023135  0.53211930  1
  O  O42  1  0.61443119  0.01577475  0.53951764  1
  O  O43  1  0.98422525  0.38556881  0.53951764  1
  O  O44  1  0.51304564  0.35853770  0.32763704  1
  O  O45  1  0.64146230  0.48695436  0.32763704  1
  O  O46  1  0.72947227  0.27052773  0.48431238  1
  O  O47  1  0.48422525  0.88556881  0.05913880  1
  O  O48  1  0.11443119  0.51577475  0.05913880  1
  O  O49  1  0.30329962  0.35736717  0.25701174  1
  O  O50  1  0.19670038  0.14263283  0.31107929  1
  O  O51  1  0.85736717  0.80329962  0.31107929  1
  O  O52  1  0.64263283  0.69670038  0.25701174  1
  O  O53  1  0.31172715  0.56023135  0.21937751  1
  O  O54  1  0.43976865  0.68827285  0.21937751  1
  O  O55  1  0.04086077  0.29563996  0.30913792  1
  O  O56  1  0.70436004  0.95913923  0.30913792  1
  O  O57  1  0.45913923  0.20436004  0.56391611  1
  O  O58  1  0.79563996  0.54086077  0.56391611  1
  O  O59  1  0.86367894  0.13632106  0.82781235  1
  O  O60  1  0.13632106  0.86367894  0.17218765  1
  O  O61  1  0.20436004  0.45913923  0.43608389  1
  O  O62  1  0.95913923  0.70436004  0.69086208  1
  O  O63  1  0.29563996  0.04086077  0.69086208  1
  O  O64  1  0.54086077  0.79563996  0.43608389  1
  O  O65  1  0.68827285  0.43976865  0.78062249  1
  O  O66  1  0.56023135  0.31172715  0.78062249  1
  O  O67  1  0.80329962  0.85736717  0.68892071  1
  O  O68  1  0.35736717  0.30329962  0.74298826  1
  O  O69  1  0.14263283  0.19670038  0.68892071  1
  O  O70  1  0.69670038  0.64263283  0.74298826  1
  O  O71  1  0.51577475  0.11443119  0.94086120  1
  O  O72  1  0.88556881  0.48422525  0.94086120  1
  O  O73  1  0.27052773  0.72947227  0.51568762  1
  O  O74  1  0.35853770  0.51304564  0.67236296  1
  O  O75  1  0.48695436  0.64146230  0.67236296  1
  O  O76  1  0.38556881  0.98422525  0.46048236  1
  O  O77  1  0.01577475  0.61443119  0.46048236  1
  O  O78  1  0.06023135  0.81172715  0.46788070  1
  O  O79  1  0.18827285  0.93976865  0.46788070  1
  O  O80  1  0.20844610  0.41840852  0.80900432  1
  O  O81  1  0.58159148  0.79155390  0.80900432  1
  O  O82  1  0.36367894  0.63632106  0.89954553  1
  O  O83  1  0.08159148  0.29155390  0.98103226  1
  O  O84  1  0.70844610  0.91840852  0.98103226  1
  O  O85  1  0.22947227  0.77052773  0.97463216  1
  O  O86  1  0.01304564  0.85853770  0.82686990  1
  O  O87  1  0.14146230  0.98695436  0.82686990  1
