# generated using pymatgen
data_Yb2TiO5
_symmetry_space_group_name_H-M   'P 1'
_cell_length_a   10.92997052
_cell_length_b   11.09841994
_cell_length_c   3.67788843
_cell_angle_alpha   90.00000000
_cell_angle_beta   90.00000000
_cell_angle_gamma   90.00000000
_symmetry_Int_Tables_number   1
_chemical_formula_structural   Yb2TiO5
_chemical_formula_sum   'Yb8 Ti4 O20'
_cell_volume   446.14773732
_cell_formula_units_Z   4
loop_
 _symmetry_equiv_pos_site_id
 _symmetry_equiv_pos_as_xyz
  1  'x, y, z'
loop_
 _atom_site_type_symbol
 _atom_site_label
 _atom_site_symmetry_multiplicity
 _atom_site_fract_x
 _atom_site_fract_y
 _atom_site_fract_z
 _atom_site_occupancy
  Yb  Yb0  1  0.10720025  0.71794044  0.25000000  1
  Yb  Yb1  1  0.14018522  0.06187499  0.25000000  1
  Yb  Yb2  1  0.35981478  0.56187499  0.75000000  1
  Yb  Yb3  1  0.39279975  0.21794044  0.75000000  1
  Yb  Yb4  1  0.60720025  0.78205956  0.25000000  1
  Yb  Yb5  1  0.64018522  0.43812501  0.25000000  1
  Yb  Yb6  1  0.85981478  0.93812501  0.75000000  1
  Yb  Yb7  1  0.89279975  0.28205956  0.75000000  1
  Ti  Ti8  1  0.17469473  0.37471089  0.25000000  1
  Ti  Ti9  1  0.32530527  0.87471089  0.75000000  1
  Ti  Ti10  1  0.67469473  0.12528911  0.25000000  1
  Ti  Ti11  1  0.82530527  0.62528911  0.75000000  1
  O  O12  1  0.00711964  0.09323403  0.75000000  1
  O  O13  1  0.01740980  0.33672089  0.25000000  1
  O  O14  1  0.22247824  0.54221006  0.25000000  1
  O  O15  1  0.23507939  0.38713977  0.75000000  1
  O  O16  1  0.23857299  0.72981349  0.75000000  1
  O  O17  1  0.26142701  0.22981349  0.25000000  1
  O  O18  1  0.26492061  0.88713977  0.25000000  1
  O  O19  1  0.27752176  0.04221106  0.75000000  1
  O  O20  1  0.48259020  0.83672089  0.75000000  1
  O  O21  1  0.49288036  0.59323403  0.25000000  1
  O  O22  1  0.50711964  0.40676597  0.75000000  1
  O  O23  1  0.51740980  0.16327911  0.25000000  1
  O  O24  1  0.72247824  0.95778994  0.25000000  1
  O  O25  1  0.73507939  0.11286023  0.75000000  1
  O  O26  1  0.73857299  0.77018651  0.75000000  1
  O  O27  1  0.76142701  0.27018651  0.25000000  1
  O  O28  1  0.76492061  0.61286023  0.25000000  1
  O  O29  1  0.77752176  0.45778894  0.75000000  1
  O  O30  1  0.98259020  0.66327911  0.75000000  1
  O  O31  1  0.99288036  0.90676597  0.25000000  1
