# generated using pymatgen
data_Ti17(NO4)6
_symmetry_space_group_name_H-M   'P 1'
_cell_length_a   7.64343023
_cell_length_b   14.64910403
_cell_length_c   10.73889200
_cell_angle_alpha   92.67854568
_cell_angle_beta   69.15113087
_cell_angle_gamma   97.49356531
_symmetry_Int_Tables_number   1
_chemical_formula_structural   Ti17(NO4)6
_chemical_formula_sum   'Ti34 N12 O48'
_cell_volume   1114.09838416
_cell_formula_units_Z   2
loop_
 _symmetry_equiv_pos_site_id
 _symmetry_equiv_pos_as_xyz
  1  'x, y, z'
loop_
 _atom_site_type_symbol
 _atom_site_label
 _atom_site_symmetry_multiplicity
 _atom_site_fract_x
 _atom_site_fract_y
 _atom_site_fract_z
 _atom_site_occupancy
  Ti  Ti0  1  0.02580383  0.24267973  0.07018485  1
  Ti  Ti1  1  0.19840057  0.90733738  0.05684102  1
  Ti  Ti2  1  0.01339623  0.90495258  0.42567177  1
  Ti  Ti3  1  0.00937360  0.53619218  0.75001629  1
  Ti  Ti4  1  0.34949974  0.57321078  0.07612539  1
  Ti  Ti5  1  0.15613317  0.13056347  0.24964850  1
  Ti  Ti6  1  0.15830389  0.76009780  0.57619475  1
  Ti  Ti7  1  0.32396040  0.79714082  0.24998371  1
  Ti  Ti8  1  0.17502911  0.57323520  0.42380525  1
  Ti  Ti9  1  0.13493243  0.42599662  0.94315898  1
  Ti  Ti10  1  0.17720083  0.20277053  0.75035150  1
  Ti  Ti11  1  0.34676031  0.24156606  0.42788116  1
  Ti  Ti12  1  0.31993677  0.42838142  0.57432823  1
  Ti  Ti13  1  0.50532899  0.90736724  0.44290052  1
  Ti  Ti14  1  0.52404076  0.24155494  0.07216853  1
  Ti  Ti15  1  0.68895334  0.90496890  0.07449819  1
  Ti  Ti16  1  0.49164331  0.46672123  0.25004655  1
  Ti  Ti17  1  0.48778664  0.09062699  0.57021543  1
  Ti  Ti18  1  0.64561400  0.76011077  0.57618611  1
  Ti  Ti19  1  0.68771900  0.57322223  0.42381389  1
  Ti  Ti20  1  0.65920430  0.13058524  0.25038498  1
  Ti  Ti21  1  0.50877204  0.53619779  0.74998649  1
  Ti  Ti22  1  0.47234485  0.76012985  0.92383219  1
  Ti  Ti23  1  0.30752917  0.09065427  0.92981515  1
  Ti  Ti24  1  0.86098815  0.57320415  0.07616781  1
  Ti  Ti25  1  0.82456096  0.79713621  0.25001351  1
  Ti  Ti26  1  0.82800401  0.42596576  0.55709948  1
  Ti  Ti27  1  0.67412970  0.20274776  0.74961502  1
  Ti  Ti28  1  0.64437966  0.42836410  0.92550181  1
  Ti  Ti29  1  0.84169069  0.86661177  0.74995345  1
  Ti  Ti30  1  0.84554736  0.24270601  0.42978457  1
  Ti  Ti31  1  0.98657269  0.09176694  0.57211884  1
  Ti  Ti32  1  0.80929324  0.09177906  0.92783147  1
  Ti  Ti33  1  0.98383426  0.76012222  0.92387461  1
  N  N34  1  0.08654913  0.84581981  0.24974960  1
  N  N35  1  0.27375251  0.52176216  0.24997910  1
  N  N36  1  0.05958149  0.81157084  0.75002090  1
  N  N37  1  0.58638225  0.84568644  0.25005839  1
  N  N38  1  0.24678387  0.48751419  0.75025040  1
  N  N39  1  0.41994399  0.17956788  0.25001212  1
  N  N40  1  0.59619360  0.81161114  0.74996671  1
  N  N41  1  0.41384812  0.15555320  0.75003503  1
  N  N42  1  0.73713940  0.52172186  0.25003329  1
  N  N43  1  0.91948488  0.17777980  0.24996497  1
  N  N44  1  0.74695075  0.48764656  0.74994161  1
  N  N45  1  0.91339001  0.15376612  0.74998788  1
  O  O46  1  0.11250465  0.54860240  0.04931263  1
  O  O47  1  0.03553414  0.36233275  0.10897508  1
  O  O48  1  0.43568858  0.87480408  0.06448431  1
  O  O49  1  0.36780647  0.69856208  0.11971724  1
  O  O50  1  0.08440452  0.20737562  0.43562938  1
  O  O51  1  0.19656739  0.03255989  0.12288161  1
  O  O52  1  0.26921984  0.20888531  0.06677005  1
  O  O53  1  0.08167134  0.45853922  0.56455640  1
  O  O54  1  0.10383087  0.63474360  0.61974679  1
  O  O55  1  0.25166166  0.87479378  0.43544360  1
  O  O56  1  0.22950313  0.69858940  0.38025321  1
  O  O57  1  0.06680245  0.03189699  0.38243569  1
  O  O58  1  0.24892848  0.12595738  0.56437062  1
  O  O59  1  0.41442169  0.53864087  0.44040547  1
  O  O60  1  0.22082935  0.78473060  0.95068737  1
  O  O61  1  0.29779986  0.97100025  0.89102492  1
  O  O62  1  0.53212210  0.36452598  0.11892029  1
  O  O63  1  0.60496910  0.53843667  0.05936205  1
  O  O64  1  0.13676561  0.30077311  0.87711839  1
  O  O65  1  0.06411316  0.12444769  0.93322995  1
  O  O66  1  0.42186702  0.78502525  0.54882588  1
  O  O67  1  0.26653055  0.30143601  0.61756431  1
  O  O68  1  0.43784630  0.97099682  0.60890008  1
  O  O69  1  0.40003417  0.36456577  0.38114902  1
  O  O70  1  0.69908739  0.03192356  0.11758672  1
  O  O71  1  0.86182530  0.69856613  0.11972410  1
  O  O72  1  0.56964435  0.03264880  0.37715291  1
  O  O73  1  0.58522762  0.20893961  0.43329700  1
  O  O74  1  0.76931715  0.20736307  0.06435540  1
  O  O75  1  0.39611807  0.45848588  0.93556813  1
  O  O76  1  0.59383366  0.63475054  0.61977836  1
  O  O77  1  0.93721593  0.87484812  0.06443187  1
  O  O78  1  0.58307907  0.45848972  0.56449814  1
  O  O79  1  0.73949934  0.69858246  0.38022164  1
  O  O80  1  0.75025493  0.87484328  0.43550186  1
  O  O81  1  0.47150870  0.63476787  0.88027590  1
  O  O82  1  0.89548770  0.36233718  0.39109992  1
  O  O83  1  0.80121090  0.96880702  0.88107971  1
  O  O84  1  0.74810638  0.12439339  0.56670300  1
  O  O85  1  0.56401585  0.12597093  0.93564460  1
  O  O86  1  0.91146598  0.54830775  0.45117412  1
  O  O87  1  0.72836390  0.79489733  0.94063795  1
  O  O88  1  0.93329883  0.96876823  0.61885098  1
  O  O89  1  0.91891131  0.79469213  0.55959453  1
  O  O90  1  0.63424661  0.30140944  0.88241328  1
  O  O91  1  0.76368965  0.30068420  0.62284709  1
  O  O92  1  0.96552653  0.63477192  0.88028276  1
  O  O93  1  0.89764442  0.45852892  0.93551569  1
