# generated using pymatgen
data_K2Si4O9
_symmetry_space_group_name_H-M   'P 1'
_cell_length_a   6.70507625
_cell_length_b   6.70507625
_cell_length_c   9.63649341
_cell_angle_alpha   90.00000000
_cell_angle_beta   90.00000000
_cell_angle_gamma   120.00000004
_symmetry_Int_Tables_number   1
_chemical_formula_structural   K2Si4O9
_chemical_formula_sum   'K4 Si8 O18'
_cell_volume   375.19505197
_cell_formula_units_Z   2
loop_
 _symmetry_equiv_pos_site_id
 _symmetry_equiv_pos_as_xyz
  1  'x, y, z'
loop_
 _atom_site_type_symbol
 _atom_site_label
 _atom_site_symmetry_multiplicity
 _atom_site_fract_x
 _atom_site_fract_y
 _atom_site_fract_z
 _atom_site_occupancy
  O  O0  1  0.23314767  0.20720248  0.39406821  1
  O  O1  1  0.02594519  0.23314767  0.89406821  1
  O  O2  1  0.20720248  0.97405481  0.89406821  1
  O  O3  1  0.79279752  0.02594519  0.39406821  1
  O  O4  1  0.97405481  0.76685233  0.39406821  1
  O  O5  1  0.76685233  0.79279752  0.89406821  1
  O  O6  1  0.76685233  0.79279752  0.60593179  1
  O  O7  1  0.97405481  0.76685233  0.10593179  1
  O  O8  1  0.79279752  0.02594519  0.10593179  1
  O  O9  1  0.20720248  0.97405481  0.60593179  1
  O  O10  1  0.02594519  0.23314767  0.60593179  1
  O  O11  1  0.23314767  0.20720248  0.10593179  1
  O  O12  1  0.49313545  0.07331313  0.25000000  1
  O  O13  1  0.41982232  0.49313545  0.75000000  1
  O  O14  1  0.07331313  0.58017768  0.75000000  1
  O  O15  1  0.92668687  0.41982232  0.25000000  1
  O  O16  1  0.58017768  0.50686455  0.25000000  1
  O  O17  1  0.50686455  0.92668687  0.75000000  1
  Si  Si18  1  0.63425688  0.76818132  0.75000000  1
  Si  Si19  1  0.86607556  0.63425688  0.25000000  1
  Si  Si20  1  0.76818132  0.13392444  0.25000000  1
  Si  Si21  1  0.23181868  0.86607556  0.75000000  1
  Si  Si22  1  0.13392444  0.36574312  0.75000000  1
  Si  Si23  1  0.36574312  0.23181868  0.25000000  1
  Si  Si24  1  0.00000000  0.00000000  0.50000000  1
  Si  Si25  1  0.00000000  0.00000000  0.00000000  1
  K  K26  1  0.33333333  0.66666667  0.44155646  1
  K  K27  1  0.66666667  0.33333333  0.94155646  1
  K  K28  1  0.66666667  0.33333333  0.55844354  1
  K  K29  1  0.33333333  0.66666667  0.05844354  1
