# generated using pymatgen
data_CdSnO3
_symmetry_space_group_name_H-M   'P 1'
_cell_length_a   5.55403435
_cell_length_b   5.67787314
_cell_length_c   8.03568794
_cell_angle_alpha   90.00000000
_cell_angle_beta   90.00000000
_cell_angle_gamma   90.00000000
_symmetry_Int_Tables_number   1
_chemical_formula_structural   CdSnO3
_chemical_formula_sum   'Cd4 Sn4 O12'
_cell_volume   253.40624248
_cell_formula_units_Z   4
loop_
 _symmetry_equiv_pos_site_id
 _symmetry_equiv_pos_as_xyz
  1  'x, y, z'
loop_
 _atom_site_type_symbol
 _atom_site_label
 _atom_site_symmetry_multiplicity
 _atom_site_fract_x
 _atom_site_fract_y
 _atom_site_fract_z
 _atom_site_occupancy
  Cd  Cd0  1  0.01210965  0.95265677  0.75000000  1
  Cd  Cd1  1  0.48789035  0.45265677  0.75000000  1
  Cd  Cd2  1  0.51210965  0.54734323  0.25000000  1
  Cd  Cd3  1  0.98789035  0.04734323  0.25000000  1
  Sn  Sn4  1  0.00000000  0.50000000  0.00000000  1
  Sn  Sn5  1  0.00000000  0.50000000  0.50000000  1
  Sn  Sn6  1  0.50000000  0.00000000  0.00000000  1
  Sn  Sn7  1  0.50000000  0.00000000  0.50000000  1
  O  O8  1  0.11354494  0.44925359  0.25000000  1
  O  O9  1  0.19419479  0.19726774  0.56122240  1
  O  O10  1  0.19419479  0.19726774  0.93877760  1
  O  O11  1  0.30580521  0.69726774  0.56122240  1
  O  O12  1  0.30580521  0.69726774  0.93877760  1
  O  O13  1  0.38645506  0.94925359  0.25000000  1
  O  O14  1  0.61354494  0.05074641  0.75000000  1
  O  O15  1  0.69419479  0.30273226  0.06122240  1
  O  O16  1  0.69419479  0.30273226  0.43877760  1
  O  O17  1  0.80580521  0.80273226  0.06122240  1
  O  O18  1  0.80580521  0.80273226  0.43877760  1
  O  O19  1  0.88645506  0.55074641  0.75000000  1
