# generated using pymatgen
data_Li2CuSiO4
_symmetry_space_group_name_H-M   'P 1'
_cell_length_a   5.09211943
_cell_length_b   4.84285463
_cell_length_c   6.91543555
_cell_angle_alpha   90.00000000
_cell_angle_beta   89.75773813
_cell_angle_gamma   90.00000000
_symmetry_Int_Tables_number   1
_chemical_formula_structural   Li2CuSiO4
_chemical_formula_sum   'Li4 Cu2 Si2 O8'
_cell_volume   170.53584192
_cell_formula_units_Z   2
loop_
 _symmetry_equiv_pos_site_id
 _symmetry_equiv_pos_as_xyz
  1  'x, y, z'
loop_
 _atom_site_type_symbol
 _atom_site_label
 _atom_site_symmetry_multiplicity
 _atom_site_fract_x
 _atom_site_fract_y
 _atom_site_fract_z
 _atom_site_occupancy
  Li  Li0  1  0.17456651  0.00582987  0.26341726  1
  Li  Li1  1  0.18861681  0.49568077  0.49300379  1
  Li  Li2  1  0.81138319  0.99568077  0.50699621  1
  Li  Li3  1  0.82543349  0.50582987  0.73658274  1
  Cu  Cu4  1  0.24716551  0.51844569  0.00331895  1
  Cu  Cu5  1  0.75283449  0.01844569  0.99668105  1
  Si  Si6  1  0.30442685  0.99231450  0.74007173  1
  Si  Si7  1  0.69557315  0.49231450  0.25992827  1
  O  O8  1  0.18344436  0.11936708  0.94929776  1
  O  O9  1  0.17855897  0.10741150  0.54296783  1
  O  O10  1  0.23723815  0.65607665  0.74825318  1
  O  O11  1  0.62566823  0.05883694  0.74301729  1
  O  O12  1  0.37433177  0.55883694  0.25698271  1
  O  O13  1  0.76276185  0.15607665  0.25174682  1
  O  O14  1  0.82144103  0.60741150  0.45703217  1
  O  O15  1  0.81655564  0.61936708  0.05070224  1
