# generated using pymatgen
data_Zr7VO16
_symmetry_space_group_name_H-M   'P 1'
_cell_length_a   7.39570143
_cell_length_b   7.34037185
_cell_length_c   6.82531781
_cell_angle_alpha   63.98570647
_cell_angle_beta   63.52030774
_cell_angle_gamma   90.78438752
_symmetry_Int_Tables_number   1
_chemical_formula_structural   Zr7VO16
_chemical_formula_sum   'Zr7 V1 O16'
_cell_volume   287.79338061
_cell_formula_units_Z   1
loop_
 _symmetry_equiv_pos_site_id
 _symmetry_equiv_pos_as_xyz
  1  'x, y, z'
loop_
 _atom_site_type_symbol
 _atom_site_label
 _atom_site_symmetry_multiplicity
 _atom_site_fract_x
 _atom_site_fract_y
 _atom_site_fract_z
 _atom_site_occupancy
  Zr  Zr0  1  0.01583803  0.05364772  0.20651107  1
  Zr  Zr1  1  0.54999938  0.00864450  0.71671989  1
  Zr  Zr2  1  0.05981418  0.51819575  0.70460174  1
  Zr  Zr3  1  0.51210064  0.56307328  0.21349504  1
  Zr  Zr4  1  0.48734395  0.44067782  0.79118741  1
  Zr  Zr5  1  0.94430673  0.48753607  0.29018881  1
  Zr  Zr6  1  0.98473941  0.94797882  0.78717356  1
  V  V7  1  0.44707089  0.99984855  0.30587876  1
  O  O8  1  0.13566351  0.39446718  0.02155631  1
  O  O9  1  0.46923493  0.28814271  0.16363653  1
  O  O10  1  0.03143235  0.19728799  0.84198043  1
  O  O11  1  0.19522441  0.51989112  0.34738799  1
  O  O12  1  0.68517416  0.01716773  0.34298803  1
  O  O13  1  0.35924038  0.10642663  0.97655267  1
  O  O14  1  0.60642591  0.36263526  0.47819810  1
  O  O15  1  0.12046414  0.87085778  0.46984569  1
  O  O16  1  0.88652708  0.12979516  0.51982141  1
  O  O17  1  0.39619032  0.63836450  0.52122388  1
  O  O18  1  0.63234009  0.90021009  0.02756958  1
  O  O19  1  0.80613989  0.47691841  0.65197344  1
  O  O20  1  0.30809685  0.97401639  0.64427790  1
  O  O21  1  0.97969190  0.80533844  0.14702119  1
  O  O22  1  0.52579543  0.69094516  0.85310377  1
  O  O23  1  0.86114447  0.60793193  0.97710580  1
