# generated using pymatgen
data_Li2V3CrO8
_symmetry_space_group_name_H-M   'P 1'
_cell_length_a   5.97879702
_cell_length_b   5.97879661
_cell_length_c   5.97879644
_cell_angle_alpha   59.01417525
_cell_angle_beta   59.01417368
_cell_angle_gamma   59.01417735
_symmetry_Int_Tables_number   1
_chemical_formula_structural   Li2V3CrO8
_chemical_formula_sum   'Li2 V3 Cr1 O8'
_cell_volume   147.72352874
_cell_formula_units_Z   1
loop_
 _symmetry_equiv_pos_site_id
 _symmetry_equiv_pos_as_xyz
  1  'x, y, z'
loop_
 _atom_site_type_symbol
 _atom_site_label
 _atom_site_symmetry_multiplicity
 _atom_site_fract_x
 _atom_site_fract_y
 _atom_site_fract_z
 _atom_site_occupancy
  Li  Li0  1  0.12451465  0.12451465  0.12451465  1
  Li  Li1  1  0.87548535  0.87548535  0.87548535  1
  V  V2  1  0.00000000  0.50000000  0.50000000  1
  V  V3  1  0.50000000  0.00000000  0.50000000  1
  V  V4  1  0.50000000  0.50000000  0.00000000  1
  Cr  Cr5  1  0.50000000  0.50000000  0.50000000  1
  O  O6  1  0.26102478  0.26102478  0.26102478  1
  O  O7  1  0.25932238  0.25932238  0.71543834  1
  O  O8  1  0.25932238  0.71543834  0.25932238  1
  O  O9  1  0.71543834  0.25932238  0.25932238  1
  O  O10  1  0.28456166  0.74067762  0.74067762  1
  O  O11  1  0.74067762  0.28456166  0.74067762  1
  O  O12  1  0.74067762  0.74067762  0.28456166  1
  O  O13  1  0.73897522  0.73897522  0.73897522  1
