# generated using pymatgen
data_CsMn(CN)3
_symmetry_space_group_name_H-M   'P 1'
_cell_length_a   7.14797815
_cell_length_b   7.14785207
_cell_length_c   7.14782114
_cell_angle_alpha   60.00243768
_cell_angle_beta   59.99973475
_cell_angle_gamma   60.00102185
_symmetry_Int_Tables_number   1
_chemical_formula_structural   CsMn(CN)3
_chemical_formula_sum   'Cs2 Mn2 C6 N6'
_cell_volume   258.24262900
_cell_formula_units_Z   2
loop_
 _symmetry_equiv_pos_site_id
 _symmetry_equiv_pos_as_xyz
  1  'x, y, z'
loop_
 _atom_site_type_symbol
 _atom_site_label
 _atom_site_symmetry_multiplicity
 _atom_site_fract_x
 _atom_site_fract_y
 _atom_site_fract_z
 _atom_site_occupancy
  Cs  Cs0  1  0.24999748  0.24999941  0.24999918  1
  Cs  Cs1  1  0.74999992  0.75000005  0.74999850  1
  Mn  Mn2  1  0.00000020  0.00000129  -0.00000127  1
  Mn  Mn3  1  0.50000039  0.49999337  0.50000304  1
  C  C4  1  0.69012278  0.30988072  0.30988018  1
  C  C5  1  0.30988033  0.69011630  0.69011668  1
  C  C6  1  0.30987304  0.69013002  0.30987314  1
  C  C7  1  0.30987562  0.30987620  0.69012692  1
  C  C8  1  0.69012381  0.30987335  0.69012360  1
  C  C9  1  0.69012128  0.69012108  0.30987598  1
  N  N10  1  0.80751102  0.19249309  0.19249358  1
  N  N11  1  0.19248665  0.80751080  0.80750745  1
  N  N12  1  0.19250163  0.80750327  0.19250233  1
  N  N13  1  0.19249777  0.19249823  0.80750560  1
  N  N14  1  0.80750078  0.19249450  0.80750078  1
  N  N15  1  0.80750430  0.80750532  0.19249132  1
