# generated using pymatgen
data_NaAl6Fe3Si6B3H3O30F
_symmetry_space_group_name_H-M   'P 1'
_cell_length_a   9.59169298
_cell_length_b   9.59169298
_cell_length_c   9.59169241
_cell_angle_alpha   113.84691924
_cell_angle_beta   113.84691924
_cell_angle_gamma   113.84691545
_symmetry_Int_Tables_number   1
_chemical_formula_structural   NaAl6Fe3Si6B3H3O30F
_chemical_formula_sum   'Na1 Al6 Fe3 Si6 B3 H3 O30 F1'
_cell_volume   542.16018908
_cell_formula_units_Z   1
loop_
 _symmetry_equiv_pos_site_id
 _symmetry_equiv_pos_as_xyz
  1  'x, y, z'
loop_
 _atom_site_type_symbol
 _atom_site_label
 _atom_site_symmetry_multiplicity
 _atom_site_fract_x
 _atom_site_fract_y
 _atom_site_fract_z
 _atom_site_occupancy
  Na  Na0  1  0.21919348  0.21919348  0.21919348  1
  Al  Al1  1  0.57286038  0.90640525  0.34926317  1
  Al  Al2  1  0.90640525  0.34926317  0.57286038  1
  Al  Al3  1  0.34926317  0.57286038  0.90640525  1
  Al  Al4  1  0.57286038  0.34926317  0.90640525  1
  Al  Al5  1  0.34926317  0.90640525  0.57286038  1
  Al  Al6  1  0.90640525  0.57286038  0.34926317  1
  Fe  Fe7  1  0.74364778  0.57669288  0.57669288  1
  Fe  Fe8  1  0.57669288  0.57669288  0.74364778  1
  Fe  Fe9  1  0.57669288  0.74364778  0.57669288  1
  Si  Si10  1  0.99407238  0.18773452  0.80532219  1
  Si  Si11  1  0.18773452  0.80532219  0.99407238  1
  Si  Si12  1  0.80532219  0.99407238  0.18773452  1
  Si  Si13  1  0.99407238  0.80532219  0.18773452  1
  Si  Si14  1  0.80532219  0.18773452  0.99407238  1
  Si  Si15  1  0.18773452  0.99407238  0.80532219  1
  B  B16  1  0.22657474  0.56019338  0.56019338  1
  B  B17  1  0.56019338  0.56019338  0.22657474  1
  B  B18  1  0.56019338  0.22657474  0.56019338  1
  H  H19  1  0.64283426  0.24506576  0.24506576  1
  H  H20  1  0.24506576  0.24506576  0.64283426  1
  H  H21  1  0.24506576  0.64283426  0.24506576  1
  O  O22  1  0.34208696  0.52830350  0.52830350  1
  O  O23  1  0.52830350  0.52830350  0.34208696  1
  O  O24  1  0.52830350  0.34208696  0.52830350  1
  O  O25  1  0.78193403  0.37559406  0.37559406  1
  O  O26  1  0.37559406  0.37559406  0.78193403  1
  O  O27  1  0.37559406  0.78193403  0.37559406  1
  O  O28  1  0.88070453  0.16021270  0.16021270  1
  O  O29  1  0.16021270  0.16021270  0.88070453  1
  O  O30  1  0.16021270  0.88070453  0.16021270  1
  O  O31  1  0.27316610  0.99316906  0.99316906  1
  O  O32  1  0.99316906  0.99316906  0.27316610  1
  O  O33  1  0.99316906  0.27316610  0.99316906  1
  O  O34  1  0.76545102  0.96922019  0.58535619  1
  O  O35  1  0.96922019  0.58535619  0.76545102  1
  O  O36  1  0.58535619  0.76545102  0.96922019  1
  O  O37  1  0.76545102  0.58535619  0.96922019  1
  O  O38  1  0.58535619  0.96922019  0.76545102  1
  O  O39  1  0.96922019  0.76545102  0.58535619  1
  O  O40  1  0.07873555  0.36417784  0.79300641  1
  O  O41  1  0.36417784  0.79300641  0.07873555  1
  O  O42  1  0.79300641  0.07873555  0.36417784  1
  O  O43  1  0.07873555  0.79300641  0.36417784  1
  O  O44  1  0.79300641  0.36417784  0.07873555  1
  O  O45  1  0.36417784  0.07873555  0.79300641  1
  O  O46  1  0.50260579  0.65184179  0.16836918  1
  O  O47  1  0.65184179  0.16836918  0.50260579  1
  O  O48  1  0.16836918  0.50260579  0.65184179  1
  O  O49  1  0.50260579  0.16836918  0.65184179  1
  O  O50  1  0.16836918  0.65184179  0.50260579  1
  O  O51  1  0.65184179  0.50260579  0.16836918  1
  F  F52  1  0.84942171  0.84942171  0.84942171  1
