# generated using pymatgen
data_Li2Cu2(SO4)3
_symmetry_space_group_name_H-M   'P 1'
_cell_length_a   8.64649600
_cell_length_b   8.68090343
_cell_length_c   24.13149034
_cell_angle_alpha   90.00000000
_cell_angle_beta   90.00000000
_cell_angle_gamma   90.00000000
_symmetry_Int_Tables_number   1
_chemical_formula_structural   Li2Cu2(SO4)3
_chemical_formula_sum   'Li16 Cu16 S24 O96'
_cell_volume   1811.29510842
_cell_formula_units_Z   8
loop_
 _symmetry_equiv_pos_site_id
 _symmetry_equiv_pos_as_xyz
  1  'x, y, z'
loop_
 _atom_site_type_symbol
 _atom_site_label
 _atom_site_symmetry_multiplicity
 _atom_site_fract_x
 _atom_site_fract_y
 _atom_site_fract_z
 _atom_site_occupancy
  Li  Li0  1  0.03756158  0.62353150  0.29093107  1
  Li  Li1  1  0.03756158  0.87646850  0.79093107  1
  Li  Li2  1  0.14650150  0.93114172  0.00816930  1
  Li  Li3  1  0.14650150  0.56885828  0.50816930  1
  Li  Li4  1  0.35349850  0.06885828  0.50816930  1
  Li  Li5  1  0.35349850  0.43114172  0.00816930  1
  Li  Li6  1  0.46243842  0.12353150  0.29093107  1
  Li  Li7  1  0.46243842  0.37646850  0.79093107  1
  Li  Li8  1  0.53756158  0.62353150  0.20906893  1
  Li  Li9  1  0.53756158  0.87646850  0.70906893  1
  Li  Li10  1  0.64650150  0.56885828  0.99183070  1
  Li  Li11  1  0.64650150  0.93114172  0.49183070  1
  Li  Li12  1  0.85349850  0.43114172  0.49183070  1
  Li  Li13  1  0.85349850  0.06885828  0.99183070  1
  Li  Li14  1  0.96243842  0.12353150  0.20906893  1
  Li  Li15  1  0.96243842  0.37646850  0.70906893  1
  Cu  Cu16  1  0.00626486  0.40160365  0.06567440  1
  Cu  Cu17  1  0.00626486  0.09839635  0.56567440  1
  Cu  Cu18  1  0.99762993  0.79716904  0.17940379  1
  Cu  Cu19  1  0.99762993  0.70283096  0.67940379  1
  Cu  Cu20  1  0.50237007  0.29716904  0.17940379  1
  Cu  Cu21  1  0.50237007  0.20283096  0.67940379  1
  Cu  Cu22  1  0.49373514  0.59839635  0.56567440  1
  Cu  Cu23  1  0.49373514  0.90160365  0.06567440  1
  Cu  Cu24  1  0.50626486  0.40160365  0.43432560  1
  Cu  Cu25  1  0.50626486  0.09839635  0.93432560  1
  Cu  Cu26  1  0.49762993  0.70283096  0.82059621  1
  Cu  Cu27  1  0.49762993  0.79716904  0.32059621  1
  Cu  Cu28  1  0.00237007  0.29716904  0.32059621  1
  Cu  Cu29  1  0.00237007  0.20283096  0.82059621  1
  Cu  Cu30  1  0.99373514  0.90160365  0.43432560  1
  Cu  Cu31  1  0.99373514  0.59839635  0.93432560  1
  S  S32  1  0.14245494  0.94792828  0.29791134  1
  S  S33  1  0.14245494  0.55207172  0.79791134  1
  S  S34  1  0.14773891  0.25288067  0.44453964  1
  S  S35  1  0.14773891  0.24711933  0.94453964  1
  S  S36  1  0.19579710  0.09414853  0.11574552  1
  S  S37  1  0.19579710  0.40585147  0.61574552  1
  S  S38  1  0.30420290  0.59414853  0.11574552  1
  S  S39  1  0.30420290  0.90585147  0.61574552  1
  S  S40  1  0.35226109  0.75288067  0.44453964  1
  S  S41  1  0.35226109  0.74711933  0.94453964  1
  S  S42  1  0.35754506  0.44792828  0.29791134  1
  S  S43  1  0.35754506  0.05207172  0.79791134  1
  S  S44  1  0.64245494  0.55207172  0.70208866  1
  S  S45  1  0.64245494  0.94792828  0.20208866  1
  S  S46  1  0.64773891  0.25288067  0.05546036  1
  S  S47  1  0.64773891  0.24711933  0.55546036  1
  S  S48  1  0.69579710  0.09414853  0.38425448  1
  S  S49  1  0.69579710  0.40585147  0.88425448  1
  S  S50  1  0.80420290  0.59414853  0.38425448  1
  S  S51  1  0.80420290  0.90585147  0.88425448  1
  S  S52  1  0.85226109  0.75288067  0.05546036  1
  S  S53  1  0.85226109  0.74711933  0.55546036  1
  S  S54  1  0.85754506  0.44792828  0.20208866  1
  S  S55  1  0.85754506  0.05207172  0.70208866  1
  O  O56  1  0.06195992  0.38882587  0.46401186  1
  O  O57  1  0.06195992  0.11117413  0.96401186  1
  O  O58  1  0.07997513  0.09837803  0.27775297  1
  O  O59  1  0.07997513  0.40162197  0.77775297  1
  O  O60  1  0.08479147  0.10585858  0.47105195  1
  O  O61  1  0.08479147  0.39414142  0.97105195  1
  O  O62  1  0.08558446  0.90798013  0.35326846  1
  O  O63  1  0.08558446  0.59201987  0.85326846  1
  O  O64  1  0.09309385  0.18932752  0.08025320  1
  O  O65  1  0.09309385  0.31067248  0.58025320  1
  O  O66  1  0.09074449  0.82284967  0.25897842  1
  O  O67  1  0.09074449  0.67715033  0.75897842  1
  O  O68  1  0.09659336  0.00855580  0.15643017  1
  O  O69  1  0.09659336  0.49144420  0.65643017  1
  O  O70  1  0.13959417  0.23581742  0.38371135  1
  O  O71  1  0.13959417  0.26418258  0.88371135  1
  O  O72  1  0.18556805  0.45794540  0.29582738  1
  O  O73  1  0.18556805  0.04205460  0.79582738  1
  O  O74  1  0.19028048  0.68383202  0.14670129  1
  O  O75  1  0.19028048  0.81616798  0.64670129  1
  O  O76  1  0.18729468  0.76368265  0.46302202  1
  O  O77  1  0.18729468  0.73631735  0.96302202  1
  O  O78  1  0.22786417  0.01743934  0.57623446  1
  O  O79  1  0.22786417  0.48256066  0.07623446  1
  O  O80  1  0.27213583  0.98256066  0.07623446  1
  O  O81  1  0.27213583  0.51743934  0.57623446  1
  O  O82  1  0.31270532  0.23631735  0.96302202  1
  O  O83  1  0.31270532  0.26368265  0.46302202  1
  O  O84  1  0.30971952  0.18383202  0.14670129  1
  O  O85  1  0.30971952  0.31616798  0.64670129  1
  O  O86  1  0.31443195  0.95794540  0.29582738  1
  O  O87  1  0.31443195  0.54205460  0.79582738  1
  O  O88  1  0.36040583  0.73581742  0.38371135  1
  O  O89  1  0.36040583  0.76418258  0.88371135  1
  O  O90  1  0.40340664  0.99144420  0.65643017  1
  O  O91  1  0.40340664  0.50855580  0.15643017  1
  O  O92  1  0.40925551  0.32284967  0.25897842  1
  O  O93  1  0.40925551  0.17715033  0.75897842  1
  O  O94  1  0.40690615  0.68932752  0.08025320  1
  O  O95  1  0.40690615  0.81067248  0.58025320  1
  O  O96  1  0.41441554  0.09201987  0.85326846  1
  O  O97  1  0.41441554  0.40798013  0.35326846  1
  O  O98  1  0.41520853  0.89414142  0.97105195  1
  O  O99  1  0.41520853  0.60585858  0.47105195  1
  O  O100  1  0.42002487  0.59837803  0.27775297  1
  O  O101  1  0.42002487  0.90162197  0.77775297  1
  O  O102  1  0.43804008  0.61117413  0.96401186  1
  O  O103  1  0.43804008  0.88882587  0.46401186  1
  O  O104  1  0.56195992  0.38882587  0.03598814  1
  O  O105  1  0.56195992  0.11117413  0.53598814  1
  O  O106  1  0.57997513  0.09837803  0.22224703  1
  O  O107  1  0.57997513  0.40162197  0.72224703  1
  O  O108  1  0.58479147  0.10585858  0.02894805  1
  O  O109  1  0.58479147  0.39414142  0.52894805  1
  O  O110  1  0.58558446  0.59201987  0.64673154  1
  O  O111  1  0.58558446  0.90798013  0.14673154  1
  O  O112  1  0.59309385  0.18932752  0.41974680  1
  O  O113  1  0.59309385  0.31067248  0.91974680  1
  O  O114  1  0.59074449  0.82284967  0.24102158  1
  O  O115  1  0.59074449  0.67715033  0.74102158  1
  O  O116  1  0.59659336  0.00855580  0.34356983  1
  O  O117  1  0.59659336  0.49144420  0.84356983  1
  O  O118  1  0.63959417  0.23581742  0.11628865  1
  O  O119  1  0.63959417  0.26418258  0.61628865  1
  O  O120  1  0.68556805  0.45794540  0.20417262  1
  O  O121  1  0.68556805  0.04205460  0.70417262  1
  O  O122  1  0.69028048  0.68383202  0.35329871  1
  O  O123  1  0.69028048  0.81616798  0.85329871  1
  O  O124  1  0.68729468  0.76368265  0.03697798  1
  O  O125  1  0.68729468  0.73631735  0.53697798  1
  O  O126  1  0.72786417  0.48256066  0.42376554  1
  O  O127  1  0.72786417  0.01743934  0.92376554  1
  O  O128  1  0.77213583  0.98256066  0.42376554  1
  O  O129  1  0.77213583  0.51743934  0.92376554  1
  O  O130  1  0.81270532  0.26368265  0.03697798  1
  O  O131  1  0.81270532  0.23631735  0.53697798  1
  O  O132  1  0.80971952  0.18383202  0.35329871  1
  O  O133  1  0.80971952  0.31616798  0.85329871  1
  O  O134  1  0.81443195  0.54205460  0.70417262  1
  O  O135  1  0.81443195  0.95794540  0.20417262  1
  O  O136  1  0.86040583  0.73581742  0.11628865  1
  O  O137  1  0.86040583  0.76418258  0.61628865  1
  O  O138  1  0.90340664  0.50855580  0.34356983  1
  O  O139  1  0.90340664  0.99144420  0.84356983  1
  O  O140  1  0.90925551  0.32284967  0.24102158  1
  O  O141  1  0.90925551  0.17715033  0.74102158  1
  O  O142  1  0.90690615  0.68932752  0.41974680  1
  O  O143  1  0.90690615  0.81067248  0.91974680  1
  O  O144  1  0.91441554  0.40798013  0.14673154  1
  O  O145  1  0.91441554  0.09201987  0.64673154  1
  O  O146  1  0.91520853  0.60585858  0.02894805  1
  O  O147  1  0.91520853  0.89414142  0.52894805  1
  O  O148  1  0.92002487  0.59837803  0.22224703  1
  O  O149  1  0.92002487  0.90162197  0.72224703  1
  O  O150  1  0.93804008  0.61117413  0.53598814  1
  O  O151  1  0.93804008  0.88882587  0.03598814  1
