# generated using pymatgen
data_Li3Mn2(P2O7)2
_symmetry_space_group_name_H-M   'P 1'
_cell_length_a   9.83156154
_cell_length_b   9.84453336
_cell_length_c   11.37968378
_cell_angle_alpha   90.08124394
_cell_angle_beta   103.21158386
_cell_angle_gamma   89.89088963
_symmetry_Int_Tables_number   1
_chemical_formula_structural   Li3Mn2(P2O7)2
_chemical_formula_sum   'Li12 Mn8 P16 O56'
_cell_volume   1072.25325412
_cell_formula_units_Z   4
loop_
 _symmetry_equiv_pos_site_id
 _symmetry_equiv_pos_as_xyz
  1  'x, y, z'
loop_
 _atom_site_type_symbol
 _atom_site_label
 _atom_site_symmetry_multiplicity
 _atom_site_fract_x
 _atom_site_fract_y
 _atom_site_fract_z
 _atom_site_occupancy
  Li  Li0  1  0.15772367  0.43830193  0.53344574  1
  Li  Li1  1  0.08763671  0.10570187  0.02640176  1
  Li  Li2  1  0.14996908  0.40758826  0.04123940  1
  Li  Li3  1  0.41155937  0.60921609  0.97010940  1
  Li  Li4  1  0.32817132  0.91106683  0.45248658  1
  Li  Li5  1  0.38642981  0.22168802  0.55173697  1
  Li  Li6  1  0.65859471  0.06234944  0.53393419  1
  Li  Li7  1  0.58686187  0.39339355  0.02670626  1
  Li  Li8  1  0.65071308  0.09181118  0.04045244  1
  Li  Li9  1  0.91125395  0.89160447  0.97032696  1
  Li  Li10  1  0.82767997  0.58875597  0.45207295  1
  Li  Li11  1  0.88646389  0.27861126  0.55224212  1
  Mn  Mn12  1  0.20527896  0.91825052  0.67718359  1
  Mn  Mn13  1  0.25401692  0.21237602  0.82298869  1
  Mn  Mn14  1  0.23899767  0.71660737  0.17331637  1
  Mn  Mn15  1  0.29803913  0.42710264  0.32692699  1
  Mn  Mn16  1  0.70527658  0.58120501  0.67704140  1
  Mn  Mn17  1  0.75403284  0.28747140  0.82329970  1
  Mn  Mn18  1  0.73910743  0.78392319  0.17384623  1
  Mn  Mn19  1  0.79843072  0.07364166  0.32702442  1
  P  P20  1  0.02216041  0.45304096  0.75690867  1
  P  P21  1  0.11818040  0.71016560  0.88851199  1
  P  P22  1  0.06074425  0.93099441  0.24092406  1
  P  P23  1  0.12371354  0.14902460  0.42675136  1
  P  P24  1  0.38146504  0.64848351  0.58021638  1
  P  P25  1  0.43725288  0.43068785  0.75730082  1
  P  P26  1  0.52209002  0.04686137  0.75664017  1
  P  P27  1  0.38113590  0.20773949  0.10856332  1
  P  P28  1  0.61875173  0.79000522  0.88820157  1
  P  P29  1  0.47365268  0.94861225  0.24589676  1
  P  P30  1  0.56028541  0.56919419  0.24107962  1
  P  P31  1  0.62358171  0.35156041  0.42706628  1
  P  P32  1  0.88173356  0.85119502  0.57988895  1
  P  P33  1  0.93723732  0.06891616  0.75728881  1
  P  P34  1  0.88099523  0.29201583  0.10865810  1
  P  P35  1  0.97336976  0.55139967  0.24574926  1
  O  O36  1  0.02534495  0.41288475  0.62935679  1
  O  O37  1  0.03728052  0.84719886  0.57241969  1
  O  O38  1  0.08377561  0.08319544  0.72920742  1
  O  O39  1  0.10258128  0.35765112  0.85512577  1
  O  O40  1  0.09707569  0.59712140  0.78013429  1
  O  O41  1  0.18520945  0.82677120  0.83404955  1
  O  O42  1  0.22453015  0.64246956  0.99971322  1
  O  O43  1  0.02225851  0.27280251  0.07980249  1
  O  O44  1  0.11661806  0.07722394  0.29705608  1
  O  O45  1  0.05945221  0.93817859  0.10842669  1
  O  O46  1  0.12171141  0.54654566  0.21110004  1
  O  O47  1  0.18868081  0.28917604  0.41872499  1
  O  O48  1  0.17337102  0.82517562  0.30180188  1
  O  O49  1  0.22434551  0.06132008  0.51988944  1
  O  O50  1  0.29044681  0.56190453  0.48246243  1
  O  O51  1  0.33496300  0.32289837  0.68910992  1
  O  O52  1  0.32652026  0.79265755  0.58963106  1
  O  O53  1  0.36714846  0.03238891  0.77213328  1
  O  O54  1  0.37691510  0.57742321  0.70743764  1
  O  O55  1  0.43486268  0.43268088  0.88968364  1
  O  O56  1  0.48162961  0.76698310  0.92071369  1
  O  O57  1  0.27178681  0.15042504  0.00087453  1
  O  O58  1  0.32054116  0.33190394  0.16060229  1
  O  O59  1  0.40267143  0.09554859  0.21622968  1
  O  O60  1  0.41692783  0.59235578  0.27075497  1
  O  O61  1  0.38502397  0.84687525  0.15641909  1
  O  O62  1  0.52528636  0.08686282  0.62918802  1
  O  O63  1  0.47487667  0.33978701  0.44415078  1
  O  O64  1  0.53676505  0.65186474  0.57229358  1
  O  O65  1  0.48252647  0.92858587  0.37774554  1
  O  O66  1  0.60240607  0.14211026  0.85503553  1
  O  O67  1  0.58345463  0.41576230  0.72896480  1
  O  O68  1  0.59706648  0.90257111  0.77984217  1
  O  O69  1  0.68521433  0.67302351  0.83386096  1
  O  O70  1  0.72433997  0.85780664  0.99965899  1
  O  O71  1  0.52252941  0.22637661  0.07998494  1
  O  O72  1  0.55836823  0.56102900  0.10844269  1
  O  O73  1  0.61692177  0.42317924  0.29757679  1
  O  O74  1  0.62230528  0.95335010  0.21169729  1
  O  O75  1  0.68852874  0.21120647  0.41905559  1
  O  O76  1  0.67293702  0.67500431  0.30145220  1
  O  O77  1  0.72447396  0.43904677  0.52045140  1
  O  O78  1  0.79128563  0.93843213  0.48225301  1
  O  O79  1  0.83525189  0.17704045  0.68897033  1
  O  O80  1  0.82634021  0.70753820  0.58895737  1
  O  O81  1  0.86732423  0.46767194  0.77253419  1
  O  O82  1  0.93465760  0.06754805  0.88955440  1
  O  O83  1  0.87700751  0.92244198  0.70724910  1
  O  O84  1  0.98182895  0.73354856  0.92069790  1
  O  O85  1  0.77144265  0.34956580  0.00120062  1
  O  O86  1  0.82057881  0.16810919  0.16059497  1
  O  O87  1  0.90273091  0.40441353  0.21642986  1
  O  O88  1  0.88401460  0.65287587  0.15638644  1
  O  O89  1  0.91708275  0.90816860  0.27009443  1
  O  O90  1  0.97492808  0.16150104  0.44381748  1
  O  O91  1  0.98248698  0.57195276  0.37764578  1
