# generated using pymatgen
data_LiFe(SiO3)2
_symmetry_space_group_name_H-M   'P 1'
_cell_length_a   7.41879792
_cell_length_b   7.42609655
_cell_length_c   7.06220078
_cell_angle_alpha   117.64442702
_cell_angle_beta   77.27729397
_cell_angle_gamma   99.32282069
_symmetry_Int_Tables_number   1
_chemical_formula_structural   LiFe(SiO3)2
_chemical_formula_sum   'Li3 Fe3 Si6 O18'
_cell_volume   335.39174323
_cell_formula_units_Z   3
loop_
 _symmetry_equiv_pos_site_id
 _symmetry_equiv_pos_as_xyz
  1  'x, y, z'
loop_
 _atom_site_type_symbol
 _atom_site_label
 _atom_site_symmetry_multiplicity
 _atom_site_fract_x
 _atom_site_fract_y
 _atom_site_fract_z
 _atom_site_occupancy
  Li  Li0  1  0.22525960  0.75518206  0.38810584  1
  Li  Li1  1  0.50000000  0.50000000  0.50000000  1
  Li  Li2  1  0.77474040  0.24481794  0.61189416  1
  Fe  Fe3  1  0.21471240  0.73979688  0.94170132  1
  Fe  Fe4  1  0.50000000  0.50000000  0.00000000  1
  Fe  Fe5  1  0.78528760  0.26020312  0.05829868  1
  Si  Si6  1  0.16894200  0.28551347  0.24527157  1
  Si  Si7  1  0.16324165  0.24845491  0.68402397  1
  Si  Si8  1  0.60920786  0.97392986  0.20022570  1
  Si  Si9  1  0.39079214  0.02607014  0.79977430  1
  Si  Si10  1  0.83675835  0.75154509  0.31597603  1
  Si  Si11  1  0.83105800  0.71448653  0.75472843  1
  O  O12  1  0.05039991  0.76481323  0.20696951  1
  O  O13  1  0.03891681  0.68176624  0.75897819  1
  O  O14  1  0.16634880  0.24156247  0.45144947  1
  O  O15  1  0.24017008  0.06927617  0.02964049  1
  O  O16  1  0.31824636  0.47364832  0.24757083  1
  O  O17  1  0.43751286  0.79804480  0.14546088  1
  O  O18  1  0.28988767  0.45186624  0.82711008  1
  O  O19  1  0.42151480  0.79004513  0.71698802  1
  O  O20  1  0.27555022  0.04881139  0.63474007  1
  O  O21  1  0.72444978  0.95118861  0.36525993  1
  O  O22  1  0.57848520  0.20995487  0.28301198  1
  O  O23  1  0.71011233  0.54813376  0.17288992  1
  O  O24  1  0.56248714  0.20195520  0.85453912  1
  O  O25  1  0.68175364  0.52635168  0.75242917  1
  O  O26  1  0.75982992  0.93072383  0.97035951  1
  O  O27  1  0.83365120  0.75843753  0.54855053  1
  O  O28  1  0.96108319  0.31823376  0.24102181  1
  O  O29  1  0.94960009  0.23518677  0.79303049  1
