# generated using pymatgen
data_Cs2CoSe2
_symmetry_space_group_name_H-M   'P 1'
_cell_length_a   6.64562381
_cell_length_b   7.55896565
_cell_length_c   8.80683646
_cell_angle_alpha   115.41383768
_cell_angle_beta   112.16648576
_cell_angle_gamma   90.00000000
_symmetry_Int_Tables_number   1
_chemical_formula_structural   Cs2CoSe2
_chemical_formula_sum   'Cs4 Co2 Se4'
_cell_volume   363.05973767
_cell_formula_units_Z   2
loop_
 _symmetry_equiv_pos_site_id
 _symmetry_equiv_pos_as_xyz
  1  'x, y, z'
loop_
 _atom_site_type_symbol
 _atom_site_label
 _atom_site_symmetry_multiplicity
 _atom_site_fract_x
 _atom_site_fract_y
 _atom_site_fract_z
 _atom_site_occupancy
  Co  Co0  1  0.75000000  0.00000000  0.00000000  1
  Co  Co1  1  0.25000000  0.00000000  0.00000000  1
  Se  Se2  1  0.59129200  0.25523565  0.18258401  1
  Se  Se3  1  0.90870800  0.07265164  0.81741599  1
  Se  Se4  1  0.09129200  0.92734836  0.18258401  1
  Se  Se5  1  0.40870800  0.74476435  0.81741599  1
  Cs  Cs6  1  0.64584251  0.81897839  0.29168502  1
  Cs  Cs7  1  0.35415749  0.18102161  0.70831498  1
  Cs  Cs8  1  0.85415749  0.52729338  0.70831498  1
  Cs  Cs9  1  0.14584251  0.47270662  0.29168502  1
