# generated using pymatgen
data_LiCuCO3
_symmetry_space_group_name_H-M   'P 1'
_cell_length_a   8.19402692
_cell_length_b   8.19456059
_cell_length_c   3.15872390
_cell_angle_alpha   90.00000000
_cell_angle_beta   90.00000000
_cell_angle_gamma   119.99819444
_symmetry_Int_Tables_number   1
_chemical_formula_structural   LiCuCO3
_chemical_formula_sum   'Li3 Cu3 C3 O9'
_cell_volume   183.68481550
_cell_formula_units_Z   3
loop_
 _symmetry_equiv_pos_site_id
 _symmetry_equiv_pos_as_xyz
  1  'x, y, z'
loop_
 _atom_site_type_symbol
 _atom_site_label
 _atom_site_symmetry_multiplicity
 _atom_site_fract_x
 _atom_site_fract_y
 _atom_site_fract_z
 _atom_site_occupancy
  Li  Li0  1  0.29720644  0.00448594  0.50000000  1
  Li  Li1  1  0.99551711  0.29271988  0.50000000  1
  Li  Li2  1  0.70726673  0.70278517  0.50000000  1
  Cu  Cu3  1  0.00190892  0.63560132  0.00000000  1
  Cu  Cu4  1  0.63369374  0.99807178  0.00000000  1
  Cu  Cu5  1  0.36437980  0.36631576  0.00000000  1
  C  C6  1  0.33332623  0.66668066  0.50000000  1
  C  C7  1  0.00000555  0.00000515  0.00000000  1
  C  C8  1  0.66668691  0.33332761  0.50000000  1
  O  O9  1  0.22326085  0.73922742  0.50000000  1
  O  O10  1  0.26076649  0.48401315  0.50000000  1
  O  O11  1  0.51597971  0.77673865  0.50000000  1
  O  O12  1  0.18128339  0.06552311  0.00000000  1
  O  O13  1  0.58027214  0.43042313  0.50000000  1
  O  O14  1  0.88425313  0.81874637  0.00000000  1
  O  O15  1  0.56957702  0.14986762  0.50000000  1
  O  O16  1  0.85012768  0.41969473  0.50000000  1
  O  O17  1  0.93448815  0.11577056  0.00000000  1
