# generated using pymatgen
data_LiTi4O8
_symmetry_space_group_name_H-M   'P 1'
_cell_length_a   7.25030948
_cell_length_b   10.18749336
_cell_length_c   5.80080151
_cell_angle_alpha   88.52677527
_cell_angle_beta   85.84285876
_cell_angle_gamma   78.71159803
_symmetry_Int_Tables_number   1
_chemical_formula_structural   LiTi4O8
_chemical_formula_sum   'Li3 Ti12 O24'
_cell_volume   419.03814731
_cell_formula_units_Z   3
loop_
 _symmetry_equiv_pos_site_id
 _symmetry_equiv_pos_as_xyz
  1  'x, y, z'
loop_
 _atom_site_type_symbol
 _atom_site_label
 _atom_site_symmetry_multiplicity
 _atom_site_fract_x
 _atom_site_fract_y
 _atom_site_fract_z
 _atom_site_occupancy
  Li  Li0  1  0.42718824  0.93085326  0.99355966  1
  Li  Li1  1  0.57274670  0.31561003  0.25125064  1
  Li  Li2  1  0.57233776  0.57318879  0.50920284  1
  Ti  Ti3  1  0.00267892  0.75147320  0.74937348  1
  Ti  Ti4  1  0.98935721  0.00352140  0.00126635  1
  Ti  Ti5  1  0.01111685  0.24657237  0.25371891  1
  Ti  Ti6  1  0.00624528  0.49640769  0.49691239  1
  Ti  Ti7  1  0.31100153  0.20804875  0.73251033  1
  Ti  Ti8  1  0.30635508  0.45992313  0.97225524  1
  Ti  Ti9  1  0.30507954  0.70416367  0.22523264  1
  Ti  Ti10  1  0.30940079  0.95143148  0.48150247  1
  Ti  Ti11  1  0.68889524  0.04124714  0.51779196  1
  Ti  Ti12  1  0.69600475  0.29129321  0.77365589  1
  Ti  Ti13  1  0.69068275  0.55228407  0.01231015  1
  Ti  Ti14  1  0.69598671  0.79429226  0.27836416  1
  O  O15  1  0.13842108  0.15069618  0.97401936  1
  O  O16  1  0.13366968  0.65376855  0.47209172  1
  O  O17  1  0.13633812  0.40391388  0.22107676  1
  O  O18  1  0.13707750  0.90255451  0.72722650  1
  O  O19  1  0.19024838  0.39727110  0.71020051  1
  O  O20  1  0.18822059  0.64802149  0.96019312  1
  O  O21  1  0.19077392  0.14653563  0.46625831  1
  O  O22  1  0.20061259  0.89965571  0.20214755  1
  O  O23  1  0.45739564  0.01812581  0.71406500  1
  O  O24  1  0.45884005  0.27053640  0.97051356  1
  O  O25  1  0.45910718  0.76354035  0.46781842  1
  O  O26  1  0.46106033  0.51550370  0.22526465  1
  O  O27  1  0.54337212  0.23211107  0.53626800  1
  O  O28  1  0.54270079  0.48354443  0.78505127  1
  O  O29  1  0.54092524  0.73487215  0.03121808  1
  O  O30  1  0.54146581  0.97873807  0.27828323  1
  O  O31  1  0.80979426  0.10188646  0.78521000  1
  O  O32  1  0.79909826  0.35200362  0.04605101  1
  O  O33  1  0.79969665  0.59981393  0.29661700  1
  O  O34  1  0.81109880  0.85330055  0.54009606  1
  O  O35  1  0.86439706  0.59654837  0.77260384  1
  O  O36  1  0.85924970  0.34974565  0.52391456  1
  O  O37  1  0.86098136  0.09972163  0.27635698  1
  O  O38  1  0.86598053  0.84540330  0.02637138  1
