# generated using pymatgen
data_TiMnH12(OF)6
_symmetry_space_group_name_H-M   'P 1'
_cell_length_a   6.38536690
_cell_length_b   6.38536536
_cell_length_c   6.38536640
_cell_angle_alpha   97.22059081
_cell_angle_beta   97.22058974
_cell_angle_gamma   97.22059930
_symmetry_Int_Tables_number   1
_chemical_formula_structural   TiMnH12(OF)6
_chemical_formula_sum   'Ti1 Mn1 H12 O6 F6'
_cell_volume   253.57532357
_cell_formula_units_Z   1
loop_
 _symmetry_equiv_pos_site_id
 _symmetry_equiv_pos_as_xyz
  1  'x, y, z'
loop_
 _atom_site_type_symbol
 _atom_site_label
 _atom_site_symmetry_multiplicity
 _atom_site_fract_x
 _atom_site_fract_y
 _atom_site_fract_z
 _atom_site_occupancy
  Ti  Ti0  1  0.50000000  0.50000000  0.50000000  1
  Mn  Mn1  1  0.00000000  0.00000000  0.00000000  1
  H  H2  1  0.62167462  0.72099691  0.99929244  1
  H  H3  1  0.37832338  0.27900209  0.00070856  1
  H  H4  1  0.77225844  0.24951427  0.23235651  1
  H  H5  1  0.75048573  0.76764449  0.22773856  1
  H  H6  1  0.23235651  0.77226044  0.24951327  1
  H  H7  1  0.00070856  0.37832338  0.27900209  1
  H  H8  1  0.27900309  0.00070756  0.37832338  1
  H  H9  1  0.72099691  0.99929144  0.62167662  1
  H  H10  1  0.99929044  0.62167662  0.72099691  1
  H  H11  1  0.76764249  0.22773956  0.75048673  1
  H  H12  1  0.24951327  0.23235551  0.77226144  1
  H  H13  1  0.22774056  0.75048573  0.76764249  1
  O  O14  1  0.71239751  0.83401199  0.10032849  1
  O  O15  1  0.89967151  0.28760449  0.16598901  1
  O  O16  1  0.16598801  0.89967251  0.28760349  1
  O  O17  1  0.83401199  0.10032849  0.71239751  1
  O  O18  1  0.10032949  0.71239651  0.83401199  1
  O  O19  1  0.28760449  0.16598901  0.89967051  1
  F  F20  1  0.37982631  0.54536780  0.22510570  1
  F  F21  1  0.54536780  0.22510670  0.37982531  1
  F  F22  1  0.77489430  0.62017369  0.45463120  1
  F  F23  1  0.22510570  0.37982531  0.54536780  1
  F  F24  1  0.45463220  0.77489330  0.62017369  1
  F  F25  1  0.62017369  0.45463220  0.77489430  1
