# generated using pymatgen
data_Sm(Mg4Al3)4
_symmetry_space_group_name_H-M   'P 1'
_cell_length_a   9.14083782
_cell_length_b   9.14083732
_cell_length_c   9.14083782
_cell_angle_alpha   109.47121771
_cell_angle_beta   109.47122316
_cell_angle_gamma   109.47121771
_symmetry_Int_Tables_number   1
_chemical_formula_structural   Sm(Mg4Al3)4
_chemical_formula_sum   'Sm1 Mg16 Al12'
_cell_volume   587.94420418
_cell_formula_units_Z   1
loop_
 _symmetry_equiv_pos_site_id
 _symmetry_equiv_pos_as_xyz
  1  'x, y, z'
loop_
 _atom_site_type_symbol
 _atom_site_label
 _atom_site_symmetry_multiplicity
 _atom_site_fract_x
 _atom_site_fract_y
 _atom_site_fract_z
 _atom_site_occupancy
  Sm  Sm0  1  0.00000000  0.00000000  0.00000000  1
  Mg  Mg1  1  0.35977558  0.00000000  0.00000000  1
  Mg  Mg2  1  0.00000000  0.35977658  0.00000000  1
  Mg  Mg3  1  0.31949914  0.60251691  0.00000000  1
  Mg  Mg4  1  0.60251691  0.31949914  0.00000000  1
  Mg  Mg5  1  0.68050186  0.68050086  0.28301777  1
  Mg  Mg6  1  0.60251591  0.00000000  0.31949914  1
  Mg  Mg7  1  0.00000000  0.60251691  0.31949914  1
  Mg  Mg8  1  0.00000000  0.00000000  0.35977558  1
  Mg  Mg9  1  0.39748309  0.71698223  0.39748309  1
  Mg  Mg10  1  0.71698223  0.39748309  0.39748309  1
  Mg  Mg11  1  0.31949914  0.00000000  0.60251591  1
  Mg  Mg12  1  0.00000000  0.31949914  0.60251691  1
  Mg  Mg13  1  0.64022242  0.64022242  0.64022242  1
  Mg  Mg14  1  0.68050086  0.28301777  0.68050086  1
  Mg  Mg15  1  0.28301777  0.68050086  0.68050186  1
  Mg  Mg16  1  0.39748309  0.39748309  0.71698223  1
  Al  Al17  1  0.81256696  0.63041586  0.00000000  1
  Al  Al18  1  0.63041586  0.81256696  0.00000000  1
  Al  Al19  1  0.36958614  0.36958514  0.18215110  1
  Al  Al20  1  0.81784790  0.18743304  0.18743304  1
  Al  Al21  1  0.18743304  0.81784790  0.18743304  1
  Al  Al22  1  0.18215110  0.36958514  0.36958614  1
  Al  Al23  1  0.36958614  0.18215110  0.36958614  1
  Al  Al24  1  0.81256696  0.00000000  0.63041586  1
  Al  Al25  1  0.00000000  0.81256696  0.63041586  1
  Al  Al26  1  0.00000000  0.63041586  0.81256696  1
  Al  Al27  1  0.63041586  0.00000000  0.81256696  1
  Al  Al28  1  0.18743304  0.18743304  0.81784790  1
