# generated using pymatgen
data_PrEr3
_symmetry_space_group_name_H-M   'P 1'
_cell_length_a   5.03986357
_cell_length_b   5.03995524
_cell_length_c   5.03991583
_cell_angle_alpha   89.99984630
_cell_angle_beta   89.99909814
_cell_angle_gamma   90.00008776
_symmetry_Int_Tables_number   1
_chemical_formula_structural   PrEr3
_chemical_formula_sum   'Pr1 Er3'
_cell_volume   128.01732353
_cell_formula_units_Z   1
loop_
 _symmetry_equiv_pos_site_id
 _symmetry_equiv_pos_as_xyz
  1  'x, y, z'
loop_
 _atom_site_type_symbol
 _atom_site_label
 _atom_site_symmetry_multiplicity
 _atom_site_fract_x
 _atom_site_fract_y
 _atom_site_fract_z
 _atom_site_occupancy
  Pr  Pr0  1  0.00000965  0.99999106  0.99998814  1
  Er  Er1  1  0.99997840  0.50000742  0.50000999  1
  Er  Er2  1  0.49999397  0.99997664  0.50002177  1
  Er  Er3  1  0.50001798  0.50002489  0.99998010  1
