# generated using pymatgen
data_Li3Fe(CoO3)2
_symmetry_space_group_name_H-M   'P 1'
_cell_length_a   6.45718306
_cell_length_b   2.84255389
_cell_length_c   5.75609967
_cell_angle_alpha   90.15068312
_cell_angle_beta   103.71097503
_cell_angle_gamma   77.19214927
_symmetry_Int_Tables_number   1
_chemical_formula_structural   Li3Fe(CoO3)2
_chemical_formula_sum   'Li3 Fe1 Co2 O6'
_cell_volume   99.94901720
_cell_formula_units_Z   1
loop_
 _symmetry_equiv_pos_site_id
 _symmetry_equiv_pos_as_xyz
  1  'x, y, z'
loop_
 _atom_site_type_symbol
 _atom_site_label
 _atom_site_symmetry_multiplicity
 _atom_site_fract_x
 _atom_site_fract_y
 _atom_site_fract_z
 _atom_site_occupancy
  Li  Li0  1  0.99651754  0.00546282  0.49698033  1
  Li  Li1  1  0.33210839  0.32810749  0.83250352  1
  Li  Li2  1  0.67067802  0.65895291  0.16609353  1
  Fe  Fe3  1  0.33577685  0.32856709  0.33390409  1
  Co  Co4  1  0.00074079  0.99636603  0.99859743  1
  Co  Co5  1  0.67066009  0.66093087  0.66889634  1
  O  O6  1  0.01324918  0.49150108  0.23062424  1
  O  O7  1  0.35250310  0.82123080  0.57091240  1
  O  O8  1  0.68510653  0.15476133  0.90049947  1
  O  O9  1  0.31913046  0.83587502  0.09648553  1
  O  O10  1  0.65825564  0.16591419  0.43672670  1
  O  O11  1  0.98651441  0.50238137  0.76691142  1
