# generated using pymatgen
data_Lu(Mg4Al3)4
_symmetry_space_group_name_H-M   'P 1'
_cell_length_a   9.11779011
_cell_length_b   9.11778942
_cell_length_c   9.11779011
_cell_angle_alpha   109.47121611
_cell_angle_beta   109.47123331
_cell_angle_gamma   109.47121611
_symmetry_Int_Tables_number   1
_chemical_formula_structural   Lu(Mg4Al3)4
_chemical_formula_sum   'Lu1 Mg16 Al12'
_cell_volume   583.50801803
_cell_formula_units_Z   1
loop_
 _symmetry_equiv_pos_site_id
 _symmetry_equiv_pos_as_xyz
  1  'x, y, z'
loop_
 _atom_site_type_symbol
 _atom_site_label
 _atom_site_symmetry_multiplicity
 _atom_site_fract_x
 _atom_site_fract_y
 _atom_site_fract_z
 _atom_site_occupancy
  Lu  Lu0  1  0.00000000  0.00000000  0.00000000  1
  Mg  Mg1  1  0.35492114  0.99999900  0.99999900  1
  Mg  Mg2  1  0.99999900  0.35492014  0.99999900  1
  Mg  Mg3  1  0.31876054  0.60321382  1.00000000  1
  Mg  Mg4  1  0.60321482  0.31876054  0.00000000  1
  Mg  Mg5  1  0.68123946  0.68123946  0.28445428  1
  Mg  Mg6  1  1.00000000  0.60321382  0.31876054  1
  Mg  Mg7  1  0.60321482  0.00000000  0.31876154  1
  Mg  Mg8  1  0.99999900  0.99999900  0.35492114  1
  Mg  Mg9  1  0.71554672  0.39678718  0.39678618  1
  Mg  Mg10  1  0.39678618  0.71554772  0.39678618  1
  Mg  Mg11  1  0.31876154  0.00000000  0.60321482  1
  Mg  Mg12  1  0.00000000  0.31876054  0.60321482  1
  Mg  Mg13  1  0.64507786  0.64507786  0.64507786  1
  Mg  Mg14  1  0.68123946  0.28445428  0.68123946  1
  Mg  Mg15  1  0.28445428  0.68123946  0.68123946  1
  Mg  Mg16  1  0.39678618  0.39678718  0.71554672  1
  Al  Al17  1  0.63334762  0.81398087  0.00000000  1
  Al  Al18  1  0.81398087  0.63334662  1.00000000  1
  Al  Al19  1  0.36665438  0.36665438  0.18063425  1
  Al  Al20  1  0.81936475  0.18601913  0.18601913  1
  Al  Al21  1  0.18601913  0.81936475  0.18601913  1
  Al  Al22  1  0.36665438  0.18063425  0.36665438  1
  Al  Al23  1  0.18063425  0.36665438  0.36665438  1
  Al  Al24  1  0.81398087  0.00000000  0.63334662  1
  Al  Al25  1  0.00000000  0.81398087  0.63334762  1
  Al  Al26  1  0.63334662  0.00000000  0.81398087  1
  Al  Al27  1  1.00000000  0.63334662  0.81398087  1
  Al  Al28  1  0.18601913  0.18601913  0.81936475  1
