# generated using pymatgen
data_Zn(SbO2)2
_symmetry_space_group_name_H-M   'P 1'
_cell_length_a   5.97983836
_cell_length_b   6.04485605
_cell_length_c   23.20043041
_cell_angle_alpha   66.47589762
_cell_angle_beta   73.53208993
_cell_angle_gamma   67.42370741
_symmetry_Int_Tables_number   1
_chemical_formula_structural   Zn(SbO2)2
_chemical_formula_sum   'Zn6 Sb12 O24'
_cell_volume   701.55898210
_cell_formula_units_Z   6
loop_
 _symmetry_equiv_pos_site_id
 _symmetry_equiv_pos_as_xyz
  1  'x, y, z'
loop_
 _atom_site_type_symbol
 _atom_site_label
 _atom_site_symmetry_multiplicity
 _atom_site_fract_x
 _atom_site_fract_y
 _atom_site_fract_z
 _atom_site_occupancy
  Zn  Zn0  1  0.06048411  0.11067311  0.06254988  1
  Zn  Zn1  1  0.07496575  0.09622235  0.41556171  1
  Zn  Zn2  1  0.57384945  0.50467435  0.96989530  1
  Zn  Zn3  1  0.12314448  0.08279712  0.69755245  1
  Zn  Zn4  1  0.92147099  0.89521436  0.28403319  1
  Zn  Zn5  1  0.94593296  0.83081066  0.63149248  1
  Sb  Sb6  1  0.03093209  0.47554321  0.16515803  1
  Sb  Sb7  1  0.59984009  0.60962451  0.09268041  1
  Sb  Sb8  1  0.98897436  0.40645067  0.54296793  1
  Sb  Sb9  1  0.47653498  0.96414137  0.18219720  1
  Sb  Sb10  1  0.57423570  0.46723498  0.30921855  1
  Sb  Sb11  1  0.64808393  0.65907725  0.42967037  1
  Sb  Sb12  1  0.98296763  0.42957871  0.78623014  1
  Sb  Sb13  1  0.48435333  0.96998265  0.54349513  1
  Sb  Sb14  1  0.59634232  0.97817743  0.82212294  1
  Sb  Sb15  1  0.47626751  0.49247979  0.67570397  1
  Sb  Sb16  1  0.25956151  0.40986314  0.90551210  1
  Sb  Sb17  1  0.93708906  0.95316540  0.93947331  1
  O  O18  1  0.13722249  0.17816296  0.13245952  1
  O  O19  1  0.35192684  0.29220724  0.19941224  1
  O  O20  1  0.25662751  0.74167158  0.07952017  1
  O  O21  1  0.71029567  0.35384940  0.04890659  1
  O  O22  1  0.27843409  0.75616925  0.25085921  1
  O  O23  1  0.14726681  0.15444906  0.49533954  1
  O  O24  1  0.82661904  0.28426030  0.24964297  1
  O  O25  1  0.72963191  0.87985619  0.02187664  1
  O  O26  1  0.32887988  0.81442522  0.40024560  1
  O  O27  1  0.27348286  0.19949500  0.59448037  1
  O  O28  1  0.70107273  0.77039739  0.26050688  1
  O  O29  1  0.80458354  0.39088984  0.38574711  1
  O  O30  1  0.30663254  0.71041058  0.59648854  1
  O  O31  1  0.10786533  0.41393844  0.69658343  1
  O  O32  1  0.80015730  0.20258469  0.61349517  1
  O  O33  1  0.82399991  0.89312667  0.37292416  1
  O  O34  1  0.12198954  0.13748762  0.96812326  1
  O  O35  1  0.22473880  0.72277158  0.72519131  1
  O  O36  1  0.68419858  0.74091163  0.62091723  1
  O  O37  1  0.85209475  0.15065870  0.78124745  1
  O  O38  1  0.20960649  0.56587292  0.97111118  1
  O  O39  1  0.71149802  0.75700183  0.76691003  1
  O  O40  1  0.61741775  0.30095213  0.91182276  1
  O  O41  1  0.73872538  0.75273870  0.90067356  1
