# generated using pymatgen
data_Li2TiCo3O8
_symmetry_space_group_name_H-M   'P 1'
_cell_length_a   8.49719874
_cell_length_b   8.16691086
_cell_length_c   8.54221053
_cell_angle_alpha   90.11752930
_cell_angle_beta   90.08867917
_cell_angle_gamma   90.11595560
_symmetry_Int_Tables_number   1
_chemical_formula_structural   Li2TiCo3O8
_chemical_formula_sum   'Li8 Ti4 Co12 O32'
_cell_volume   592.79091066
_cell_formula_units_Z   4
loop_
 _symmetry_equiv_pos_site_id
 _symmetry_equiv_pos_as_xyz
  1  'x, y, z'
loop_
 _atom_site_type_symbol
 _atom_site_label
 _atom_site_symmetry_multiplicity
 _atom_site_fract_x
 _atom_site_fract_y
 _atom_site_fract_z
 _atom_site_occupancy
  Li  Li0  1  0.99920341  0.99514050  0.99854086  1
  Li  Li1  1  0.25100985  0.25459888  0.24995936  1
  Li  Li2  1  0.24775985  0.74549857  0.75165088  1
  Li  Li3  1  0.50148126  0.00595910  0.49882457  1
  Li  Li4  1  0.49862878  0.50462638  0.00261877  1
  Li  Li5  1  0.75070741  0.24452226  0.74804239  1
  Li  Li6  1  0.74776659  0.75553610  0.24633282  1
  Li  Li7  1  0.00431303  0.49466571  0.50261482  1
  Ti  Ti8  1  0.13779613  0.88213366  0.37815291  1
  Ti  Ti9  1  0.36268433  0.12590177  0.88876367  1
  Ti  Ti10  1  0.63299605  0.62771669  0.61453999  1
  Ti  Ti11  1  0.87288438  0.36688997  0.11231452  1
  Co  Co12  1  0.12309611  0.12685714  0.62408706  1
  Co  Co13  1  0.13016656  0.38012294  0.87509357  1
  Co  Co14  1  0.12098869  0.62587481  0.12853172  1
  Co  Co15  1  0.37769257  0.37672245  0.62949369  1
  Co  Co16  1  0.36929804  0.61640758  0.37078322  1
  Co  Co17  1  0.37584429  0.86962836  0.12031317  1
  Co  Co18  1  0.62133395  0.37145273  0.37497183  1
  Co  Co19  1  0.62640522  0.12229291  0.12773844  1
  Co  Co20  1  0.62053028  0.87421331  0.87245293  1
  Co  Co21  1  0.87738777  0.12540376  0.37328932  1
  Co  Co22  1  0.87542223  0.87796265  0.62820931  1
  Co  Co23  1  0.87864671  0.63207039  0.87988223  1
  O  O24  1  0.11512761  0.11525225  0.38420705  1
  O  O25  1  0.11634585  0.88100416  0.60412516  1
  O  O26  1  0.11432190  0.61698827  0.89540253  1
  O  O27  1  0.14144139  0.13317149  0.86518159  1
  O  O28  1  0.10900967  0.38561271  0.11531918  1
  O  O29  1  0.14717763  0.36834525  0.64378514  1
  O  O30  1  0.12809292  0.63617357  0.36029674  1
  O  O31  1  0.13344181  0.86442167  0.14148266  1
  O  O32  1  0.36488678  0.15091109  0.63692753  1
  O  O33  1  0.36945867  0.36113831  0.86996214  1
  O  O34  1  0.35478425  0.63368036  0.13484482  1
  O  O35  1  0.38750086  0.60049692  0.61874631  1
  O  O36  1  0.35921643  0.86056637  0.36828786  1
  O  O37  1  0.38900417  0.38796853  0.38290311  1
  O  O38  1  0.38345949  0.11600522  0.10867955  1
  O  O39  1  0.38319651  0.88763320  0.88176670  1
  O  O40  1  0.60763727  0.38533106  0.61748008  1
  O  O41  1  0.61843103  0.61479511  0.39276123  1
  O  O42  1  0.60795425  0.88464344  0.10759835  1
  O  O43  1  0.64511317  0.36625093  0.13329798  1
  O  O44  1  0.61287183  0.09843682  0.88324173  1
  O  O45  1  0.63963026  0.13652519  0.35931194  1
  O  O46  1  0.63195580  0.86348110  0.63716689  1
  O  O47  1  0.63103668  0.65135830  0.86267108  1
  O  O48  1  0.86880635  0.34766235  0.36356480  1
  O  O49  1  0.86620993  0.13485049  0.13421748  1
  O  O50  1  0.86361617  0.86248066  0.85964289  1
  O  O51  1  0.88577170  0.90272482  0.38279257  1
  O  O52  1  0.85656964  0.63318102  0.63299493  1
  O  O53  1  0.89327786  0.11456935  0.61257608  1
  O  O54  1  0.88167714  0.38871787  0.89081915  1
  O  O55  1  0.88892847  0.61356449  0.12087969  1
