# generated using pymatgen
data_LaVN3
_symmetry_space_group_name_H-M   'P 1'
_cell_length_a   3.62958317
_cell_length_b   6.02494133
_cell_length_c   6.32877570
_cell_angle_alpha   73.03747947
_cell_angle_beta   83.58803881
_cell_angle_gamma   90.83802874
_symmetry_Int_Tables_number   1
_chemical_formula_structural   LaVN3
_chemical_formula_sum   'La2 V2 N6'
_cell_volume   131.38653724
_cell_formula_units_Z   2
loop_
 _symmetry_equiv_pos_site_id
 _symmetry_equiv_pos_as_xyz
  1  'x, y, z'
loop_
 _atom_site_type_symbol
 _atom_site_label
 _atom_site_symmetry_multiplicity
 _atom_site_fract_x
 _atom_site_fract_y
 _atom_site_fract_z
 _atom_site_occupancy
  La  La0  1  0.44864436  0.21079853  0.27069822  1
  La  La1  1  0.37445316  0.66743211  0.72800788  1
  V  V2  1  0.85202833  0.18230019  0.75254482  1
  V  V3  1  0.92336291  0.71178089  0.25220877  1
  N  N4  1  0.03009260  0.05306218  0.05007504  1
  N  N5  1  0.32256696  0.16516961  0.88687466  1
  N  N6  1  0.93440963  0.53207675  0.08091553  1
  N  N7  1  0.44669803  0.77815194  0.31089698  1
  N  N8  1  0.89325153  0.47615412  0.56467081  1
  N  N9  1  0.88948249  0.99822369  0.58456729  1
