# generated using pymatgen
data_LaOsN3
_symmetry_space_group_name_H-M   'P 1'
_cell_length_a   5.57403781
_cell_length_b   5.57876593
_cell_length_c   7.92000481
_cell_angle_alpha   89.99817609
_cell_angle_beta   89.99705388
_cell_angle_gamma   89.99674259
_symmetry_Int_Tables_number   1
_chemical_formula_structural   LaOsN3
_chemical_formula_sum   'La4 Os4 N12'
_cell_volume   246.28246679
_cell_formula_units_Z   4
loop_
 _symmetry_equiv_pos_site_id
 _symmetry_equiv_pos_as_xyz
  1  'x, y, z'
loop_
 _atom_site_type_symbol
 _atom_site_label
 _atom_site_symmetry_multiplicity
 _atom_site_fract_x
 _atom_site_fract_y
 _atom_site_fract_z
 _atom_site_occupancy
  La  La0  1  0.98320895  0.00045440  0.24999309  1
  La  La1  1  0.48320682  0.49954514  0.24999048  1
  La  La2  1  0.51673497  0.50042197  0.75002067  1
  La  La3  1  0.01680544  0.99957451  0.75000548  1
  Os  Os4  1  0.50001513  0.99998133  0.49999526  1
  Os  Os5  1  -0.00000537  0.50000825  -0.00001002  1
  Os  Os6  1  -0.00000059  0.49999776  0.50000997  1
  Os  Os7  1  0.50001489  0.99998836  -0.00000085  1
  N  N8  1  0.27746269  0.72222682  0.97801898  1
  N  N9  1  0.72253857  0.27776950  0.47800106  1
  N  N10  1  0.72254127  0.27777478  0.02199362  1
  N  N11  1  0.00353166  0.54367730  0.25000040  1
  N  N12  1  0.50352666  0.95632787  0.25000798  1
  N  N13  1  0.99649335  0.45631064  0.74999488  1
  N  N14  1  0.27746498  0.72224062  0.52198566  1
  N  N15  1  0.77744971  0.77777233  0.52197810  1
  N  N16  1  0.77747126  0.77776088  0.97802426  1
  N  N17  1  0.22254200  0.22223774  0.47800358  1
  N  N18  1  0.49646166  0.04368508  0.74999280  1
  N  N19  1  0.22253596  0.22224474  0.02199461  1
