# generated using pymatgen
data_SnH6CI3N
_symmetry_space_group_name_H-M   'P 1'
_cell_length_a   9.05788286
_cell_length_b   9.05653535
_cell_length_c   12.55658239
_cell_angle_alpha   91.04997923
_cell_angle_beta   90.83772758
_cell_angle_gamma   89.49217230
_symmetry_Int_Tables_number   1
_chemical_formula_structural   SnH6CI3N
_chemical_formula_sum   'Sn4 H24 C4 I12 N4'
_cell_volume   1029.73348280
_cell_formula_units_Z   4
loop_
 _symmetry_equiv_pos_site_id
 _symmetry_equiv_pos_as_xyz
  1  'x, y, z'
loop_
 _atom_site_type_symbol
 _atom_site_label
 _atom_site_symmetry_multiplicity
 _atom_site_fract_x
 _atom_site_fract_y
 _atom_site_fract_z
 _atom_site_occupancy
  Sn  Sn0  1  0.00037215  0.99985191  0.01011901  1
  Sn  Sn1  1  0.49774280  0.49862567  0.50999807  1
  Sn  Sn2  1  0.00340258  0.99832576  0.51036604  1
  Sn  Sn3  1  0.50064132  0.50026143  0.00997218  1
  H  H4  1  0.42159340  0.92219542  0.70350777  1
  H  H5  1  0.61453019  0.96616422  0.70657664  1
  H  H6  1  0.40248723  0.03458646  0.88270139  1
  H  H7  1  0.57934403  0.08055097  0.88323233  1
  H  H8  1  0.53479578  0.90344940  0.88608646  1
  H  H9  1  0.92555150  0.41925633  0.70146842  1
  H  H10  1  0.11629556  0.47211714  0.70571729  1
  H  H11  1  0.89693632  0.52301332  0.87908774  1
  H  H12  1  0.07137533  0.57782869  0.88677302  1
  H  H13  1  0.03438711  0.39870223  0.88271609  1
  H  H14  1  0.88868805  0.49075522  0.20226805  1
  H  H15  1  0.06725236  0.40138231  0.20510828  1
  H  H16  1  0.93489756  0.58599576  0.38188961  1
  H  H17  1  0.10290286  0.50864088  0.38570707  1
  H  H18  1  0.95355799  0.40348822  0.38213262  1
  H  H19  1  0.42652910  0.91906035  0.20246334  1
  H  H20  1  0.61549975  0.97659622  0.20649458  1
  H  H21  1  0.39742586  0.01960325  0.38166401  1
  H  H22  1  0.57072567  0.07818819  0.38828235  1
  H  H23  1  0.53761317  0.89825812  0.38114735  1
  H  H24  1  0.05394723  0.59837323  0.20727859  1
  H  H25  1  0.97472536  0.61105404  0.70657250  1
  H  H26  1  0.48007130  0.11169408  0.70635020  1
  H  H27  1  0.47059583  0.11236121  0.20742737  1
  C  C28  1  0.50399638  0.00253275  0.23361985  1
  C  C29  1  0.00521846  0.50036010  0.73271583  1
  C  C30  1  0.00218295  0.49675991  0.23303860  1
  C  C31  1  0.50488008  0.99988353  0.73368159  1
  I  I32  1  0.00135787  0.00033493  0.25348512  1
  I  I33  1  0.50191710  0.49980336  0.75347713  1
  I  I34  1  0.00051542  0.00056021  0.75343177  1
  I  I35  1  0.49860581  0.50064408  0.25353434  1
  I  I36  1  0.24240855  0.74558912  0.00780944  1
  I  I37  1  0.74894821  0.24864808  0.50549030  1
  I  I38  1  0.24531027  0.23902754  0.00607181  1
  I  I39  1  0.75498128  0.74772760  0.50453464  1
  I  I40  1  0.74835847  0.25099634  0.00502659  1
  I  I41  1  0.25416780  0.75377083  0.50875489  1
  I  I42  1  0.73815695  0.74599177  0.00733270  1
  I  I43  1  0.24754888  0.25501879  0.50816868  1
  N  N44  1  0.50212963  0.99933752  0.35254477  1
  N  N45  1  0.00183418  0.49931958  0.85160390  1
  N  N46  1  0.99844217  0.49872204  0.35198916  1
  N  N47  1  0.50448514  0.00337090  0.85274253  1
