# generated using pymatgen
data_BaAuO2
_symmetry_space_group_name_H-M   'P 1'
_cell_length_a   3.93256210
_cell_length_b   6.37250308
_cell_length_c   6.37250273
_cell_angle_alpha   108.42522122
_cell_angle_beta   90.15502762
_cell_angle_gamma   90.15503442
_symmetry_Int_Tables_number   1
_chemical_formula_structural   BaAuO2
_chemical_formula_sum   'Ba2 Au2 O4'
_cell_volume   151.50844850
_cell_formula_units_Z   2
loop_
 _symmetry_equiv_pos_site_id
 _symmetry_equiv_pos_as_xyz
  1  'x, y, z'
loop_
 _atom_site_type_symbol
 _atom_site_label
 _atom_site_symmetry_multiplicity
 _atom_site_fract_x
 _atom_site_fract_y
 _atom_site_fract_z
 _atom_site_occupancy
  Ba  Ba0  1  0.00000000  0.50000000  0.00000000  1
  Ba  Ba1  1  0.00000000  0.00000000  0.50000000  1
  Au  Au2  1  0.50000000  0.00000000  0.00000000  1
  Au  Au3  1  0.50000000  0.50000000  0.50000000  1
  O  O4  1  0.72823008  0.75317246  0.75317246  1
  O  O5  1  0.50000000  0.30113584  0.69886416  1
  O  O6  1  0.50000000  0.69886416  0.30113584  1
  O  O7  1  0.27176992  0.24682754  0.24682754  1
