# generated using pymatgen
data_Nd2O5
_symmetry_space_group_name_H-M   'P 1'
_cell_length_a   5.65126456
_cell_length_b   6.05338352
_cell_length_c   7.41466920
_cell_angle_alpha   118.15217724
_cell_angle_beta   112.40101898
_cell_angle_gamma   89.99999904
_symmetry_Int_Tables_number   1
_chemical_formula_structural   Nd2O5
_chemical_formula_sum   'Nd4 O10'
_cell_volume   201.67417878
_cell_formula_units_Z   2
loop_
 _symmetry_equiv_pos_site_id
 _symmetry_equiv_pos_as_xyz
  1  'x, y, z'
loop_
 _atom_site_type_symbol
 _atom_site_label
 _atom_site_symmetry_multiplicity
 _atom_site_fract_x
 _atom_site_fract_y
 _atom_site_fract_z
 _atom_site_occupancy
  Nd  Nd0  1  0.68091302  0.83857477  0.78132015  1
  Nd  Nd1  1  0.89959387  0.66142523  0.21867985  1
  Nd  Nd2  1  0.31908698  0.16142523  0.21867985  1
  Nd  Nd3  1  0.10040613  0.33857477  0.78132015  1
  O  O4  1  0.38400601  0.65146756  0.37656298  1
  O  O5  1  0.00744203  0.84853244  0.62343702  1
  O  O6  1  0.61599399  0.34853244  0.62343702  1
  O  O7  1  0.99255797  0.15146756  0.37656298  1
  O  O8  1  0.94481849  0.25000000  0.00000000  1
  O  O9  1  0.05518151  0.75000000  1.00000000  1
  O  O10  1  0.47623638  0.51669731  0.19644310  1
  O  O11  1  0.27979228  0.98330269  0.80355690  1
  O  O12  1  0.52376362  0.48330269  0.80355690  1
  O  O13  1  0.72020772  0.01669731  0.19644310  1
