# generated using pymatgen
data_CaMn2O4
_symmetry_space_group_name_H-M   'P 1'
_cell_length_a   6.34643828
_cell_length_b   6.31428020
_cell_length_c   6.31229821
_cell_angle_alpha   89.58079213
_cell_angle_beta   120.00150338
_cell_angle_gamma   120.04772862
_symmetry_Int_Tables_number   1
_chemical_formula_structural   CaMn2O4
_chemical_formula_sum   'Ca2 Mn4 O8'
_cell_volume   179.37727110
_cell_formula_units_Z   2
loop_
 _symmetry_equiv_pos_site_id
 _symmetry_equiv_pos_as_xyz
  1  'x, y, z'
loop_
 _atom_site_type_symbol
 _atom_site_label
 _atom_site_symmetry_multiplicity
 _atom_site_fract_x
 _atom_site_fract_y
 _atom_site_fract_z
 _atom_site_occupancy
  Ca  Ca0  1  0.24963795  0.12437181  0.87539932  1
  Ca  Ca1  1  0.75014390  0.87556150  0.12460599  1
  Mn  Mn2  1  0.50025451  -0.00036553  0.50033121  1
  Mn  Mn3  1  0.50011821  0.50029229  0.49988731  1
  Mn  Mn4  1  0.00021922  0.49993107  -0.00013296  1
  Mn  Mn5  1  0.00042380  0.50013804  0.50033483  1
  O  O6  1  0.96974231  0.66785402  0.23067597  1
  O  O7  1  0.42735098  0.76089691  0.69803173  1
  O  O8  1  0.53063236  0.76972771  0.33225173  1
  O  O9  1  0.92734991  0.69808466  0.76118022  1
  O  O10  1  0.46920169  0.23027000  0.66774493  1
  O  O11  1  0.57261862  0.23931081  0.30184867  1
  O  O12  1  0.07240615  0.30158271  0.23862184  1
  O  O13  1  0.02990136  0.33234401  0.76922023  1
