# generated using pymatgen
data_FeOF
_symmetry_space_group_name_H-M   'P 1'
_cell_length_a   4.92189478
_cell_length_b   14.51425492
_cell_length_c   3.11267058
_cell_angle_alpha   90.00000000
_cell_angle_beta   90.00000000
_cell_angle_gamma   89.95346978
_symmetry_Int_Tables_number   1
_chemical_formula_structural   FeOF
_chemical_formula_sum   'Fe6 O6 F6'
_cell_volume   222.36175304
_cell_formula_units_Z   6
loop_
 _symmetry_equiv_pos_site_id
 _symmetry_equiv_pos_as_xyz
  1  'x, y, z'
loop_
 _atom_site_type_symbol
 _atom_site_label
 _atom_site_symmetry_multiplicity
 _atom_site_fract_x
 _atom_site_fract_y
 _atom_site_fract_z
 _atom_site_occupancy
  Fe  Fe0  1  0.02683651  0.00618239  0.00000000  1
  Fe  Fe1  1  0.02019750  0.33653163  0.00000000  1
  Fe  Fe2  1  0.03194111  0.66807671  0.00000000  1
  Fe  Fe3  1  0.51702806  0.14859301  0.50000000  1
  Fe  Fe4  1  0.44756804  0.49875169  0.50000000  1
  Fe  Fe5  1  0.44756144  0.83614549  0.50000000  1
  O  O6  1  0.18381820  0.60636069  0.50000000  1
  O  O7  1  0.18456099  0.93811014  0.50000000  1
  O  O8  1  0.33873154  0.10050202  0.00000000  1
  O  O9  1  0.28638087  0.77510443  0.00000000  1
  O  O10  1  0.30585094  0.43539870  0.00000000  1
  O  O11  1  0.82948692  0.06285065  0.50000000  1
  F  F12  1  0.21452177  0.26109746  0.50000000  1
  F  F13  1  0.71572528  0.23275750  0.00000000  1
  F  F14  1  0.68799106  0.56510376  0.00000000  1
  F  F15  1  0.68102235  0.89641069  0.00000000  1
  F  F16  1  0.79470148  0.39927554  0.50000000  1
  F  F17  1  0.78607493  0.73274549  0.50000000  1
