# generated using pymatgen
data_Li3FeSi2O7
_symmetry_space_group_name_H-M   'P 1'
_cell_length_a   8.62073280
_cell_length_b   8.62074168
_cell_length_c   13.04529851
_cell_angle_alpha   90.00025415
_cell_angle_beta   89.99981571
_cell_angle_gamma   120.00017005
_symmetry_Int_Tables_number   1
_chemical_formula_structural   Li3FeSi2O7
_chemical_formula_sum   'Li18 Fe6 Si12 O42'
_cell_volume   839.60057001
_cell_formula_units_Z   6
loop_
 _symmetry_equiv_pos_site_id
 _symmetry_equiv_pos_as_xyz
  1  'x, y, z'
loop_
 _atom_site_type_symbol
 _atom_site_label
 _atom_site_symmetry_multiplicity
 _atom_site_fract_x
 _atom_site_fract_y
 _atom_site_fract_z
 _atom_site_occupancy
  Li  Li0  1  0.02475434  0.69073504  0.89743123  1
  Li  Li1  1  0.02402960  0.69154055  0.56648985  1
  Li  Li2  1  0.33333180  0.66666856  0.21807879  1
  Li  Li3  1  0.33331289  0.66667815  0.73289928  1
  Li  Li4  1  0.99999701  0.99999673  0.46127587  1
  Li  Li5  1  -0.00000004  0.99999918  0.96127435  1
  Li  Li6  1  0.30845535  0.33247847  0.56648926  1
  Li  Li7  1  0.30927204  0.33401421  0.89742902  1
  Li  Li8  1  0.66598525  0.97524666  0.89742963  1
  Li  Li9  1  0.66751170  0.97596466  0.56649018  1
  Li  Li10  1  0.33248468  0.02403192  0.06648987  1
  Li  Li11  1  0.33401439  0.02475404  0.39743202  1
  Li  Li12  1  0.69073029  0.66598606  0.39742994  1
  Li  Li13  1  0.69154709  0.66752095  0.06649015  1
  Li  Li14  1  0.66663004  0.33331687  0.23290138  1
  Li  Li15  1  0.66666849  0.33333324  0.71808012  1
  Li  Li16  1  0.97597622  0.30845941  0.06648957  1
  Li  Li17  1  0.97524764  0.30926574  0.39742740  1
  Fe  Fe18  1  0.99999821  0.00000169  0.22991594  1
  Fe  Fe19  1  0.99999833  0.00000271  0.72991373  1
  Fe  Fe20  1  0.33332962  0.66666120  0.50873967  1
  Fe  Fe21  1  0.33333482  0.66666194  0.95607228  1
  Fe  Fe22  1  0.66666972  0.33333233  0.45607342  1
  Fe  Fe23  1  0.66667389  0.33333986  0.00874263  1
  Si  Si24  1  0.02636737  0.67474195  0.34528631  1
  Si  Si25  1  0.02424716  0.67361652  0.12059420  1
  Si  Si26  1  0.32639038  0.35062686  0.12059326  1
  Si  Si27  1  0.32524731  0.35162191  0.34528344  1
  Si  Si28  1  0.64937398  0.97576289  0.12059276  1
  Si  Si29  1  0.64837047  0.97363015  0.34528312  1
  Si  Si30  1  0.35163041  0.02637933  0.84528594  1
  Si  Si31  1  0.35062931  0.02424780  0.62059276  1
  Si  Si32  1  0.67475687  0.64837849  0.84528300  1
  Si  Si33  1  0.67361741  0.64936734  0.62058881  1
  Si  Si34  1  0.97574659  0.32637813  0.62059201  1
  Si  Si35  1  0.97362736  0.32525121  0.84528573  1
  O  O36  1  0.13283246  0.92984949  0.84145519  1
  O  O37  1  0.13254894  0.92638214  0.62687489  1
  O  O38  1  0.13014118  0.69616309  0.23276893  1
  O  O39  1  0.18785592  0.75666546  0.03584869  1
  O  O40  1  0.18835052  0.75832177  0.43085718  1
  O  O41  1  0.11894223  0.53937153  0.60561286  1
  O  O42  1  0.11873420  0.53795425  0.85988391  1
  O  O43  1  0.07015861  0.20298441  0.84145058  1
  O  O44  1  0.41922697  0.88127306  0.85988245  1
  O  O45  1  0.07361620  0.20617072  0.62687462  1
  O  O46  1  0.42042202  0.88105303  0.60561475  1
  O  O47  1  0.24334689  0.43118187  0.03584201  1
  O  O48  1  0.24166416  0.43002121  0.43085596  1
  O  O49  1  0.30382244  0.43397081  0.23276593  1
  O  O50  1  0.20297726  0.13282513  0.34145259  1
  O  O51  1  0.56602477  0.86985024  0.23276545  1
  O  O52  1  0.20617021  0.13255131  0.12687333  1
  O  O53  1  0.56997111  0.81164897  0.43085631  1
  O  O54  1  0.56882608  0.81216102  0.03584072  1
  O  O55  1  0.46063204  0.57957116  0.60560566  1
  O  O56  1  0.46205959  0.58078276  0.85988385  1
  O  O57  1  0.53793746  0.41921643  0.35988749  1
  O  O58  1  0.53937232  0.42042814  0.10561783  1
  O  O59  1  0.43118070  0.18783744  0.53584693  1
  O  O60  1  0.43002436  0.18834614  0.93085979  1
  O  O61  1  0.79382924  0.86744814  0.62687217  1
  O  O62  1  0.43397473  0.13014745  0.73276784  1
  O  O63  1  0.79702499  0.86718114  0.84145290  1
  O  O64  1  0.69617270  0.56602956  0.73276534  1
  O  O65  1  0.75833393  0.56998493  0.93085362  1
  O  O66  1  0.75666684  0.56882103  0.53584636  1
  O  O67  1  0.57957158  0.11893904  0.10561163  1
  O  O68  1  0.92638870  0.79383362  0.12687343  1
  O  O69  1  0.58077292  0.11872255  0.35988071  1
  O  O70  1  0.92984783  0.79701978  0.34145528  1
  O  O71  1  0.88126950  0.46205088  0.35988371  1
  O  O72  1  0.88106848  0.46063982  0.10560367  1
  O  O73  1  0.81165766  0.24167466  0.93085751  1
  O  O74  1  0.81215627  0.24333630  0.53584776  1
  O  O75  1  0.86985586  0.30383177  0.73276895  1
  O  O76  1  0.86744761  0.07361975  0.12687882  1
  O  O77  1  0.86716752  0.07014923  0.34145346  1
