# generated using pymatgen
data_CaV2Ni2(P2O9)2
_symmetry_space_group_name_H-M   'P 1'
_cell_length_a   6.40323031
_cell_length_b   7.55212579
_cell_length_c   13.98964024
_cell_angle_alpha   90.00387991
_cell_angle_beta   89.99995776
_cell_angle_gamma   90.00020781
_symmetry_Int_Tables_number   1
_chemical_formula_structural   CaV2Ni2(P2O9)2
_chemical_formula_sum   'Ca2 V4 Ni4 P8 O36'
_cell_volume   676.51103215
_cell_formula_units_Z   2
loop_
 _symmetry_equiv_pos_site_id
 _symmetry_equiv_pos_as_xyz
  1  'x, y, z'
loop_
 _atom_site_type_symbol
 _atom_site_label
 _atom_site_symmetry_multiplicity
 _atom_site_fract_x
 _atom_site_fract_y
 _atom_site_fract_z
 _atom_site_occupancy
  Ca  Ca0  1  0.24999974  0.12364391  0.21808850  1
  Ca  Ca1  1  0.24999922  0.37628687  0.71807140  1
  V  V2  1  0.74999971  0.34818750  0.87949339  1
  V  V3  1  0.25000082  0.65408003  0.12233693  1
  V  V4  1  0.24999992  0.84592107  0.62235100  1
  V  V5  1  0.75000048  0.15178911  0.37949256  1
  Ni  Ni6  1  0.50232858  0.99527821  0.99647350  1
  Ni  Ni7  1  0.50233137  0.50473657  0.49642759  1
  Ni  Ni8  1  0.99766888  0.50473605  0.49642896  1
  Ni  Ni9  1  0.99767030  0.99527650  0.99647318  1
  P  P10  1  0.24999963  0.34975610  0.94056067  1
  P  P11  1  0.75000048  0.64933436  0.06253444  1
  P  P12  1  0.75000000  0.85065081  0.56252785  1
  P  P13  1  0.25000067  0.15024665  0.44054854  1
  P  P14  1  0.74999961  0.38974557  0.69211389  1
  P  P15  1  0.24999936  0.60838267  0.31213841  1
  P  P16  1  0.24999988  0.89162083  0.81214142  1
  P  P17  1  0.75000079  0.11026534  0.19212571  1
  O  O18  1  0.05011752  0.60757505  0.36927318  1
  O  O19  1  0.55157988  0.39225567  0.63093126  1
  O  O20  1  0.94841823  0.10774481  0.13096321  1
  O  O21  1  0.44987957  0.89245658  0.86931194  1
  O  O22  1  0.94841945  0.39225602  0.63093122  1
  O  O23  1  0.44988251  0.60757488  0.36927228  1
  O  O24  1  0.05011876  0.89245409  0.86931194  1
  O  O25  1  0.55158221  0.10774516  0.13096390  1
  O  O26  1  0.25000056  0.33339967  0.48737647  1
  O  O27  1  0.74999924  0.66561857  0.51772949  1
  O  O28  1  0.74999964  0.83442607  0.01775568  1
  O  O29  1  0.24999957  0.16661130  0.98740529  1
  O  O30  1  0.74999754  0.15639477  0.94163978  1
  O  O31  1  0.25000235  0.85021592  0.06133611  1
  O  O32  1  0.25000120  0.64980317  0.56129616  1
  O  O33  1  0.74999852  0.34361639  0.44163057  1
  O  O34  1  0.74999914  0.22027852  0.75942774  1
  O  O35  1  0.25000129  0.77906346  0.24143946  1
  O  O36  1  0.24999984  0.72095235  0.74143262  1
  O  O37  1  0.75000244  0.27969804  0.25945363  1
  O  O38  1  0.43885241  0.13121855  0.37093520  1
  O  O39  1  0.94825431  0.87265816  0.62373389  1
  O  O40  1  0.55174503  0.62734582  0.12374496  1
  O  O41  1  0.06114326  0.36875090  0.87093220  1
  O  O42  1  0.55174585  0.87266025  0.62373432  1
  O  O43  1  0.06114803  0.13121979  0.37093546  1
  O  O44  1  0.43885623  0.36875131  0.87093180  1
  O  O45  1  0.94825539  0.62734709  0.12374456  1
  O  O46  1  0.75000023  0.96825536  0.27295441  1
  O  O47  1  0.25000054  0.03454152  0.72858530  1
  O  O48  1  0.24999878  0.46544487  0.22856836  1
  O  O49  1  0.75000043  0.53170509  0.77294389  1
  O  O50  1  0.75000031  0.99598277  0.48334823  1
  O  O51  1  0.25000004  0.00576138  0.51636387  1
  O  O52  1  0.25000022  0.49424653  0.01636446  1
  O  O53  1  0.75000006  0.50403196  0.98334526  1
