# generated using pymatgen
data_Li9Ni15O28
_symmetry_space_group_name_H-M   'P 1'
_cell_length_a   8.22270435
_cell_length_b   8.57633146
_cell_length_c   7.55947257
_cell_angle_alpha   105.70464546
_cell_angle_beta   75.47318964
_cell_angle_gamma   75.49573992
_symmetry_Int_Tables_number   1
_chemical_formula_structural   Li9Ni15O28
_chemical_formula_sum   'Li9 Ni15 O28'
_cell_volume   466.90475149
_cell_formula_units_Z   1
loop_
 _symmetry_equiv_pos_site_id
 _symmetry_equiv_pos_as_xyz
  1  'x, y, z'
loop_
 _atom_site_type_symbol
 _atom_site_label
 _atom_site_symmetry_multiplicity
 _atom_site_fract_x
 _atom_site_fract_y
 _atom_site_fract_z
 _atom_site_occupancy
  Li  Li0  1  0.00000000  0.50000000  0.50000000  1
  Li  Li1  1  0.27177116  0.29229278  0.56801416  1
  Li  Li2  1  0.28012978  0.79267121  0.07370232  1
  Li  Li3  1  0.57506620  0.56988826  0.14914591  1
  Li  Li4  1  0.57922824  0.06374988  0.63981071  1
  Li  Li5  1  0.42077176  0.93625012  0.36018929  1
  Li  Li6  1  0.42493380  0.43011174  0.85085409  1
  Li  Li7  1  0.71987022  0.20732879  0.92629768  1
  Li  Li8  1  0.72822884  0.70770722  0.43198584  1
  Ni  Ni9  1  0.00000000  0.00000000  0.00000000  1
  Ni  Ni10  1  0.07225971  0.07078219  0.64294403  1
  Ni  Ni11  1  0.07597513  0.56844145  0.13538016  1
  Ni  Ni12  1  0.20898822  0.70997488  0.43228889  1
  Ni  Ni13  1  0.21256682  0.21241083  0.92945048  1
  Ni  Ni14  1  0.35902063  0.35425451  0.20807235  1
  Ni  Ni15  1  0.50000000  0.00000000  0.00000000  1
  Ni  Ni16  1  0.64550008  0.14283173  0.28550715  1
  Ni  Ni17  1  0.50000000  0.50000000  0.50000000  1
  Ni  Ni18  1  0.35449992  0.85716827  0.71449285  1
  Ni  Ni19  1  0.64097937  0.64574549  0.79192765  1
  Ni  Ni20  1  0.78743318  0.78758917  0.07054952  1
  Ni  Ni21  1  0.79101178  0.29002512  0.56771111  1
  Ni  Ni22  1  0.92402487  0.43155855  0.86461984  1
  Ni  Ni23  1  0.92774029  0.92921781  0.35705597  1
  O  O24  1  0.01451170  0.29002779  0.60066869  1
  O  O25  1  0.03145880  0.79568642  0.09348133  1
  O  O26  1  0.13747356  0.34957808  0.19560458  1
  O  O27  1  0.16361716  0.41724392  0.87446970  1
  O  O28  1  0.31498900  0.54993695  0.13990026  1
  O  O29  1  0.25653502  0.00262369  0.97777783  1
  O  O30  1  0.25430996  0.49491892  0.46937435  1
  O  O31  1  0.31262722  0.08226498  0.65674145  1
  O  O32  1  0.12531167  0.87145210  0.71100740  1
  O  O33  1  0.17354237  0.91613299  0.38087915  1
  O  O34  1  0.41604845  0.15290748  0.27167426  1
  O  O35  1  0.57778034  0.36856662  0.22917996  1
  O  O36  1  0.44440744  0.70747627  0.44634721  1
  O  O37  1  0.46702557  0.20545946  0.94462128  1
  O  O38  1  0.53297443  0.79454054  0.05537872  1
  O  O39  1  0.55559256  0.29252373  0.55365279  1
  O  O40  1  0.42221966  0.63143338  0.77082004  1
  O  O41  1  0.58395155  0.84709252  0.72832574  1
  O  O42  1  0.82645763  0.08386701  0.61912085  1
  O  O43  1  0.87468833  0.12854790  0.28899260  1
  O  O44  1  0.68737278  0.91773502  0.34325855  1
  O  O45  1  0.74569004  0.50508108  0.53062565  1
  O  O46  1  0.74346498  0.99737631  0.02222217  1
  O  O47  1  0.68501100  0.45006305  0.86009974  1
  O  O48  1  0.83638284  0.58275608  0.12553030  1
  O  O49  1  0.86252644  0.65042192  0.80439542  1
  O  O50  1  0.96854120  0.20431358  0.90651867  1
  O  O51  1  0.98548830  0.70997221  0.39933131  1
