# generated using pymatgen
data_NiAgF3
_symmetry_space_group_name_H-M   'P 1'
_cell_length_a   4.00341401
_cell_length_b   4.00424160
_cell_length_c   4.00420600
_cell_angle_alpha   89.86822835
_cell_angle_beta   89.72809961
_cell_angle_gamma   89.96523758
_symmetry_Int_Tables_number   1
_chemical_formula_structural   NiAgF3
_chemical_formula_sum   'Ni1 Ag1 F3'
_cell_volume   64.18906864
_cell_formula_units_Z   1
loop_
 _symmetry_equiv_pos_site_id
 _symmetry_equiv_pos_as_xyz
  1  'x, y, z'
loop_
 _atom_site_type_symbol
 _atom_site_label
 _atom_site_symmetry_multiplicity
 _atom_site_fract_x
 _atom_site_fract_y
 _atom_site_fract_z
 _atom_site_occupancy
  Ni  Ni0  1  0.48766082  0.49992356  0.49767976  1
  Ag  Ag1  1  0.99180055  0.99749604  0.99473520  1
  F  F2  1  0.48553011  0.99989249  0.49432879  1
  F  F3  1  0.98768118  0.50493468  0.50559919  1
  F  F4  1  0.48733133  0.49775424  0.99765505  1
