# generated using pymatgen
data_Li4Fe3Co7O20
_symmetry_space_group_name_H-M   'P 1'
_cell_length_a   20.04924634
_cell_length_b   2.98404940
_cell_length_c   6.19013337
_cell_angle_alpha   90.00000000
_cell_angle_beta   82.23061556
_cell_angle_gamma   90.00000000
_symmetry_Int_Tables_number   1
_chemical_formula_structural   Li4Fe3Co7O20
_chemical_formula_sum   'Li4 Fe3 Co7 O20'
_cell_volume   366.94326956
_cell_formula_units_Z   1
loop_
 _symmetry_equiv_pos_site_id
 _symmetry_equiv_pos_as_xyz
  1  'x, y, z'
loop_
 _atom_site_type_symbol
 _atom_site_label
 _atom_site_symmetry_multiplicity
 _atom_site_fract_x
 _atom_site_fract_y
 _atom_site_fract_z
 _atom_site_occupancy
  Li  Li0  1  0.10000000  0.50000000  0.20000000  1
  Li  Li1  1  0.39718518  0.00000000  0.79570417  1
  Li  Li2  1  0.60000000  0.00000000  0.20000000  1
  Li  Li3  1  0.80281482  0.00000000  0.60429583  1
  Fe  Fe4  1  0.39721039  0.00000000  0.30056570  1
  Fe  Fe5  1  0.60000000  0.00000000  0.70000000  1
  Fe  Fe6  1  0.80278961  0.00000000  0.09943430  1
  Co  Co7  1  0.99823481  0.00000000  0.52154122  1
  Co  Co8  1  0.10000000  0.50000000  0.70000000  1
  Co  Co9  1  0.20176519  0.00000000  0.87845878  1
  Co  Co10  1  0.29248721  0.50000000  0.11651628  1
  Co  Co11  1  0.49935209  0.50000000  0.49842548  1
  Co  Co12  1  0.70064791  0.50000000  0.90157452  1
  Co  Co13  1  0.90751279  0.50000000  0.28348372  1
  O  O14  1  0.00774286  0.50000000  0.72008340  1
  O  O15  1  0.09031387  0.00000000  0.48140341  1
  O  O16  1  0.10968613  0.00000000  0.91859659  1
  O  O17  1  0.20117092  0.50000000  0.09984883  1
  O  O18  1  0.19225714  0.50000000  0.67991660  1
  O  O19  1  0.29797486  0.00000000  0.30618774  1
  O  O20  1  0.29191693  0.00000000  0.88250712  1
  O  O21  1  0.38891823  0.50000000  0.07207698  1
  O  O22  1  0.40527266  0.50000000  0.52034056  1
  O  O23  1  0.49917142  0.00000000  0.29944052  1
  O  O24  1  0.49864239  0.00000000  0.69767344  1
  O  O25  1  0.59331449  0.50000000  0.47702504  1
  O  O26  1  0.60668551  0.50000000  0.92297496  1
  O  O27  1  0.70082858  0.00000000  0.10055948  1
  O  O28  1  0.70135761  0.00000000  0.70232656  1
  O  O29  1  0.81108177  0.50000000  0.32792302  1
  O  O30  1  0.79472734  0.50000000  0.87965944  1
  O  O31  1  0.90202514  0.00000000  0.09381226  1
  O  O32  1  0.90808307  0.00000000  0.51749288  1
  O  O33  1  0.99882908  0.50000000  0.30015117  1
