# generated using pymatgen
data_MnZnF5
_symmetry_space_group_name_H-M   'P 1'
_cell_length_a   5.36412836
_cell_length_b   5.34920278
_cell_length_c   7.75045120
_cell_angle_alpha   99.13557110
_cell_angle_beta   106.74653453
_cell_angle_gamma   110.75042151
_symmetry_Int_Tables_number   1
_chemical_formula_structural   MnZnF5
_chemical_formula_sum   'Mn2 Zn2 F10'
_cell_volume   190.50712139
_cell_formula_units_Z   2
loop_
 _symmetry_equiv_pos_site_id
 _symmetry_equiv_pos_as_xyz
  1  'x, y, z'
loop_
 _atom_site_type_symbol
 _atom_site_label
 _atom_site_symmetry_multiplicity
 _atom_site_fract_x
 _atom_site_fract_y
 _atom_site_fract_z
 _atom_site_occupancy
  Mn  Mn0  1  0.99981400  0.99834356  0.00004542  1
  Mn  Mn1  1  0.49926926  0.99742946  0.50019638  1
  Zn  Zn2  1  0.27283307  0.52133367  0.75006218  1
  Zn  Zn3  1  0.72671660  0.47403619  0.25055791  1
  F  F4  1  0.39923809  0.14440747  0.25077120  1
  F  F5  1  0.60293954  0.85043698  0.75245624  1
  F  F6  1  0.59668098  0.73755551  0.37484530  1
  F  F7  1  0.86709272  0.21699032  0.12971942  1
  F  F8  1  0.77695629  0.68321132  0.05966055  1
  F  F9  1  0.12940451  0.70919960  0.44205898  1
  F  F10  1  0.22621560  0.31505091  0.94337421  1
  F  F11  1  0.87023069  0.28508849  0.56085699  1
  F  F12  1  0.13320892  0.78031902  0.87045517  1
  F  F13  1  0.40237272  0.25604651  0.62652604  1
