# generated using pymatgen
data_CaMnF4
_symmetry_space_group_name_H-M   'P 1'
_cell_length_a   5.44911524
_cell_length_b   5.44792341
_cell_length_c   6.65728751
_cell_angle_alpha   114.11631992
_cell_angle_beta   114.27075006
_cell_angle_gamma   90.00035231
_symmetry_Int_Tables_number   1
_chemical_formula_structural   CaMnF4
_chemical_formula_sum   'Ca2 Mn2 F8'
_cell_volume   161.05266824
_cell_formula_units_Z   2
loop_
 _symmetry_equiv_pos_site_id
 _symmetry_equiv_pos_as_xyz
  1  'x, y, z'
loop_
 _atom_site_type_symbol
 _atom_site_label
 _atom_site_symmetry_multiplicity
 _atom_site_fract_x
 _atom_site_fract_y
 _atom_site_fract_z
 _atom_site_occupancy
  Ca  Ca0  1  0.24978415  0.25105210  0.50020074  1
  Ca  Ca1  1  0.74968893  0.75105287  0.50056775  1
  Mn  Mn2  1  0.99670284  0.50259356  0.99900176  1
  Mn  Mn3  1  0.50143782  0.00250174  0.00292590  1
  F  F4  1  0.91039624  0.41236004  0.24794330  1
  F  F5  1  0.66302681  0.16189556  0.74822450  1
  F  F6  1  0.08324437  0.58357230  0.74626234  1
  F  F7  1  0.16527576  0.08638343  0.75046353  1
  F  F8  1  0.33662500  0.83846554  0.24711877  1
  F  F9  1  0.41306450  0.33945539  0.25221743  1
  F  F10  1  0.83855652  0.91303268  0.25157848  1
  F  F11  1  0.58869606  0.66404578  0.75336551  1
