# generated using pymatgen
data_MgMnF5
_symmetry_space_group_name_H-M   'P 1'
_cell_length_a   5.28557852
_cell_length_b   5.29977244
_cell_length_c   7.68188405
_cell_angle_alpha   99.56782568
_cell_angle_beta   107.12655149
_cell_angle_gamma   110.19719735
_symmetry_Int_Tables_number   1
_chemical_formula_structural   MgMnF5
_chemical_formula_sum   'Mg2 Mn2 F10'
_cell_volume   184.19045693
_cell_formula_units_Z   2
loop_
 _symmetry_equiv_pos_site_id
 _symmetry_equiv_pos_as_xyz
  1  'x, y, z'
loop_
 _atom_site_type_symbol
 _atom_site_label
 _atom_site_symmetry_multiplicity
 _atom_site_fract_x
 _atom_site_fract_y
 _atom_site_fract_z
 _atom_site_occupancy
  Mg  Mg0  1  0.27676964  0.52301481  0.75278681  1
  Mg  Mg1  1  0.72554097  0.47885022  0.24509324  1
  Mn  Mn2  1  0.00164007  0.00091354  0.99858378  1
  Mn  Mn3  1  0.50151758  0.00084430  0.49969257  1
  F  F4  1  0.40127577  0.14949043  0.25001350  1
  F  F5  1  0.60177512  0.85095581  0.74843412  1
  F  F6  1  0.59797553  0.73981651  0.36955459  1
  F  F7  1  0.86125724  0.22220218  0.12386118  1
  F  F8  1  0.77307803  0.68742409  0.05665973  1
  F  F9  1  0.12682925  0.71180400  0.43654643  1
  F  F10  1  0.23445244  0.31662675  0.94401911  1
  F  F11  1  0.87652818  0.28763074  0.56322626  1
  F  F12  1  0.13521322  0.77603823  0.87100046  1
  F  F13  1  0.40742897  0.26235639  0.63123820  1
