# generated using pymatgen
data_MgMn2O4
_symmetry_space_group_name_H-M   'P 1'
_cell_length_a   6.04349563
_cell_length_b   6.06320980
_cell_length_c   18.15352953
_cell_angle_alpha   59.95083699
_cell_angle_beta   59.99330277
_cell_angle_gamma   59.88221900
_symmetry_Int_Tables_number   1
_chemical_formula_structural   MgMn2O4
_chemical_formula_sum   'Mg6 Mn12 O24'
_cell_volume   469.74865993
_cell_formula_units_Z   6
loop_
 _symmetry_equiv_pos_site_id
 _symmetry_equiv_pos_as_xyz
  1  'x, y, z'
loop_
 _atom_site_type_symbol
 _atom_site_label
 _atom_site_symmetry_multiplicity
 _atom_site_fract_x
 _atom_site_fract_y
 _atom_site_fract_z
 _atom_site_occupancy
  Mg  Mg0  1  0.14370290  0.11541575  0.04190565  1
  Mg  Mg1  1  0.49785023  0.50088185  0.33345283  1
  Mg  Mg2  1  0.99970197  0.49987980  0.16683632  1
  Mg  Mg3  1  0.50211313  0.49984364  0.66610591  1
  Mg  Mg4  1  -0.00001210  0.50022133  0.49983373  1
  Mg  Mg5  1  0.00067248  0.49951555  0.83344037  1
  Mn  Mn6  1  0.50274483  0.99860186  0.16697217  1
  Mn  Mn7  1  0.13490470  0.11386643  0.37908737  1
  Mn  Mn8  1  0.49909739  0.49879625  0.00100972  1
  Mn  Mn9  1  0.50290160  0.49767677  0.16689589  1
  Mn  Mn10  1  0.50031330  0.00013043  0.49970844  1
  Mn  Mn11  1  0.13985411  0.11705825  0.70886900  1
  Mn  Mn12  1  0.50018430  0.50042205  0.49971917  1
  Mn  Mn13  1  0.49628694  0.00391385  0.83306058  1
  Mn  Mn14  1  0.86170265  0.88384295  0.29021146  1
  Mn  Mn15  1  0.49639070  0.50062540  0.83307173  1
  Mn  Mn16  1  0.86374611  0.88546507  0.62167624  1
  Mn  Mn17  1  0.86264241  0.88173292  0.95782870  1
  O  O18  1  0.28174467  0.25613241  0.08506330  1
  O  O19  1  0.27726834  0.25474958  0.23749660  1
  O  O20  1  0.28169904  0.70700224  0.08502813  1
  O  O21  1  0.72846040  0.25661811  0.08605159  1
  O  O22  1  0.27444698  0.24638785  0.42398771  1
  O  O23  1  0.27738402  0.75061183  0.24051112  1
  O  O24  1  0.27885142  0.25443410  0.57083346  1
  O  O25  1  0.72885076  0.29192659  0.24110209  1
  O  O26  1  0.27443485  0.70710209  0.42402264  1
  O  O27  1  0.72259538  0.74560574  0.09568396  1
  O  O28  1  0.71532278  0.25426252  0.42544961  1
  O  O29  1  0.72891656  0.75581501  0.24115584  1
  O  O30  1  0.26981013  0.24516072  0.75893062  1
  O  O31  1  0.28459447  0.74656525  0.57403959  1
  O  O32  1  0.72580871  0.29285315  0.57560809  1
  O  O33  1  0.26952483  0.70868868  0.75892072  1
  O  O34  1  0.27515965  0.25514749  0.90579350  1
  O  O35  1  0.72193155  0.74611586  0.42846438  1
  O  O36  1  0.72404950  0.25234476  0.75854124  1
  O  O37  1  0.72565463  0.75468468  0.57552248  1
  O  O38  1  0.27771516  0.73765149  0.91431797  1
  O  O39  1  0.71600217  0.29641907  0.91521345  1
  O  O40  1  0.71940534  0.74386639  0.76336740  1
  O  O41  1  0.71557001  0.74196223  0.91521026  1
