# generated using pymatgen
data_ZnSi2NiO6
_symmetry_space_group_name_H-M   'P 1'
_cell_length_a   5.30896117
_cell_length_b   6.69337455
_cell_length_c   6.69337479
_cell_angle_alpha   85.47501500
_cell_angle_beta   75.30218419
_cell_angle_gamma   75.30218832
_symmetry_Int_Tables_number   1
_chemical_formula_structural   ZnSi2NiO6
_chemical_formula_sum   'Zn2 Si4 Ni2 O12'
_cell_volume   222.51005102
_cell_formula_units_Z   2
loop_
 _symmetry_equiv_pos_site_id
 _symmetry_equiv_pos_as_xyz
  1  'x, y, z'
loop_
 _atom_site_type_symbol
 _atom_site_label
 _atom_site_symmetry_multiplicity
 _atom_site_fract_x
 _atom_site_fract_y
 _atom_site_fract_z
 _atom_site_occupancy
  Zn  Zn0  1  0.75000000  0.24285127  0.75714873  1
  Zn  Zn1  1  0.25000100  0.75714873  0.24285227  1
  Si  Si2  1  0.24151843  0.21389773  0.38643252  1
  Si  Si3  1  0.25848057  0.61356748  0.78610227  1
  Si  Si4  1  0.74151843  0.38643252  0.21389773  1
  Si  Si5  1  0.75848157  0.78610227  0.61356748  1
  Ni  Ni6  1  0.24999900  0.09778891  0.90221209  1
  Ni  Ni7  1  0.74999900  0.90221309  0.09778791  1
  O  O8  1  0.48908301  0.32110444  0.38440156  1
  O  O9  1  0.01091699  0.61559744  0.67889656  1
  O  O10  1  0.51091799  0.67889656  0.61559844  1
  O  O11  1  0.98908201  0.38440256  0.32110344  1
  O  O12  1  0.12803708  0.13754554  0.62135061  1
  O  O13  1  0.37196292  0.37864839  0.86245346  1
  O  O14  1  0.87196292  0.86245446  0.37864939  1
  O  O15  1  0.62803608  0.62135061  0.13754654  1
  O  O16  1  0.85491764  0.20743883  0.03594336  1
  O  O17  1  0.64508236  0.96405664  0.79256017  1
  O  O18  1  0.35491664  0.03594336  0.20743983  1
  O  O19  1  0.14508336  0.79256117  0.96405664  1
