# generated using pymatgen
data_Ca3Fe2(WO6)2
_symmetry_space_group_name_H-M   'P 1'
_cell_length_a   5.53610206
_cell_length_b   5.51143723
_cell_length_c   7.75049385
_cell_angle_alpha   90.02741833
_cell_angle_beta   90.00000000
_cell_angle_gamma   90.00000000
_symmetry_Int_Tables_number   1
_chemical_formula_structural   Ca3Fe2(WO6)2
_chemical_formula_sum   'Ca3 Fe2 W2 O12'
_cell_volume   236.48210366
_cell_formula_units_Z   1
loop_
 _symmetry_equiv_pos_site_id
 _symmetry_equiv_pos_as_xyz
  1  'x, y, z'
loop_
 _atom_site_type_symbol
 _atom_site_label
 _atom_site_symmetry_multiplicity
 _atom_site_fract_x
 _atom_site_fract_y
 _atom_site_fract_z
 _atom_site_occupancy
  Ca  Ca0  1  0.00000000  0.49181052  0.75040286  1
  Ca  Ca1  1  0.50000000  0.99751254  0.25111651  1
  Ca  Ca2  1  0.50000000  0.97416956  0.75164849  1
  Fe  Fe3  1  0.50000000  0.48184973  0.00257999  1
  Fe  Fe4  1  0.00000000  0.97820967  0.49886325  1
  W  W5  1  0.00000000  0.97856143  0.00823219  1
  W  W6  1  0.50000000  0.47758609  0.49395687  1
  O  O7  1  0.50000000  0.39682507  0.74562117  1
  O  O8  1  0.50000000  0.57074895  0.25659866  1
  O  O9  1  0.00000000  0.06717808  0.75465807  1
  O  O10  1  0.00000000  0.90185523  0.24435967  1
  O  O11  1  0.74474895  0.72230616  0.55251730  1
  O  O12  1  0.25525105  0.72230616  0.55251730  1
  O  O13  1  0.73560656  0.22183630  0.46216895  1
  O  O14  1  0.26439444  0.22183630  0.46216895  1
  O  O15  1  0.25938193  0.20761054  0.03566555  1
  O  O16  1  0.74061907  0.20761054  0.03566555  1
  O  O17  1  0.24548656  0.73144457  0.94661434  1
  O  O18  1  0.75451444  0.73144457  0.94661434  1
