# generated using pymatgen
data_ZnSnP2O7
_symmetry_space_group_name_H-M   'P 1'
_cell_length_a   7.00016808
_cell_length_b   7.15590146
_cell_length_c   7.04945294
_cell_angle_alpha   67.08792996
_cell_angle_beta   73.63386222
_cell_angle_gamma   82.46961362
_symmetry_Int_Tables_number   1
_chemical_formula_structural   ZnSnP2O7
_chemical_formula_sum   'Zn2 Sn2 P4 O14'
_cell_volume   311.99387666
_cell_formula_units_Z   2
loop_
 _symmetry_equiv_pos_site_id
 _symmetry_equiv_pos_as_xyz
  1  'x, y, z'
loop_
 _atom_site_type_symbol
 _atom_site_label
 _atom_site_symmetry_multiplicity
 _atom_site_fract_x
 _atom_site_fract_y
 _atom_site_fract_z
 _atom_site_occupancy
  Zn  Zn0  1  0.79371609  0.40888152  0.05271826  1
  Zn  Zn1  1  0.20628391  0.59111848  0.94728174  1
  Sn  Sn2  1  0.71761567  0.10382567  0.72621561  1
  Sn  Sn3  1  0.28238433  0.89617433  0.27378439  1
  P  P4  1  0.17656790  0.21415837  0.79582347  1
  P  P5  1  0.82343210  0.78584163  0.20417653  1
  P  P6  1  0.63041374  0.65893214  0.67390221  1
  P  P7  1  0.36958626  0.34106786  0.32609779  1
  O  O8  1  0.70219895  0.64249847  0.43940239  1
  O  O9  1  0.29780105  0.35750153  0.56059761  1
  O  O10  1  0.03150503  0.09070193  0.77217944  1
  O  O11  1  0.96849497  0.90929807  0.22782056  1
  O  O12  1  0.58997845  0.27111690  0.30694624  1
  O  O13  1  0.41002155  0.72888310  0.69305376  1
  O  O14  1  0.34525770  0.55987320  0.16954715  1
  O  O15  1  0.65474230  0.44012680  0.83045185  1
  O  O16  1  0.92299838  0.62619680  0.10239714  1
  O  O17  1  0.07700162  0.37380320  0.89760286  1
  O  O18  1  0.66540070  0.91418453  0.08957156  1
  O  O19  1  0.33459930  0.08581547  0.91042844  1
  O  O20  1  0.23565133  0.19755567  0.31315859  1
  O  O21  1  0.76434867  0.80244433  0.68684141  1
