# generated using pymatgen
data_ZnCrP2O7
_symmetry_space_group_name_H-M   'P 1'
_cell_length_a   6.48695986
_cell_length_b   6.40703845
_cell_length_c   7.09189499
_cell_angle_alpha   68.16887910
_cell_angle_beta   76.67178758
_cell_angle_gamma   80.14251382
_symmetry_Int_Tables_number   1
_chemical_formula_structural   ZnCrP2O7
_chemical_formula_sum   'Zn2 Cr2 P4 O14'
_cell_volume   265.05181700
_cell_formula_units_Z   2
loop_
 _symmetry_equiv_pos_site_id
 _symmetry_equiv_pos_as_xyz
  1  'x, y, z'
loop_
 _atom_site_type_symbol
 _atom_site_label
 _atom_site_symmetry_multiplicity
 _atom_site_fract_x
 _atom_site_fract_y
 _atom_site_fract_z
 _atom_site_occupancy
  Zn  Zn0  1  0.87727795  0.28942615  0.15865525  1
  Zn  Zn1  1  0.12272205  0.71057385  0.84134475  1
  Cr  Cr2  1  0.67429975  0.10030426  0.77562194  1
  Cr  Cr3  1  0.32570025  0.89969574  0.22437806  1
  P  P4  1  0.16363672  0.22185506  0.75318961  1
  P  P5  1  0.83636328  0.77814494  0.24681039  1
  P  P6  1  0.61618760  0.63684091  0.69150154  1
  P  P7  1  0.38381240  0.36315909  0.30849846  1
  O  O8  1  0.76371487  0.61282623  0.47596012  1
  O  O9  1  0.23628513  0.38717377  0.52403988  1
  O  O10  1  0.00750035  0.06192420  0.75455081  1
  O  O11  1  0.99249965  0.93807580  0.24544919  1
  O  O12  1  0.60834142  0.26932593  0.35880405  1
  O  O13  1  0.39165858  0.73067407  0.64119595  1
  O  O14  1  0.37264431  0.60576649  0.16047408  1
  O  O15  1  0.62735569  0.39423351  0.83952492  1
  O  O16  1  0.94681516  0.61463382  0.13123017  1
  O  O17  1  0.05318484  0.38536618  0.86876983  1
  O  O18  1  0.64686725  0.92406936  0.15848653  1
  O  O19  1  0.35313275  0.07593064  0.84151347  1
  O  O20  1  0.27038153  0.20921546  0.25489271  1
  O  O21  1  0.72961847  0.79078454  0.74510729  1
