# generated using pymatgen
data_MgCrP2O7
_symmetry_space_group_name_H-M   'P 1'
_cell_length_a   6.43520187
_cell_length_b   6.38033356
_cell_length_c   7.06122213
_cell_angle_alpha   67.60488559
_cell_angle_beta   78.49297943
_cell_angle_gamma   80.76425355
_symmetry_Int_Tables_number   1
_chemical_formula_structural   MgCrP2O7
_chemical_formula_sum   'Mg2 Cr2 P4 O14'
_cell_volume   261.52559268
_cell_formula_units_Z   2
loop_
 _symmetry_equiv_pos_site_id
 _symmetry_equiv_pos_as_xyz
  1  'x, y, z'
loop_
 _atom_site_type_symbol
 _atom_site_label
 _atom_site_symmetry_multiplicity
 _atom_site_fract_x
 _atom_site_fract_y
 _atom_site_fract_z
 _atom_site_occupancy
  Mg  Mg0  1  0.88363757  0.28556060  0.15833051  1
  Mg  Mg1  1  0.11636243  0.71443940  0.84166949  1
  Cr  Cr2  1  0.67664191  0.09951992  0.77540973  1
  Cr  Cr3  1  0.32335809  0.90048008  0.22459027  1
  P  P4  1  0.16696320  0.22724088  0.75007801  1
  P  P5  1  0.83303680  0.77275912  0.24992199  1
  P  P6  1  0.62200124  0.63404055  0.69414211  1
  P  P7  1  0.37799876  0.36595945  0.30585789  1
  O  O8  1  0.76285138  0.60559570  0.48074870  1
  O  O9  1  0.23714862  0.39440430  0.51925130  1
  O  O10  1  0.00764725  0.06772498  0.75192201  1
  O  O11  1  0.99235275  0.93227502  0.24807799  1
  O  O12  1  0.60394395  0.27226796  0.35153720  1
  O  O13  1  0.39605605  0.72773204  0.64846280  1
  O  O14  1  0.36187595  0.61069013  0.15185036  1
  O  O15  1  0.63812405  0.38930987  0.84814864  1
  O  O16  1  0.93234981  0.61314586  0.13254124  1
  O  O17  1  0.06765019  0.38685414  0.86745876  1
  O  O18  1  0.64296183  0.92842124  0.16215419  1
  O  O19  1  0.35703817  0.07157876  0.83784581  1
  O  O20  1  0.25416100  0.21165597  0.25729454  1
  O  O21  1  0.74583900  0.78834403  0.74270546  1
