# generated using pymatgen
data_CeTlCd
_symmetry_space_group_name_H-M   'P 1'
_cell_length_a   5.10701168
_cell_length_b   5.07172532
_cell_length_c   7.02578741
_cell_angle_alpha   90.00000000
_cell_angle_beta   90.00000000
_cell_angle_gamma   120.23041924
_symmetry_Int_Tables_number   1
_chemical_formula_structural   CeTlCd
_chemical_formula_sum   'Ce2 Tl2 Cd2'
_cell_volume   157.22990520
_cell_formula_units_Z   2
loop_
 _symmetry_equiv_pos_site_id
 _symmetry_equiv_pos_as_xyz
  1  'x, y, z'
loop_
 _atom_site_type_symbol
 _atom_site_label
 _atom_site_symmetry_multiplicity
 _atom_site_fract_x
 _atom_site_fract_y
 _atom_site_fract_z
 _atom_site_occupancy
  Ce  Ce0  1  0.00000000  0.00000000  0.50000000  1
  Ce  Ce1  1  -0.00000000  0.00000000  0.00000000  1
  Tl  Tl2  1  0.33321051  0.66642102  0.75000000  1
  Tl  Tl3  1  0.66678949  0.33357898  0.25000000  1
  Cd  Cd4  1  0.33326723  0.66653446  0.25000000  1
  Cd  Cd5  1  0.66673277  0.33346554  0.75000000  1
