# generated using pymatgen
data_LaTlZn
_symmetry_space_group_name_H-M   'P 1'
_cell_length_a   4.84849410
_cell_length_b   4.84850655
_cell_length_c   7.85385169
_cell_angle_alpha   90.00000000
_cell_angle_beta   90.00000000
_cell_angle_gamma   119.99991504
_symmetry_Int_Tables_number   1
_chemical_formula_structural   LaTlZn
_chemical_formula_sum   'La2 Tl2 Zn2'
_cell_volume   159.89267113
_cell_formula_units_Z   2
loop_
 _symmetry_equiv_pos_site_id
 _symmetry_equiv_pos_as_xyz
  1  'x, y, z'
loop_
 _atom_site_type_symbol
 _atom_site_label
 _atom_site_symmetry_multiplicity
 _atom_site_fract_x
 _atom_site_fract_y
 _atom_site_fract_z
 _atom_site_occupancy
  La  La0  1  0.00000000  0.00000000  0.50000000  1
  La  La1  1  0.00000000  0.00000000  0.00000000  1
  Tl  Tl2  1  0.33331275  0.66662549  0.25000000  1
  Tl  Tl3  1  0.66668725  0.33337451  0.75000000  1
  Zn  Zn4  1  0.33331272  0.66662544  0.75000000  1
  Zn  Zn5  1  0.66668728  0.33337456  0.25000000  1
