# generated using pymatgen
data_Na2CoP2O7
_symmetry_space_group_name_H-M   'P 1'
_cell_length_a   5.32499087
_cell_length_b   8.81199593
_cell_length_c   13.96464972
_cell_angle_alpha   90.00000000
_cell_angle_beta   90.00000000
_cell_angle_gamma   90.00000000
_symmetry_Int_Tables_number   1
_chemical_formula_structural   Na2CoP2O7
_chemical_formula_sum   'Na8 Co4 P8 O28'
_cell_volume   655.27440084
_cell_formula_units_Z   4
loop_
 _symmetry_equiv_pos_site_id
 _symmetry_equiv_pos_as_xyz
  1  'x, y, z'
loop_
 _atom_site_type_symbol
 _atom_site_label
 _atom_site_symmetry_multiplicity
 _atom_site_fract_x
 _atom_site_fract_y
 _atom_site_fract_z
 _atom_site_occupancy
  Na  Na0  1  0.75000000  0.86643068  0.60255358  1
  Na  Na1  1  0.75000000  0.63356932  0.10255358  1
  Na  Na2  1  0.25000000  0.13356932  0.39744642  1
  Na  Na3  1  0.25000000  0.36643068  0.89744642  1
  Na  Na4  1  0.25000000  0.86506713  0.20297416  1
  Na  Na5  1  0.25000000  0.63493287  0.70297416  1
  Na  Na6  1  0.75000000  0.13493287  0.79702584  1
  Na  Na7  1  0.75000000  0.36506713  0.29702584  1
  Co  Co8  1  0.75000000  0.76888602  0.32980477  1
  Co  Co9  1  0.75000000  0.73111398  0.82980477  1
  Co  Co10  1  0.25000000  0.23111398  0.67019523  1
  Co  Co11  1  0.25000000  0.26888602  0.17019523  1
  P  P12  1  0.75000000  0.05464837  0.19118667  1
  P  P13  1  0.75000000  0.44535163  0.69118667  1
  P  P14  1  0.25000000  0.94535163  0.80881333  1
  P  P15  1  0.25000000  0.55464837  0.30881333  1
  P  P16  1  0.75000000  0.27473926  0.03985745  1
  P  P17  1  0.75000000  0.22526074  0.53985745  1
  P  P18  1  0.25000000  0.72526074  0.96014255  1
  P  P19  1  0.25000000  0.77473926  0.46014255  1
  O  O20  1  0.99106357  0.12193030  0.23460860  1
  O  O21  1  0.50893643  0.37806970  0.73460860  1
  O  O22  1  0.49106357  0.87806970  0.76539140  1
  O  O23  1  0.00893643  0.62193030  0.26539140  1
  O  O24  1  0.00893643  0.87806970  0.76539140  1
  O  O25  1  0.49106357  0.62193030  0.26539140  1
  O  O26  1  0.50893643  0.12193030  0.23460860  1
  O  O27  1  0.99106357  0.37806970  0.73460860  1
  O  O28  1  0.75000000  0.88078066  0.19626348  1
  O  O29  1  0.75000000  0.61921934  0.69626348  1
  O  O30  1  0.25000000  0.11921934  0.80373652  1
  O  O31  1  0.25000000  0.38078066  0.30373652  1
  O  O32  1  0.75000000  0.09634610  0.07822208  1
  O  O33  1  0.75000000  0.40365390  0.57822208  1
  O  O34  1  0.25000000  0.90365390  0.92177792  1
  O  O35  1  0.25000000  0.59634610  0.42177792  1
  O  O36  1  0.51427761  0.35123003  0.08244872  1
  O  O37  1  0.98572239  0.14876997  0.58244872  1
  O  O38  1  0.01427761  0.64876997  0.91755128  1
  O  O39  1  0.48572239  0.85123003  0.41755128  1
  O  O40  1  0.48572239  0.64876997  0.91755128  1
  O  O41  1  0.01427761  0.85123003  0.41755128  1
  O  O42  1  0.98572239  0.35123003  0.08244872  1
  O  O43  1  0.51427761  0.14876997  0.58244872  1
  O  O44  1  0.75000000  0.26491457  0.93254891  1
  O  O45  1  0.75000000  0.23508543  0.43254891  1
  O  O46  1  0.25000000  0.73508543  0.06745109  1
  O  O47  1  0.25000000  0.76491457  0.56745109  1
