# generated using pymatgen
data_Li(FeO2)3
_symmetry_space_group_name_H-M   'P 1'
_cell_length_a   5.27061046
_cell_length_b   5.18781740
_cell_length_c   5.11173786
_cell_angle_alpha   60.48394677
_cell_angle_beta   73.60916903
_cell_angle_gamma   82.00858557
_symmetry_Int_Tables_number   1
_chemical_formula_structural   Li(FeO2)3
_chemical_formula_sum   'Li1 Fe3 O6'
_cell_volume   116.68722301
_cell_formula_units_Z   1
loop_
 _symmetry_equiv_pos_site_id
 _symmetry_equiv_pos_as_xyz
  1  'x, y, z'
loop_
 _atom_site_type_symbol
 _atom_site_label
 _atom_site_symmetry_multiplicity
 _atom_site_fract_x
 _atom_site_fract_y
 _atom_site_fract_z
 _atom_site_occupancy
  Li  Li0  1  0.00000000  0.33333300  0.33333300  1
  Fe  Fe1  1  0.50000000  0.33333300  0.83333300  1
  Fe  Fe2  1  0.50000000  0.00174436  0.49912732  1
  Fe  Fe3  1  0.50000000  0.66492164  0.16753868  1
  O  O4  1  0.69905730  0.00640499  0.75401959  1
  O  O5  1  0.69905730  0.66026101  0.42709158  1
  O  O6  1  0.71118586  0.33333300  0.11509195  1
  O  O7  1  0.30094270  0.66026101  0.91264741  1
  O  O8  1  0.28881414  0.33333300  0.55157505  1
  O  O9  1  0.30094270  0.00640499  0.23957542  1
