# generated using pymatgen
data_YCo3F15
_symmetry_space_group_name_H-M   'P 1'
_cell_length_a   9.45139157
_cell_length_b   5.75781613
_cell_length_c   11.50120246
_cell_angle_alpha   90.00000000
_cell_angle_beta   90.00000000
_cell_angle_gamma   108.36677205
_symmetry_Int_Tables_number   1
_chemical_formula_structural   YCo3F15
_chemical_formula_sum   'Y2 Co6 F30'
_cell_volume   594.00481677
_cell_formula_units_Z   2
loop_
 _symmetry_equiv_pos_site_id
 _symmetry_equiv_pos_as_xyz
  1  'x, y, z'
loop_
 _atom_site_type_symbol
 _atom_site_label
 _atom_site_symmetry_multiplicity
 _atom_site_fract_x
 _atom_site_fract_y
 _atom_site_fract_z
 _atom_site_occupancy
  Y  Y0  1  0.90922763  0.52731444  0.25000000  1
  Y  Y1  1  0.42410537  0.47268556  0.75000000  1
  Co  Co2  1  0.16666700  -0.00000000  0.50000000  1
  Co  Co3  1  0.51414491  0.02765345  0.51133411  1
  Co  Co4  1  0.81918809  0.97234655  0.48866589  1
  Co  Co5  1  0.16666700  -0.00000000  -0.00000000  1
  Co  Co6  1  0.51414491  0.02765345  0.98866589  1
  Co  Co7  1  0.81918809  0.97234655  0.01133411  1
  F  F8  1  0.21122953  0.58093544  0.25000000  1
  F  F9  1  0.36669592  0.60898141  0.25000000  1
  F  F10  1  0.71360692  0.58474735  0.25000000  1
  F  F11  1  0.12210347  0.41906456  0.75000000  1
  F  F12  1  0.61972708  0.41525265  0.75000000  1
  F  F13  1  0.96663708  0.39101859  0.75000000  1
  F  F14  1  0.02423565  0.11226094  0.56776736  1
  F  F15  1  0.33842796  0.18270064  0.61352395  1
  F  F16  1  0.71337904  0.12713586  0.58823202  1
  F  F17  1  0.30909935  0.88773906  0.43223264  1
  F  F18  1  0.61995396  0.87286414  0.41176798  1
  F  F19  1  0.99490504  0.81729936  0.38647605  1
  F  F20  1  0.11820071  0.75092959  0.90938170  1
  F  F21  1  0.44372065  0.76742484  0.88040650  1
  F  F22  1  0.78786946  0.69790208  0.93662296  1
  F  F23  1  0.21513329  0.24907041  0.09061830  1
  F  F24  1  0.54546354  0.30209792  0.06337704  1
  F  F25  1  0.88961235  0.23257516  0.11959350  1
  F  F26  1  0.21513329  0.24907041  0.40938170  1
  F  F27  1  0.54546354  0.30209792  0.43662296  1
  F  F28  1  0.88961235  0.23257516  0.38040650  1
  F  F29  1  0.11820071  0.75092959  0.59061830  1
  F  F30  1  0.44372065  0.76742484  0.61959350  1
  F  F31  1  0.78786946  0.69790208  0.56337704  1
  F  F32  1  0.02423565  0.11226094  0.93223264  1
  F  F33  1  0.33842796  0.18270064  0.88647605  1
  F  F34  1  0.71337904  0.12713586  0.91176798  1
  F  F35  1  0.30909935  0.88773906  0.06776736  1
  F  F36  1  0.61995396  0.87286414  0.08823202  1
  F  F37  1  0.99490504  0.81729936  0.11352395  1
