# generated using pymatgen
data_Zn3Cu3(AsO4)4
_symmetry_space_group_name_H-M   'P 1'
_cell_length_a   5.12770937
_cell_length_b   8.71199769
_cell_length_c   14.82136965
_cell_angle_alpha   101.18369281
_cell_angle_beta   90.00000000
_cell_angle_gamma   90.00000000
_symmetry_Int_Tables_number   1
_chemical_formula_structural   Zn3Cu3(AsO4)4
_chemical_formula_sum   'Zn6 Cu6 As8 O32'
_cell_volume   649.53581539
_cell_formula_units_Z   2
loop_
 _symmetry_equiv_pos_site_id
 _symmetry_equiv_pos_as_xyz
  1  'x, y, z'
loop_
 _atom_site_type_symbol
 _atom_site_label
 _atom_site_symmetry_multiplicity
 _atom_site_fract_x
 _atom_site_fract_y
 _atom_site_fract_z
 _atom_site_occupancy
  Zn  Zn0  1  0.97829929  0.00921279  0.73053378  1
  Zn  Zn1  1  0.47829929  0.49078721  0.76946622  1
  Zn  Zn2  1  0.02170071  0.99078721  0.26946622  1
  Zn  Zn3  1  0.52170071  0.50921279  0.23053378  1
  Zn  Zn4  1  0.00000000  0.00000000  0.00000000  1
  Zn  Zn5  1  0.50000000  0.50000000  0.50000000  1
  Cu  Cu6  1  0.00496360  0.33317614  0.12073446  1
  Cu  Cu7  1  0.99503640  0.66682386  0.87926554  1
  Cu  Cu8  1  0.50496360  0.16682386  0.37926554  1
  Cu  Cu9  1  0.49503640  0.83317614  0.62073446  1
  Cu  Cu10  1  0.50000000  0.50000000  0.00000000  1
  Cu  Cu11  1  0.00000000  0.00000000  0.50000000  1
  As  As12  1  0.50770368  0.88966724  0.84870138  1
  As  As13  1  0.99435138  0.31870477  0.89977602  1
  As  As14  1  0.49435138  0.18129523  0.60022398  1
  As  As15  1  0.50564862  0.81870477  0.39977602  1
  As  As16  1  0.49229632  0.11033276  0.15129862  1
  As  As17  1  0.00564862  0.68129523  0.10022398  1
  As  As18  1  0.99229632  0.38966724  0.34870138  1
  As  As19  1  0.00770368  0.61033276  0.65129862  1
  O  O20  1  0.10001017  0.56256296  0.75713833  1
  O  O21  1  0.56587263  0.26638397  0.50645086  1
  O  O22  1  0.09657927  0.20781301  0.80004564  1
  O  O23  1  0.10872965  0.80365181  0.65355622  1
  O  O24  1  0.90342073  0.79218699  0.19995436  1
  O  O25  1  0.39998983  0.06256296  0.25713833  1
  O  O26  1  0.59657927  0.29218699  0.69995436  1
  O  O27  1  0.82149629  0.88752455  0.39308670  1
  O  O28  1  0.82555952  0.52074248  0.42619549  1
  O  O29  1  0.89998983  0.43743704  0.24286167  1
  O  O30  1  0.39127035  0.30365181  0.15355622  1
  O  O31  1  0.17850371  0.11247545  0.60691330  1
  O  O32  1  0.19214236  0.49035909  0.91986200  1
  O  O33  1  0.17444048  0.47925752  0.57380451  1
  O  O34  1  0.82741409  0.10096590  0.14022990  1
  O  O35  1  0.32741409  0.39903410  0.35977010  1
  O  O36  1  0.69214236  0.00964091  0.58013800  1
  O  O37  1  0.40342073  0.70781301  0.30004564  1
  O  O38  1  0.32555952  0.97925752  0.07380451  1
  O  O39  1  0.32149629  0.61247545  0.10691330  1
  O  O40  1  0.67258591  0.60096590  0.64022990  1
  O  O41  1  0.17258591  0.89903410  0.85977010  1
  O  O42  1  0.43412737  0.73361603  0.49354914  1
  O  O43  1  0.06587263  0.23361603  0.99354914  1
  O  O44  1  0.80785764  0.50964091  0.08013800  1
  O  O45  1  0.60001017  0.93743704  0.74286167  1
  O  O46  1  0.89127035  0.19634819  0.34644378  1
  O  O47  1  0.67444048  0.02074248  0.92619549  1
  O  O48  1  0.93412737  0.76638397  0.00645086  1
  O  O49  1  0.67850371  0.38752455  0.89308670  1
  O  O50  1  0.30785764  0.99035909  0.41986200  1
  O  O51  1  0.60872965  0.69634819  0.84644378  1
