# generated using pymatgen
data_Nb2VSe4
_symmetry_space_group_name_H-M   'P 1'
_cell_length_a   3.52245662
_cell_length_b   6.38039855
_cell_length_c   7.11720290
_cell_angle_alpha   114.93914131
_cell_angle_beta   104.32729822
_cell_angle_gamma   90.00000000
_symmetry_Int_Tables_number   1
_chemical_formula_structural   Nb2VSe4
_chemical_formula_sum   'Nb2 V1 Se4'
_cell_volume   139.53609671
_cell_formula_units_Z   1
loop_
 _symmetry_equiv_pos_site_id
 _symmetry_equiv_pos_as_xyz
  1  'x, y, z'
loop_
 _atom_site_type_symbol
 _atom_site_label
 _atom_site_symmetry_multiplicity
 _atom_site_fract_x
 _atom_site_fract_y
 _atom_site_fract_z
 _atom_site_occupancy
  Nb  Nb0  1  0.07804783  0.92887328  0.15609567  1
  Nb  Nb1  1  0.56484900  0.28482314  0.12969801  1
  V  V2  1  0.82177635  0.60700945  0.64355271  1
  Se  Se3  1  0.72152923  0.16271966  0.44305845  1
  Se  Se4  1  0.45741436  0.58135736  0.91482872  1
  Se  Se5  1  0.18603541  0.63167310  0.37207083  1
  Se  Se6  1  0.92134781  0.05054402  0.84269561  1
