# generated using pymatgen
data_PdCl2
_symmetry_space_group_name_H-M   'P 1'
_cell_length_a   4.37031998
_cell_length_b   11.87522810
_cell_length_c   3.42021824
_cell_angle_alpha   90.00000000
_cell_angle_beta   90.00000000
_cell_angle_gamma   93.16203545
_symmetry_Int_Tables_number   1
_chemical_formula_structural   PdCl2
_chemical_formula_sum   'Pd2 Cl4'
_cell_volume   177.23411140
_cell_formula_units_Z   2
loop_
 _symmetry_equiv_pos_site_id
 _symmetry_equiv_pos_as_xyz
  1  'x, y, z'
loop_
 _atom_site_type_symbol
 _atom_site_label
 _atom_site_symmetry_multiplicity
 _atom_site_fract_x
 _atom_site_fract_y
 _atom_site_fract_z
 _atom_site_occupancy
  Pd  Pd0  1  -0.00000000  0.00000000  0.50000000  1
  Pd  Pd1  1  0.50000000  0.50000000  0.00000000  1
  Cl  Cl2  1  0.44295048  0.36722547  0.50000000  1
  Cl  Cl3  1  0.55704952  0.63277453  0.50000000  1
  Cl  Cl4  1  0.13365807  0.87861191  -0.00000000  1
  Cl  Cl5  1  0.86634193  0.12138809  0.00000000  1
