# generated using pymatgen
data_CaYMg6
_symmetry_space_group_name_H-M   'P 1'
_cell_length_a   6.68688279
_cell_length_b   6.68688225
_cell_length_c   5.22650035
_cell_angle_alpha   90.00000000
_cell_angle_beta   90.00000000
_cell_angle_gamma   117.36910884
_symmetry_Int_Tables_number   1
_chemical_formula_structural   CaYMg6
_chemical_formula_sum   'Ca1 Y1 Mg6'
_cell_volume   207.54024693
_cell_formula_units_Z   1
loop_
 _symmetry_equiv_pos_site_id
 _symmetry_equiv_pos_as_xyz
  1  'x, y, z'
loop_
 _atom_site_type_symbol
 _atom_site_label
 _atom_site_symmetry_multiplicity
 _atom_site_fract_x
 _atom_site_fract_y
 _atom_site_fract_z
 _atom_site_occupancy
  Ca  Ca0  1  0.09582831  0.40417169  0.25000000  1
  Y  Y1  1  0.40594972  0.09405028  0.75000000  1
  Mg  Mg2  1  0.07432659  0.89677493  0.25000000  1
  Mg  Mg3  1  0.60322507  0.42567341  0.25000000  1
  Mg  Mg4  1  0.58483255  0.91516745  0.25000000  1
  Mg  Mg5  1  0.43240783  0.60629159  0.75000000  1
  Mg  Mg6  1  0.89370841  0.06759217  0.75000000  1
  Mg  Mg7  1  0.90972052  0.59027948  0.75000000  1
