# generated using pymatgen
data_TeMoSe
_symmetry_space_group_name_H-M   'P 1'
_cell_length_a   3.43859498
_cell_length_b   3.43853837
_cell_length_c   24.36528461
_cell_angle_alpha   89.99988186
_cell_angle_beta   90.00000000
_cell_angle_gamma   120.00054459
_symmetry_Int_Tables_number   1
_chemical_formula_structural   TeMoSe
_chemical_formula_sum   'Te2 Mo2 Se2'
_cell_volume   249.49085828
_cell_formula_units_Z   2
loop_
 _symmetry_equiv_pos_site_id
 _symmetry_equiv_pos_as_xyz
  1  'x, y, z'
loop_
 _atom_site_type_symbol
 _atom_site_label
 _atom_site_symmetry_multiplicity
 _atom_site_fract_x
 _atom_site_fract_y
 _atom_site_fract_z
 _atom_site_occupancy
  Te  Te0  1  0.33335374  0.66670848  0.52761197  1
  Te  Te1  1  0.33335350  0.66670800  0.37520320  1
  Mo  Mo2  1  0.33331490  0.66662980  0.15043048  1
  Mo  Mo3  1  0.66669244  0.33338488  0.45141610  1
  Se  Se4  1  0.66664178  0.33328256  0.08328336  1
  Se  Se5  1  0.66664364  0.33328629  0.21765889  1
