# generated using pymatgen
data_Te2W
_symmetry_space_group_name_H-M   'P 1'
_cell_length_a   3.55324382
_cell_length_b   3.55251599
_cell_length_c   15.11730756
_cell_angle_alpha   90.00000000
_cell_angle_beta   90.00000000
_cell_angle_gamma   120.00677752
_symmetry_Int_Tables_number   1
_chemical_formula_structural   Te2W
_chemical_formula_sum   'Te4 W2'
_cell_volume   165.24809715
_cell_formula_units_Z   2
loop_
 _symmetry_equiv_pos_site_id
 _symmetry_equiv_pos_as_xyz
  1  'x, y, z'
loop_
 _atom_site_type_symbol
 _atom_site_label
 _atom_site_symmetry_multiplicity
 _atom_site_fract_x
 _atom_site_fract_y
 _atom_site_fract_z
 _atom_site_occupancy
  Te  Te0  1  0.33333728  0.66667457  0.87059475  1
  Te  Te1  1  0.66666272  0.33332543  0.12940525  1
  Te  Te2  1  0.66666272  0.33332543  0.37059475  1
  Te  Te3  1  0.33333728  0.66667457  0.62940525  1
  W  W4  1  0.33327504  0.66655009  0.25000000  1
  W  W5  1  0.66672496  0.33344991  0.75000000  1
