# generated using pymatgen
data_Co6O7F5
_symmetry_space_group_name_H-M   'P 1'
_cell_length_a   4.45788652
_cell_length_b   4.45788652
_cell_length_c   8.95494965
_cell_angle_alpha   90.12531221
_cell_angle_beta   89.87468779
_cell_angle_gamma   93.27111007
_symmetry_Int_Tables_number   1
_chemical_formula_structural   Co6O7F5
_chemical_formula_sum   'Co6 O7 F5'
_cell_volume   177.66874477
_cell_formula_units_Z   1
loop_
 _symmetry_equiv_pos_site_id
 _symmetry_equiv_pos_as_xyz
  1  'x, y, z'
loop_
 _atom_site_type_symbol
 _atom_site_label
 _atom_site_symmetry_multiplicity
 _atom_site_fract_x
 _atom_site_fract_y
 _atom_site_fract_z
 _atom_site_occupancy
  Co  Co0  1  0.99217773  0.00222253  0.00942649  1
  Co  Co1  1  0.02395821  0.02395821  0.33333300  1
  Co  Co2  1  0.00222253  0.99217773  0.65723951  1
  Co  Co3  1  0.51845825  0.47211968  0.16218971  1
  Co  Co4  1  0.49726171  0.49726171  0.83333300  1
  Co  Co5  1  0.47211968  0.51845825  0.50447629  1
  O  O6  1  0.18453077  0.81686449  0.49557873  1
  O  O7  1  0.31164740  0.31164740  0.33333300  1
  O  O8  1  0.31747920  0.28897370  0.00194524  1
  O  O9  1  0.28897370  0.31747920  0.66472176  1
  O  O10  1  0.67819748  0.70309217  0.66618011  1
  O  O11  1  0.70309217  0.67819748  0.00048689  1
  O  O12  1  0.81686449  0.18453077  0.17108827  1
  F  F13  1  0.22558557  0.77111752  0.16811153  1
  F  F14  1  0.18997719  0.80349427  0.84120074  1
  F  F15  1  0.70284312  0.70284312  0.33333300  1
  F  F16  1  0.80349427  0.18997719  0.82546526  1
  F  F17  1  0.77111752  0.22558557  0.49855447  1
