# generated using pymatgen
data_Na2ZnS2
_symmetry_space_group_name_H-M   'P 1'
_cell_length_a   6.75563385
_cell_length_b   7.16493603
_cell_length_c   18.67559496
_cell_angle_alpha   90.00000000
_cell_angle_beta   90.00000000
_cell_angle_gamma   90.00000000
_symmetry_Int_Tables_number   1
_chemical_formula_structural   Na2ZnS2
_chemical_formula_sum   'Na16 Zn8 S16'
_cell_volume   903.96760400
_cell_formula_units_Z   8
loop_
 _symmetry_equiv_pos_site_id
 _symmetry_equiv_pos_as_xyz
  1  'x, y, z'
loop_
 _atom_site_type_symbol
 _atom_site_label
 _atom_site_symmetry_multiplicity
 _atom_site_fract_x
 _atom_site_fract_y
 _atom_site_fract_z
 _atom_site_occupancy
  Na  Na0  1  -0.01067606  0.68569957  0.93150341  1
  Na  Na1  1  0.01067606  0.81430043  0.43150341  1
  Na  Na2  1  0.51067606  0.18569957  0.06849659  1
  Na  Na3  1  0.48932394  0.31430043  0.56849659  1
  Na  Na4  1  0.01067606  0.31430043  0.06849659  1
  Na  Na5  1  -0.01067606  0.18569957  0.56849659  1
  Na  Na6  1  0.48932394  0.81430043  0.93150341  1
  Na  Na7  1  0.51067606  0.68569957  0.43150341  1
  Na  Na8  1  0.67791701  0.54405329  0.79939966  1
  Na  Na9  1  0.32208299  0.95594671  0.29939966  1
  Na  Na10  1  0.82208299  0.04405329  0.20060034  1
  Na  Na11  1  0.17791701  0.45594671  0.70060034  1
  Na  Na12  1  0.32208299  0.45594671  0.20060034  1
  Na  Na13  1  0.67791701  0.04405329  0.70060034  1
  Na  Na14  1  0.17791701  0.95594671  0.79939966  1
  Na  Na15  1  0.82208299  0.54405329  0.29939966  1
  Zn  Zn16  1  0.13352504  0.87856034  0.07891097  1
  Zn  Zn17  1  0.86647496  0.62143966  0.57891097  1
  Zn  Zn18  1  0.36647496  0.37856034  0.92108903  1
  Zn  Zn19  1  0.63352504  0.12143966  0.42108903  1
  Zn  Zn20  1  0.86647496  0.12143966  0.92108903  1
  Zn  Zn21  1  0.13352504  0.37856034  0.42108903  1
  Zn  Zn22  1  0.63352504  0.62143966  0.07891097  1
  Zn  Zn23  1  0.36647496  0.87856034  0.57891097  1
  S  S24  1  0.20787144  0.10519425  0.95209136  1
  S  S25  1  0.79212856  0.39480575  0.45209136  1
  S  S26  1  0.29212856  0.60519425  0.04790864  1
  S  S27  1  0.70787144  0.89480575  0.54790864  1
  S  S28  1  0.79212856  0.89480575  0.04790864  1
  S  S29  1  0.20787144  0.60519425  0.54790864  1
  S  S30  1  0.70787144  0.39480575  0.95209136  1
  S  S31  1  0.29212856  0.10519425  0.45209136  1
  S  S32  1  0.27529560  0.57767445  0.83380699  1
  S  S33  1  0.72470440  0.92232555  0.33380699  1
  S  S34  1  0.22470440  0.07767445  0.16619301  1
  S  S35  1  0.77529560  0.42232555  0.66619301  1
  S  S36  1  0.72470440  0.42232555  0.16619301  1
  S  S37  1  0.27529560  0.07767445  0.66619301  1
  S  S38  1  0.77529560  0.92232555  0.83380699  1
  S  S39  1  0.22470440  0.57767445  0.33380699  1
