# generated using pymatgen
data_V2FeSe4
_symmetry_space_group_name_H-M   'P 1'
_cell_length_a   3.35575336
_cell_length_b   6.18588405
_cell_length_c   6.81853925
_cell_angle_alpha   115.54867692
_cell_angle_beta   104.24541195
_cell_angle_gamma   90.00000000
_symmetry_Int_Tables_number   1
_chemical_formula_structural   V2FeSe4
_chemical_formula_sum   'V2 Fe1 Se4'
_cell_volume   122.85965586
_cell_formula_units_Z   1
loop_
 _symmetry_equiv_pos_site_id
 _symmetry_equiv_pos_as_xyz
  1  'x, y, z'
loop_
 _atom_site_type_symbol
 _atom_site_label
 _atom_site_symmetry_multiplicity
 _atom_site_fract_x
 _atom_site_fract_y
 _atom_site_fract_z
 _atom_site_occupancy
  V  V0  1  0.25499700  0.31539662  0.50999400  1
  V  V1  1  0.74500300  0.68460338  0.49000600  1
  Fe  Fe2  1  0.00000000  0.00000000  0.00000000  1
  Se  Se3  1  0.10498453  0.44318181  0.20996907  1
  Se  Se4  1  0.89501547  0.55681819  0.79003093  1
  Se  Se5  1  0.36040934  0.02503782  0.72081869  1
  Se  Se6  1  0.63959066  0.97496218  0.27918131  1
