# generated using pymatgen
data_Te2W
_symmetry_space_group_name_H-M   'P 1'
_cell_length_a   3.55724121
_cell_length_b   3.55691780
_cell_length_c   40.13918423
_cell_angle_alpha   89.99973016
_cell_angle_beta   90.00000000
_cell_angle_gamma   120.00300793
_symmetry_Int_Tables_number   1
_chemical_formula_structural   Te2W
_chemical_formula_sum   'Te8 W4'
_cell_volume   439.81815511
_cell_formula_units_Z   4
loop_
 _symmetry_equiv_pos_site_id
 _symmetry_equiv_pos_as_xyz
  1  'x, y, z'
loop_
 _atom_site_type_symbol
 _atom_site_label
 _atom_site_symmetry_multiplicity
 _atom_site_fract_x
 _atom_site_fract_y
 _atom_site_fract_z
 _atom_site_occupancy
  Te  Te0  1  0.33334820  0.66669739  0.32704794  1
  Te  Te1  1  0.33335044  0.66670187  0.70278110  1
  Te  Te2  1  0.66664956  0.33329813  0.04867690  1
  Te  Te3  1  0.66665180  0.33330261  0.42441006  1
  Te  Te4  1  0.66665368  0.33330636  0.13918654  1
  Te  Te5  1  0.66665456  0.33330813  0.51492514  1
  Te  Te6  1  0.33334544  0.66669187  0.23653286  1
  Te  Te7  1  0.33334632  0.66669364  0.61227146  1
  W  W8  1  0.33329385  0.66658770  0.09393526  1
  W  W9  1  0.33329501  0.66659002  0.46963999  1
  W  W10  1  0.66670499  0.33340998  0.28181801  1
  W  W11  1  0.66670615  0.33341230  0.65752274  1
