# generated using pymatgen
data_Mo3W(SeS)4
_symmetry_space_group_name_H-M   'P 1'
_cell_length_a   3.25695457
_cell_length_b   3.25702959
_cell_length_c   41.62656289
_cell_angle_alpha   90.00003602
_cell_angle_beta   89.99991157
_cell_angle_gamma   119.99915405
_symmetry_Int_Tables_number   1
_chemical_formula_structural   Mo3W(SeS)4
_chemical_formula_sum   'Mo3 W1 Se4 S4'
_cell_volume   382.41796957
_cell_formula_units_Z   1
loop_
 _symmetry_equiv_pos_site_id
 _symmetry_equiv_pos_as_xyz
  1  'x, y, z'
loop_
 _atom_site_type_symbol
 _atom_site_label
 _atom_site_symmetry_multiplicity
 _atom_site_fract_x
 _atom_site_fract_y
 _atom_site_fract_z
 _atom_site_occupancy
  Mo  Mo0  1  0.33351389  0.66703318  0.09255495  1
  Mo  Mo1  1  0.33331627  0.66663907  0.46680595  1
  Mo  Mo2  1  0.66662815  0.33324354  0.28017816  1
  W  W3  1  0.66654856  0.33309802  0.66337930  1
  Se  Se4  1  0.33320848  0.66641886  0.70439692  1
  Se  Se5  1  0.66667083  0.33334376  0.42601560  1
  Se  Se6  1  0.66663378  0.33327868  0.50761141  1
  Se  Se7  1  0.33321096  0.66641980  0.62232466  1
  S  S8  1  0.33326303  0.66651578  0.31726959  1
  S  S9  1  0.66684774  0.33369913  0.05547197  1
  S  S10  1  0.66685886  0.33372889  0.12964978  1
  S  S11  1  0.33329943  0.66658130  0.24308970  1
