# generated using pymatgen
data_MoW3(SeS3)2
_symmetry_space_group_name_H-M   'P 1'
_cell_length_a   3.22353866
_cell_length_b   3.22353280
_cell_length_c   36.39703664
_cell_angle_alpha   90.00036982
_cell_angle_beta   90.00000000
_cell_angle_gamma   120.00006016
_symmetry_Int_Tables_number   1
_chemical_formula_structural   MoW3(SeS3)2
_chemical_formula_sum   'Mo1 W3 Se2 S6'
_cell_volume   327.53775697
_cell_formula_units_Z   1
loop_
 _symmetry_equiv_pos_site_id
 _symmetry_equiv_pos_as_xyz
  1  'x, y, z'
loop_
 _atom_site_type_symbol
 _atom_site_label
 _atom_site_symmetry_multiplicity
 _atom_site_fract_x
 _atom_site_fract_y
 _atom_site_fract_z
 _atom_site_occupancy
  Mo  Mo0  1  0.33330815  0.66661629  0.09391363  1
  W  W1  1  0.33330548  0.66661096  0.46966817  1
  W  W2  1  0.66669278  0.33338556  0.28181602  1
  W  W3  1  0.66669054  0.33338108  0.65753289  1
  Se  Se4  1  0.33335046  0.66670192  0.32904336  1
  Se  Se5  1  0.33335791  0.66671682  0.23452519  1
  S  S6  1  0.33336212  0.66672525  0.70041720  1
  S  S7  1  0.66664341  0.33328582  0.05122980  1
  S  S8  1  0.66664500  0.33328901  0.42684120  1
  S  S9  1  0.66664703  0.33329306  0.13657380  1
  S  S10  1  0.66664492  0.33328884  0.51251798  1
  S  S11  1  0.33335220  0.66670539  0.61466877  1
