# generated using pymatgen
data_Mg14AlCd
_symmetry_space_group_name_H-M   'P 1'
_cell_length_a   6.28032240
_cell_length_b   6.28032190
_cell_length_c   10.39655630
_cell_angle_alpha   90.00000000
_cell_angle_beta   90.00000000
_cell_angle_gamma   120.00000261
_symmetry_Int_Tables_number   1
_chemical_formula_structural   Mg14AlCd
_chemical_formula_sum   'Mg14 Al1 Cd1'
_cell_volume   355.12722954
_cell_formula_units_Z   1
loop_
 _symmetry_equiv_pos_site_id
 _symmetry_equiv_pos_as_xyz
  1  'x, y, z'
loop_
 _atom_site_type_symbol
 _atom_site_label
 _atom_site_symmetry_multiplicity
 _atom_site_fract_x
 _atom_site_fract_y
 _atom_site_fract_z
 _atom_site_occupancy
  Mg  Mg0  1  0.16643534  0.83321717  0.12500000  1
  Mg  Mg1  1  0.16623876  0.83311888  0.62500000  1
  Mg  Mg2  1  0.66678283  0.33356466  0.12500000  1
  Mg  Mg3  1  0.66688112  0.33376124  0.62500000  1
  Mg  Mg4  1  0.66678283  0.83321717  0.12500000  1
  Mg  Mg5  1  0.66688112  0.83311888  0.62500000  1
  Mg  Mg6  1  0.33226671  0.16773329  0.37432374  1
  Mg  Mg7  1  0.33226671  0.16773329  0.87567626  1
  Mg  Mg8  1  0.33226671  0.66453442  0.37432374  1
  Mg  Mg9  1  0.33226671  0.66453442  0.87567626  1
  Mg  Mg10  1  0.83546558  0.16773329  0.37432374  1
  Mg  Mg11  1  0.83546558  0.16773329  0.87567626  1
  Mg  Mg12  1  0.83333300  0.66666700  0.37519152  1
  Mg  Mg13  1  0.83333300  0.66666700  0.87480848  1
  Al  Al14  1  0.16666700  0.33333300  0.12500000  1
  Cd  Cd15  1  0.16666700  0.33333300  0.62500000  1
