# generated using pymatgen
data_Co6O5F7
_symmetry_space_group_name_H-M   'P 1'
_cell_length_a   4.55021354
_cell_length_b   7.62441467
_cell_length_c   5.46778738
_cell_angle_alpha   92.95324692
_cell_angle_beta   90.56053814
_cell_angle_gamma   91.35862521
_symmetry_Int_Tables_number   1
_chemical_formula_structural   Co6O5F7
_chemical_formula_sum   'Co6 O5 F7'
_cell_volume   189.37569773
_cell_formula_units_Z   1
loop_
 _symmetry_equiv_pos_site_id
 _symmetry_equiv_pos_as_xyz
  1  'x, y, z'
loop_
 _atom_site_type_symbol
 _atom_site_label
 _atom_site_symmetry_multiplicity
 _atom_site_fract_x
 _atom_site_fract_y
 _atom_site_fract_z
 _atom_site_occupancy
  Co  Co0  1  0.44573728  0.00754844  0.51638048  1
  Co  Co1  1  0.52041006  0.34075183  0.81868679  1
  Co  Co2  1  0.54159774  0.65986004  0.16284797  1
  Co  Co3  1  0.99078037  0.67215084  0.68167083  1
  Co  Co4  1  0.98111784  0.34031146  0.34044616  1
  Co  Co5  1  0.00118885  0.98575156  0.98811302  1
  O  O6  1  0.79819232  0.44857534  0.63538704  1
  O  O7  1  0.81603847  0.76953375  0.95756438  1
  O  O8  1  0.70799582  0.42071243  0.11873020  1
  O  O9  1  0.31077741  0.24235758  0.53361237  1
  O  O10  1  0.18862382  0.89531510  0.70942063  1
  F  F11  1  0.80307856  0.08247119  0.28864381  1
  F  F12  1  0.70110079  0.77520038  0.47953068  1
  F  F13  1  0.71141777  0.09380902  0.79698687  1
  F  F14  1  0.28025331  0.56714419  0.87294898  1
  F  F15  1  0.29831877  0.89988138  0.19614889  1
  F  F16  1  0.20906026  0.21785613  0.02205864  1
  F  F17  1  0.19431154  0.58076733  0.38082125  1
