# generated using pymatgen
data_Pu2W2C3
_symmetry_space_group_name_H-M   'P 1'
_cell_length_a   3.28447581
_cell_length_b   5.69786525
_cell_length_c   6.21271280
_cell_angle_alpha   112.50073439
_cell_angle_beta   105.32744655
_cell_angle_gamma   90.00000000
_symmetry_Int_Tables_number   1
_chemical_formula_structural   Pu2W2C3
_chemical_formula_sum   'Pu2 W2 C3'
_cell_volume   102.92633046
_cell_formula_units_Z   1
loop_
 _symmetry_equiv_pos_site_id
 _symmetry_equiv_pos_as_xyz
  1  'x, y, z'
loop_
 _atom_site_type_symbol
 _atom_site_label
 _atom_site_symmetry_multiplicity
 _atom_site_fract_x
 _atom_site_fract_y
 _atom_site_fract_z
 _atom_site_occupancy
  Pu  Pu0  1  0.39435715  0.19091854  0.78871430  1
  Pu  Pu1  1  0.60564285  0.80908146  0.21128570  1
  W  W2  1  0.15629699  0.32678752  0.31259398  1
  W  W3  1  0.84370301  0.67321248  0.68740602  1
  C  C4  1  0.25074178  0.74403866  0.50148355  1
  C  C5  1  0.74925822  0.25596134  0.49851645  1
  C  C6  1  -0.00000000  -0.00000000  -0.00000000  1
