# generated using pymatgen
data_TeMoSe
_symmetry_space_group_name_H-M   'P 1'
_cell_length_a   3.44065854
_cell_length_b   3.44058606
_cell_length_c   39.05219185
_cell_angle_alpha   90.00083286
_cell_angle_beta   90.00000000
_cell_angle_gamma   120.00069685
_symmetry_Int_Tables_number   1
_chemical_formula_structural   TeMoSe
_chemical_formula_sum   'Te4 Mo4 Se4'
_cell_volume   400.35660336
_cell_formula_units_Z   4
loop_
 _symmetry_equiv_pos_site_id
 _symmetry_equiv_pos_as_xyz
  1  'x, y, z'
loop_
 _atom_site_type_symbol
 _atom_site_label
 _atom_site_symmetry_multiplicity
 _atom_site_fract_x
 _atom_site_fract_y
 _atom_site_fract_z
 _atom_site_occupancy
  Te  Te0  1  0.33335400  0.66670901  0.32931461  1
  Te  Te1  1  0.33336531  0.66673162  0.70504180  1
  Te  Te2  1  0.33335110  0.66670320  0.23428167  1
  Te  Te3  1  0.33334956  0.66670012  0.61002365  1
  Mo  Mo4  1  0.33331022  0.66662045  0.09391082  1
  Mo  Mo5  1  0.33331110  0.66662219  0.46966132  1
  Mo  Mo6  1  0.66668923  0.33337846  0.28178733  1
  Mo  Mo7  1  0.66669279  0.33338558  0.65752658  1
  Se  Se8  1  0.66663705  0.33327311  0.05204619  1
  Se  Se9  1  0.66664530  0.33328960  0.42777570  1
  Se  Se10  1  0.66664648  0.33329195  0.13582027  1
  Se  Se11  1  0.66664786  0.33329472  0.51155806  1
