# generated using pymatgen
data_Te4Mo3WSe4
_symmetry_space_group_name_H-M   'P 1'
_cell_length_a   3.43725678
_cell_length_b   3.43722615
_cell_length_c   39.05473626
_cell_angle_alpha   90.00029091
_cell_angle_beta   90.00000540
_cell_angle_gamma   120.00030063
_symmetry_Int_Tables_number   1
_chemical_formula_structural   Te4Mo3WSe4
_chemical_formula_sum   'Te4 Mo3 W1 Se4'
_cell_volume   399.59782004
_cell_formula_units_Z   1
loop_
 _symmetry_equiv_pos_site_id
 _symmetry_equiv_pos_as_xyz
  1  'x, y, z'
loop_
 _atom_site_type_symbol
 _atom_site_label
 _atom_site_symmetry_multiplicity
 _atom_site_fract_x
 _atom_site_fract_y
 _atom_site_fract_z
 _atom_site_occupancy
  Te  Te0  1  0.66664660  0.33329233  0.04640205  1
  Te  Te1  1  0.66664134  0.33328185  0.42212863  1
  Te  Te2  1  0.66664479  0.33328874  0.14146828  1
  Te  Te3  1  0.66664668  0.33329258  0.51717990  1
  Mo  Mo4  1  0.33330840  0.66661662  0.09390677  1
  Mo  Mo5  1  0.33330963  0.66661889  0.46964971  1
  Mo  Mo6  1  0.66668619  0.33337284  0.28178026  1
  W  W7  1  0.66668883  0.33337792  0.65754991  1
  Se  Se8  1  0.33335919  0.66671915  0.32377936  1
  Se  Se9  1  0.33335494  0.66671074  0.69954391  1
  Se  Se10  1  0.33334955  0.66669987  0.23984347  1
  Se  Se11  1  0.33336387  0.66672847  0.61551576  1
