# generated using pymatgen
data_Te4Mo3WSe4
_symmetry_space_group_name_H-M   'P 1'
_cell_length_a   3.43759659
_cell_length_b   3.43756226
_cell_length_c   39.09432225
_cell_angle_alpha   90.00012363
_cell_angle_beta   90.00000000
_cell_angle_gamma   120.00033046
_symmetry_Int_Tables_number   1
_chemical_formula_structural   Te4Mo3WSe4
_chemical_formula_sum   'Te4 Mo3 W1 Se4'
_cell_volume   400.08139555
_cell_formula_units_Z   1
loop_
 _symmetry_equiv_pos_site_id
 _symmetry_equiv_pos_as_xyz
  1  'x, y, z'
loop_
 _atom_site_type_symbol
 _atom_site_label
 _atom_site_symmetry_multiplicity
 _atom_site_fract_x
 _atom_site_fract_y
 _atom_site_fract_z
 _atom_site_occupancy
  Te  Te0  1  0.33335048  0.66670196  0.32924751  1
  Te  Te1  1  0.33336202  0.66672504  0.70500327  1
  Te  Te2  1  0.33335331  0.66670761  0.23431870  1
  Te  Te3  1  0.33335186  0.66670472  0.61007436  1
  Mo  Mo4  1  0.33330814  0.66661629  0.09392842  1
  Mo  Mo5  1  0.66668918  0.33337836  0.28181629  1
  Mo  Mo6  1  0.66669274  0.33338549  0.65752775  1
  W  W7  1  0.33331039  0.66662078  0.46966536  1
  Se  Se8  1  0.66664398  0.33328695  0.05205225  1
  Se  Se9  1  0.66664657  0.33329214  0.42769029  1
  Se  Se10  1  0.66664499  0.33328898  0.13579731  1
  Se  Se11  1  0.66664633  0.33329167  0.51162649  1
