# generated using pymatgen
data_TeMoSe
_symmetry_space_group_name_H-M   'P 1'
_cell_length_a   3.44063808
_cell_length_b   3.44058248
_cell_length_c   39.03685026
_cell_angle_alpha   90.00067152
_cell_angle_beta   90.00000000
_cell_angle_gamma   120.00053458
_symmetry_Int_Tables_number   1
_chemical_formula_structural   TeMoSe
_chemical_formula_sum   'Te4 Mo4 Se4'
_cell_volume   400.19718186
_cell_formula_units_Z   4
loop_
 _symmetry_equiv_pos_site_id
 _symmetry_equiv_pos_as_xyz
  1  'x, y, z'
loop_
 _atom_site_type_symbol
 _atom_site_label
 _atom_site_symmetry_multiplicity
 _atom_site_fract_x
 _atom_site_fract_y
 _atom_site_fract_z
 _atom_site_occupancy
  Te  Te0  1  0.33335996  0.66672091  0.70504329  1
  Te  Te1  1  0.66664004  0.33327909  0.04641471  1
  Te  Te2  1  0.66664736  0.33329371  0.14145266  1
  Te  Te3  1  0.33335264  0.66670629  0.61000534  1
  Mo  Mo4  1  0.33330559  0.66661117  0.09392331  1
  Mo  Mo5  1  0.33331410  0.66662820  0.46964083  1
  Mo  Mo6  1  0.66668590  0.33337180  0.28181717  1
  Mo  Mo7  1  0.66669441  0.33338883  0.65753469  1
  Se  Se8  1  0.33335625  0.66671350  0.32370220  1
  Se  Se9  1  0.66664375  0.33328650  0.42775580  1
  Se  Se10  1  0.66664892  0.33329685  0.51155783  1
  Se  Se11  1  0.33335108  0.66670315  0.23990017  1
