# generated using pymatgen
data_Na(FeO2)2
_symmetry_space_group_name_H-M   'P 1'
_cell_length_a   6.10818283
_cell_length_b   6.05200980
_cell_length_c   6.10878451
_cell_angle_alpha   60.41544961
_cell_angle_beta   60.87025154
_cell_angle_gamma   60.37608114
_symmetry_Int_Tables_number   1
_chemical_formula_structural   Na(FeO2)2
_chemical_formula_sum   'Na2 Fe4 O8'
_cell_volume   161.67129823
_cell_formula_units_Z   2
loop_
 _symmetry_equiv_pos_site_id
 _symmetry_equiv_pos_as_xyz
  1  'x, y, z'
loop_
 _atom_site_type_symbol
 _atom_site_label
 _atom_site_symmetry_multiplicity
 _atom_site_fract_x
 _atom_site_fract_y
 _atom_site_fract_z
 _atom_site_occupancy
  Na  Na0  1  0.12604562  0.12406847  0.12542976  1
  Na  Na1  1  0.87394334  0.87598267  0.87454619  1
  Fe  Fe2  1  0.50000932  0.50000639  0.00001212  1
  Fe  Fe3  1  0.50001455  -0.00001162  0.49998734  1
  Fe  Fe4  1  -0.00000540  0.50000231  0.50000435  1
  Fe  Fe5  1  0.50000817  0.49999426  0.49999438  1
  O  O6  1  0.27825614  0.25185639  0.27804220  1
  O  O7  1  0.69221987  0.26171784  0.28396624  1
  O  O8  1  0.27824225  0.69224105  0.27749376  1
  O  O9  1  0.28360028  0.26254481  0.69192030  1
  O  O10  1  0.71641664  0.73742099  0.30807719  1
  O  O11  1  0.72173083  0.30777116  0.72252285  1
  O  O12  1  0.72175576  0.74811863  0.72195556  1
  O  O13  1  0.30776363  0.73828665  0.71604876  1
