# generated using pymatgen
data_NaYMg30O32
_symmetry_space_group_name_H-M   'P 1'
_cell_length_a   8.58985045
_cell_length_b   8.59637111
_cell_length_c   8.59637111
_cell_angle_alpha   90.00000000
_cell_angle_beta   90.00000000
_cell_angle_gamma   90.00000000
_symmetry_Int_Tables_number   1
_chemical_formula_structural   NaYMg30O32
_chemical_formula_sum   'Na1 Y1 Mg30 O32'
_cell_volume   634.76930050
_cell_formula_units_Z   1
loop_
 _symmetry_equiv_pos_site_id
 _symmetry_equiv_pos_as_xyz
  1  'x, y, z'
loop_
 _atom_site_type_symbol
 _atom_site_label
 _atom_site_symmetry_multiplicity
 _atom_site_fract_x
 _atom_site_fract_y
 _atom_site_fract_z
 _atom_site_occupancy
  Na  Na0  1  -0.00000000  0.50000000  0.50000000  1
  Y  Y1  1  -0.00000000  0.00000000  -0.00000000  1
  Mg  Mg2  1  -0.00000000  0.00000000  0.50000000  1
  Mg  Mg3  1  -0.00000000  0.50000000  -0.00000000  1
  Mg  Mg4  1  0.50000000  0.00000000  -0.00000000  1
  Mg  Mg5  1  0.50000000  0.00000000  0.50000000  1
  Mg  Mg6  1  0.50000000  0.50000000  -0.00000000  1
  Mg  Mg7  1  0.50000000  0.50000000  0.50000000  1
  Mg  Mg8  1  -0.00000000  0.25827591  0.25827591  1
  Mg  Mg9  1  -0.00000000  0.25827591  0.74172409  1
  Mg  Mg10  1  -0.00000000  0.74172409  0.25827591  1
  Mg  Mg11  1  -0.00000000  0.74172409  0.74172409  1
  Mg  Mg12  1  0.50000000  0.25158146  0.25158146  1
  Mg  Mg13  1  0.50000000  0.25158146  0.74841854  1
  Mg  Mg14  1  0.50000000  0.74841854  0.25158146  1
  Mg  Mg15  1  0.50000000  0.74841854  0.74841854  1
  Mg  Mg16  1  0.25579817  0.00000000  0.25732433  1
  Mg  Mg17  1  0.25579817  0.00000000  0.74267567  1
  Mg  Mg18  1  0.24929735  0.50000000  0.25244848  1
  Mg  Mg19  1  0.24929735  0.50000000  0.74755152  1
  Mg  Mg20  1  0.74420183  0.00000000  0.25732433  1
  Mg  Mg21  1  0.74420183  0.00000000  0.74267567  1
  Mg  Mg22  1  0.75070265  0.50000000  0.25244848  1
  Mg  Mg23  1  0.75070265  0.50000000  0.74755152  1
  Mg  Mg24  1  0.25579817  0.25732433  -0.00000000  1
  Mg  Mg25  1  0.24929735  0.25244848  0.50000000  1
  Mg  Mg26  1  0.25579817  0.74267567  -0.00000000  1
  Mg  Mg27  1  0.24929735  0.74755152  0.50000000  1
  Mg  Mg28  1  0.74420183  0.25732433  -0.00000000  1
  Mg  Mg29  1  0.75070265  0.25244848  0.50000000  1
  Mg  Mg30  1  0.74420183  0.74267567  -0.00000000  1
  Mg  Mg31  1  0.75070265  0.74755152  0.50000000  1
  O  O32  1  0.25960050  0.00000000  -0.00000000  1
  O  O33  1  0.25387639  0.00000000  0.50000000  1
  O  O34  1  0.25387639  0.50000000  -0.00000000  1
  O  O35  1  0.26336998  0.50000000  0.50000000  1
  O  O36  1  0.74039950  0.00000000  -0.00000000  1
  O  O37  1  0.74612361  0.00000000  0.50000000  1
  O  O38  1  0.74612361  0.50000000  -0.00000000  1
  O  O39  1  0.73663002  0.50000000  0.50000000  1
  O  O40  1  0.24945180  0.24909546  0.24909546  1
  O  O41  1  0.24945180  0.24909546  0.75090454  1
  O  O42  1  0.24945180  0.75090454  0.24909546  1
  O  O43  1  0.24945180  0.75090454  0.75090454  1
  O  O44  1  0.75054820  0.24909546  0.24909546  1
  O  O45  1  0.75054820  0.24909546  0.75090454  1
  O  O46  1  0.75054820  0.75090454  0.24909546  1
  O  O47  1  0.75054820  0.75090454  0.75090454  1
  O  O48  1  -0.00000000  0.00000000  0.25769455  1
  O  O49  1  -0.00000000  0.00000000  0.74230545  1
  O  O50  1  -0.00000000  0.50000000  0.23792370  1
  O  O51  1  -0.00000000  0.50000000  0.76207630  1
  O  O52  1  0.50000000  0.00000000  0.25040911  1
  O  O53  1  0.50000000  0.00000000  0.74959089  1
  O  O54  1  0.50000000  0.50000000  0.24729482  1
  O  O55  1  0.50000000  0.50000000  0.75270518  1
  O  O56  1  -0.00000000  0.25769455  -0.00000000  1
  O  O57  1  -0.00000000  0.23792370  0.50000000  1
  O  O58  1  -0.00000000  0.74230545  -0.00000000  1
  O  O59  1  -0.00000000  0.76207630  0.50000000  1
  O  O60  1  0.50000000  0.25040911  -0.00000000  1
  O  O61  1  0.50000000  0.24729482  0.50000000  1
  O  O62  1  0.50000000  0.74959089  -0.00000000  1
  O  O63  1  0.50000000  0.75270518  0.50000000  1
