# generated using pymatgen
data_Mg(NiO2)2
_symmetry_space_group_name_H-M   'P 1'
_cell_length_a   5.88538848
_cell_length_b   5.90060537
_cell_length_c   17.66735488
_cell_angle_alpha   59.86734626
_cell_angle_beta   60.16961766
_cell_angle_gamma   59.99036398
_symmetry_Int_Tables_number   1
_chemical_formula_structural   Mg(NiO2)2
_chemical_formula_sum   'Mg6 Ni12 O24'
_cell_volume   433.92213573
_cell_formula_units_Z   6
loop_
 _symmetry_equiv_pos_site_id
 _symmetry_equiv_pos_as_xyz
  1  'x, y, z'
loop_
 _atom_site_type_symbol
 _atom_site_label
 _atom_site_symmetry_multiplicity
 _atom_site_fract_x
 _atom_site_fract_y
 _atom_site_fract_z
 _atom_site_occupancy
  Mg  Mg0  1  0.11960952  0.12021206  0.04695299  1
  Mg  Mg1  1  0.11767402  0.12019152  0.37937113  1
  Mg  Mg2  1  0.49866973  0.49856482  0.00133807  1
  Mg  Mg3  1  0.12125177  0.12405005  0.70982678  1
  Mg  Mg4  1  0.88236023  0.88021999  0.28591327  1
  Mg  Mg5  1  0.87640878  0.87368550  0.62672222  1
  Ni  Ni6  1  0.00273339  0.49930440  0.16651618  1
  Ni  Ni7  1  0.49938303  0.49882335  0.16639035  1
  Ni  Ni8  1  0.00049146  0.50034823  0.49993370  1
  Ni  Ni9  1  0.49945734  0.00284920  0.16651506  1
  Ni  Ni10  1  0.49908016  0.50035777  0.33269382  1
  Ni  Ni11  1  0.50034611  0.49974317  0.49996934  1
  Ni  Ni12  1  0.00460812  0.49681873  0.83341203  1
  Ni  Ni13  1  0.50039274  -0.00011045  0.50009248  1
  Ni  Ni14  1  0.49649735  0.00453610  0.83346996  1
  Ni  Ni15  1  0.50213806  0.50134680  0.66577001  1
  Ni  Ni16  1  0.49682243  0.49759076  0.83364587  1
  Ni  Ni17  1  0.87865235  0.87795679  0.95500689  1
  O  O18  1  0.25303351  0.25375130  0.09521649  1
  O  O19  1  0.25680917  0.25643621  0.24428807  1
  O  O20  1  0.25376915  0.70866803  0.09473162  1
  O  O21  1  0.70878884  0.25365136  0.09500930  1
  O  O22  1  0.29677927  0.74326717  0.23879443  1
  O  O23  1  0.25839375  0.25362849  0.42424232  1
  O  O24  1  0.74358449  0.29586335  0.23930817  1
  O  O25  1  0.74864453  0.74887308  0.08391746  1
  O  O26  1  0.25286796  0.71254147  0.42279974  1
  O  O27  1  0.25391204  0.26641295  0.57231875  1
  O  O28  1  0.74427760  0.74362263  0.23902028  1
  O  O29  1  0.70989805  0.25801215  0.42357875  1
  O  O30  1  0.29150455  0.73552062  0.58042206  1
  O  O31  1  0.26521800  0.26540512  0.75126541  1
  O  O32  1  0.74118847  0.28858901  0.58083088  1
  O  O33  1  0.74851043  0.73585803  0.42554485  1
  O  O34  1  0.25983689  0.26051513  0.90716015  1
  O  O35  1  0.26750999  0.71371733  0.74961665  1
  O  O36  1  0.73814098  0.74167805  0.57852654  1
  O  O37  1  0.71161155  0.26917237  0.74999772  1
  O  O38  1  0.26609754  0.74858401  0.91200175  1
  O  O39  1  0.73494904  0.73457732  0.76427224  1
  O  O40  1  0.74891056  0.26624370  0.91219617  1
  O  O41  1  0.74918303  0.74892433  0.91139604  1
