# generated using pymatgen
data_Mg30CrNiO32
_symmetry_space_group_name_H-M   'P 1'
_cell_length_a   8.52074990
_cell_length_b   8.52074990
_cell_length_c   8.48344065
_cell_angle_alpha   90.00000000
_cell_angle_beta   90.00000000
_cell_angle_gamma   90.00000000
_symmetry_Int_Tables_number   1
_chemical_formula_structural   Mg30CrNiO32
_chemical_formula_sum   'Mg30 Cr1 Ni1 O32'
_cell_volume   615.92475885
_cell_formula_units_Z   1
loop_
 _symmetry_equiv_pos_site_id
 _symmetry_equiv_pos_as_xyz
  1  'x, y, z'
loop_
 _atom_site_type_symbol
 _atom_site_label
 _atom_site_symmetry_multiplicity
 _atom_site_fract_x
 _atom_site_fract_y
 _atom_site_fract_z
 _atom_site_occupancy
  Mg  Mg0  1  -0.00000000  0.50000000  0.00000000  1
  Mg  Mg1  1  -0.00000000  0.50000000  0.50000000  1
  Mg  Mg2  1  0.50000000  -0.00000000  0.00000000  1
  Mg  Mg3  1  0.50000000  -0.00000000  0.50000000  1
  Mg  Mg4  1  0.50000000  0.50000000  0.00000000  1
  Mg  Mg5  1  0.50000000  0.50000000  0.50000000  1
  Mg  Mg6  1  -0.00000000  0.25053729  0.24876057  1
  Mg  Mg7  1  -0.00000000  0.25053729  0.75123943  1
  Mg  Mg8  1  -0.00000000  0.74946271  0.24876057  1
  Mg  Mg9  1  -0.00000000  0.74946271  0.75123943  1
  Mg  Mg10  1  0.50000000  0.24982886  0.24956446  1
  Mg  Mg11  1  0.50000000  0.24982886  0.75043554  1
  Mg  Mg12  1  0.50000000  0.75017114  0.24956446  1
  Mg  Mg13  1  0.50000000  0.75017114  0.75043554  1
  Mg  Mg14  1  0.25053729  -0.00000000  0.24876057  1
  Mg  Mg15  1  0.25053729  -0.00000000  0.75123943  1
  Mg  Mg16  1  0.24982886  0.50000000  0.24956446  1
  Mg  Mg17  1  0.24982886  0.50000000  0.75043554  1
  Mg  Mg18  1  0.74946271  -0.00000000  0.24876057  1
  Mg  Mg19  1  0.74946271  -0.00000000  0.75123943  1
  Mg  Mg20  1  0.75017114  0.50000000  0.24956446  1
  Mg  Mg21  1  0.75017114  0.50000000  0.75043554  1
  Mg  Mg22  1  0.24944054  0.24944054  0.00000000  1
  Mg  Mg23  1  0.25061001  0.25061001  0.50000000  1
  Mg  Mg24  1  0.24944054  0.75055946  0.00000000  1
  Mg  Mg25  1  0.25061001  0.74938999  0.50000000  1
  Mg  Mg26  1  0.75055946  0.24944054  0.00000000  1
  Mg  Mg27  1  0.74938999  0.25061001  0.50000000  1
  Mg  Mg28  1  0.75055946  0.75055946  0.00000000  1
  Mg  Mg29  1  0.74938999  0.74938999  0.50000000  1
  Cr  Cr30  1  -0.00000000  -0.00000000  0.50000000  1
  Ni  Ni31  1  -0.00000000  -0.00000000  0.00000000  1
  O  O32  1  0.25136486  -0.00000000  0.00000000  1
  O  O33  1  0.25760959  -0.00000000  0.50000000  1
  O  O34  1  0.24999838  0.50000000  0.00000000  1
  O  O35  1  0.25078058  0.50000000  0.50000000  1
  O  O36  1  0.74863514  -0.00000000  0.00000000  1
  O  O37  1  0.74239041  -0.00000000  0.50000000  1
  O  O38  1  0.75000162  0.50000000  0.00000000  1
  O  O39  1  0.74921942  0.50000000  0.50000000  1
  O  O40  1  0.24939365  0.24939365  0.24936889  1
  O  O41  1  0.24939365  0.24939365  0.75063111  1
  O  O42  1  0.24939365  0.75060635  0.24936889  1
  O  O43  1  0.24939365  0.75060635  0.75063111  1
  O  O44  1  0.75060635  0.24939365  0.24936889  1
  O  O45  1  0.75060635  0.24939365  0.75063111  1
  O  O46  1  0.75060635  0.75060635  0.24936889  1
  O  O47  1  0.75060635  0.75060635  0.75063111  1
  O  O48  1  -0.00000000  -0.00000000  0.24958113  1
  O  O49  1  -0.00000000  -0.00000000  0.75041887  1
  O  O50  1  -0.00000000  0.50000000  0.24890750  1
  O  O51  1  -0.00000000  0.50000000  0.75109250  1
  O  O52  1  0.50000000  -0.00000000  0.24890750  1
  O  O53  1  0.50000000  -0.00000000  0.75109250  1
  O  O54  1  0.50000000  0.50000000  0.24967982  1
  O  O55  1  0.50000000  0.50000000  0.75032018  1
  O  O56  1  -0.00000000  0.25136486  0.00000000  1
  O  O57  1  -0.00000000  0.25760959  0.50000000  1
  O  O58  1  -0.00000000  0.74863514  0.00000000  1
  O  O59  1  -0.00000000  0.74239041  0.50000000  1
  O  O60  1  0.50000000  0.24999838  0.00000000  1
  O  O61  1  0.50000000  0.25078058  0.50000000  1
  O  O62  1  0.50000000  0.75000162  0.00000000  1
  O  O63  1  0.50000000  0.74921942  0.50000000  1
