# generated using pymatgen
data_MgCd
_symmetry_space_group_name_H-M   'P 1'
_cell_length_a   4.97429138
_cell_length_b   9.64072773
_cell_length_c   5.47354223
_cell_angle_alpha   90.00000000
_cell_angle_beta   90.00000000
_cell_angle_gamma   90.00000000
_symmetry_Int_Tables_number   1
_chemical_formula_structural   MgCd
_chemical_formula_sum   'Mg6 Cd6'
_cell_volume   262.48803541
_cell_formula_units_Z   6
loop_
 _symmetry_equiv_pos_site_id
 _symmetry_equiv_pos_as_xyz
  1  'x, y, z'
loop_
 _atom_site_type_symbol
 _atom_site_label
 _atom_site_symmetry_multiplicity
 _atom_site_fract_x
 _atom_site_fract_y
 _atom_site_fract_z
 _atom_site_occupancy
  Mg  Mg0  1  -0.00000000  0.16931247  0.16090818  1
  Mg  Mg1  1  0.00000000  0.33068753  0.66090818  1
  Mg  Mg2  1  0.50000000  0.50000000  0.84284360  1
  Mg  Mg3  1  -0.00000000  0.66931247  0.66090818  1
  Mg  Mg4  1  0.00000000  0.83068753  0.16090818  1
  Mg  Mg5  1  0.50000000  0.00000000  0.34284360  1
  Cd  Cd6  1  0.00000000  0.50000000  0.15868898  1
  Cd  Cd7  1  0.50000000  0.33283338  0.33832552  1
  Cd  Cd8  1  0.50000000  0.16716662  0.83832552  1
  Cd  Cd9  1  0.00000000  0.00000000  0.65868898  1
  Cd  Cd10  1  0.50000000  0.83283338  0.83832552  1
  Cd  Cd11  1  0.50000000  0.66716662  0.33832552  1
