# generated using pymatgen
data_NaFe3P3O13
_symmetry_space_group_name_H-M   'P 1'
_cell_length_a   6.38859288
_cell_length_b   7.62693122
_cell_length_c   10.40258815
_cell_angle_alpha   99.37663823
_cell_angle_beta   90.00000000
_cell_angle_gamma   90.00000000
_symmetry_Int_Tables_number   1
_chemical_formula_structural   NaFe3P3O13
_chemical_formula_sum   'Na2 Fe6 P6 O26'
_cell_volume   500.09738380
_cell_formula_units_Z   2
loop_
 _symmetry_equiv_pos_site_id
 _symmetry_equiv_pos_as_xyz
  1  'x, y, z'
loop_
 _atom_site_type_symbol
 _atom_site_label
 _atom_site_symmetry_multiplicity
 _atom_site_fract_x
 _atom_site_fract_y
 _atom_site_fract_z
 _atom_site_occupancy
  Na  Na0  1  0.75000000  0.66000063  0.18892961  1
  Na  Na1  1  0.25000000  0.33999937  0.81107039  1
  Fe  Fe2  1  0.25000000  0.35825048  0.19636776  1
  Fe  Fe3  1  0.75000000  0.64174952  0.80363224  1
  Fe  Fe4  1  0.25000000  0.78612872  0.43950127  1
  Fe  Fe5  1  0.50000000  -0.00000000  0.00000000  1
  Fe  Fe6  1  0.75000000  0.21387128  0.56049873  1
  Fe  Fe7  1  0.00000000  -0.00000000  -0.00000000  1
  P  P8  1  0.25000000  0.21828906  0.48481924  1
  P  P9  1  0.75000000  0.78171094  0.51518076  1
  P  P10  1  0.25000000  0.74286499  0.76271053  1
  P  P11  1  0.75000000  0.25713501  0.23728947  1
  P  P12  1  0.75000000  0.31104532  0.88510827  1
  P  P13  1  0.25000000  0.68895468  0.11489173  1
  O  O14  1  0.75000000  0.35051068  0.74173748  1
  O  O15  1  0.55708973  0.74783666  0.42489357  1
  O  O16  1  0.25000000  0.79579016  0.62706105  1
  O  O17  1  0.54987624  0.20716226  0.90917617  1
  O  O18  1  0.75000000  0.64969750  0.61242397  1
  O  O19  1  0.75000000  0.87836032  0.90797208  1
  O  O20  1  0.25000000  0.35030250  0.38757603  1
  O  O21  1  0.04987624  0.79283774  0.09082383  1
  O  O22  1  0.25000000  0.02555387  0.40913229  1
  O  O23  1  0.75000000  0.97444613  0.59086771  1
  O  O24  1  0.05902736  0.62951157  0.78675303  1
  O  O25  1  0.25000000  0.12163968  0.09202792  1
  O  O26  1  0.55902736  0.37048843  0.21324697  1
  O  O27  1  0.75000000  0.50366659  0.95995058  1
  O  O28  1  0.75000000  0.20420984  0.37293895  1
  O  O29  1  0.45012376  0.79283774  0.09082383  1
  O  O30  1  0.94291027  0.74783666  0.42489357  1
  O  O31  1  0.44291027  0.25216334  0.57510643  1
  O  O32  1  0.44097264  0.62951157  0.78675303  1
  O  O33  1  0.25000000  0.64948932  0.25826252  1
  O  O34  1  0.75000000  0.08261556  0.13173138  1
  O  O35  1  0.25000000  0.91738444  0.86826862  1
  O  O36  1  0.94097264  0.37048843  0.21324697  1
  O  O37  1  0.95012376  0.20716226  0.90917617  1
  O  O38  1  0.05708973  0.25216334  0.57510643  1
  O  O39  1  0.25000000  0.49633341  0.04004942  1
