# generated using pymatgen
data_LiFeO3
_symmetry_space_group_name_H-M   'P 1'
_cell_length_a   8.69735639
_cell_length_b   8.69735578
_cell_length_c   9.89540583
_cell_angle_alpha   97.64129777
_cell_angle_beta   97.64223026
_cell_angle_gamma   58.94605189
_symmetry_Int_Tables_number   1
_chemical_formula_structural   LiFeO3
_chemical_formula_sum   'Li12 Fe12 O36'
_cell_volume   633.72575602
_cell_formula_units_Z   12
loop_
 _symmetry_equiv_pos_site_id
 _symmetry_equiv_pos_as_xyz
  1  'x, y, z'
loop_
 _atom_site_type_symbol
 _atom_site_label
 _atom_site_symmetry_multiplicity
 _atom_site_fract_x
 _atom_site_fract_y
 _atom_site_fract_z
 _atom_site_occupancy
  Li  Li0  1  0.99478399  0.17548595  0.50542938  1
  Li  Li1  1  0.86872191  0.36868668  0.95768894  1
  Li  Li2  1  0.72199231  0.22202882  0.07354542  1
  Li  Li3  1  0.67547551  0.49477168  0.50541317  1
  Li  Li4  1  0.64851212  0.14849570  0.52086110  1
  Li  Li5  1  0.53634458  0.03630489  0.95904739  1
  Li  Li6  1  0.43648917  0.93650626  0.43948022  1
  Li  Li7  1  0.38735825  0.88739508  0.06932806  1
  Li  Li8  1  0.20123804  0.70120614  0.96018791  1
  Li  Li9  1  0.22780901  0.72779687  0.56743303  1
  Li  Li10  1  0.05396837  0.55400882  0.07081179  1
  Li  Li11  1  0.01351415  0.51353456  0.48603949  1
  Fe  Fe12  1  0.91860067  0.08029152  0.75183078  1
  Fe  Fe13  1  0.91148372  0.75204961  0.74827455  1
  Fe  Fe14  1  0.74373002  0.58156660  0.25015748  1
  Fe  Fe15  1  0.75044121  0.91018362  0.25324334  1
  Fe  Fe16  1  0.58031428  0.41857827  0.75183013  1
  Fe  Fe17  1  0.58520403  0.74851422  0.75015696  1
  Fe  Fe18  1  0.41015783  0.25046650  0.25324292  1
  Fe  Fe19  1  0.41347576  0.57776353  0.25248920  1
  Fe  Fe20  1  0.24853945  0.08518000  0.75016337  1
  Fe  Fe21  1  0.25207110  0.41145997  0.74827797  1
  Fe  Fe22  1  0.08154030  0.24375682  0.25016035  1
  Fe  Fe23  1  0.07773675  0.91350265  0.25248739  1
  O  O24  1  0.98226754  0.11298052  0.14552321  1
  O  O25  1  0.94007488  0.44010246  0.13897501  1
  O  O26  1  0.94729632  0.81513818  0.14533197  1
  O  O27  1  0.88179713  0.01012541  0.35957889  1
  O  O28  1  0.88852366  0.38854513  0.36909161  1
  O  O29  1  0.84194268  0.71219876  0.35633044  1
  O  O30  1  0.81953535  0.95097323  0.64438478  1
  O  O31  1  0.77481296  0.27479384  0.63324465  1
  O  O32  1  0.78137713  0.65044393  0.64045273  1
  O  O33  1  0.64814843  0.78098176  0.14541140  1
  O  O34  1  0.72957423  0.22954790  0.86886755  1
  O  O35  1  0.71982126  0.84084003  0.85606890  1
  O  O36  1  0.60786180  0.10789214  0.14168025  1
  O  O37  1  0.61294848  0.48229942  0.14552375  1
  O  O38  1  0.67400338  0.55361757  0.85630010  1
  O  O39  1  0.55165331  0.05167703  0.36298413  1
  O  O40  1  0.54901841  0.67491936  0.36038161  1
  O  O41  1  0.51010168  0.38182082  0.35958040  1
  O  O42  1  0.48662412  0.61465427  0.64121722  1
  O  O43  1  0.45099649  0.31950891  0.64438929  1
  O  O44  1  0.44393134  0.94391430  0.64102748  1
  O  O45  1  0.31510579  0.44732883  0.14533254  1
  O  O46  1  0.38511360  0.50803977  0.85560009  1
  O  O47  1  0.39518034  0.89515301  0.86749210  1
  O  O48  1  0.28094924  0.14818018  0.14541402  1
  O  O49  1  0.27502430  0.77505334  0.14071024  1
  O  O50  1  0.34086686  0.21979454  0.85607543  1
  O  O51  1  0.21217707  0.34196442  0.35633175  1
  O  O52  1  0.21939980  0.71942229  0.36212766  1
  O  O53  1  0.17489879  0.04903870  0.36038162  1
  O  O54  1  0.15046152  0.28136057  0.64045926  1
  O  O55  1  0.11169839  0.61167516  0.63952081  1
  O  O56  1  0.11467534  0.98660710  0.64121810  1
  O  O57  1  0.05365051  0.17396748  0.85630542  1
  O  O58  1  0.06163755  0.56161610  0.86587096  1
  O  O59  1  0.00806580  0.88508279  0.85559629  1
