# generated using pymatgen
data_CeMg2
_symmetry_space_group_name_H-M   'P 1'
_cell_length_a   3.14134933
_cell_length_b   17.82313889
_cell_length_c   5.15430443
_cell_angle_alpha   90.00000000
_cell_angle_beta   90.00000000
_cell_angle_gamma   90.00000000
_symmetry_Int_Tables_number   1
_chemical_formula_structural   CeMg2
_chemical_formula_sum   'Ce4 Mg8'
_cell_volume   288.58283233
_cell_formula_units_Z   4
loop_
 _symmetry_equiv_pos_site_id
 _symmetry_equiv_pos_as_xyz
  1  'x, y, z'
loop_
 _atom_site_type_symbol
 _atom_site_label
 _atom_site_symmetry_multiplicity
 _atom_site_fract_x
 _atom_site_fract_y
 _atom_site_fract_z
 _atom_site_occupancy
  Ce  Ce0  1  0.50000000  0.22900108  0.25000000  1
  Ce  Ce1  1  0.00000000  0.27099892  0.75000000  1
  Ce  Ce2  1  0.00000000  0.72900108  0.25000000  1
  Ce  Ce3  1  0.50000000  0.77099892  0.75000000  1
  Mg  Mg4  1  0.00000000  0.39529281  0.25000000  1
  Mg  Mg5  1  0.00000000  0.05307175  0.25000000  1
  Mg  Mg6  1  0.50000000  0.44692825  0.75000000  1
  Mg  Mg7  1  0.50000000  0.10470719  0.75000000  1
  Mg  Mg8  1  0.50000000  0.89529281  0.25000000  1
  Mg  Mg9  1  0.50000000  0.55307175  0.25000000  1
  Mg  Mg10  1  -0.00000000  0.94692825  0.75000000  1
  Mg  Mg11  1  0.00000000  0.60470719  0.75000000  1
