# generated using pymatgen
data_YMn(WO4)2
_symmetry_space_group_name_H-M   'P 1'
_cell_length_a   5.23201628
_cell_length_b   5.85246196
_cell_length_c   10.13356162
_cell_angle_alpha   90.26663074
_cell_angle_beta   93.97096993
_cell_angle_gamma   88.97922294
_symmetry_Int_Tables_number   1
_chemical_formula_structural   YMn(WO4)2
_chemical_formula_sum   'Y2 Mn2 W4 O16'
_cell_volume   309.49557141
_cell_formula_units_Z   2
loop_
 _symmetry_equiv_pos_site_id
 _symmetry_equiv_pos_as_xyz
  1  'x, y, z'
loop_
 _atom_site_type_symbol
 _atom_site_label
 _atom_site_symmetry_multiplicity
 _atom_site_fract_x
 _atom_site_fract_y
 _atom_site_fract_z
 _atom_site_occupancy
  Y  Y0  1  0.24773163  0.68755092  0.23934541  1
  Y  Y1  1  0.75226737  0.31244808  0.76065459  1
  Mn  Mn2  1  0.74854438  0.30909807  0.23919700  1
  Mn  Mn3  1  0.25145562  0.69090093  0.76080300  1
  W  W4  1  0.24882327  0.17134688  0.49517023  1
  W  W5  1  0.24255257  0.16850273  0.00381449  1
  W  W6  1  0.75117673  0.82865312  0.50482977  1
  W  W7  1  0.75744743  0.83149727  0.99618551  1
  O  O8  1  0.39309415  0.37572580  0.13931543  1
  O  O9  1  0.10002196  0.36628674  0.37063225  1
  O  O10  1  0.60690585  0.62427320  0.86068457  1
  O  O11  1  0.89997704  0.63371226  0.62936775  1
  O  O12  1  0.45654688  0.90698184  0.60654877  1
  O  O13  1  0.04199647  0.91642406  0.88473460  1
  O  O14  1  0.54345312  0.09301716  0.39345123  1
  O  O15  1  0.95800353  0.08357594  0.11526540  1
  O  O16  1  0.87723118  0.61216492  0.12489931  1
  O  O17  1  0.61381620  0.62446536  0.38322533  1
  O  O18  1  0.12276882  0.38783608  0.87510069  1
  O  O19  1  0.38618380  0.37553564  0.61677467  1
  O  O20  1  0.43911868  0.89468111  0.09884059  1
  O  O21  1  0.56088132  0.10531989  0.90115941  1
  O  O22  1  0.05416841  0.88912504  0.40368328  1
  O  O23  1  0.94583159  0.11087596  0.59631672  1
