# generated using pymatgen
data_Ba2AlCo2F11
_symmetry_space_group_name_H-M   'P 1'
_cell_length_a   7.42060686
_cell_length_b   7.42060700
_cell_length_c   14.34680016
_cell_angle_alpha   90.00000000
_cell_angle_beta   90.00000000
_cell_angle_gamma   120.00000496
_symmetry_Int_Tables_number   1
_chemical_formula_structural   Ba2AlCo2F11
_chemical_formula_sum   'Ba6 Al3 Co6 F33'
_cell_volume   684.17076717
_cell_formula_units_Z   3
loop_
 _symmetry_equiv_pos_site_id
 _symmetry_equiv_pos_as_xyz
  1  'x, y, z'
loop_
 _atom_site_type_symbol
 _atom_site_label
 _atom_site_symmetry_multiplicity
 _atom_site_fract_x
 _atom_site_fract_y
 _atom_site_fract_z
 _atom_site_occupancy
  Ba  Ba0  1  0.53777906  0.19140925  0.66687347  1
  Ba  Ba1  1  0.17584535  0.49894617  0.80006163  1
  Ba  Ba2  1  0.65363019  0.46222094  0.00020647  1
  Ba  Ba3  1  0.50105383  0.67689818  0.46672763  1
  Ba  Ba4  1  0.32310182  0.82415465  0.13339463  1
  Ba  Ba5  1  0.80859075  0.34636981  0.33353947  1
  Al  Al6  1  0.16747518  0.00972160  0.87354147  1
  Al  Al7  1  0.84224742  0.83252482  0.20687447  1
  Al  Al8  1  0.99027840  0.15775258  0.54020747  1
  Co  Co9  1  0.64557379  0.99499454  0.88568825  1
  Co  Co10  1  0.80088993  0.76980011  0.72061110  1
  Co  Co11  1  0.23019989  0.03108982  0.38727710  1
  Co  Co12  1  0.34942075  0.35442621  0.21902125  1
  Co  Co13  1  0.96891018  0.19911007  0.05394410  1
  Co  Co14  1  0.00500546  0.65057925  0.55235425  1
  F  F15  1  0.66790575  0.08723993  0.02143458  1
  F  F16  1  0.50553533  0.70277616  0.92683426  1
  F  F17  1  0.41933418  0.33209425  0.35476758  1
  F  F18  1  0.08314921  0.42212470  0.49358907  1
  F  F19  1  0.53113588  0.24307692  0.17978176  1
  F  F20  1  0.91307946  0.63310663  0.18697752  1
  F  F21  1  0.57787530  0.66102451  0.16025607  1
  F  F22  1  0.36689337  0.27997284  0.85364452  1
  F  F23  1  0.71194004  0.46886412  0.51311476  1
  F  F24  1  0.26498930  0.33830227  0.08625920  1
  F  F25  1  0.33897549  0.91685079  0.82692307  1
  F  F26  1  0.91276007  0.58066582  0.68810158  1
  F  F27  1  0.27163586  0.01652348  0.98576749  1
  F  F28  1  0.02680068  0.48402311  0.02085422  1
  F  F29  1  0.74488661  0.72836414  0.31910049  1
  F  F30  1  0.29722384  0.80275917  0.59350026  1
  F  F31  1  0.99222202  0.11267852  0.91260516  1
  F  F32  1  0.07331397  0.73501070  0.41959220  1
  F  F33  1  0.98747047  0.07532178  0.41893669  1
  F  F34  1  0.98347652  0.25511239  0.65243349  1
  F  F35  1  0.08785031  0.01252953  0.75227069  1
  F  F36  1  0.51597689  0.54277757  0.68752122  1
  F  F37  1  0.45722243  0.97319932  0.35418722  1
  F  F38  1  0.12045649  0.00777798  0.24593816  1
  F  F39  1  0.66169773  0.92668603  0.75292620  1
  F  F40  1  0.75692308  0.28805996  0.84644876  1
  F  F41  1  0.19724083  0.49446467  0.26016726  1
  F  F42  1  0.94546748  0.74774689  0.87815712  1
  F  F43  1  0.80227941  0.05453252  0.21149012  1
  F  F44  1  0.92467822  0.91214969  0.08560369  1
  F  F45  1  0.72002716  0.08692054  0.52031052  1
  F  F46  1  0.88732148  0.87954351  0.57927116  1
  F  F47  1  0.25225311  0.19772059  0.54482312  1
