# generated using pymatgen
data_ZnBi2O5
_symmetry_space_group_name_H-M   'P 1'
_cell_length_a   5.62706967
_cell_length_b   10.24730041
_cell_length_c   16.41202368
_cell_angle_alpha   90.00000000
_cell_angle_beta   90.00000000
_cell_angle_gamma   90.00000000
_symmetry_Int_Tables_number   1
_chemical_formula_structural   ZnBi2O5
_chemical_formula_sum   'Zn8 Bi16 O40'
_cell_volume   946.35459544
_cell_formula_units_Z   8
loop_
 _symmetry_equiv_pos_site_id
 _symmetry_equiv_pos_as_xyz
  1  'x, y, z'
loop_
 _atom_site_type_symbol
 _atom_site_label
 _atom_site_symmetry_multiplicity
 _atom_site_fract_x
 _atom_site_fract_y
 _atom_site_fract_z
 _atom_site_occupancy
  Zn  Zn0  1  0.45939406  0.39004855  0.40395851  1
  Zn  Zn1  1  0.95939406  0.10995145  0.40395851  1
  Zn  Zn2  1  0.95939406  0.60995145  0.09604149  1
  Zn  Zn3  1  0.04060594  0.39004855  0.90395851  1
  Zn  Zn4  1  0.54060594  0.10995145  0.90395851  1
  Zn  Zn5  1  0.04060594  0.89004855  0.59604149  1
  Zn  Zn6  1  0.54060594  0.60995145  0.59604149  1
  Zn  Zn7  1  0.45939406  0.89004855  0.09604149  1
  Bi  Bi8  1  0.09672197  0.37293367  0.56230227  1
  Bi  Bi9  1  0.40327803  0.87293367  0.43769773  1
  Bi  Bi10  1  0.90327803  0.62706633  0.43769773  1
  Bi  Bi11  1  0.59672197  0.12706633  0.56230227  1
  Bi  Bi12  1  0.90327803  0.12706633  0.06230227  1
  Bi  Bi13  1  0.09672197  0.87293367  0.93769773  1
  Bi  Bi14  1  0.40327803  0.37293367  0.06230227  1
  Bi  Bi15  1  0.59672197  0.62706633  0.93769773  1
  Bi  Bi16  1  0.95844279  0.85777848  0.25282165  1
  Bi  Bi17  1  0.04155721  0.14222152  0.74717835  1
  Bi  Bi18  1  0.54155721  0.35777848  0.74717835  1
  Bi  Bi19  1  0.04155721  0.64222152  0.75282165  1
  Bi  Bi20  1  0.45844279  0.14222152  0.24717835  1
  Bi  Bi21  1  0.45844279  0.64222152  0.25282165  1
  Bi  Bi22  1  0.54155721  0.85777848  0.75282165  1
  Bi  Bi23  1  0.95844279  0.35777848  0.24717835  1
  O  O24  1  0.88714471  0.29344525  0.66298726  1
  O  O25  1  0.19574480  0.99299538  0.04422135  1
  O  O26  1  0.30425520  0.49299538  0.95577865  1
  O  O27  1  0.28728266  0.80234349  0.18649396  1
  O  O28  1  0.21271734  0.30234349  0.81350604  1
  O  O29  1  0.88714471  0.79344525  0.83701274  1
  O  O30  1  0.21271734  0.80234349  0.68649396  1
  O  O31  1  0.61285529  0.79344525  0.33701274  1
  O  O32  1  0.19574480  0.49299538  0.45577865  1
  O  O33  1  0.11285529  0.70655475  0.33701274  1
  O  O34  1  0.61285529  0.29344525  0.16298726  1
  O  O35  1  0.90566071  0.22023580  0.50122898  1
  O  O36  1  0.69574480  0.00700462  0.45577865  1
  O  O37  1  0.71271734  0.69765651  0.68649396  1
  O  O38  1  0.29235129  0.99739849  0.85895941  1
  O  O39  1  0.69574480  0.50700462  0.04422135  1
  O  O40  1  0.11285529  0.20655475  0.16298726  1
  O  O41  1  0.78728266  0.19765651  0.31350604  1
  O  O42  1  0.40566071  0.77976420  0.99877102  1
  O  O43  1  0.30425520  0.99299538  0.54422135  1
  O  O44  1  0.09433929  0.77976420  0.49877102  1
  O  O45  1  0.70764871  0.00260151  0.14104059  1
  O  O46  1  0.71271734  0.19765651  0.81350604  1
  O  O47  1  0.79235129  0.00260151  0.64104059  1
  O  O48  1  0.09433929  0.27976420  0.00122898  1
  O  O49  1  0.40566071  0.27976420  0.50122898  1
  O  O50  1  0.80425520  0.50700462  0.54422135  1
  O  O51  1  0.80425520  0.00700462  0.95577865  1
  O  O52  1  0.79235129  0.50260151  0.85895941  1
  O  O53  1  0.59433929  0.72023580  0.49877102  1
  O  O54  1  0.59433929  0.22023580  0.00122898  1
  O  O55  1  0.90566071  0.72023580  0.99877102  1
  O  O56  1  0.70764871  0.50260151  0.35895941  1
  O  O57  1  0.78728266  0.69765651  0.18649396  1
  O  O58  1  0.28728266  0.30234349  0.31350604  1
  O  O59  1  0.29235129  0.49739849  0.64104059  1
  O  O60  1  0.20764871  0.49739849  0.14104059  1
  O  O61  1  0.38714471  0.20655475  0.66298726  1
  O  O62  1  0.20764871  0.99739849  0.35895941  1
  O  O63  1  0.38714471  0.70655475  0.83701274  1
