# generated using pymatgen
data_BaCaAgF7
_symmetry_space_group_name_H-M   'P 1'
_cell_length_a   5.91133826
_cell_length_b   10.19248382
_cell_length_c   10.61786524
_cell_angle_alpha   90.00000000
_cell_angle_beta   90.00000000
_cell_angle_gamma   91.89155083
_symmetry_Int_Tables_number   1
_chemical_formula_structural   BaCaAgF7
_chemical_formula_sum   'Ba4 Ca4 Ag4 F28'
_cell_volume   639.39073213
_cell_formula_units_Z   4
loop_
 _symmetry_equiv_pos_site_id
 _symmetry_equiv_pos_as_xyz
  1  'x, y, z'
loop_
 _atom_site_type_symbol
 _atom_site_label
 _atom_site_symmetry_multiplicity
 _atom_site_fract_x
 _atom_site_fract_y
 _atom_site_fract_z
 _atom_site_occupancy
  Ba  Ba0  1  0.27111294  0.50330705  0.33209179  1
  Ba  Ba1  1  0.72888706  0.99669295  0.83209179  1
  Ba  Ba2  1  0.72888706  0.49669295  0.66790821  1
  Ba  Ba3  1  0.27111294  0.00330705  0.16790821  1
  Ca  Ca4  1  0.70640322  0.81874336  0.41022989  1
  Ca  Ca5  1  0.29359678  0.68125664  0.91022989  1
  Ca  Ca6  1  0.70640322  0.31874336  0.08977011  1
  Ca  Ca7  1  0.29359678  0.18125664  0.58977011  1
  Ag  Ag8  1  0.19057107  0.81008726  0.62145749  1
  Ag  Ag9  1  0.80942893  0.18991274  0.37854251  1
  Ag  Ag10  1  0.19057107  0.31008726  0.87854251  1
  Ag  Ag11  1  0.80942893  0.68991274  0.12145749  1
  F  F12  1  0.11930781  0.09876215  0.41657414  1
  F  F13  1  0.34890688  0.37753295  0.04578337  1
  F  F14  1  0.48296970  0.73618557  0.71399571  1
  F  F15  1  0.51703030  0.26381443  0.28600429  1
  F  F16  1  0.93804384  0.36245370  0.46839030  1
  F  F17  1  0.29020151  0.49040130  0.78979682  1
  F  F18  1  0.00112589  0.74266429  0.78221729  1
  F  F19  1  0.06195616  0.13754630  0.96839030  1
  F  F20  1  0.34890688  0.87753295  0.45421663  1
  F  F21  1  0.51703030  0.76381443  0.21399571  1
  F  F22  1  0.11930781  0.59876215  0.08342586  1
  F  F23  1  0.88069219  0.90123785  0.58342586  1
  F  F24  1  0.99887411  0.75733571  0.28221729  1
  F  F25  1  0.41548411  0.87696380  0.96541627  1
  F  F26  1  0.06195616  0.63754630  0.53160970  1
  F  F27  1  0.93804384  0.86245370  0.03160970  1
  F  F28  1  0.99887411  0.25733571  0.21778271  1
  F  F29  1  0.88069219  0.40123785  0.91657414  1
  F  F30  1  0.58451589  0.62303620  0.46541627  1
  F  F31  1  0.65109312  0.62246705  0.95421663  1
  F  F32  1  0.58451589  0.12303620  0.03458373  1
  F  F33  1  0.00112589  0.24266429  0.71778271  1
  F  F34  1  0.41548411  0.37696380  0.53458373  1
  F  F35  1  0.70979849  0.00959870  0.28979682  1
  F  F36  1  0.70979849  0.50959870  0.21020318  1
  F  F37  1  0.29020151  0.99040130  0.71020318  1
  F  F38  1  0.65109312  0.12246705  0.54578337  1
  F  F39  1  0.48296970  0.23618557  0.78600429  1
