# generated using pymatgen
data_YFe(WO4)2
_symmetry_space_group_name_H-M   'P 1'
_cell_length_a   5.23217099
_cell_length_b   5.88953847
_cell_length_c   10.02882113
_cell_angle_alpha   89.69413036
_cell_angle_beta   93.92836096
_cell_angle_gamma   91.09463933
_symmetry_Int_Tables_number   1
_chemical_formula_structural   YFe(WO4)2
_chemical_formula_sum   'Y2 Fe2 W4 O16'
_cell_volume   308.25397693
_cell_formula_units_Z   2
loop_
 _symmetry_equiv_pos_site_id
 _symmetry_equiv_pos_as_xyz
  1  'x, y, z'
loop_
 _atom_site_type_symbol
 _atom_site_label
 _atom_site_symmetry_multiplicity
 _atom_site_fract_x
 _atom_site_fract_y
 _atom_site_fract_z
 _atom_site_occupancy
  Y  Y0  1  0.25015744  0.67170269  0.26042245  1
  Y  Y1  1  0.74984166  0.32829669  0.73957727  1
  Fe  Fe2  1  0.74955081  0.30738327  0.26162348  1
  Fe  Fe3  1  0.25045806  0.69261849  0.73837936  1
  W  W4  1  0.25681813  0.16213904  0.49612416  1
  W  W5  1  0.25142176  0.16700386  0.00457798  1
  W  W6  1  0.74318103  0.83785990  0.50387504  1
  W  W7  1  0.74857604  0.83299592  0.99542112  1
  O  O8  1  0.40762115  0.35472123  0.13320394  1
  O  O9  1  0.09416333  0.36420050  0.35659599  1
  O  O10  1  0.59237781  0.64527732  0.86679664  1
  O  O11  1  0.90583517  0.63579877  0.64340421  1
  O  O12  1  0.45045658  0.91137858  0.61481450  1
  O  O13  1  0.04796627  0.90624171  0.89407376  1
  O  O14  1  0.54954267  0.08862087  0.38518577  1
  O  O15  1  0.95203228  0.09375849  0.10592586  1
  O  O16  1  0.88500857  0.62371774  0.11402827  1
  O  O17  1  0.62149324  0.61655447  0.37950107  1
  O  O18  1  0.11499123  0.37628327  0.88597173  1
  O  O19  1  0.37850712  0.38344725  0.62049848  1
  O  O20  1  0.44401401  0.88428831  0.09675043  1
  O  O21  1  0.55598456  0.11571195  0.90324887  1
  O  O22  1  0.07419121  0.88629283  0.40448233  1
  O  O23  1  0.92580788  0.11370685  0.59551730  1
