# generated using pymatgen
data_Cr4(CuO4)3
_symmetry_space_group_name_H-M   'P 1'
_cell_length_a   6.30934832
_cell_length_b   6.30811072
_cell_length_c   6.31888532
_cell_angle_alpha   109.48132130
_cell_angle_beta   109.50914761
_cell_angle_gamma   109.46898404
_symmetry_Int_Tables_number   1
_chemical_formula_structural   Cr4(CuO4)3
_chemical_formula_sum   'Cr4 Cu3 O12'
_cell_volume   193.48917794
_cell_formula_units_Z   1
loop_
 _symmetry_equiv_pos_site_id
 _symmetry_equiv_pos_as_xyz
  1  'x, y, z'
loop_
 _atom_site_type_symbol
 _atom_site_label
 _atom_site_symmetry_multiplicity
 _atom_site_fract_x
 _atom_site_fract_y
 _atom_site_fract_z
 _atom_site_occupancy
  Cr  Cr0  1  0.00000674  0.00001491  0.50001162  1
  Cr  Cr1  1  -0.00001795  0.49999049  -0.00000587  1
  Cr  Cr2  1  0.50000133  0.50000071  0.49999985  1
  Cr  Cr3  1  0.50000775  0.99999551  -0.00000070  1
  Cu  Cu4  1  0.50000572  0.50000304  0.00000398  1
  Cu  Cu5  1  0.00001094  0.50001039  0.49999618  1
  Cu  Cu6  1  0.49999160  -0.00000833  0.49999803  1
  O  O7  1  0.82393186  0.31690100  0.14069562  1
  O  O8  1  0.17606596  0.68309373  0.85929737  1
  O  O9  1  0.82586120  0.68554810  0.50752616  1
  O  O10  1  0.31661800  0.49303538  0.17588166  1
  O  O11  1  0.49308205  0.17589337  0.31667889  1
  O  O12  1  0.14015114  0.82564645  0.31813138  1
  O  O13  1  0.68539302  0.85983582  0.17781543  1
  O  O14  1  0.50692494  0.82410798  0.68331207  1
  O  O15  1  0.17414484  0.31446477  0.49247429  1
  O  O16  1  0.68336013  0.50693851  0.82409976  1
  O  O17  1  0.85985585  0.17435792  0.68188045  1
  O  O18  1  0.31460689  0.14016925  0.82220483  1
