# generated using pymatgen
data_CaFe4(CuO4)3
_symmetry_space_group_name_H-M   'P 1'
_cell_length_a   6.43700412
_cell_length_b   6.43708493
_cell_length_c   6.43687161
_cell_angle_alpha   109.47742165
_cell_angle_beta   109.45763249
_cell_angle_gamma   109.47693630
_symmetry_Int_Tables_number   1
_chemical_formula_structural   CaFe4(CuO4)3
_chemical_formula_sum   'Ca1 Fe4 Cu3 O12'
_cell_volume   205.32173608
_cell_formula_units_Z   1
loop_
 _symmetry_equiv_pos_site_id
 _symmetry_equiv_pos_as_xyz
  1  'x, y, z'
loop_
 _atom_site_type_symbol
 _atom_site_label
 _atom_site_symmetry_multiplicity
 _atom_site_fract_x
 _atom_site_fract_y
 _atom_site_fract_z
 _atom_site_occupancy
  Ca  Ca0  1  0.99999549  0.00000218  -0.00000091  1
  Fe  Fe1  1  -0.00000252  0.00000479  0.49999801  1
  Fe  Fe2  1  0.99999576  0.49999545  0.00000215  1
  Fe  Fe3  1  0.49998749  0.50000259  0.49999584  1
  Fe  Fe4  1  0.50000387  0.99999573  0.99999430  1
  Cu  Cu5  1  0.49999852  0.49999535  -0.00000222  1
  Cu  Cu6  1  -0.00000041  0.49999664  0.49999913  1
  Cu  Cu7  1  0.50000629  0.99999943  0.50000490  1
  O  O8  1  0.83174397  0.31309430  0.14485726  1
  O  O9  1  0.16825093  0.68690951  0.85514452  1
  O  O10  1  0.83173526  0.68687282  0.51859486  1
  O  O11  1  0.31312640  0.48137395  0.16827450  1
  O  O12  1  0.48141561  0.16830708  0.31315076  1
  O  O13  1  0.14485104  0.83174363  0.31315130  1
  O  O14  1  0.68687849  0.85515098  0.16829121  1
  O  O15  1  0.51859645  0.83169656  0.68685128  1
  O  O16  1  0.16826647  0.31312807  0.48141046  1
  O  O17  1  0.68687844  0.51862965  0.83172462  1
  O  O18  1  0.85514872  0.16825103  0.68684695  1
  O  O19  1  0.31312271  0.14485025  0.83171109  1
