# generated using pymatgen
data_MnZnAs2O7
_symmetry_space_group_name_H-M   'P 1'
_cell_length_a   7.41833926
_cell_length_b   8.86838884
_cell_length_c   9.76719052
_cell_angle_alpha   90.00000000
_cell_angle_beta   114.71500401
_cell_angle_gamma   90.00000000
_symmetry_Int_Tables_number   1
_chemical_formula_structural   MnZnAs2O7
_chemical_formula_sum   'Mn4 Zn4 As8 O28'
_cell_volume   583.71061399
_cell_formula_units_Z   4
loop_
 _symmetry_equiv_pos_site_id
 _symmetry_equiv_pos_as_xyz
  1  'x, y, z'
loop_
 _atom_site_type_symbol
 _atom_site_label
 _atom_site_symmetry_multiplicity
 _atom_site_fract_x
 _atom_site_fract_y
 _atom_site_fract_z
 _atom_site_occupancy
  Mn  Mn0  1  0.80878094  0.05129935  0.67561138  1
  Mn  Mn1  1  0.19121906  0.55129935  0.82438862  1
  Mn  Mn2  1  0.19121906  0.94870065  0.32438862  1
  Mn  Mn3  1  0.80878094  0.44870065  0.17561138  1
  Zn  Zn4  1  0.27915401  0.92084076  0.89294102  1
  Zn  Zn5  1  0.72084599  0.42084076  0.60705898  1
  Zn  Zn6  1  0.72084599  0.07915924  0.10705898  1
  Zn  Zn7  1  0.27915401  0.57915924  0.39294102  1
  As  As8  1  0.43549074  0.22176448  0.75138020  1
  As  As9  1  0.56450926  0.72176448  0.74861980  1
  As  As10  1  0.56450926  0.77823552  0.24861980  1
  As  As11  1  0.43549074  0.27823552  0.25137920  1
  As  As12  1  0.01549744  0.27210512  0.95663832  1
  As  As13  1  0.98450256  0.77210512  0.54336168  1
  As  As14  1  0.98450256  0.72789488  0.04336168  1
  As  As15  1  0.01549744  0.22789488  0.45663832  1
  O  O16  1  0.85791070  0.26515407  0.04397059  1
  O  O17  1  0.14208930  0.76515407  0.45602941  1
  O  O18  1  0.14208930  0.73484593  0.95602941  1
  O  O19  1  0.85791070  0.23484593  0.54397059  1
  O  O20  1  0.36476626  0.39023603  0.78798272  1
  O  O21  1  0.63523374  0.89023603  0.71201728  1
  O  O22  1  0.63523374  0.60976397  0.21201728  1
  O  O23  1  0.36476626  0.10976397  0.28798272  1
  O  O24  1  0.47236597  0.08768019  0.88831092  1
  O  O25  1  0.52763403  0.58768019  0.61168908  1
  O  O26  1  0.52763403  0.91231981  0.11168908  1
  O  O27  1  0.47236597  0.41231981  0.38831092  1
  O  O28  1  0.24510073  0.14503317  0.58287767  1
  O  O29  1  0.75489927  0.64503317  0.91712233  1
  O  O30  1  0.75489927  0.85496683  0.41712233  1
  O  O31  1  0.24510073  0.35496683  0.08287767  1
  O  O32  1  0.95950079  0.08723633  0.32410314  1
  O  O33  1  0.04049921  0.58723633  0.17589686  1
  O  O34  1  0.04049921  0.91276367  0.67589686  1
  O  O35  1  0.95950079  0.41276367  0.82410314  1
  O  O36  1  0.62998175  0.26928615  0.20051107  1
  O  O37  1  0.37001825  0.76928615  0.29948893  1
  O  O38  1  0.37001825  0.73071385  0.79948893  1
  O  O39  1  0.62998175  0.23071385  0.70051107  1
  O  O40  1  0.05205028  0.39815338  0.39194320  1
  O  O41  1  0.94794972  0.89815338  0.10805680  1
  O  O42  1  0.94794972  0.60184662  0.60805680  1
  O  O43  1  0.05205028  0.10184662  0.89194320  1
