# generated using pymatgen
data_BaCaNiF7
_symmetry_space_group_name_H-M   'P 1'
_cell_length_a   5.69964655
_cell_length_b   9.92422355
_cell_length_c   10.59476783
_cell_angle_alpha   90.00000000
_cell_angle_beta   90.00000000
_cell_angle_gamma   91.77118087
_symmetry_Int_Tables_number   1
_chemical_formula_structural   BaCaNiF7
_chemical_formula_sum   'Ba4 Ca4 Ni4 F28'
_cell_volume   599.00212941
_cell_formula_units_Z   4
loop_
 _symmetry_equiv_pos_site_id
 _symmetry_equiv_pos_as_xyz
  1  'x, y, z'
loop_
 _atom_site_type_symbol
 _atom_site_label
 _atom_site_symmetry_multiplicity
 _atom_site_fract_x
 _atom_site_fract_y
 _atom_site_fract_z
 _atom_site_occupancy
  Ba  Ba0  1  0.26212590  0.50723108  0.33332481  1
  Ba  Ba1  1  0.73787410  0.99276892  0.83332481  1
  Ba  Ba2  1  0.73787410  0.49276892  0.66667519  1
  Ba  Ba3  1  0.26212590  0.00723108  0.16667519  1
  Ca  Ca4  1  0.70839442  0.82207473  0.40799926  1
  Ca  Ca5  1  0.29160558  0.67792527  0.90799926  1
  Ca  Ca6  1  0.70839442  0.32207473  0.09200074  1
  Ca  Ca7  1  0.29160558  0.17792527  0.59200074  1
  Ni  Ni8  1  0.19126018  0.80762463  0.62228517  1
  Ni  Ni9  1  0.80873982  0.19237537  0.37771483  1
  Ni  Ni10  1  0.19126018  0.30762463  0.87771483  1
  Ni  Ni11  1  0.80873982  0.69237537  0.12228517  1
  F  F12  1  0.09338462  0.10821623  0.42112274  1
  F  F13  1  0.34304726  0.36765121  0.03242037  1
  F  F14  1  0.46250176  0.73734530  0.70235240  1
  F  F15  1  0.53749824  0.26265470  0.29764760  1
  F  F16  1  0.90707310  0.35355502  0.45637806  1
  F  F17  1  0.27954384  0.47660556  0.79893797  1
  F  F18  1  0.00851459  0.74764705  0.77328390  1
  F  F19  1  0.09292690  0.14644498  0.95637806  1
  F  F20  1  0.34304726  0.86765121  0.46757963  1
  F  F21  1  0.53749824  0.76265470  0.20235240  1
  F  F22  1  0.09338462  0.60821623  0.07887726  1
  F  F23  1  0.90661538  0.89178377  0.57887726  1
  F  F24  1  0.99148541  0.75235295  0.27328390  1
  F  F25  1  0.38619387  0.88516977  0.95713352  1
  F  F26  1  0.09292690  0.64644498  0.54362194  1
  F  F27  1  0.90707310  0.85355502  0.04362194  1
  F  F28  1  0.99148541  0.25235295  0.22671610  1
  F  F29  1  0.90661538  0.39178377  0.92112274  1
  F  F30  1  0.61380613  0.61483023  0.45713352  1
  F  F31  1  0.65695274  0.63234879  0.96757963  1
  F  F32  1  0.61380613  0.11483023  0.04286648  1
  F  F33  1  0.00851459  0.24764705  0.72671610  1
  F  F34  1  0.38619387  0.38516977  0.54286648  1
  F  F35  1  0.72045616  0.02339444  0.29893797  1
  F  F36  1  0.72045616  0.52339444  0.20106203  1
  F  F37  1  0.27954384  0.97660556  0.70106203  1
  F  F38  1  0.65695274  0.13234879  0.53242037  1
  F  F39  1  0.46250176  0.23734530  0.79764760  1
