# generated using pymatgen
data_MgSnP2O7
_symmetry_space_group_name_H-M   'P 1'
_cell_length_a   7.19463135
_cell_length_b   9.24091261
_cell_length_c   9.66189388
_cell_angle_alpha   90.00000000
_cell_angle_beta   114.62383574
_cell_angle_gamma   90.00000000
_symmetry_Int_Tables_number   1
_chemical_formula_structural   MgSnP2O7
_chemical_formula_sum   'Mg4 Sn4 P8 O28'
_cell_volume   583.95527158
_cell_formula_units_Z   4
loop_
 _symmetry_equiv_pos_site_id
 _symmetry_equiv_pos_as_xyz
  1  'x, y, z'
loop_
 _atom_site_type_symbol
 _atom_site_label
 _atom_site_symmetry_multiplicity
 _atom_site_fract_x
 _atom_site_fract_y
 _atom_site_fract_z
 _atom_site_occupancy
  Mg  Mg0  1  0.10571771  0.94395636  0.80575166  1
  Mg  Mg1  1  0.39428229  0.44395636  0.69424834  1
  Mg  Mg2  1  0.60571771  0.55604364  0.30575166  1
  Mg  Mg3  1  0.89428229  0.05604364  0.19424834  1
  Sn  Sn4  1  0.34832699  0.08713869  0.57718924  1
  Sn  Sn5  1  0.65167301  0.91286131  0.42281076  1
  Sn  Sn6  1  0.15167301  0.58713869  0.92281076  1
  Sn  Sn7  1  0.84832699  0.41286131  0.07718924  1
  P  P8  1  0.18112950  0.75112900  0.27599370  1
  P  P9  1  0.44038025  0.21121330  0.95488431  1
  P  P10  1  0.68112950  0.74887100  0.77599370  1
  P  P11  1  0.94038025  0.28878670  0.45488431  1
  P  P12  1  0.31887050  0.25112900  0.22400630  1
  P  P13  1  0.05961975  0.71121330  0.54511569  1
  P  P14  1  0.55961975  0.78878670  0.04511569  1
  P  P15  1  0.81887050  0.24887100  0.72400630  1
  O  O16  1  0.33977646  0.18939894  0.07308718  1
  O  O17  1  0.61730228  0.59056614  0.75639781  1
  O  O18  1  0.11730228  0.90943386  0.25639781  1
  O  O19  1  0.40824643  0.36582295  0.89279134  1
  O  O20  1  0.66022354  0.81060106  0.92691282  1
  O  O21  1  0.44226309  0.15154451  0.35439267  1
  O  O22  1  0.59175357  0.63417705  0.10720866  1
  O  O23  1  0.33076966  0.09704639  0.83205279  1
  O  O24  1  0.17319625  0.31530614  0.54098581  1
  O  O25  1  0.55773691  0.84845549  0.64560733  1
  O  O26  1  0.94226309  0.34845549  0.85439267  1
  O  O27  1  0.91427338  0.76741208  0.81832757  1
  O  O28  1  0.58572662  0.26741208  0.68167243  1
  O  O29  1  0.83977646  0.31060106  0.57308718  1
  O  O30  1  0.05773691  0.65154451  0.14560733  1
  O  O31  1  0.88269772  0.09056614  0.74360219  1
  O  O32  1  0.08572662  0.23258792  0.18167243  1
  O  O33  1  0.66923034  0.90295361  0.16794721  1
  O  O34  1  0.67319625  0.18469386  0.04098581  1
  O  O35  1  0.32680375  0.81530614  0.95901419  1
  O  O36  1  0.09175357  0.86582295  0.60720866  1
  O  O37  1  0.83076966  0.40295361  0.33205279  1
  O  O38  1  0.16923034  0.59704639  0.66794721  1
  O  O39  1  0.38269772  0.40943386  0.24360219  1
  O  O40  1  0.41427338  0.73258792  0.31832757  1
  O  O41  1  0.90824643  0.13417705  0.39279134  1
  O  O42  1  0.82680375  0.68469386  0.45901419  1
  O  O43  1  0.16022354  0.68939894  0.42691282  1
