# generated using pymatgen
data_MgTi2O4
_symmetry_space_group_name_H-M   'P 1'
_cell_length_a   5.97962539
_cell_length_b   5.98054533
_cell_length_c   18.25644404
_cell_angle_alpha   60.56735599
_cell_angle_beta   60.56135677
_cell_angle_gamma   59.99166808
_symmetry_Int_Tables_number   1
_chemical_formula_structural   MgTi2O4
_chemical_formula_sum   'Mg6 Ti12 O24'
_cell_volume   465.52240119
_cell_formula_units_Z   6
loop_
 _symmetry_equiv_pos_site_id
 _symmetry_equiv_pos_as_xyz
  1  'x, y, z'
loop_
 _atom_site_type_symbol
 _atom_site_label
 _atom_site_symmetry_multiplicity
 _atom_site_fract_x
 _atom_site_fract_y
 _atom_site_fract_z
 _atom_site_occupancy
  Mg  Mg0  1  0.12179403  0.12202940  0.04465462  1
  Mg  Mg1  1  0.12392735  0.12388460  0.37607381  1
  Mg  Mg2  1  0.49487296  0.49484512  0.33853807  1
  Mg  Mg3  1  0.13493261  0.13470170  0.69853484  1
  Mg  Mg4  1  0.49906336  0.49904890  0.00098711  1
  Mg  Mg5  1  0.87121704  0.87115508  0.62873887  1
  Ti  Ti6  1  0.50664470  0.50690304  0.16532676  1
  Ti  Ti7  1  0.50600670  0.99094068  0.16536172  1
  Ti  Ti8  1  0.50494207  0.50490647  0.50062341  1
  Ti  Ti9  1  0.99125644  0.50594050  0.16538186  1
  Ti  Ti10  1  0.50468945  0.98833925  0.50067450  1
  Ti  Ti11  1  0.48865813  0.48870762  0.67790605  1
  Ti  Ti12  1  0.87838101  0.87854192  0.28821721  1
  Ti  Ti13  1  0.49273976  0.49276170  0.82837799  1
  Ti  Ti14  1  0.98827789  0.50468209  0.50068868  1
  Ti  Ti15  1  0.49284022  0.02943100  0.82831489  1
  Ti  Ti16  1  0.02942522  0.49291772  0.82827527  1
  Ti  Ti17  1  0.88345570  0.88341231  0.94990500  1
  O  O18  1  0.25358537  0.25360818  0.09100746  1
  O  O19  1  0.25849977  0.25833807  0.24161412  1
  O  O20  1  0.25343317  0.71948267  0.09114539  1
  O  O21  1  0.71925009  0.25346311  0.09121318  1
  O  O22  1  0.25288680  0.25279417  0.42507222  1
  O  O23  1  0.26429490  0.74329319  0.24971773  1
  O  O24  1  0.26331519  0.26335745  0.57003494  1
  O  O25  1  0.74335126  0.26442808  0.24965820  1
  O  O26  1  0.75780967  0.75746477  0.07584450  1
  O  O27  1  0.25290654  0.71905367  0.42510187  1
  O  O28  1  0.71908591  0.25288235  0.42507807  1
  O  O29  1  0.74355635  0.74350136  0.24950915  1
  O  O30  1  0.25203400  0.25191306  0.75042164  1
  O  O31  1  0.27663585  0.73772784  0.58269054  1
  O  O32  1  0.73769636  0.27655327  0.58267783  1
  O  O33  1  0.25248272  0.25279540  0.91386292  1
  O  O34  1  0.75210637  0.75202220  0.41484308  1
  O  O35  1  0.25230299  0.74468151  0.75036634  1
  O  O36  1  0.74472263  0.25237191  0.75027177  1
  O  O37  1  0.73762018  0.73777363  0.58259376  1
  O  O38  1  0.26794394  0.74660589  0.91295841  1
  O  O39  1  0.74656957  0.26792606  0.91294504  1
  O  O40  1  0.73819328  0.73810643  0.76185961  1
  O  O41  1  0.74659244  0.74670463  0.91293257  1
