# generated using pymatgen
data_Ba2YMn3O7
_symmetry_space_group_name_H-M   'P 1'
_cell_length_a   3.94728586
_cell_length_b   4.07419842
_cell_length_c   11.86043973
_cell_angle_alpha   89.99976974
_cell_angle_beta   89.99992027
_cell_angle_gamma   89.99405353
_symmetry_Int_Tables_number   1
_chemical_formula_structural   Ba2YMn3O7
_chemical_formula_sum   'Ba2 Y1 Mn3 O7'
_cell_volume   190.73989644
_cell_formula_units_Z   1
loop_
 _symmetry_equiv_pos_site_id
 _symmetry_equiv_pos_as_xyz
  1  'x, y, z'
loop_
 _atom_site_type_symbol
 _atom_site_label
 _atom_site_symmetry_multiplicity
 _atom_site_fract_x
 _atom_site_fract_y
 _atom_site_fract_z
 _atom_site_occupancy
  Ba  Ba0  1  0.50000448  0.50000234  0.81922818  1
  Ba  Ba1  1  0.50000143  0.50000059  0.18078298  1
  Y  Y2  1  0.50000174  0.50000290  0.49999840  1
  Mn  Mn3  1  0.00000036  -0.00000462  0.65412817  1
  Mn  Mn4  1  0.99998554  -0.00000568  0.34586694  1
  Mn  Mn5  1  0.00000169  0.99999603  0.00000087  1
  O  O6  1  0.99999510  0.49999890  0.00000728  1
  O  O7  1  0.49999941  0.00000175  0.61930312  1
  O  O8  1  0.50000225  0.99999848  0.38068528  1
  O  O9  1  0.00000667  0.50000667  0.62047254  1
  O  O10  1  0.99999922  0.50000429  0.37951762  1
  O  O11  1  0.00000422  0.00000118  0.83351629  1
  O  O12  1  0.99999687  0.00000017  0.16649134  1
