# generated using pymatgen
data_Mo(PO3)4
_symmetry_space_group_name_H-M   'P 1'
_cell_length_a   7.61492706
_cell_length_b   7.61724115
_cell_length_c   10.07701691
_cell_angle_alpha   85.27619959
_cell_angle_beta   67.88809380
_cell_angle_gamma   113.10411837
_symmetry_Int_Tables_number   1
_chemical_formula_structural   Mo(PO3)4
_chemical_formula_sum   'Mo2 P8 O24'
_cell_volume   479.59424629
_cell_formula_units_Z   2
loop_
 _symmetry_equiv_pos_site_id
 _symmetry_equiv_pos_as_xyz
  1  'x, y, z'
loop_
 _atom_site_type_symbol
 _atom_site_label
 _atom_site_symmetry_multiplicity
 _atom_site_fract_x
 _atom_site_fract_y
 _atom_site_fract_z
 _atom_site_occupancy
  Mo  Mo0  1  0.99999965  0.00000299  0.49999834  1
  Mo  Mo1  1  0.00000195  0.49999771  0.00000068  1
  P  P2  1  0.28362795  0.26261167  0.96835369  1
  P  P3  1  0.73099355  0.25202895  0.53130174  1
  P  P4  1  0.99417677  0.65656486  0.31492558  1
  P  P5  1  0.26899821  0.74797097  0.46870058  1
  P  P6  1  0.71637913  0.73738933  0.03164352  1
  P  P7  1  0.47163428  0.30902523  0.18505167  1
  P  P8  1  0.52837177  0.69097392  0.81494542  1
  P  P9  1  0.00581584  0.34343381  0.68507760  1
  O  O10  1  0.49359303  0.46877113  0.84883753  1
  O  O11  1  0.95304584  0.35030056  0.84399915  1
  O  O12  1  0.04694901  0.64969207  0.15600485  1
  O  O13  1  0.11968641  0.33125506  0.06139561  1
  O  O14  1  0.10748303  0.81915730  0.56155265  1
  O  O15  1  0.18211805  0.65718009  0.34928368  1
  O  O16  1  0.04538146  0.16961439  0.64867168  1
  O  O17  1  0.21055248  0.54450207  0.57824448  1
  O  O18  1  0.37801513  0.21168346  0.07768839  1
  O  O19  1  0.49731765  0.87597936  0.39737876  1
  O  O20  1  0.50641465  0.53122818  0.15115806  1
  O  O21  1  0.30557781  0.20251199  0.34379617  1
  O  O22  1  0.31812379  0.69406279  0.85114847  1
  O  O23  1  0.77336230  0.89442210  0.10292607  1
  O  O24  1  0.22663898  0.10557896  0.89707295  1
  O  O25  1  0.89251267  0.18084839  0.43844604  1
  O  O26  1  0.69442257  0.79748968  0.65619931  1
  O  O27  1  0.88032296  0.66874707  0.93860559  1
  O  O28  1  0.50267525  0.12401806  0.60262070  1
  O  O29  1  0.62199861  0.78831714  0.92230455  1
  O  O30  1  0.78943562  0.45550234  0.42176363  1
  O  O31  1  0.95462056  0.83039016  0.35132377  1
  O  O32  1  0.81787168  0.34281299  0.65072158  1
  O  O33  1  0.68188034  0.30593422  0.14885248  1
