# generated using pymatgen
data_V3P3O13
_symmetry_space_group_name_H-M   'P 1'
_cell_length_a   6.37654442
_cell_length_b   7.62652671
_cell_length_c   10.37980501
_cell_angle_alpha   98.97581521
_cell_angle_beta   90.00000000
_cell_angle_gamma   90.00000000
_symmetry_Int_Tables_number   1
_chemical_formula_structural   V3P3O13
_chemical_formula_sum   'V6 P6 O26'
_cell_volume   498.59773634
_cell_formula_units_Z   2
loop_
 _symmetry_equiv_pos_site_id
 _symmetry_equiv_pos_as_xyz
  1  'x, y, z'
loop_
 _atom_site_type_symbol
 _atom_site_label
 _atom_site_symmetry_multiplicity
 _atom_site_fract_x
 _atom_site_fract_y
 _atom_site_fract_z
 _atom_site_occupancy
  V  V0  1  0.25000000  0.35546159  0.19143128  1
  V  V1  1  0.75000000  0.64453841  0.80856872  1
  V  V2  1  0.25000000  0.79097514  0.44463262  1
  V  V3  1  0.50000000  -0.00000000  0.00000000  1
  V  V4  1  0.75000000  0.20902486  0.55536738  1
  V  V5  1  -0.00000000  -0.00000000  0.00000000  1
  P  P6  1  0.25000000  0.21733216  0.47991634  1
  P  P7  1  0.75000000  0.78266784  0.52008366  1
  P  P8  1  0.25000000  0.74193671  0.76718462  1
  P  P9  1  0.75000000  0.25806329  0.23281538  1
  P  P10  1  0.75000000  0.30221297  0.87690941  1
  P  P11  1  0.25000000  0.69778703  0.12309059  1
  O  O12  1  0.75000000  0.33424320  0.73038785  1
  O  O13  1  0.55231833  0.75063044  0.43575217  1
  O  O14  1  0.25000000  0.79129432  0.62464781  1
  O  O15  1  0.55030727  0.20636386  0.90845973  1
  O  O16  1  0.75000000  0.66167418  0.62399643  1
  O  O17  1  0.75000000  0.86786554  0.90454825  1
  O  O18  1  0.25000000  0.33832582  0.37600357  1
  O  O19  1  0.05030727  0.79363614  0.09154027  1
  O  O20  1  0.25000000  0.01690316  0.40877802  1
  O  O21  1  0.75000000  0.98309684  0.59122198  1
  O  O22  1  0.05452489  0.63375572  0.78566519  1
  O  O23  1  0.25000000  0.13213446  0.09545175  1
  O  O24  1  0.55452489  0.36624428  0.21433481  1
  O  O25  1  0.75000000  0.50305406  0.94221460  1
  O  O26  1  0.75000000  0.20870568  0.37535219  1
  O  O27  1  0.44969273  0.79363614  0.09154027  1
  O  O28  1  0.94768167  0.75063044  0.43575217  1
  O  O29  1  0.44768167  0.24936956  0.56424783  1
  O  O30  1  0.44547511  0.63375572  0.78566519  1
  O  O31  1  0.25000000  0.66575680  0.26961215  1
  O  O32  1  0.75000000  0.08147723  0.13309560  1
  O  O33  1  0.25000000  0.91852277  0.86690440  1
  O  O34  1  0.94547511  0.36624428  0.21433481  1
  O  O35  1  0.94969273  0.20636386  0.90845973  1
  O  O36  1  0.05231833  0.24936956  0.56424783  1
  O  O37  1  0.25000000  0.49694594  0.05778540  1
