# generated using pymatgen
data_Li2Cu4Si4O13
_symmetry_space_group_name_H-M   'P 1'
_cell_length_a   10.09796620
_cell_length_b   7.64794182
_cell_length_c   7.11102703
_cell_angle_alpha   84.75821298
_cell_angle_beta   92.63025166
_cell_angle_gamma   109.39503117
_symmetry_Int_Tables_number   1
_chemical_formula_structural   Li2Cu4Si4O13
_chemical_formula_sum   'Li4 Cu8 Si8 O26'
_cell_volume   515.77317971
_cell_formula_units_Z   2
loop_
 _symmetry_equiv_pos_site_id
 _symmetry_equiv_pos_as_xyz
  1  'x, y, z'
loop_
 _atom_site_type_symbol
 _atom_site_label
 _atom_site_symmetry_multiplicity
 _atom_site_fract_x
 _atom_site_fract_y
 _atom_site_fract_z
 _atom_site_occupancy
  Li  Li0  1  0.11438475  0.61400185  0.20503288  1
  Li  Li1  1  0.42581622  0.43387044  0.76149398  1
  Li  Li2  1  0.57418378  0.56612956  0.23850602  1
  Li  Li3  1  0.88561525  0.38599815  0.79496712  1
  Cu  Cu4  1  0.99945977  0.82370966  0.90796623  1
  Cu  Cu5  1  0.01534066  0.80739606  0.44017386  1
  Cu  Cu6  1  0.38173005  0.82171270  0.41205907  1
  Cu  Cu7  1  0.36122768  0.78384408  0.95179447  1
  Cu  Cu8  1  0.63877232  0.21615592  0.04820553  1
  Cu  Cu9  1  0.61826995  0.17828730  0.58794093  1
  Cu  Cu10  1  0.98465934  0.19260394  0.55982614  1
  Cu  Cu11  1  0.00054023  0.17629034  0.09203377  1
  Si  Si12  1  0.17128633  0.58857847  0.71558904  1
  Si  Si13  1  0.28911290  0.40448193  0.28946555  1
  Si  Si14  1  0.27896932  0.11683287  0.61175404  1
  Si  Si15  1  0.28523230  0.10029575  0.05202458  1
  Si  Si16  1  0.71476770  0.89970425  0.94797542  1
  Si  Si17  1  0.72103068  0.88316713  0.38824596  1
  Si  Si18  1  0.71088710  0.59551807  0.71053445  1
  Si  Si19  1  0.82871367  0.41142153  0.28441096  1
  O  O20  1  0.11670380  0.00831539  0.09041171  1
  O  O21  1  0.06818325  0.37242817  0.74058077  1
  O  O22  1  0.16401683  0.68890290  0.49951149  1
  O  O23  1  0.14469040  0.70456093  0.89423469  1
  O  O24  1  0.12376236  0.36182742  0.24625021  1
  O  O25  1  0.10968633  0.01911074  0.58431293  1
  O  O26  1  0.37316875  0.96262401  0.12137776  1
  O  O27  1  0.38758210  0.01515077  0.56366068  1
  O  O28  1  0.33732305  0.61507444  0.76685320  1
  O  O29  1  0.38525307  0.62335930  0.25945594  1
  O  O30  1  0.31345205  0.17148209  0.82939090  1
  O  O31  1  0.32414495  0.32813707  0.50424016  1
  O  O32  1  0.35508014  0.29865939  0.14700100  1
  O  O33  1  0.64491986  0.70134061  0.85299900  1
  O  O34  1  0.67585505  0.67186293  0.49575984  1
  O  O35  1  0.68654795  0.82851791  0.17060910  1
  O  O36  1  0.61474693  0.37664070  0.74054406  1
  O  O37  1  0.66267695  0.38492556  0.23314680  1
  O  O38  1  0.61241790  0.98484923  0.43633932  1
  O  O39  1  0.62683125  0.03737599  0.87862224  1
  O  O40  1  0.89031367  0.98088926  0.41568707  1
  O  O41  1  0.87623764  0.63817258  0.75374979  1
  O  O42  1  0.85530960  0.29543907  0.10576531  1
  O  O43  1  0.83598317  0.31109710  0.50048851  1
  O  O44  1  0.93181675  0.62757183  0.25941923  1
  O  O45  1  0.88329620  0.99168461  0.90958829  1
