# generated using pymatgen
data_SrCaV(PO4)2
_symmetry_space_group_name_H-M   'P 1'
_cell_length_a   5.74496841
_cell_length_b   6.98154296
_cell_length_c   9.63758239
_cell_angle_alpha   109.92493468
_cell_angle_beta   101.06915676
_cell_angle_gamma   98.27141532
_symmetry_Int_Tables_number   1
_chemical_formula_structural   SrCaV(PO4)2
_chemical_formula_sum   'Sr2 Ca2 V2 P4 O16'
_cell_volume   347.35446863
_cell_formula_units_Z   2
loop_
 _symmetry_equiv_pos_site_id
 _symmetry_equiv_pos_as_xyz
  1  'x, y, z'
loop_
 _atom_site_type_symbol
 _atom_site_label
 _atom_site_symmetry_multiplicity
 _atom_site_fract_x
 _atom_site_fract_y
 _atom_site_fract_z
 _atom_site_occupancy
  Sr  Sr0  1  0.25883266  0.80699893  0.05466739  1
  Sr  Sr1  1  0.74116734  0.19300107  0.94533261  1
  Ca  Ca2  1  -0.00037998  0.41848922  0.66132619  1
  Ca  Ca3  1  0.00037998  0.58151078  0.33867381  1
  V  V4  1  0.65291495  0.85241500  0.56363041  1
  V  V5  1  0.34708405  0.14758500  0.43636959  1
  P  P6  1  0.39010782  0.41530522  0.22316960  1
  P  P7  1  0.60989218  0.58469478  0.77683040  1
  P  P8  1  0.83823376  0.02996545  0.29770086  1
  P  P9  1  0.16176624  0.97003455  0.70229914  1
  O  O10  1  0.83670559  0.55485558  0.87964722  1
  O  O11  1  0.62314686  0.45012047  0.16907333  1
  O  O12  1  0.66449820  0.80531386  0.77130566  1
  O  O13  1  0.96869396  0.10943453  0.70218965  1
  O  O14  1  0.37685314  0.54987953  0.83092667  1
  O  O15  1  0.00805961  0.74197370  0.59400852  1
  O  O16  1  0.99194039  0.25802630  0.40599148  1
  O  O17  1  0.27271589  0.99306271  0.86521109  1
  O  O18  1  0.33550180  0.19468614  0.22869434  1
  O  O19  1  0.72728411  0.00693729  0.13478891  1
  O  O20  1  0.16329441  0.44514442  0.12035278  1
  O  O21  1  0.41633712  0.58105501  0.38653767  1
  O  O22  1  0.58366288  0.41894499  0.61346233  1
  O  O23  1  0.63682262  0.96890688  0.37439122  1
  O  O24  1  0.03130604  0.89056547  0.29781035  1
  O  O25  1  0.36317738  0.03109312  0.62560878  1
