# generated using pymatgen
data_Ca2MoWO6
_symmetry_space_group_name_H-M   'P 1'
_cell_length_a   5.72156617
_cell_length_b   5.71474229
_cell_length_c   7.97279876
_cell_angle_alpha   88.52265216
_cell_angle_beta   135.32600704
_cell_angle_gamma   121.04583691
_symmetry_Int_Tables_number   1
_chemical_formula_structural   Ca2MoWO6
_chemical_formula_sum   'Ca2 Mo1 W1 O6'
_cell_volume   129.45110528
_cell_formula_units_Z   1
loop_
 _symmetry_equiv_pos_site_id
 _symmetry_equiv_pos_as_xyz
  1  'x, y, z'
loop_
 _atom_site_type_symbol
 _atom_site_label
 _atom_site_symmetry_multiplicity
 _atom_site_fract_x
 _atom_site_fract_y
 _atom_site_fract_z
 _atom_site_occupancy
  Ca  Ca0  1  0.02855329  0.50542444  0.25517423  1
  Ca  Ca1  1  0.96819615  0.45473486  0.73821959  1
  Mo  Mo2  1  0.00359117  0.98318894  0.50103304  1
  W  W3  1  0.00349966  0.98305185  0.00098111  1
  O  O4  1  0.09700961  0.95440194  0.28875517  1
  O  O5  1  0.91043090  0.01081321  0.71373872  1
  O  O6  1  0.36748229  0.46605336  0.20753515  1
  O  O7  1  0.40526210  0.86701186  0.75405523  1
  O  O8  1  0.60652322  0.10366885  0.25272556  1
  O  O9  1  0.64216259  0.50027769  0.79645921  1
