# generated using pymatgen
data_SrMnZn(PO4)2
_symmetry_space_group_name_H-M   'P 1'
_cell_length_a   5.53250213
_cell_length_b   7.04704880
_cell_length_c   9.54676635
_cell_angle_alpha   110.65075612
_cell_angle_beta   101.88396814
_cell_angle_gamma   97.94070639
_symmetry_Int_Tables_number   1
_chemical_formula_structural   SrMnZn(PO4)2
_chemical_formula_sum   'Sr2 Mn2 Zn2 P4 O16'
_cell_volume   331.67532440
_cell_formula_units_Z   2
loop_
 _symmetry_equiv_pos_site_id
 _symmetry_equiv_pos_as_xyz
  1  'x, y, z'
loop_
 _atom_site_type_symbol
 _atom_site_label
 _atom_site_symmetry_multiplicity
 _atom_site_fract_x
 _atom_site_fract_y
 _atom_site_fract_z
 _atom_site_occupancy
  Sr  Sr0  1  0.24533641  0.79917657  0.04707119  1
  Sr  Sr1  1  0.75466359  0.20082343  0.95292881  1
  Mn  Mn2  1  0.62710971  0.83689547  0.55831577  1
  Mn  Mn3  1  0.37289029  0.16310453  0.44168423  1
  Zn  Zn4  1  0.99654351  0.37533293  0.64552527  1
  Zn  Zn5  1  0.00345649  0.62466707  0.35447473  1
  P  P6  1  0.38773093  0.41957046  0.22619268  1
  P  P7  1  0.61226907  0.58042954  0.77380732  1
  P  P8  1  0.83836288  0.01951627  0.29902524  1
  P  P9  1  0.16163712  0.98048373  0.70097476  1
  O  O10  1  0.80602328  0.55445006  0.90244899  1
  O  O11  1  0.66383455  0.47490478  0.21366079  1
  O  O12  1  0.66914020  0.80179761  0.77555008  1
  O  O13  1  0.95889309  0.11785786  0.69783386  1
  O  O14  1  0.33616545  0.52509522  0.78633921  1
  O  O15  1  0.00967341  0.75501714  0.58060590  1
  O  O16  1  0.99032659  0.24498286  0.41939410  1
  O  O17  1  0.26076221  0.99490425  0.86635754  1
  O  O18  1  0.33085980  0.19820239  0.22444992  1
  O  O19  1  0.73923779  0.00509575  0.13364246  1
  O  O20  1  0.19397672  0.44554994  0.09755101  1
  O  O21  1  0.35711791  0.57642499  0.38551256  1
  O  O22  1  0.64288209  0.42357501  0.61448744  1
  O  O23  1  0.61571440  0.94635745  0.35959798  1
  O  O24  1  0.04110691  0.88214214  0.30216614  1
  O  O25  1  0.38428560  0.05364255  0.64040202  1
