# generated using pymatgen
data_Mg2Nb2CrO8
_symmetry_space_group_name_H-M   'P 1'
_cell_length_a   5.21936167
_cell_length_b   6.07666799
_cell_length_c   10.15420889
_cell_angle_alpha   107.42686154
_cell_angle_beta   90.99153904
_cell_angle_gamma   89.97408004
_symmetry_Int_Tables_number   1
_chemical_formula_structural   Mg2Nb2CrO8
_chemical_formula_sum   'Mg4 Nb4 Cr2 O16'
_cell_volume   307.22215191
_cell_formula_units_Z   2
loop_
 _symmetry_equiv_pos_site_id
 _symmetry_equiv_pos_as_xyz
  1  'x, y, z'
loop_
 _atom_site_type_symbol
 _atom_site_label
 _atom_site_symmetry_multiplicity
 _atom_site_fract_x
 _atom_site_fract_y
 _atom_site_fract_z
 _atom_site_occupancy
  Mg  Mg0  1  0.75376969  0.41335175  0.54426848  1
  Mg  Mg1  1  0.74783124  0.86915723  0.45587941  1
  Mg  Mg2  1  0.24791541  0.58195989  0.45522928  1
  Mg  Mg3  1  0.25367924  0.12730667  0.54307249  1
  Nb  Nb4  1  0.74203194  0.27875228  0.23603357  1
  Nb  Nb5  1  0.76249430  0.04790457  0.76463590  1
  Nb  Nb6  1  0.26255111  0.71403914  0.76451755  1
  Nb  Nb7  1  0.24197571  0.95159176  0.23549411  1
  Cr  Cr8  1  0.74534457  0.65171601  0.00112510  1
  Cr  Cr9  1  0.24538006  0.34503444  0.00114847  1
  O  O10  1  0.07355152  0.18553378  0.14570760  1
  O  O11  1  0.43246826  0.03096506  0.85123635  1
  O  O12  1  0.93255522  0.81761146  0.85108141  1
  O  O13  1  0.57387018  0.95445843  0.14557814  1
  O  O14  1  0.57410565  0.41436525  0.11872766  1
  O  O15  1  0.91253632  0.31376538  0.88503599  1
  O  O16  1  0.41270987  0.56886290  0.88483679  1
  O  O17  1  0.07451171  0.69803403  0.11856425  1
  O  O18  1  0.45372958  0.28778737  0.37544480  1
  O  O19  1  0.04548232  0.91683974  0.62304807  1
  O  O20  1  0.37960373  0.83429148  0.38374454  1
  O  O21  1  0.12106387  0.45138776  0.61539256  1
  O  O22  1  0.62047518  0.16109572  0.61555215  1
  O  O23  1  0.87917273  0.54476762  0.38404451  1
  O  O24  1  0.95403935  0.08224768  0.37528239  1
  O  O25  1  0.54574326  0.70376761  0.62302641  1
