# generated using pymatgen
data_K2Na2Nb(WO4)3
_symmetry_space_group_name_H-M   'P 1'
_cell_length_a   7.98583886
_cell_length_b   8.03103489
_cell_length_c   8.02444734
_cell_angle_alpha   90.00000000
_cell_angle_beta   90.00000000
_cell_angle_gamma   90.00000000
_symmetry_Int_Tables_number   1
_chemical_formula_structural   K2Na2Nb(WO4)3
_chemical_formula_sum   'K4 Na4 Nb2 W6 O24'
_cell_volume   514.64432325
_cell_formula_units_Z   2
loop_
 _symmetry_equiv_pos_site_id
 _symmetry_equiv_pos_as_xyz
  1  'x, y, z'
loop_
 _atom_site_type_symbol
 _atom_site_label
 _atom_site_symmetry_multiplicity
 _atom_site_fract_x
 _atom_site_fract_y
 _atom_site_fract_z
 _atom_site_occupancy
  K  K0  1  0.25000000  0.25117080  0.25125686  1
  K  K1  1  0.25000000  0.74882920  0.25125686  1
  K  K2  1  0.75000000  0.25117080  0.25125686  1
  K  K3  1  0.75000000  0.74882920  0.25125686  1
  Na  Na4  1  0.25000000  0.25129614  0.74852514  1
  Na  Na5  1  0.25000000  0.74870386  0.74852514  1
  Na  Na6  1  0.75000000  0.25129614  0.74852514  1
  Na  Na7  1  0.75000000  0.74870386  0.74852514  1
  Nb  Nb8  1  0.00000000  0.50000000  0.50273332  1
  Nb  Nb9  1  0.50000000  0.50000000  0.50273332  1
  W  W10  1  -0.00000000  0.00000000  0.99800153  1
  W  W11  1  0.00000000  0.00000000  0.50208016  1
  W  W12  1  0.00000000  0.50000000  0.99812129  1
  W  W13  1  0.50000000  0.00000000  0.99800153  1
  W  W14  1  0.50000000  0.00000000  0.50208016  1
  W  W15  1  0.50000000  0.50000000  0.99812129  1
  O  O16  1  0.25000000  0.00000000  0.99592898  1
  O  O17  1  0.25000000  0.00000000  0.50384298  1
  O  O18  1  0.25000000  0.50000000  0.99609965  1
  O  O19  1  0.25000000  0.50000000  0.50404141  1
  O  O20  1  0.75000000  0.00000000  0.99592898  1
  O  O21  1  0.75000000  0.00000000  0.50384298  1
  O  O22  1  0.75000000  0.50000000  0.99609965  1
  O  O23  1  0.75000000  0.50000000  0.50404141  1
  O  O24  1  0.00000000  0.25870460  0.99546865  1
  O  O25  1  0.00000000  0.24889605  0.50411582  1
  O  O26  1  0.00000000  0.74129540  0.99546865  1
  O  O27  1  -0.00000000  0.75110395  0.50411582  1
  O  O28  1  0.50000000  0.25870460  0.99546865  1
  O  O29  1  0.50000000  0.24889605  0.50411582  1
  O  O30  1  0.50000000  0.74129540  0.99546865  1
  O  O31  1  0.50000000  0.75110395  0.50411582  1
  O  O32  1  -0.00000000  0.00000000  0.25909351  1
  O  O33  1  0.00000000  0.00000000  0.74232170  1
  O  O34  1  0.00000000  0.50000000  0.24840638  1
  O  O35  1  0.00000000  0.50000000  0.75059616  1
  O  O36  1  0.50000000  0.00000000  0.25909351  1
  O  O37  1  0.50000000  0.00000000  0.74232170  1
  O  O38  1  0.50000000  0.50000000  0.24840638  1
  O  O39  1  0.50000000  0.50000000  0.75059616  1
