# generated using pymatgen
data_Sr6Bi2O11
_symmetry_space_group_name_H-M   'P 1'
_cell_length_a   8.85599111
_cell_length_b   8.58263287
_cell_length_c   8.61755815
_cell_angle_alpha   90.00000000
_cell_angle_beta   90.12502703
_cell_angle_gamma   90.00000000
_symmetry_Int_Tables_number   1
_chemical_formula_structural   Sr6Bi2O11
_chemical_formula_sum   'Sr12 Bi4 O22'
_cell_volume   654.99939039
_cell_formula_units_Z   2
loop_
 _symmetry_equiv_pos_site_id
 _symmetry_equiv_pos_as_xyz
  1  'x, y, z'
loop_
 _atom_site_type_symbol
 _atom_site_label
 _atom_site_symmetry_multiplicity
 _atom_site_fract_x
 _atom_site_fract_y
 _atom_site_fract_z
 _atom_site_occupancy
  Sr  Sr0  1  0.50113770  0.00000000  0.99942713  1
  Sr  Sr1  1  0.78340688  0.23666631  0.26777510  1
  Sr  Sr2  1  0.78340688  0.76333369  0.26777510  1
  Sr  Sr3  1  0.92165577  0.50000000  0.00109317  1
  Sr  Sr4  1  0.78415171  0.23356684  0.73652023  1
  Sr  Sr5  1  0.78415171  0.76643316  0.73652023  1
  Sr  Sr6  1  0.21660466  0.73715944  0.23206573  1
  Sr  Sr7  1  0.49867143  0.50000000  0.50023701  1
  Sr  Sr8  1  0.21660466  0.26284056  0.23206573  1
  Sr  Sr9  1  0.21603193  0.73291840  0.76323529  1
  Sr  Sr10  1  0.07847738  0.00000000  0.49949498  1
  Sr  Sr11  1  0.21603193  0.26708160  0.76323529  1
  Bi  Bi12  1  0.53617768  0.50000000  0.99889539  1
  Bi  Bi13  1  0.00064732  0.00000000  0.99937169  1
  Bi  Bi14  1  0.46376234  0.00000000  0.50085064  1
  Bi  Bi15  1  0.99921710  0.50000000  0.50072691  1
  O  O16  1  0.98397288  0.00000000  0.24637624  1
  O  O17  1  0.01659038  0.50000000  0.25392955  1
  O  O18  1  0.61885486  0.73073430  0.99998305  1
  O  O19  1  0.61885486  0.26926570  0.99998305  1
  O  O20  1  0.76599044  0.50000000  0.49502708  1
  O  O21  1  0.61078553  0.50000000  0.23184986  1
  O  O22  1  0.00852818  0.50000000  0.74766579  1
  O  O23  1  0.70145736  0.00000000  0.50239539  1
  O  O24  1  0.99017620  0.00000000  0.75254281  1
  O  O25  1  0.38882668  0.00000000  0.26798042  1
  O  O26  1  0.23390420  0.00000000  0.00460603  1
  O  O27  1  0.01513830  0.75261457  0.00052856  1
  O  O28  1  0.38162325  0.23089881  0.49963414  1
  O  O29  1  0.38162325  0.76910119  0.49963414  1
  O  O30  1  0.01513830  0.24738543  0.00052856  1
  O  O31  1  0.76766209  0.00000000  0.99122929  1
  O  O32  1  0.38537542  0.00000000  0.73245536  1
  O  O33  1  0.23211843  0.50000000  0.51049603  1
  O  O34  1  0.61325957  0.50000000  0.76696581  1
  O  O35  1  0.98497463  0.74740022  0.49990708  1
  O  O36  1  0.98497463  0.25259978  0.49990708  1
  O  O37  1  0.29842950  0.50000000  0.99708706  1
