# generated using pymatgen
data_U(GePt)2
_symmetry_space_group_name_H-M   'P 1'
_cell_length_a   4.29955939
_cell_length_b   4.29955939
_cell_length_c   10.17418364
_cell_angle_alpha   90.00000000
_cell_angle_beta   90.00000000
_cell_angle_gamma   90.00000000
_symmetry_Int_Tables_number   1
_chemical_formula_structural   U(GePt)2
_chemical_formula_sum   'U2 Ge4 Pt4'
_cell_volume   188.08210499
_cell_formula_units_Z   2
loop_
 _symmetry_equiv_pos_site_id
 _symmetry_equiv_pos_as_xyz
  1  'x, y, z'
loop_
 _atom_site_type_symbol
 _atom_site_label
 _atom_site_symmetry_multiplicity
 _atom_site_fract_x
 _atom_site_fract_y
 _atom_site_fract_z
 _atom_site_occupancy
  U  U0  1  0.75000000  0.75000000  0.25011101  1
  U  U1  1  0.25000000  0.25000000  0.74988899  1
  Ge  Ge2  1  0.75000000  0.25000000  0.50000000  1
  Ge  Ge3  1  0.25000000  0.75000000  0.50000000  1
  Ge  Ge4  1  0.75000000  0.75000000  0.86522444  1
  Ge  Ge5  1  0.25000000  0.25000000  0.13477556  1
  Pt  Pt6  1  0.75000000  0.25000000  -0.00000000  1
  Pt  Pt7  1  0.25000000  0.75000000  0.00000000  1
  Pt  Pt8  1  0.75000000  0.75000000  0.62801103  1
  Pt  Pt9  1  0.25000000  0.25000000  0.37198897  1
