# generated using pymatgen
data_Sr3Ca5Fe5Co3O20
_symmetry_space_group_name_H-M   'P 1'
_cell_length_a   10.78638792
_cell_length_b   11.25367027
_cell_length_c   17.31074522
_cell_angle_alpha   109.03005867
_cell_angle_beta   108.23569034
_cell_angle_gamma   89.85362848
_symmetry_Int_Tables_number   1
_chemical_formula_structural   Sr3Ca5Fe5Co3O20
_chemical_formula_sum   'Sr12 Ca20 Fe20 Co12 O80'
_cell_volume   1875.06888923
_cell_formula_units_Z   4
loop_
 _symmetry_equiv_pos_site_id
 _symmetry_equiv_pos_as_xyz
  1  'x, y, z'
loop_
 _atom_site_type_symbol
 _atom_site_label
 _atom_site_symmetry_multiplicity
 _atom_site_fract_x
 _atom_site_fract_y
 _atom_site_fract_z
 _atom_site_occupancy
  Sr  Sr0  1  0.30967921  0.56554753  0.60914171  1
  Sr  Sr1  1  0.80437264  0.06270177  0.60876628  1
  Sr  Sr2  1  0.80478965  0.56521365  0.61047492  1
  Sr  Sr3  1  0.19714876  0.43669433  0.38674050  1
  Sr  Sr4  1  0.19860863  0.44117584  0.89477034  1
  Sr  Sr5  1  0.69239447  0.92977282  0.38548287  1
  Sr  Sr6  1  0.05294296  0.29514662  0.60968612  1
  Sr  Sr7  1  0.05748687  0.79958239  0.60892180  1
  Sr  Sr8  1  0.55897924  0.29549962  0.61135788  1
  Sr  Sr9  1  0.45229887  0.20362421  0.89232715  1
  Sr  Sr10  1  0.93881272  0.20252303  0.38556937  1
  Sr  Sr11  1  0.94512524  0.20669856  0.89297893  1
  Ca  Ca12  1  0.30361886  0.06493861  0.10706421  1
  Ca  Ca13  1  0.30653216  0.06397549  0.60474203  1
  Ca  Ca14  1  0.29978936  0.57261548  0.10824542  1
  Ca  Ca15  1  0.80267593  0.06766400  0.10457709  1
  Ca  Ca16  1  0.80217672  0.56683555  0.10725261  1
  Ca  Ca17  1  0.20098467  0.92882093  0.39197844  1
  Ca  Ca18  1  0.19865918  0.93386114  0.89804476  1
  Ca  Ca19  1  0.69167482  0.43062652  0.38938989  1
  Ca  Ca20  1  0.69621014  0.43353483  0.89728910  1
  Ca  Ca21  1  0.69831552  0.93449905  0.89500512  1
  Ca  Ca22  1  0.04762526  0.28900360  0.10664324  1
  Ca  Ca23  1  0.05340572  0.79128205  0.10639093  1
  Ca  Ca24  1  0.55718068  0.28676600  0.10677190  1
  Ca  Ca25  1  0.55137667  0.78590829  0.10507156  1
  Ca  Ca26  1  0.55979484  0.79109706  0.60581968  1
  Ca  Ca27  1  0.44646778  0.20940216  0.38999789  1
  Ca  Ca28  1  0.44879053  0.70607983  0.39224127  1
  Ca  Ca29  1  0.44607812  0.71248126  0.89635961  1
  Ca  Ca30  1  0.94686283  0.70817147  0.39171244  1
  Ca  Ca31  1  0.95088730  0.71700187  0.89854574  1
  Fe  Fe32  1  0.00457094  0.99553265  0.49583484  1
  Fe  Fe33  1  0.00124075  0.50138236  0.49629729  1
  Fe  Fe34  1  0.25862242  0.25259787  0.00543235  1
  Fe  Fe35  1  0.25284492  0.24639164  0.49493838  1
  Fe  Fe36  1  0.10617231  0.08582287  0.24724640  1
  Fe  Fe37  1  0.11270193  0.08790881  0.75383095  1
  Fe  Fe38  1  0.10567009  0.59520985  0.25035391  1
  Fe  Fe39  1  0.10854469  0.59789350  0.75286751  1
  Fe  Fe40  1  0.59949666  0.08850755  0.24523323  1
  Fe  Fe41  1  0.60342695  0.08740218  0.74917060  1
  Fe  Fe42  1  0.60276893  0.58675574  0.24658401  1
  Fe  Fe43  1  0.60963819  0.59963048  0.75648925  1
  Fe  Fe44  1  0.35464632  0.40889986  0.24502465  1
  Fe  Fe45  1  0.36143196  0.41173815  0.75220914  1
  Fe  Fe46  1  0.35180903  0.90734420  0.24933470  1
  Fe  Fe47  1  0.36074230  0.90554761  0.74806754  1
  Fe  Fe48  1  0.85142152  0.41290344  0.24872789  1
  Fe  Fe49  1  0.85663462  0.41831448  0.75727603  1
  Fe  Fe50  1  0.85589796  0.90463328  0.24445710  1
  Fe  Fe51  1  0.85540291  0.90576912  0.75263875  1
  Co  Co52  1  0.00854312  0.00221656  0.00383186  1
  Co  Co53  1  0.00537681  0.50388192  0.00358335  1
  Co  Co54  1  0.50910382  0.99929161  0.00321402  1
  Co  Co55  1  0.50208814  0.99471813  0.49611418  1
  Co  Co56  1  0.50869106  0.50182891  0.00422699  1
  Co  Co57  1  0.50311817  0.49960074  0.49534662  1
  Co  Co58  1  0.25862631  0.75346585  0.00381425  1
  Co  Co59  1  0.25837748  0.75054963  0.49853911  1
  Co  Co60  1  0.75740997  0.25205261  0.00431346  1
  Co  Co61  1  0.74905798  0.24815715  0.49586349  1
  Co  Co62  1  0.75733761  0.75032177  0.00096811  1
  Co  Co63  1  0.75220737  0.74518204  0.49426026  1
  O  O64  1  0.12445672  0.11773323  0.48824283  1
  O  O65  1  0.12705067  0.11930183  0.99269428  1
  O  O66  1  0.12425819  0.62631657  0.48778155  1
  O  O67  1  0.12255761  0.62741642  0.99383272  1
  O  O68  1  0.61548628  0.11796531  0.48627059  1
  O  O69  1  0.62804764  0.11410962  0.99106575  1
  O  O70  1  0.62208427  0.61683365  0.48057180  1
  O  O71  1  0.62211789  0.61465145  0.98650696  1
  O  O72  1  0.13752560  0.38334185  0.01979185  1
  O  O73  1  0.13100737  0.37744858  0.50715869  1
  O  O74  1  0.13848254  0.88248583  0.01483806  1
  O  O75  1  0.14123537  0.87937602  0.50554749  1
  O  O76  1  0.63761447  0.38074206  0.01724901  1
  O  O77  1  0.62549775  0.37794003  0.50338035  1
  O  O78  1  0.63896419  0.87242852  0.01268113  1
  O  O79  1  0.63303479  0.86852665  0.50780314  1
  O  O80  1  0.36914144  0.11330921  0.48434218  1
  O  O81  1  0.37490302  0.11462603  0.99026040  1
  O  O82  1  0.38138601  0.62068784  0.48996365  1
  O  O83  1  0.37860603  0.62289023  0.99321692  1
  O  O84  1  0.87122565  0.11857360  0.49011831  1
  O  O85  1  0.87560758  0.11795972  0.99243664  1
  O  O86  1  0.86994815  0.61908220  0.48464235  1
  O  O87  1  0.87182680  0.62400291  0.98912054  1
  O  O88  1  0.38943816  0.38772950  0.01797978  1
  O  O89  1  0.38307467  0.37709406  0.50605203  1
  O  O90  1  0.38980890  0.88501200  0.01397449  1
  O  O91  1  0.38826346  0.88086190  0.50924361  1
  O  O92  1  0.88483230  0.39126063  0.01681147  1
  O  O93  1  0.87529627  0.38035104  0.50443961  1
  O  O94  1  0.89173658  0.88953904  0.01780355  1
  O  O95  1  0.88276196  0.87541992  0.50385129  1
  O  O96  1  0.09704655  0.10675449  0.14254073  1
  O  O97  1  0.08947455  0.08748440  0.64028571  1
  O  O98  1  0.09275240  0.61545362  0.14660047  1
  O  O99  1  0.07619867  0.59459310  0.63799595  1
  O  O100  1  0.58933766  0.10532564  0.14041331  1
  O  O101  1  0.58220748  0.09201044  0.63827645  1
  O  O102  1  0.59316887  0.60420998  0.14084597  1
  O  O103  1  0.58261135  0.60370227  0.64338636  1
  O  O104  1  0.43958393  0.39698693  0.35525583  1
  O  O105  1  0.44873665  0.40142606  0.86168826  1
  O  O106  1  0.43886821  0.89172550  0.35808652  1
  O  O107  1  0.45830994  0.89009750  0.85348052  1
  O  O108  1  0.94147414  0.40813418  0.36003346  1
  O  O109  1  0.94657072  0.40397633  0.86407905  1
  O  O110  1  0.94542181  0.90018932  0.35715182  1
  O  O111  1  0.94982097  0.89827913  0.86186553  1
  O  O112  1  0.34321747  0.28468101  0.13876819  1
  O  O113  1  0.33418278  0.29055613  0.64100168  1
  O  O114  1  0.34259969  0.78901189  0.14246358  1
  O  O115  1  0.32984279  0.79595453  0.63127851  1
  O  O116  1  0.84113343  0.28836045  0.14404198  1
  O  O117  1  0.83082281  0.30094695  0.64636316  1
  O  O118  1  0.83941903  0.78178325  0.13753951  1
  O  O119  1  0.82918192  0.79363114  0.64129360  1
  O  O120  1  0.19307446  0.20400943  0.35764893  1
  O  O121  1  0.19422301  0.20921858  0.86474429  1
  O  O122  1  0.20056522  0.70577046  0.36589146  1
  O  O123  1  0.20419774  0.71549129  0.86126029  1
  O  O124  1  0.68547089  0.20928073  0.35397962  1
  O  O125  1  0.68831895  0.21123801  0.85776961  1
  O  O126  1  0.69883629  0.70271586  0.35349148  1
  O  O127  1  0.70688012  0.71921723  0.86431773  1
  O  O128  1  0.42073784  0.06594336  0.24927060  1
  O  O129  1  0.42107841  0.06331566  0.74326288  1
  O  O130  1  0.42273821  0.56945956  0.24804906  1
  O  O131  1  0.43212104  0.57363544  0.75827593  1
  O  O132  1  0.92369941  0.05969945  0.23972991  1
  O  O133  1  0.93345742  0.05954861  0.75115457  1
  O  O134  1  0.92491693  0.57114340  0.24963992  1
  O  O135  1  0.93399707  0.57642953  0.76093160  1
  O  O136  1  0.17307833  0.43283622  0.24021603  1
  O  O137  1  0.18332244  0.44119503  0.75152062  1
  O  O138  1  0.17147369  0.92616199  0.24885660  1
  O  O139  1  0.18759110  0.93354540  0.75998911  1
  O  O140  1  0.66975324  0.42689783  0.24703905  1
  O  O141  1  0.67834617  0.44248614  0.76046200  1
  O  O142  1  0.67499987  0.93024029  0.24054495  1
  O  O143  1  0.67449039  0.93003067  0.75209360  1
