# generated using pymatgen
data_Sr5Ca3Fe4(CoO5)4
_symmetry_space_group_name_H-M   'P 1'
_cell_length_a   10.79782715
_cell_length_b   11.24718121
_cell_length_c   17.64203801
_cell_angle_alpha   108.49630554
_cell_angle_beta   107.86563240
_cell_angle_gamma   90.09006189
_symmetry_Int_Tables_number   1
_chemical_formula_structural   Sr5Ca3Fe4(CoO5)4
_chemical_formula_sum   'Sr20 Ca12 Fe16 Co16 O80'
_cell_volume   1922.24189596
_cell_formula_units_Z   4
loop_
 _symmetry_equiv_pos_site_id
 _symmetry_equiv_pos_as_xyz
  1  'x, y, z'
loop_
 _atom_site_type_symbol
 _atom_site_label
 _atom_site_symmetry_multiplicity
 _atom_site_fract_x
 _atom_site_fract_y
 _atom_site_fract_z
 _atom_site_occupancy
  Sr  Sr0  1  0.30592578  0.06114813  0.60903578  1
  Sr  Sr1  1  0.31000086  0.56202488  0.60927234  1
  Sr  Sr2  1  0.80801128  0.06842772  0.61001791  1
  Sr  Sr3  1  0.80885588  0.56253741  0.61014372  1
  Sr  Sr4  1  0.19911659  0.43442281  0.38632782  1
  Sr  Sr5  1  0.19814904  0.44002800  0.89411791  1
  Sr  Sr6  1  0.69742578  0.43594071  0.38829698  1
  Sr  Sr7  1  0.69478363  0.93781677  0.38648535  1
  Sr  Sr8  1  0.70074718  0.93579614  0.89408207  1
  Sr  Sr9  1  0.05584266  0.29599228  0.61068600  1
  Sr  Sr10  1  0.05834445  0.79732096  0.61035274  1
  Sr  Sr11  1  0.55961180  0.29899830  0.61063107  1
  Sr  Sr12  1  0.55819305  0.79283904  0.61025487  1
  Sr  Sr13  1  0.44875420  0.20363584  0.38710059  1
  Sr  Sr14  1  0.45124695  0.20802096  0.89315361  1
  Sr  Sr15  1  0.44578767  0.69979000  0.38606077  1
  Sr  Sr16  1  0.44677163  0.70668566  0.89407751  1
  Sr  Sr17  1  0.94226935  0.20259690  0.38676611  1
  Sr  Sr18  1  0.95114652  0.20545903  0.89364751  1
  Sr  Sr19  1  0.94607552  0.70295937  0.38596159  1
  Ca  Ca20  1  0.30365015  0.06672112  0.10571214  1
  Ca  Ca21  1  0.29912847  0.57078654  0.10575377  1
  Ca  Ca22  1  0.80523865  0.06532844  0.10605754  1
  Ca  Ca23  1  0.80246031  0.56902610  0.10530860  1
  Ca  Ca24  1  0.19433037  0.92789339  0.38952639  1
  Ca  Ca25  1  0.19869554  0.93319038  0.89619771  1
  Ca  Ca26  1  0.69924094  0.43355738  0.89579991  1
  Ca  Ca27  1  0.05738008  0.28624242  0.10732974  1
  Ca  Ca28  1  0.05179445  0.78821651  0.10624340  1
  Ca  Ca29  1  0.55334079  0.28836047  0.10619467  1
  Ca  Ca30  1  0.54861126  0.79039942  0.10652996  1
  Ca  Ca31  1  0.94968617  0.71073249  0.89665811  1
  Fe  Fe32  1  0.10430072  0.08556398  0.24731834  1
  Fe  Fe33  1  0.11137162  0.09081882  0.75463257  1
  Fe  Fe34  1  0.10207162  0.58867941  0.24219906  1
  Fe  Fe35  1  0.10664003  0.59613702  0.75309763  1
  Fe  Fe36  1  0.60126661  0.08598331  0.24153680  1
  Fe  Fe37  1  0.60869228  0.09370459  0.75064497  1
  Fe  Fe38  1  0.60345712  0.58793438  0.24380292  1
  Fe  Fe39  1  0.61260364  0.59140390  0.75576734  1
  Fe  Fe40  1  0.35331776  0.40586191  0.24205157  1
  Fe  Fe41  1  0.36025048  0.40952171  0.75132944  1
  Fe  Fe42  1  0.35069103  0.90765238  0.24741105  1
  Fe  Fe43  1  0.35810619  0.90989206  0.75507970  1
  Fe  Fe44  1  0.85394385  0.40757195  0.24431605  1
  Fe  Fe45  1  0.85800211  0.41543652  0.75807300  1
  Fe  Fe46  1  0.85375740  0.90564552  0.24264803  1
  Fe  Fe47  1  0.86183812  0.90721487  0.75177474  1
  Co  Co48  1  0.01146352  0.00086449  0.00607568  1
  Co  Co49  1  0.00236487  0.99847684  0.49629960  1
  Co  Co50  1  0.00687363  0.50214114  0.00404523  1
  Co  Co51  1  0.00502084  0.49948912  0.49870161  1
  Co  Co52  1  0.50831974  0.00175724  0.00575696  1
  Co  Co53  1  0.50520215  0.99944700  0.49861362  1
  Co  Co54  1  0.50949238  0.50500525  0.00755999  1
  Co  Co55  1  0.50533802  0.49891459  0.49837191  1
  Co  Co56  1  0.26095085  0.25139715  0.00564972  1
  Co  Co57  1  0.25339333  0.24857777  0.49647545  1
  Co  Co58  1  0.25695427  0.75437536  0.00634083  1
  Co  Co59  1  0.25451647  0.74805155  0.49903098  1
  Co  Co60  1  0.76069184  0.25708856  0.00956182  1
  Co  Co61  1  0.75340129  0.25173332  0.49891552  1
  Co  Co62  1  0.75677549  0.75095129  0.00294928  1
  Co  Co63  1  0.75389294  0.74964510  0.49947131  1
  O  O64  1  0.11817120  0.11006941  0.48855351  1
  O  O65  1  0.13016036  0.11558351  0.99171406  1
  O  O66  1  0.13104056  0.62732234  0.49186136  1
  O  O67  1  0.12246954  0.63062308  0.99121127  1
  O  O68  1  0.62309063  0.12545721  0.49052156  1
  O  O69  1  0.63704799  0.13420728  0.99661260  1
  O  O70  1  0.62267428  0.62016311  0.49103647  1
  O  O71  1  0.62345249  0.61632440  0.99333703  1
  O  O72  1  0.13742226  0.38351474  0.01859439  1
  O  O73  1  0.13489767  0.36954409  0.50447159  1
  O  O74  1  0.13218613  0.88349035  0.01365481  1
  O  O75  1  0.13086881  0.87609135  0.50418888  1
  O  O76  1  0.64123841  0.38482008  0.01917799  1
  O  O77  1  0.63344964  0.37721696  0.50698009  1
  O  O78  1  0.63729314  0.88380619  0.01641462  1
  O  O79  1  0.62723490  0.88104435  0.50551639  1
  O  O80  1  0.36790741  0.11364296  0.48881487  1
  O  O81  1  0.37925099  0.11760055  0.99338120  1
  O  O82  1  0.37491695  0.61748446  0.48978027  1
  O  O83  1  0.37400950  0.62374657  0.99558160  1
  O  O84  1  0.87159872  0.12252635  0.49081203  1
  O  O85  1  0.88600393  0.11523158  0.99585809  1
  O  O86  1  0.87652511  0.62248791  0.49082011  1
  O  O87  1  0.87323812  0.61326801  0.98941025  1
  O  O88  1  0.39293386  0.39073717  0.01558252  1
  O  O89  1  0.38573715  0.37936233  0.50657097  1
  O  O90  1  0.38410345  0.88390006  0.01904038  1
  O  O91  1  0.37337661  0.87071511  0.50371048  1
  O  O92  1  0.88159633  0.37622434  0.01455549  1
  O  O93  1  0.88213215  0.37739868  0.50709719  1
  O  O94  1  0.89000820  0.88348336  0.01658311  1
  O  O95  1  0.88501328  0.88679255  0.50448343  1
  O  O96  1  0.09518522  0.10371973  0.14258011  1
  O  O97  1  0.08592946  0.09368273  0.64480101  1
  O  O98  1  0.08668395  0.60468606  0.13719733  1
  O  O99  1  0.08139679  0.59444822  0.64257004  1
  O  O100  1  0.59150805  0.10427928  0.13799153  1
  O  O101  1  0.57872095  0.09286536  0.63900997  1
  O  O102  1  0.59223185  0.60815821  0.14064233  1
  O  O103  1  0.58848092  0.59494486  0.64685102  1
  O  O104  1  0.43593681  0.40464093  0.35155935  1
  O  O105  1  0.44938842  0.40616624  0.86005055  1
  O  O106  1  0.43757180  0.90915471  0.35826873  1
  O  O107  1  0.44749261  0.90776850  0.86401690  1
  O  O108  1  0.93910531  0.40833998  0.35446268  1
  O  O109  1  0.94442688  0.40537825  0.86563299  1
  O  O110  1  0.94167459  0.90650027  0.35326707  1
  O  O111  1  0.94829724  0.89575205  0.86009606  1
  O  O112  1  0.34251282  0.28278369  0.13944915  1
  O  O113  1  0.33061987  0.29642363  0.64024148  1
  O  O114  1  0.33803737  0.78610168  0.14439012  1
  O  O115  1  0.33193137  0.79848276  0.64459201  1
  O  O116  1  0.84512619  0.28339778  0.14109595  1
  O  O117  1  0.83562457  0.30408121  0.64935015  1
  O  O118  1  0.84081949  0.78403092  0.13889357  1
  O  O119  1  0.83281890  0.79829366  0.64103045  1
  O  O120  1  0.18827646  0.19956179  0.35740298  1
  O  O121  1  0.19490813  0.20950205  0.86161111  1
  O  O122  1  0.18523372  0.70415059  0.35144039  1
  O  O123  1  0.19396586  0.71538929  0.85883916  1
  O  O124  1  0.68504869  0.19722063  0.35000992  1
  O  O125  1  0.69179198  0.21386445  0.85748078  1
  O  O126  1  0.68666842  0.69851783  0.35401695  1
  O  O127  1  0.70011205  0.70774942  0.86345788  1
  O  O128  1  0.42051332  0.05991273  0.23926195  1
  O  O129  1  0.43169259  0.06368332  0.75216301  1
  O  O130  1  0.42112031  0.56144596  0.23778389  1
  O  O131  1  0.43259517  0.56639151  0.75202543  1
  O  O132  1  0.92142009  0.06231211  0.23933459  1
  O  O133  1  0.93225560  0.06451664  0.75239179  1
  O  O134  1  0.92159601  0.56223107  0.23859722  1
  O  O135  1  0.93068790  0.57386634  0.76061654  1
  O  O136  1  0.17183281  0.42990961  0.23881371  1
  O  O137  1  0.18298000  0.44080258  0.75304891  1
  O  O138  1  0.16955542  0.92617751  0.24688475  1
  O  O139  1  0.18181997  0.93506747  0.76013301  1
  O  O140  1  0.67244540  0.42833726  0.23955093  1
  O  O141  1  0.67986140  0.43418820  0.76011866  1
  O  O142  1  0.67239318  0.92786760  0.23893620  1
  O  O143  1  0.68507510  0.93953934  0.75282417  1
