# generated using pymatgen
data_Sr7CaFe5(CoO8)3
_symmetry_space_group_name_H-M   'P 1'
_cell_length_a   7.76446331
_cell_length_b   7.76446331
_cell_length_c   7.76841271
_cell_angle_alpha   89.99439689
_cell_angle_beta   90.00560311
_cell_angle_gamma   89.98824738
_symmetry_Int_Tables_number   1
_chemical_formula_structural   Sr7CaFe5(CoO8)3
_chemical_formula_sum   'Sr7 Ca1 Fe5 Co3 O24'
_cell_volume   468.33343194
_cell_formula_units_Z   1
loop_
 _symmetry_equiv_pos_site_id
 _symmetry_equiv_pos_as_xyz
  1  'x, y, z'
loop_
 _atom_site_type_symbol
 _atom_site_label
 _atom_site_symmetry_multiplicity
 _atom_site_fract_x
 _atom_site_fract_y
 _atom_site_fract_z
 _atom_site_occupancy
  Sr  Sr0  1  0.25159256  0.25160217  0.25208830  1
  Sr  Sr1  1  0.25152538  0.25159639  0.74786691  1
  Sr  Sr2  1  0.25156095  0.74843905  0.74776390  1
  Sr  Sr3  1  0.74839479  0.25160521  0.25205566  1
  Sr  Sr4  1  0.74848364  0.25151636  0.74791335  1
  Sr  Sr5  1  0.74839783  0.74840744  0.25208830  1
  Sr  Sr6  1  0.74840361  0.74847462  0.74786691  1
  Ca  Ca7  1  0.25157323  0.74842677  0.25179128  1
  Fe  Fe8  1  0.00058245  0.99941755  0.00058979  1
  Fe  Fe9  1  0.00096292  0.99903708  0.49946921  1
  Fe  Fe10  1  0.00055799  0.50057149  0.00077670  1
  Fe  Fe11  1  0.49942851  0.99944201  0.00077670  1
  Fe  Fe12  1  0.49941971  0.50058029  0.00094828  1
  Co  Co13  1  0.00063390  0.50041954  0.49946502  1
  Co  Co14  1  0.49958046  0.99936610  0.49946502  1
  Co  Co15  1  0.49925485  0.50074515  0.49963319  1
  O  O16  1  0.25065417  0.99764590  0.00231465  1
  O  O17  1  0.25791249  0.99747671  0.49753583  1
  O  O18  1  0.25165419  0.50235641  0.00248316  1
  O  O19  1  0.24982252  0.50271463  0.49744826  1
  O  O20  1  0.74933536  0.99958292  0.00047241  1
  O  O21  1  0.74187175  0.99979128  0.49973170  1
  O  O22  1  0.74831855  0.50047613  0.00033981  1
  O  O23  1  0.75035926  0.50039891  0.49942275  1
  O  O24  1  0.00041708  0.25066464  0.00047241  1
  O  O25  1  0.00020872  0.25812825  0.49973170  1
  O  O26  1  0.00235410  0.74934583  0.00231465  1
  O  O27  1  0.00252329  0.74208751  0.49753583  1
  O  O28  1  0.49952387  0.25168145  0.00033981  1
  O  O29  1  0.49960109  0.24964074  0.49942275  1
  O  O30  1  0.49764359  0.74834581  0.00248316  1
  O  O31  1  0.49728537  0.75017748  0.49744826  1
  O  O32  1  0.00229590  0.99770410  0.25276774  1
  O  O33  1  0.00047290  0.99952710  0.74719347  1
  O  O34  1  0.00253072  0.50260683  0.25342898  1
  O  O35  1  0.00043517  0.50023571  0.74661424  1
  O  O36  1  0.49739317  0.99746928  0.25342898  1
  O  O37  1  0.49976429  0.99956483  0.74661424  1
  O  O38  1  0.49794305  0.50205695  0.26008834  1
  O  O39  1  0.49932663  0.50067337  0.73980835  1
