# generated using pymatgen
data_Li3FeS3
_symmetry_space_group_name_H-M   'P 1'
_cell_length_a   6.57553176
_cell_length_b   6.29988897
_cell_length_c   11.45703042
_cell_angle_alpha   90.00000000
_cell_angle_beta   87.44056438
_cell_angle_gamma   90.00000000
_symmetry_Int_Tables_number   1
_chemical_formula_structural   Li3FeS3
_chemical_formula_sum   'Li12 Fe4 S12'
_cell_volume   474.13540705
_cell_formula_units_Z   4
loop_
 _symmetry_equiv_pos_site_id
 _symmetry_equiv_pos_as_xyz
  1  'x, y, z'
loop_
 _atom_site_type_symbol
 _atom_site_label
 _atom_site_symmetry_multiplicity
 _atom_site_fract_x
 _atom_site_fract_y
 _atom_site_fract_z
 _atom_site_occupancy
  Li  Li0  1  0.15357671  0.00103127  0.88629912  1
  Li  Li1  1  0.20214598  0.49543954  0.89362396  1
  Li  Li2  1  0.24284999  0.99533599  0.28751340  1
  Li  Li3  1  0.25715001  0.49533599  0.21248660  1
  Li  Li4  1  0.29785402  0.99543954  0.60637604  1
  Li  Li5  1  0.34642329  0.50103127  0.61370088  1
  Li  Li6  1  0.65357671  0.49896873  0.38629912  1
  Li  Li7  1  0.70214598  0.00456046  0.39362396  1
  Li  Li8  1  0.74284999  0.50466401  0.78751340  1
  Li  Li9  1  0.75715001  0.00466401  0.71248660  1
  Li  Li10  1  0.79785402  0.50456046  0.10637604  1
  Li  Li11  1  0.84642329  0.99896873  0.11370088  1
  Fe  Fe12  1  0.07849385  0.63499109  0.42547841  1
  Fe  Fe13  1  0.42150615  0.13499109  0.07452159  1
  Fe  Fe14  1  0.57849385  0.86500891  0.92547841  1
  Fe  Fe15  1  0.92150615  0.36500891  0.57452159  1
  S  S16  1  0.07987615  0.25276282  0.73039366  1
  S  S17  1  0.09530066  0.28217486  0.40980985  1
  S  S18  1  0.10852635  0.25915651  0.06590970  1
  S  S19  1  0.39147365  0.75915651  0.43409030  1
  S  S20  1  0.42012385  0.75276282  0.76960634  1
  S  S21  1  0.40469934  0.78217486  0.09019015  1
  S  S22  1  0.59530066  0.21782514  0.90980985  1
  S  S23  1  0.57987615  0.24723718  0.23039366  1
  S  S24  1  0.60852635  0.24084349  0.56590970  1
  S  S25  1  0.89147365  0.74084349  0.93409030  1
  S  S26  1  0.90469934  0.71782514  0.59019015  1
  S  S27  1  0.92012385  0.74723718  0.26960634  1
