# generated using pymatgen
data_Mg5Cd
_symmetry_space_group_name_H-M   'P 1'
_cell_length_a   11.62359824
_cell_length_b   3.19808351
_cell_length_c   7.45480317
_cell_angle_alpha   90.00000000
_cell_angle_beta   104.47326669
_cell_angle_gamma   90.00000000
_symmetry_Int_Tables_number   1
_chemical_formula_structural   Mg5Cd
_chemical_formula_sum   'Mg10 Cd2'
_cell_volume   268.32461685
_cell_formula_units_Z   2
loop_
 _symmetry_equiv_pos_site_id
 _symmetry_equiv_pos_as_xyz
  1  'x, y, z'
loop_
 _atom_site_type_symbol
 _atom_site_label
 _atom_site_symmetry_multiplicity
 _atom_site_fract_x
 _atom_site_fract_y
 _atom_site_fract_z
 _atom_site_occupancy
  Mg  Mg0  1  0.99919674  -0.00000000  0.00030298  1
  Mg  Mg1  1  0.16751246  0.50000000  0.33299227  1
  Mg  Mg2  1  0.05478366  0.00000000  0.60954685  1
  Mg  Mg3  1  0.33310800  0.00000000  0.66637790  1
  Mg  Mg4  1  0.22268193  0.50000000  0.94563278  1
  Mg  Mg5  1  0.49919674  0.50000000  0.00030298  1
  Mg  Mg6  1  0.66751246  -0.00000000  0.33299227  1
  Mg  Mg7  1  0.55478366  0.50000000  0.60954685  1
  Mg  Mg8  1  0.83310800  0.50000000  0.66637790  1
  Mg  Mg9  1  0.72268193  -0.00000000  0.94563278  1
  Cd  Cd10  1  0.38938421  0.00000000  0.27848023  1
  Cd  Cd11  1  0.88938421  0.50000000  0.27848023  1
