# generated using pymatgen
data_MoW3(SeS3)2
_symmetry_space_group_name_H-M   'P 1'
_cell_length_a   3.22295170
_cell_length_b   3.22294691
_cell_length_c   36.03304188
_cell_angle_alpha   90.00021469
_cell_angle_beta   90.00000000
_cell_angle_gamma   120.00004913
_symmetry_Int_Tables_number   1
_chemical_formula_structural   MoW3(SeS3)2
_chemical_formula_sum   'Mo1 W3 Se2 S6'
_cell_volume   324.14422782
_cell_formula_units_Z   1
loop_
 _symmetry_equiv_pos_site_id
 _symmetry_equiv_pos_as_xyz
  1  'x, y, z'
loop_
 _atom_site_type_symbol
 _atom_site_label
 _atom_site_symmetry_multiplicity
 _atom_site_fract_x
 _atom_site_fract_y
 _atom_site_fract_z
 _atom_site_occupancy
  Mo  Mo0  1  0.33330946  0.66661892  0.09391500  1
  W  W1  1  0.33331074  0.66662148  0.46967281  1
  W  W2  1  0.66668892  0.33337783  0.28179237  1
  W  W3  1  0.66668796  0.33337592  0.65756889  1
  Se  Se4  1  0.66664323  0.33328545  0.42188180  1
  Se  Se5  1  0.66664785  0.33329471  0.51741417  1
  S  S6  1  0.33335574  0.66671247  0.32507103  1
  S  S7  1  0.33335811  0.66671722  0.70086933  1
  S  S8  1  0.66664211  0.33328322  0.05075657  1
  S  S9  1  0.66664525  0.33328949  0.13706320  1
  S  S10  1  0.33335579  0.66671258  0.23848234  1
  S  S11  1  0.33335485  0.66671070  0.61426048  1
