# generated using pymatgen
data_Eu2V2O5
_symmetry_space_group_name_H-M   'P 1'
_cell_length_a   5.55356426
_cell_length_b   5.78130210
_cell_length_c   8.77675070
_cell_angle_alpha   109.22952292
_cell_angle_beta   108.44410020
_cell_angle_gamma   90.00000000
_symmetry_Int_Tables_number   1
_chemical_formula_structural   Eu2V2O5
_chemical_formula_sum   'Eu4 V4 O10'
_cell_volume   250.69036852
_cell_formula_units_Z   2
loop_
 _symmetry_equiv_pos_site_id
 _symmetry_equiv_pos_as_xyz
  1  'x, y, z'
loop_
 _atom_site_type_symbol
 _atom_site_label
 _atom_site_symmetry_multiplicity
 _atom_site_fract_x
 _atom_site_fract_y
 _atom_site_fract_z
 _atom_site_occupancy
  Eu  Eu0  1  0.61252286  0.12946148  0.21664642  1
  Eu  Eu1  1  0.39587645  0.87053852  0.78335358  1
  Eu  Eu2  1  0.11252286  0.58718493  0.21664642  1
  Eu  Eu3  1  0.89587645  0.41281507  0.78335358  1
  V  V4  1  0.01099056  0.00000000  -0.00000000  1
  V  V5  1  0.51099056  0.50000000  -0.00000000  1
  V  V6  1  0.21297473  0.18389296  0.50000000  1
  V  V7  1  0.71297473  0.81610704  0.50000000  1
  O  O8  1  0.24611672  0.24188830  0.97712163  1
  O  O9  1  0.26899509  0.75811170  0.02287837  1
  O  O10  1  0.74611672  0.23523333  0.97712163  1
  O  O11  1  0.76899509  0.76476667  0.02287837  1
  O  O12  1  0.16756423  0.20044439  0.27707821  1
  O  O13  1  0.89048602  0.79955561  0.72292179  1
  O  O14  1  0.66756423  0.57663382  0.27707821  1
  O  O15  1  0.39048602  0.42336618  0.72292179  1
  O  O16  1  0.85847335  0.12557662  0.50000000  1
  O  O17  1  0.35847335  0.87442338  0.50000000  1
