# generated using pymatgen
data_LiMn2P2O9
_symmetry_space_group_name_H-M   'P 1'
_cell_length_a   6.30082432
_cell_length_b   7.53102107
_cell_length_c   13.90028043
_cell_angle_alpha   90.00000000
_cell_angle_beta   90.00000000
_cell_angle_gamma   90.00000000
_symmetry_Int_Tables_number   1
_chemical_formula_structural   LiMn2P2O9
_chemical_formula_sum   'Li4 Mn8 P8 O36'
_cell_volume   659.59111276
_cell_formula_units_Z   4
loop_
 _symmetry_equiv_pos_site_id
 _symmetry_equiv_pos_as_xyz
  1  'x, y, z'
loop_
 _atom_site_type_symbol
 _atom_site_label
 _atom_site_symmetry_multiplicity
 _atom_site_fract_x
 _atom_site_fract_y
 _atom_site_fract_z
 _atom_site_occupancy
  Li  Li0  1  0.75000000  0.93869756  0.77944188  1
  Li  Li1  1  0.75000000  0.56130244  0.27944188  1
  Li  Li2  1  0.25000100  0.43869656  0.72055812  1
  Li  Li3  1  0.25000100  0.06130244  0.22055812  1
  Mn  Mn4  1  0.75000000  0.35284488  0.87824443  1
  Mn  Mn5  1  0.25000100  0.64715512  0.12175557  1
  Mn  Mn6  1  0.25000100  0.85284488  0.62175557  1
  Mn  Mn7  1  0.75000000  0.14715512  0.37824443  1
  Mn  Mn8  1  0.50000000  -0.00000000  -0.00000000  1
  Mn  Mn9  1  0.50000000  0.50000000  0.50000000  1
  Mn  Mn10  1  0.00000000  0.50000000  0.50000000  1
  Mn  Mn11  1  0.00000000  -0.00000000  -0.00000000  1
  P  P12  1  0.25000100  0.36642618  0.93287228  1
  P  P13  1  0.75000000  0.63357382  0.06712872  1
  P  P14  1  0.75000000  0.86642618  0.56712772  1
  P  P15  1  0.25000100  0.13357482  0.43287228  1
  P  P16  1  0.75000000  0.39385042  0.69295194  1
  P  P17  1  0.75000000  0.10614958  0.19295194  1
  P  P18  1  0.25000100  0.89385042  0.80704806  1
  P  P19  1  0.25000100  0.60614858  0.30704806  1
  O  O20  1  0.04534055  0.59500642  0.36775431  1
  O  O21  1  0.54533955  0.40499258  0.63224569  1
  O  O22  1  0.95465945  0.09500642  0.13224569  1
  O  O23  1  0.45465945  0.90499358  0.86775431  1
  O  O24  1  0.95465945  0.40499258  0.63224569  1
  O  O25  1  0.45465945  0.59500642  0.36775431  1
  O  O26  1  0.04534055  0.90499358  0.86775431  1
  O  O27  1  0.54533955  0.09500642  0.13224569  1
  O  O28  1  0.25000100  0.31509344  0.48514618  1
  O  O29  1  0.75000000  0.68490756  0.51485382  1
  O  O30  1  0.75000000  0.81509244  0.01485282  1
  O  O31  1  0.25000100  0.18490756  0.98514618  1
  O  O32  1  0.75000000  0.12950533  0.94815878  1
  O  O33  1  0.25000100  0.87049467  0.05184022  1
  O  O34  1  0.25000100  0.62950533  0.55184022  1
  O  O35  1  0.75000000  0.37049567  0.44815978  1
  O  O36  1  0.75000000  0.21976648  0.75611864  1
  O  O37  1  0.25000100  0.78023352  0.24388236  1
  O  O38  1  0.25000100  0.71976648  0.74388136  1
  O  O39  1  0.75000000  0.28023452  0.25611764  1
  O  O40  1  0.44103047  0.12568377  0.36305905  1
  O  O41  1  0.94103047  0.87431623  0.63694095  1
  O  O42  1  0.55896953  0.62568277  0.13694095  1
  O  O43  1  0.05896953  0.37431623  0.86305905  1
  O  O44  1  0.55896953  0.87431623  0.63694095  1
  O  O45  1  0.05896953  0.12568377  0.36305905  1
  O  O46  1  0.44103047  0.37431623  0.86305905  1
  O  O47  1  0.94103047  0.62568277  0.13694095  1
  O  O48  1  0.75000000  0.47815292  0.99672370  1
  O  O49  1  0.25000100  0.03618944  0.72502498  1
  O  O50  1  0.25000100  0.46380956  0.22502498  1
  O  O51  1  0.75000000  0.53618944  0.77497502  1
  O  O52  1  0.75000000  0.02184708  0.49672370  1
  O  O53  1  0.25000100  0.97815292  0.50327630  1
  O  O54  1  0.25000100  0.52184608  0.00327530  1
  O  O55  1  0.75000000  0.96381056  0.27497502  1
