# generated using pymatgen
data_NdFeGe2
_symmetry_space_group_name_H-M   'P 1'
_cell_length_a   4.35675857
_cell_length_b   4.34352804
_cell_length_c   8.44416768
_cell_angle_alpha   104.90345170
_cell_angle_beta   90.00000000
_cell_angle_gamma   90.00000000
_symmetry_Int_Tables_number   1
_chemical_formula_structural   NdFeGe2
_chemical_formula_sum   'Nd2 Fe2 Ge4'
_cell_volume   154.41951408
_cell_formula_units_Z   2
loop_
 _symmetry_equiv_pos_site_id
 _symmetry_equiv_pos_as_xyz
  1  'x, y, z'
loop_
 _atom_site_type_symbol
 _atom_site_label
 _atom_site_symmetry_multiplicity
 _atom_site_fract_x
 _atom_site_fract_y
 _atom_site_fract_z
 _atom_site_occupancy
  Nd  Nd0  1  0.75000000  0.10530777  0.21061555  1
  Nd  Nd1  1  0.25000000  0.89469223  0.78938445  1
  Fe  Fe2  1  0.75000000  0.31098817  0.62197634  1
  Fe  Fe3  1  0.25000000  0.68901183  0.37802366  1
  Ge  Ge4  1  0.75000000  0.45345689  0.90691378  1
  Ge  Ge5  1  0.25000000  0.54654311  0.09308622  1
  Ge  Ge6  1  0.75000000  0.74935226  0.49870452  1
  Ge  Ge7  1  0.25000000  0.25064774  0.50129548  1
