# generated using pymatgen
data_V2Fe(PO4)3
_symmetry_space_group_name_H-M   'P 1'
_cell_length_a   8.55074893
_cell_length_b   8.64985510
_cell_length_c   8.64985503
_cell_angle_alpha   60.00000012
_cell_angle_beta   59.61584818
_cell_angle_gamma   59.61584796
_symmetry_Int_Tables_number   1
_chemical_formula_structural   V2Fe(PO4)3
_chemical_formula_sum   'V4 Fe2 P6 O24'
_cell_volume   449.73900070
_cell_formula_units_Z   2
loop_
 _symmetry_equiv_pos_site_id
 _symmetry_equiv_pos_as_xyz
  1  'x, y, z'
loop_
 _atom_site_type_symbol
 _atom_site_label
 _atom_site_symmetry_multiplicity
 _atom_site_fract_x
 _atom_site_fract_y
 _atom_site_fract_z
 _atom_site_occupancy
  V  V0  1  0.07182551  0.64272450  0.64272450  1
  V  V1  1  0.57182551  0.14272450  0.14272450  1
  V  V2  1  0.42817449  0.85727550  0.85727550  1
  V  V3  1  0.92817449  0.35727550  0.35727550  1
  Fe  Fe4  1  -0.00000000  0.00000000  0.00000000  1
  Fe  Fe5  1  0.50000000  0.50000000  0.50000000  1
  P  P6  1  0.25000000  0.25000000  0.54155212  1
  P  P7  1  0.25000000  0.95844788  0.25000000  1
  P  P8  1  0.25000000  0.54155212  0.95844788  1
  P  P9  1  0.75000000  0.45844788  0.04155212  1
  P  P10  1  0.75000000  0.04155212  0.75000000  1
  P  P11  1  0.75000000  0.75000000  0.45844788  1
  O  O12  1  0.06677872  0.11864920  0.30919986  1
  O  O13  1  0.06677872  0.50537223  0.11864920  1
  O  O14  1  0.06677872  0.30919986  0.50537223  1
  O  O15  1  0.23344178  0.08736305  0.73726165  1
  O  O16  1  0.43322128  0.19080014  0.38135080  1
  O  O17  1  0.26655822  0.41263695  0.55806647  1
  O  O18  1  0.23344178  0.94193353  0.08736305  1
  O  O19  1  0.26655822  0.76273835  0.41263695  1
  O  O20  1  0.56677872  0.61864920  0.00537223  1
  O  O21  1  0.26655822  0.55806647  0.76273835  1
  O  O22  1  0.76655822  0.26273835  0.05806647  1
  O  O23  1  0.56677872  0.00537223  0.80919986  1
  O  O24  1  0.43322128  0.99462777  0.19080014  1
  O  O25  1  0.23344178  0.73726165  0.94193353  1
  O  O26  1  0.73344178  0.44193353  0.23726165  1
  O  O27  1  0.43322128  0.38135080  0.99462777  1
  O  O28  1  0.73344178  0.23726165  0.58736305  1
  O  O29  1  0.76655822  0.05806647  0.91263695  1
  O  O30  1  0.73344178  0.58736305  0.44193353  1
  O  O31  1  0.56677872  0.80919986  0.61864920  1
  O  O32  1  0.76655822  0.91263695  0.26273835  1
  O  O33  1  0.93322128  0.69080014  0.49462777  1
  O  O34  1  0.93322128  0.49462777  0.88135080  1
  O  O35  1  0.93322128  0.88135080  0.69080014  1
