# generated using pymatgen
data_NaLi2FePCO7
_symmetry_space_group_name_H-M   'P 1'
_cell_length_a   8.65748601
_cell_length_b   6.69448383
_cell_length_c   10.09361667
_cell_angle_alpha   89.44446521
_cell_angle_beta   87.71595135
_cell_angle_gamma   89.65395945
_symmetry_Int_Tables_number   1
_chemical_formula_structural   NaLi2FePCO7
_chemical_formula_sum   'Na4 Li8 Fe4 P4 C4 O28'
_cell_volume   584.49818329
_cell_formula_units_Z   4
loop_
 _symmetry_equiv_pos_site_id
 _symmetry_equiv_pos_as_xyz
  1  'x, y, z'
loop_
 _atom_site_type_symbol
 _atom_site_label
 _atom_site_symmetry_multiplicity
 _atom_site_fract_x
 _atom_site_fract_y
 _atom_site_fract_z
 _atom_site_occupancy
  Na  Na0  1  0.08302462  0.25106971  0.87549229  1
  Na  Na1  1  0.25525579  0.00236927  0.12612978  1
  Na  Na2  1  0.25182211  0.49957754  0.12487888  1
  Na  Na3  1  0.74406635  0.50166462  0.37419881  1
  Li  Li4  1  0.09837313  0.23508083  0.38402044  1
  Li  Li5  1  0.27987461  0.03155552  0.61261873  1
  Li  Li6  1  0.28193932  0.46310732  0.61094664  1
  Li  Li7  1  0.72287614  0.53022869  0.88789030  1
  Li  Li8  1  0.72242328  0.96766396  0.88253075  1
  Li  Li9  1  0.73089738  0.98907952  0.37900876  1
  Li  Li10  1  0.90482731  0.75665913  0.62637782  1
  Li  Li11  1  0.89473087  0.76299651  0.12052664  1
  Fe  Fe12  1  0.35168338  0.75243523  0.87979539  1
  Fe  Fe13  1  0.35111567  0.75192610  0.39565892  1
  Fe  Fe14  1  0.66175485  0.24293581  0.61573166  1
  Fe  Fe15  1  0.64546249  0.24622707  0.10616318  1
  P  P16  1  0.41907508  0.25148156  0.84744657  1
  P  P17  1  0.41360380  0.24629964  0.36247483  1
  P  P18  1  0.59423277  0.74838863  0.64606257  1
  P  P19  1  0.58974584  0.75389557  0.13852853  1
  C  C20  1  0.03801882  0.75161816  0.86572179  1
  C  C21  1  0.04272516  0.76081891  0.36303555  1
  C  C22  1  0.96687241  0.24822593  0.62615915  1
  C  C23  1  0.93612653  0.24269714  0.15373272  1
  O  O24  1  0.11437776  0.25090894  0.64498987  1
  O  O25  1  0.08027725  0.24994944  0.18376834  1
  O  O26  1  0.07325671  0.75328543  0.98957816  1
  O  O27  1  0.07253468  0.75495197  0.48746608  1
  O  O28  1  0.14793118  0.75632717  0.77356620  1
  O  O29  1  0.15876225  0.74994842  0.27545822  1
  O  O30  1  0.32581225  0.06756611  0.89889722  1
  O  O31  1  0.32375683  0.43683488  0.89337916  1
  O  O32  1  0.30535541  0.06933268  0.40648748  1
  O  O33  1  0.32308549  0.43535577  0.41131848  1
  O  O34  1  0.43104435  0.24731529  0.69170771  1
  O  O35  1  0.42666811  0.75345355  0.59398396  1
  O  O36  1  0.43347311  0.25213168  0.20787679  1
  O  O37  1  0.42919799  0.74729053  0.07777525  1
  O  O38  1  0.58706092  0.25437712  0.89765363  1
  O  O39  1  0.57962156  0.75650550  0.80124261  1
  O  O40  1  0.57417322  0.22742402  0.42182622  1
  O  O41  1  0.56839003  0.77262767  0.29253905  1
  O  O42  1  0.68712864  0.55969342  0.60381566  1
  O  O43  1  0.69485237  0.92582393  0.59239183  1
  O  O44  1  0.68986362  0.56663720  0.10171711  1
  O  O45  1  0.68897022  0.93077419  0.08149000  1
  O  O46  1  0.86817336  0.23884638  0.72739390  1
  O  O47  1  0.82858556  0.22453880  0.24653342  1
  O  O48  1  0.91481520  0.25392248  0.50771682  1
  O  O49  1  0.89405061  0.25387672  0.03192637  1
  O  O50  1  0.89470117  0.74550259  0.83109887  1
  O  O51  1  0.90355245  0.77679874  0.32126994  1
