# generated using pymatgen
data_TiZn2O4
_symmetry_space_group_name_H-M   'P 1'
_cell_length_a   6.08498969
_cell_length_b   6.08498969
_cell_length_c   8.47019648
_cell_angle_alpha   90.00000000
_cell_angle_beta   90.00000000
_cell_angle_gamma   90.00000000
_symmetry_Int_Tables_number   1
_chemical_formula_structural   TiZn2O4
_chemical_formula_sum   'Ti4 Zn8 O16'
_cell_volume   313.62680808
_cell_formula_units_Z   4
loop_
 _symmetry_equiv_pos_site_id
 _symmetry_equiv_pos_as_xyz
  1  'x, y, z'
loop_
 _atom_site_type_symbol
 _atom_site_label
 _atom_site_symmetry_multiplicity
 _atom_site_fract_x
 _atom_site_fract_y
 _atom_site_fract_z
 _atom_site_occupancy
  Ti  Ti0  1  0.23858351  0.50000000  0.25000000  1
  Ti  Ti1  1  0.50000000  0.76141649  0.50000000  1
  Ti  Ti2  1  0.50000000  0.23858351  -0.00000000  1
  Ti  Ti3  1  0.76141649  0.50000000  0.75000000  1
  Zn  Zn4  1  -0.00000000  0.24321489  0.00000000  1
  Zn  Zn5  1  -0.00000000  0.75678511  0.50000000  1
  Zn  Zn6  1  0.25382786  0.25382786  0.62500000  1
  Zn  Zn7  1  0.25382786  0.74617214  0.87500000  1
  Zn  Zn8  1  0.24321489  0.00000000  0.25000000  1
  Zn  Zn9  1  0.75678511  -0.00000000  0.75000000  1
  Zn  Zn10  1  0.74617214  0.25382786  0.37500000  1
  Zn  Zn11  1  0.74617214  0.74617214  0.12500000  1
  O  O12  1  0.51579714  0.73370504  0.73309804  1
  O  O13  1  0.51579714  0.26629496  0.76690196  1
  O  O14  1  0.73429811  0.97437661  0.49857389  1
  O  O15  1  0.73429811  0.02562339  0.00142611  1
  O  O16  1  0.73370504  0.51579714  0.51690196  1
  O  O17  1  0.73370504  0.48420286  0.98309804  1
  O  O18  1  0.97437661  0.73429811  0.75142611  1
  O  O19  1  0.97437661  0.26570189  0.74857389  1
  O  O20  1  0.02562339  0.73429811  0.24857389  1
  O  O21  1  0.02562339  0.26570189  0.25142611  1
  O  O22  1  0.26629496  0.51579714  0.48309804  1
  O  O23  1  0.26629496  0.48420286  0.01690196  1
  O  O24  1  0.26570189  0.97437661  0.50142611  1
  O  O25  1  0.26570189  0.02562339  0.99857389  1
  O  O26  1  0.48420286  0.73370504  0.26690196  1
  O  O27  1  0.48420286  0.26629496  0.23309804  1
