# generated using pymatgen
data_V2NiO6
_symmetry_space_group_name_H-M   'P 1'
_cell_length_a   4.87870857
_cell_length_b   7.24821669
_cell_length_c   26.55724172
_cell_angle_alpha   102.01025211
_cell_angle_beta   90.14134550
_cell_angle_gamma   94.80287615
_symmetry_Int_Tables_number   1
_chemical_formula_structural   V2NiO6
_chemical_formula_sum   'V18 Ni9 O54'
_cell_volume   915.14265032
_cell_formula_units_Z   9
loop_
 _symmetry_equiv_pos_site_id
 _symmetry_equiv_pos_as_xyz
  1  'x, y, z'
loop_
 _atom_site_type_symbol
 _atom_site_label
 _atom_site_symmetry_multiplicity
 _atom_site_fract_x
 _atom_site_fract_y
 _atom_site_fract_z
 _atom_site_occupancy
  V  V0  1  0.11440042  0.57990441  0.92110517  1
  V  V1  1  0.11461913  0.57955994  0.58714902  1
  V  V2  1  0.40985530  0.66209239  0.25840191  1
  V  V3  1  0.44941793  0.71422642  0.70241690  1
  V  V4  1  0.44978335  0.71383390  0.82250448  1
  V  V5  1  0.44100947  0.71283372  0.36958838  1
  V  V6  1  0.44898903  0.71366030  0.48830112  1
  V  V7  1  0.45117586  0.71636459  0.03657034  1
  V  V8  1  0.43861072  0.70955828  0.15381265  1
  V  V9  1  0.55113093  0.28584632  0.84421437  1
  V  V10  1  0.55445846  0.28764811  0.96456260  1
  V  V11  1  0.55396752  0.28811641  0.51067730  1
  V  V12  1  0.55092126  0.28505778  0.63042096  1
  V  V13  1  0.55394111  0.28827210  0.18233009  1
  V  V14  1  0.55175931  0.28913398  0.29486344  1
  V  V15  1  0.88647082  0.42034755  0.74577194  1
  V  V16  1  0.89347745  0.41894806  0.41189733  1
  V  V17  1  0.89271873  0.42233159  0.07995956  1
  Ni  Ni18  1  0.00086777  -0.00009871  0.66653448  1
  Ni  Ni19  1  0.00373533  0.00027640  0.33166021  1
  Ni  Ni20  1  0.00262516  0.00128669  0.00028936  1
  Ni  Ni21  1  0.00618750  0.01155685  0.88912962  1
  Ni  Ni22  1  0.00506862  0.01055260  0.55556128  1
  Ni  Ni23  1  0.00549300  0.00408532  0.22365278  1
  Ni  Ni24  1  0.99537318  0.98843327  0.77757514  1
  Ni  Ni25  1  0.99669106  0.99279935  0.44435934  1
  Ni  Ni26  1  0.00485840  0.00281196  0.11238469  1
  O  O27  1  0.10568521  0.82066207  0.93382942  1
  O  O28  1  0.10601035  0.82022291  0.60021813  1
  O  O29  1  0.16575101  0.83031236  0.26812023  1
  O  O30  1  0.16765341  0.84788592  0.71312197  1
  O  O31  1  0.17090229  0.85440527  0.37984536  1
  O  O32  1  0.17027716  0.85079121  0.04733779  1
  O  O33  1  0.16580458  0.84630379  0.82710980  1
  O  O34  1  0.16427129  0.84577660  0.49336642  1
  O  O35  1  0.16728812  0.84878320  0.15973700  1
  O  O36  1  0.21493483  0.53133272  0.75183518  1
  O  O37  1  0.22548524  0.53590352  0.41732332  1
  O  O38  1  0.22815844  0.53609869  0.08742775  1
  O  O39  1  0.29177206  0.52116774  0.86163482  1
  O  O40  1  0.29211899  0.52129836  0.52748767  1
  O  O41  1  0.28740794  0.53348306  0.19396389  1
  O  O42  1  0.29451282  0.52573017  0.97467315  1
  O  O43  1  0.29431376  0.52430267  0.64052056  1
  O  O44  1  0.29225304  0.53637455  0.30995209  1
  O  O45  1  0.34962921  0.16556974  0.99763969  1
  O  O46  1  0.34762749  0.16376479  0.66386696  1
  O  O47  1  0.34943579  0.16631447  0.79647606  1
  O  O48  1  0.34160860  0.17917533  0.33107584  1
  O  O49  1  0.35100203  0.16732687  0.46316175  1
  O  O50  1  0.34514290  0.18104023  0.13270631  1
  O  O51  1  0.36883793  0.20787683  0.90009747  1
  O  O52  1  0.36829113  0.20811060  0.56635985  1
  O  O53  1  0.35902739  0.18433780  0.23241194  1
  O  O54  1  0.63354199  0.79270811  0.76693569  1
  O  O55  1  0.63153728  0.79742169  0.43239282  1
  O  O56  1  0.63368257  0.79618010  0.10159741  1
  O  O57  1  0.65209622  0.83348155  0.87031388  1
  O  O58  1  0.65005851  0.83253603  0.53635181  1
  O  O59  1  0.65387593  0.83585178  0.66924031  1
  O  O60  1  0.63256985  0.80960994  0.21090771  1
  O  O61  1  0.63750949  0.81518828  0.32541928  1
  O  O62  1  0.65520138  0.83709572  0.00305713  1
  O  O63  1  0.70623385  0.47599036  0.69269920  1
  O  O64  1  0.71846553  0.47847078  0.36063599  1
  O  O65  1  0.71066122  0.47865932  0.02674538  1
  O  O66  1  0.70771662  0.47871732  0.80530847  1
  O  O67  1  0.71232226  0.47975172  0.47128099  1
  O  O68  1  0.72040263  0.47931012  0.13804424  1
  O  O69  1  0.78544343  0.46952210  0.91507738  1
  O  O70  1  0.78537744  0.46973832  0.58143840  1
  O  O71  1  0.67691971  0.47388993  0.24860372  1
  O  O72  1  0.83547030  0.15388212  0.83965260  1
  O  O73  1  0.83646519  0.15451089  0.50660029  1
  O  O74  1  0.83218460  0.14994251  0.17538435  1
  O  O75  1  0.83518201  0.15326488  0.95360765  1
  O  O76  1  0.83362907  0.15214387  0.62012686  1
  O  O77  1  0.83152483  0.15226440  0.28615859  1
  O  O78  1  0.89535964  0.17964362  0.73294722  1
  O  O79  1  0.89403798  0.17636635  0.39887687  1
  O  O80  1  0.89802063  0.18096718  0.06620084  1
