# generated using pymatgen
data_TmGaO3
_symmetry_space_group_name_H-M   'P 1'
_cell_length_a   3.49442881
_cell_length_b   3.49452722
_cell_length_c   11.70390406
_cell_angle_alpha   90.00044264
_cell_angle_beta   89.99993712
_cell_angle_gamma   119.99970908
_symmetry_Int_Tables_number   1
_chemical_formula_structural   TmGaO3
_chemical_formula_sum   'Tm2 Ga2 O6'
_cell_volume   123.77338899
_cell_formula_units_Z   2
loop_
 _symmetry_equiv_pos_site_id
 _symmetry_equiv_pos_as_xyz
  1  'x, y, z'
loop_
 _atom_site_type_symbol
 _atom_site_label
 _atom_site_symmetry_multiplicity
 _atom_site_fract_x
 _atom_site_fract_y
 _atom_site_fract_z
 _atom_site_occupancy
  Tm  Tm0  1  0.99999298  0.00002943  0.00000151  1
  Tm  Tm1  1  0.00000420  0.99999282  0.49999772  1
  Ga  Ga2  1  0.33331308  0.66668075  0.24999866  1
  Ga  Ga3  1  0.66669828  0.33339841  0.75000111  1
  O  O4  1  0.33332324  0.66669303  0.08603061  1
  O  O5  1  0.99998044  0.00001233  0.25000059  1
  O  O6  1  0.33333088  0.66666638  0.41397082  1
  O  O7  1  0.00001704  0.00002675  0.74999991  1
  O  O8  1  0.66666518  0.33336580  0.91396669  1
  O  O9  1  0.66667569  0.33333329  0.58603138  1
