# generated using pymatgen
data_LiCr2(PO4)3
_symmetry_space_group_name_H-M   'P 1'
_cell_length_a   8.52395502
_cell_length_b   8.54567406
_cell_length_c   12.11720010
_cell_angle_alpha   90.00000000
_cell_angle_beta   89.87335198
_cell_angle_gamma   90.00000000
_symmetry_Int_Tables_number   1
_chemical_formula_structural   LiCr2(PO4)3
_chemical_formula_sum   'Li4 Cr8 P12 O48'
_cell_volume   882.65033966
_cell_formula_units_Z   4
loop_
 _symmetry_equiv_pos_site_id
 _symmetry_equiv_pos_as_xyz
  1  'x, y, z'
loop_
 _atom_site_type_symbol
 _atom_site_label
 _atom_site_symmetry_multiplicity
 _atom_site_fract_x
 _atom_site_fract_y
 _atom_site_fract_z
 _atom_site_occupancy
  Li  Li0  1  0.50000000  0.50000000  0.50000000  1
  Li  Li1  1  0.00000000  0.00000000  0.00000000  1
  Li  Li2  1  0.00000000  0.00000000  0.50000000  1
  Li  Li3  1  0.50000000  0.50000000  0.00000000  1
  Cr  Cr4  1  0.28006883  0.00314836  0.36017293  1
  Cr  Cr5  1  0.28006883  0.99685164  0.86017293  1
  Cr  Cr6  1  0.77923169  0.49719039  0.85605618  1
  Cr  Cr7  1  0.71993117  0.00314836  0.13982707  1
  Cr  Cr8  1  0.77923169  0.50280961  0.35605618  1
  Cr  Cr9  1  0.22076831  0.49719039  0.64394382  1
  Cr  Cr10  1  0.71993117  0.99685164  0.63982707  1
  Cr  Cr11  1  0.22076831  0.50280961  0.14394382  1
  P  P12  1  0.00000000  0.79448448  0.25000000  1
  P  P13  1  0.14905378  0.35843912  0.39384503  1
  P  P14  1  0.64706546  0.85479427  0.89535169  1
  P  P15  1  0.85094622  0.35843912  0.10615497  1
  P  P16  1  0.14905378  0.64156088  0.89384503  1
  P  P17  1  0.00000000  0.20551552  0.75000000  1
  P  P18  1  0.64706546  0.14520573  0.39535169  1
  P  P19  1  0.50000000  0.28771911  0.75000000  1
  P  P20  1  0.35293454  0.85479427  0.60464831  1
  P  P21  1  0.50000000  0.71228089  0.25000000  1
  P  P22  1  0.35293454  0.14520573  0.10464831  1
  P  P23  1  0.85094622  0.64156088  0.60615497  1
  O  O24  1  0.24828619  0.42414575  0.49034941  1
  O  O25  1  0.07211381  0.09940031  0.84044521  1
  O  O26  1  0.42626119  0.39646751  0.66157121  1
  O  O27  1  0.97869510  0.41303578  0.39613757  1
  O  O28  1  0.47300975  0.10267888  0.40701092  1
  O  O29  1  0.57373881  0.60353249  0.33842879  1
  O  O30  1  0.24828619  0.57585425  0.99034941  1
  O  O31  1  0.14621601  0.17765957  0.40966466  1
  O  O32  1  0.62073978  0.18910780  0.68651735  1
  O  O33  1  0.57373881  0.39646751  0.83842879  1
  O  O34  1  0.52699025  0.89732112  0.59298908  1
  O  O35  1  0.12711022  0.30393389  0.69266170  1
  O  O36  1  0.14621601  0.82234043  0.90966466  1
  O  O37  1  0.02130490  0.58696422  0.60386243  1
  O  O38  1  0.75052161  0.06976387  0.48643696  1
  O  O39  1  0.34430205  0.67476673  0.58653008  1
  O  O40  1  0.24947839  0.06976387  0.01356304  1
  O  O41  1  0.87288978  0.30393389  0.80733830  1
  O  O42  1  0.34430205  0.32523327  0.08653008  1
  O  O43  1  0.65569795  0.67476673  0.91346992  1
  O  O44  1  0.47300975  0.89732112  0.90701092  1
  O  O45  1  0.27985379  0.09426986  0.21442637  1
  O  O46  1  0.76349964  0.59194584  0.71153854  1
  O  O47  1  0.02130490  0.41303578  0.10386243  1
  O  O48  1  0.72014621  0.90573014  0.78557363  1
  O  O49  1  0.07211381  0.90059969  0.34044521  1
  O  O50  1  0.75052161  0.93023613  0.98643696  1
  O  O51  1  0.27985379  0.90573014  0.71442637  1
  O  O52  1  0.85378399  0.82234043  0.59033534  1
  O  O53  1  0.62073978  0.81089220  0.18651735  1
  O  O54  1  0.75171381  0.57585425  0.50965059  1
  O  O55  1  0.24947839  0.93023613  0.51356304  1
  O  O56  1  0.65569795  0.32523327  0.41346992  1
  O  O57  1  0.76349964  0.40805416  0.21153854  1
  O  O58  1  0.12711022  0.69606611  0.19266170  1
  O  O59  1  0.85378399  0.17765957  0.09033534  1
  O  O60  1  0.42626119  0.60353249  0.16157121  1
  O  O61  1  0.97869510  0.58696422  0.89613757  1
  O  O62  1  0.52699025  0.10267888  0.09298908  1
  O  O63  1  0.92788619  0.09940031  0.65955479  1
  O  O64  1  0.72014621  0.09426986  0.28557363  1
  O  O65  1  0.37926022  0.18910780  0.81348265  1
  O  O66  1  0.23650036  0.40805416  0.28846146  1
  O  O67  1  0.87288978  0.69606611  0.30733830  1
  O  O68  1  0.23650036  0.59194584  0.78846146  1
  O  O69  1  0.75171381  0.42414575  0.00965059  1
  O  O70  1  0.92788619  0.90059969  0.15955479  1
  O  O71  1  0.37926022  0.81089220  0.31348265  1
