# generated using pymatgen
data_Na2CuO2
_symmetry_space_group_name_H-M   'P 1'
_cell_length_a   11.49088975
_cell_length_b   5.70762968
_cell_length_c   8.76589171
_cell_angle_alpha   90.00000000
_cell_angle_beta   92.48241531
_cell_angle_gamma   90.00000000
_symmetry_Int_Tables_number   1
_chemical_formula_structural   Na2CuO2
_chemical_formula_sum   'Na16 Cu8 O16'
_cell_volume   574.37799973
_cell_formula_units_Z   8
loop_
 _symmetry_equiv_pos_site_id
 _symmetry_equiv_pos_as_xyz
  1  'x, y, z'
loop_
 _atom_site_type_symbol
 _atom_site_label
 _atom_site_symmetry_multiplicity
 _atom_site_fract_x
 _atom_site_fract_y
 _atom_site_fract_z
 _atom_site_occupancy
  Na  Na0  1  0.02512713  0.53065593  0.85379508  1
  Na  Na1  1  0.07317899  0.89429948  0.51413751  1
  Na  Na2  1  0.13405210  0.57361068  0.19203738  1
  Na  Na3  1  0.21070969  0.35285812  0.56414348  1
  Na  Na4  1  0.29201311  0.64963257  0.94571282  1
  Na  Na5  1  0.37221969  0.44742048  0.31494101  1
  Na  Na6  1  0.48555572  0.45025371  0.66219485  1
  Na  Na7  1  0.42477595  0.09726703  0.99098031  1
  Na  Na8  1  0.57522405  0.59726703  0.00901969  1
  Na  Na9  1  0.51444428  0.95025371  0.33780515  1
  Na  Na10  1  0.62778031  0.94742048  0.68505899  1
  Na  Na11  1  0.70798689  0.14963257  0.05428718  1
  Na  Na12  1  0.78929031  0.85285812  0.43585652  1
  Na  Na13  1  0.86594790  0.07361068  0.80796262  1
  Na  Na14  1  0.92682101  0.39429948  0.48586249  1
  Na  Na15  1  0.97487287  0.03065593  0.14620492  1
  Cu  Cu16  1  0.11785697  0.08176095  0.83330515  1
  Cu  Cu17  1  0.21472594  0.05513748  0.11382405  1
  Cu  Cu18  1  0.28350087  0.96787014  0.38723430  1
  Cu  Cu19  1  0.37545235  0.89561759  0.66502011  1
  Cu  Cu20  1  0.62454765  0.39561759  0.33497989  1
  Cu  Cu21  1  0.71649913  0.46787014  0.61276570  1
  Cu  Cu22  1  0.78527406  0.55513748  0.88617595  1
  Cu  Cu23  1  0.88214303  0.58176095  0.16669485  1
  O  O24  1  0.04131225  0.22202488  0.66658944  1
  O  O25  1  0.11216260  0.83827261  0.97847748  1
  O  O26  1  0.22232597  0.28328526  0.95378224  1
  O  O27  1  0.19288209  0.22159738  0.30019805  1
  O  O28  1  0.26578767  0.72069513  0.53720505  1
  O  O29  1  0.32740370  0.80453562  0.19375545  1
  O  O30  1  0.38743551  0.15400997  0.53033648  1
  O  O31  1  0.45864522  0.77896201  0.83167444  1
  O  O32  1  0.54135478  0.27896201  0.16832556  1
  O  O33  1  0.61256449  0.65400997  0.46966352  1
  O  O34  1  0.67259630  0.30453562  0.80624455  1
  O  O35  1  0.73421233  0.22069513  0.46279495  1
  O  O36  1  0.80711791  0.72159738  0.69980195  1
  O  O37  1  0.77767403  0.78328526  0.04621776  1
  O  O38  1  0.88783740  0.33827261  0.02152252  1
  O  O39  1  0.95868775  0.72202488  0.33341056  1
