# generated using pymatgen
data_NaLi5Fe2P2(CO7)2
_symmetry_space_group_name_H-M   'P 1'
_cell_length_a   8.55530024
_cell_length_b   6.55380869
_cell_length_c   10.18682606
_cell_angle_alpha   90.00000000
_cell_angle_beta   84.52535722
_cell_angle_gamma   90.00000000
_symmetry_Int_Tables_number   1
_chemical_formula_structural   NaLi5Fe2P2(CO7)2
_chemical_formula_sum   'Na2 Li10 Fe4 P4 C4 O28'
_cell_volume   568.56791441
_cell_formula_units_Z   2
loop_
 _symmetry_equiv_pos_site_id
 _symmetry_equiv_pos_as_xyz
  1  'x, y, z'
loop_
 _atom_site_type_symbol
 _atom_site_label
 _atom_site_symmetry_multiplicity
 _atom_site_fract_x
 _atom_site_fract_y
 _atom_site_fract_z
 _atom_site_occupancy
  Na  Na0  1  0.26018817  0.00348678  0.63404257  1
  Na  Na1  1  0.26018817  0.49651322  0.13404257  1
  Li  Li2  1  0.09879024  0.26280800  0.88591045  1
  Li  Li3  1  0.09879024  0.23719200  0.38591045  1
  Li  Li4  1  0.28458208  0.47024690  0.62673716  1
  Li  Li5  1  0.28458208  0.02975310  0.12673716  1
  Li  Li6  1  0.71827688  0.52900864  0.87499296  1
  Li  Li7  1  0.72541434  0.98099774  0.87116446  1
  Li  Li8  1  0.72541434  0.51900226  0.37116446  1
  Li  Li9  1  0.71827688  0.97099136  0.37499296  1
  Li  Li10  1  0.90617784  0.73063588  0.62211706  1
  Li  Li11  1  0.90617784  0.76936412  0.12211706  1
  Fe  Fe12  1  0.33530346  0.75507916  0.89264373  1
  Fe  Fe13  1  0.33530346  0.74492084  0.39264373  1
  Fe  Fe14  1  0.66974242  0.24652385  0.60267077  1
  Fe  Fe15  1  0.66974242  0.25347615  0.10267077  1
  P  P16  1  0.41454163  0.25433757  0.85700525  1
  P  P17  1  0.41454163  0.24566243  0.35700525  1
  P  P18  1  0.59044325  0.74114049  0.63457405  1
  P  P19  1  0.59044325  0.75885951  0.13457405  1
  C  C20  1  0.03237015  0.74383191  0.85398307  1
  C  C21  1  0.03237015  0.75616809  0.35398307  1
  C  C22  1  0.96306275  0.25702614  0.65495824  1
  C  C23  1  0.96306275  0.24297386  0.15495824  1
  O  O24  1  0.10311780  0.28328231  0.68996853  1
  O  O25  1  0.10311780  0.21671769  0.18996853  1
  O  O26  1  0.06564977  0.74178297  0.97516201  1
  O  O27  1  0.06564977  0.75821703  0.47516201  1
  O  O28  1  0.14776882  0.74465716  0.76062614  1
  O  O29  1  0.14776882  0.75534284  0.26062614  1
  O  O30  1  0.30573096  0.06972100  0.90310284  1
  O  O31  1  0.31476672  0.44195040  0.90927206  1
  O  O32  1  0.31476672  0.05804960  0.40927206  1
  O  O33  1  0.30573096  0.43027900  0.40310284  1
  O  O34  1  0.43742562  0.26287464  0.70358501  1
  O  O35  1  0.42746185  0.71843836  0.58370748  1
  O  O36  1  0.43742562  0.23712536  0.20358501  1
  O  O37  1  0.42746185  0.78156164  0.08370748  1
  O  O38  1  0.57613117  0.24353172  0.91120100  1
  O  O39  1  0.57104288  0.74996128  0.78877108  1
  O  O40  1  0.57613117  0.25646828  0.41120100  1
  O  O41  1  0.57104288  0.75003872  0.28877108  1
  O  O42  1  0.70308147  0.56223512  0.58658380  1
  O  O43  1  0.68021995  0.93360885  0.57760926  1
  O  O44  1  0.68021995  0.56639115  0.07760926  1
  O  O45  1  0.70308147  0.93776488  0.08658380  1
  O  O46  1  0.84421285  0.23984080  0.74538491  1
  O  O47  1  0.84421285  0.26015920  0.24538491  1
  O  O48  1  0.93582216  0.24779250  0.53217473  1
  O  O49  1  0.93582216  0.25220750  0.03217473  1
  O  O50  1  0.88867176  0.74534010  0.82205239  1
  O  O51  1  0.88867176  0.75465990  0.32205239  1
