# generated using pymatgen
data_K(IrO2)4
_symmetry_space_group_name_H-M   'P 1'
_cell_length_a   3.21340396
_cell_length_b   7.31203311
_cell_length_c   7.31203311
_cell_angle_alpha   87.23251117
_cell_angle_beta   77.30659242
_cell_angle_gamma   77.30659242
_symmetry_Int_Tables_number   1
_chemical_formula_structural   K(IrO2)4
_chemical_formula_sum   'K1 Ir4 O8'
_cell_volume   163.51192988
_cell_formula_units_Z   1
loop_
 _symmetry_equiv_pos_site_id
 _symmetry_equiv_pos_as_xyz
  1  'x, y, z'
loop_
 _atom_site_type_symbol
 _atom_site_label
 _atom_site_symmetry_multiplicity
 _atom_site_fract_x
 _atom_site_fract_y
 _atom_site_fract_z
 _atom_site_occupancy
  K  K0  1  0.50000000  -0.00000000  0.00000000  1
  Ir  Ir1  1  0.83381602  0.51746721  0.81490074  1
  Ir  Ir2  1  0.16618398  0.48253279  0.18509926  1
  Ir  Ir3  1  0.35128323  0.81490074  0.48253279  1
  Ir  Ir4  1  0.64871677  0.18509926  0.51746721  1
  O  O5  1  0.45323873  0.38709075  0.70643179  1
  O  O6  1  0.54676127  0.61290925  0.29356821  1
  O  O7  1  0.84032948  0.70643179  0.61290925  1
  O  O8  1  0.15967052  0.29356821  0.38709075  1
  O  O9  1  0.20257095  0.64738337  0.94747472  1
  O  O10  1  0.79742905  0.35261663  0.05252528  1
  O  O11  1  0.84995433  0.94747472  0.35261663  1
  O  O12  1  0.15004567  0.05252528  0.64738337  1
