# generated using pymatgen
data_Tb(CoGe)6
_symmetry_space_group_name_H-M   'P 1'
_cell_length_a   5.09914628
_cell_length_b   5.09890939
_cell_length_c   7.87833789
_cell_angle_alpha   90.00000000
_cell_angle_beta   90.00000000
_cell_angle_gamma   120.00154161
_symmetry_Int_Tables_number   1
_chemical_formula_structural   Tb(CoGe)6
_chemical_formula_sum   'Tb1 Co6 Ge6'
_cell_volume   177.39168255
_cell_formula_units_Z   1
loop_
 _symmetry_equiv_pos_site_id
 _symmetry_equiv_pos_as_xyz
  1  'x, y, z'
loop_
 _atom_site_type_symbol
 _atom_site_label
 _atom_site_symmetry_multiplicity
 _atom_site_fract_x
 _atom_site_fract_y
 _atom_site_fract_z
 _atom_site_occupancy
  Tb  Tb0  1  0.99998099  1.00000000  -0.00000000  1
  Co  Co1  1  0.49998856  0.00000000  0.25091369  1
  Co  Co2  1  0.49998766  0.50000170  0.25090467  1
  Co  Co3  1  0.99998596  0.49999830  0.25090467  1
  Co  Co4  1  0.49998856  0.00000000  0.74908631  1
  Co  Co5  1  0.49998766  0.50000170  0.74909533  1
  Co  Co6  1  0.99998596  0.49999830  0.74909533  1
  Ge  Ge7  1  0.33332592  0.66668056  0.00000000  1
  Ge  Ge8  1  0.66664536  0.33331944  -0.00000000  1
  Ge  Ge9  1  0.33330703  0.66666847  0.50000000  1
  Ge  Ge10  1  0.66663857  0.33333153  0.50000000  1
  Ge  Ge11  1  0.99998888  0.00000000  0.34488830  1
  Ge  Ge12  1  0.99998888  0.00000000  0.65511170  1
