# generated using pymatgen
data_Mg2BBrN2
_symmetry_space_group_name_H-M   'P 1'
_cell_length_a   5.69037101
_cell_length_b   5.69037101
_cell_length_c   6.56604867
_cell_angle_alpha   74.30719408
_cell_angle_beta   74.30719408
_cell_angle_gamma   72.00767348
_symmetry_Int_Tables_number   1
_chemical_formula_structural   Mg2BBrN2
_chemical_formula_sum   'Mg4 B2 Br2 N4'
_cell_volume   190.57624152
_cell_formula_units_Z   2
loop_
 _symmetry_equiv_pos_site_id
 _symmetry_equiv_pos_as_xyz
  1  'x, y, z'
loop_
 _atom_site_type_symbol
 _atom_site_label
 _atom_site_symmetry_multiplicity
 _atom_site_fract_x
 _atom_site_fract_y
 _atom_site_fract_z
 _atom_site_occupancy
  Mg  Mg0  1  0.13853806  0.34432910  0.83791820  1
  Mg  Mg1  1  0.65567090  0.86146194  0.66208180  1
  Mg  Mg2  1  0.86146194  0.65567090  0.16208180  1
  Mg  Mg3  1  0.34432910  0.13853806  0.33791820  1
  B  B4  1  0.88472916  0.11527084  0.25000000  1
  B  B5  1  0.11527084  0.88472916  0.75000000  1
  Br  Br6  1  0.36923735  0.63076265  0.25000000  1
  Br  Br7  1  0.63076265  0.36923735  0.75000000  1
  N  N8  1  0.04131920  0.26890110  0.18037902  1
  N  N9  1  0.73109890  0.95868080  0.31962098  1
  N  N10  1  0.95868080  0.73109890  0.81962098  1
  N  N11  1  0.26890110  0.04131920  0.68037902  1
