# generated using pymatgen
data_NaBH4
_symmetry_space_group_name_H-M   'P 1'
_cell_length_a   4.39788834
_cell_length_b   4.66271354
_cell_length_c   7.63104383
_cell_angle_alpha   79.21702573
_cell_angle_beta   90.00000000
_cell_angle_gamma   90.00000000
_symmetry_Int_Tables_number   1
_chemical_formula_structural   NaBH4
_chemical_formula_sum   'Na2 B2 H8'
_cell_volume   153.71986238
_cell_formula_units_Z   2
loop_
 _symmetry_equiv_pos_site_id
 _symmetry_equiv_pos_as_xyz
  1  'x, y, z'
loop_
 _atom_site_type_symbol
 _atom_site_label
 _atom_site_symmetry_multiplicity
 _atom_site_fract_x
 _atom_site_fract_y
 _atom_site_fract_z
 _atom_site_occupancy
  Na  Na0  1  0.00000000  0.15361717  0.92247631  1
  Na  Na1  1  0.00000000  0.96831387  0.41254448  1
  B  B2  1  0.00000000  0.38718430  0.59848457  1
  B  B3  1  0.50000000  0.06717295  0.15148088  1
  H  H4  1  0.72087776  0.22544820  0.15929190  1
  H  H5  1  0.27912224  0.22544820  0.15929190  1
  H  H6  1  0.23048824  0.24046105  0.63873843  1
  H  H7  1  0.76951176  0.24046105  0.63873843  1
  H  H8  1  0.00000000  0.47322296  0.43669245  1
  H  H9  1  0.00000000  0.59270604  0.67915666  1
  H  H10  1  0.50000000  0.97167205  0.01118251  1
  H  H11  1  0.50000000  0.85831218  0.27591146  1
