# generated using pymatgen
data_Ca2Ni10H
_symmetry_space_group_name_H-M   'P 1'
_cell_length_a   4.94198945
_cell_length_b   5.02683374
_cell_length_c   7.81957716
_cell_angle_alpha   89.99895766
_cell_angle_beta   90.00135472
_cell_angle_gamma   119.41994105
_symmetry_Int_Tables_number   1
_chemical_formula_structural   Ca2Ni10H
_chemical_formula_sum   'Ca2 Ni10 H1'
_cell_volume   169.20732219
_cell_formula_units_Z   1
loop_
 _symmetry_equiv_pos_site_id
 _symmetry_equiv_pos_as_xyz
  1  'x, y, z'
loop_
 _atom_site_type_symbol
 _atom_site_label
 _atom_site_symmetry_multiplicity
 _atom_site_fract_x
 _atom_site_fract_y
 _atom_site_fract_z
 _atom_site_occupancy
  Ca  Ca0  1  0.00342679  -0.00000578  0.99713792  1
  Ca  Ca1  1  0.00348819  -0.00000540  0.49683644  1
  Ni  Ni2  1  0.31908595  0.63131421  0.99848742  1
  Ni  Ni3  1  0.68776075  0.36866414  0.99848468  1
  Ni  Ni4  1  0.50356648  0.00001100  0.75034793  1
  Ni  Ni5  1  0.50354989  0.50006353  0.74170940  1
  Ni  Ni6  1  0.00346290  0.49996996  0.74170186  1
  Ni  Ni7  1  0.34358297  0.68027256  0.49738523  1
  Ni  Ni8  1  0.66330128  0.31971424  0.49736419  1
  Ni  Ni9  1  0.50354829  0.00002333  0.24295952  1
  Ni  Ni10  1  0.50360842  0.50008524  0.25297349  1
  Ni  Ni11  1  0.00348152  0.49990952  0.25298205  1
  H  H12  1  0.50323657  0.99998345  0.97312986  1
