# generated using pymatgen
data_Li2H6PtO6
_symmetry_space_group_name_H-M   'P 1'
_cell_length_a   4.82483679
_cell_length_b   5.50464470
_cell_length_c   5.50466993
_cell_angle_alpha   119.99974824
_cell_angle_beta   90.00038174
_cell_angle_gamma   89.99984568
_symmetry_Int_Tables_number   1
_chemical_formula_structural   Li2H6PtO6
_chemical_formula_sum   'Li2 H6 Pt1 O6'
_cell_volume   126.61201939
_cell_formula_units_Z   1
loop_
 _symmetry_equiv_pos_site_id
 _symmetry_equiv_pos_as_xyz
  1  'x, y, z'
loop_
 _atom_site_type_symbol
 _atom_site_label
 _atom_site_symmetry_multiplicity
 _atom_site_fract_x
 _atom_site_fract_y
 _atom_site_fract_z
 _atom_site_occupancy
  Li  Li0  1  0.94402126  0.33335691  0.66667613  1
  Li  Li1  1  0.05597874  0.66664309  0.33332387  1
  H  H2  1  0.38521284  0.65383513  0.77574505  1
  H  H3  1  0.38521336  0.22425393  0.87808531  1
  H  H4  1  0.38521032  0.12191028  0.34616691  1
  H  H5  1  0.61478716  0.34616487  0.22425495  1
  H  H6  1  0.61478664  0.77574607  0.12191469  1
  H  H7  1  0.61478968  0.87808972  0.65383309  1
  Pt  Pt8  1  0.00000000  -0.00000000  0.00000000  1
  O  O9  1  0.22575135  0.68793146  0.68717473  1
  O  O10  1  0.22576380  0.31282461  0.00076783  1
  O  O11  1  0.22576392  -0.00077638  0.31205411  1
  O  O12  1  0.77424865  0.31206854  0.31282527  1
  O  O13  1  0.77423620  0.68717539  -0.00076783  1
  O  O14  1  0.77423608  0.00077638  0.68794589  1
