# generated using pymatgen
data_Ag3SbS3
_symmetry_space_group_name_H-M   'P 1'
_cell_length_a   7.60327370
_cell_length_b   7.60327307
_cell_length_c   7.60327412
_cell_angle_alpha   106.89475701
_cell_angle_beta   106.89475637
_cell_angle_gamma   106.89475841
_symmetry_Int_Tables_number   1
_chemical_formula_structural   Ag3SbS3
_chemical_formula_sum   'Ag6 Sb2 S6'
_cell_volume   367.10187369
_cell_formula_units_Z   2
loop_
 _symmetry_equiv_pos_site_id
 _symmetry_equiv_pos_as_xyz
  1  'x, y, z'
loop_
 _atom_site_type_symbol
 _atom_site_label
 _atom_site_symmetry_multiplicity
 _atom_site_fract_x
 _atom_site_fract_y
 _atom_site_fract_z
 _atom_site_occupancy
  Ag  Ag0  1  0.53991575  0.11947853  0.04679427  1
  Ag  Ag1  1  0.03991575  0.54679427  0.61947853  1
  Ag  Ag2  1  0.04679427  0.53991575  0.11947853  1
  Ag  Ag3  1  0.61947853  0.03991575  0.54679427  1
  Ag  Ag4  1  0.11947853  0.04679427  0.53991575  1
  Ag  Ag5  1  0.54679427  0.61947853  0.03991575  1
  Sb  Sb6  1  0.59829992  0.59829992  0.59829992  1
  Sb  Sb7  1  0.09829992  0.09829992  0.09829992  1
  S  S8  1  0.42549095  0.67726737  0.31745321  1
  S  S9  1  0.92549095  0.81745321  0.17726737  1
  S  S10  1  0.31745321  0.42549095  0.67726737  1
  S  S11  1  0.17726737  0.92549095  0.81745321  1
  S  S12  1  0.67726737  0.31745321  0.42549095  1
  S  S13  1  0.81745321  0.17726737  0.92549095  1
