# generated using pymatgen
data_Ge4Rh
_symmetry_space_group_name_H-M   'P 1'
_cell_length_a   6.30280093
_cell_length_b   6.30280093
_cell_length_c   7.97114646
_cell_angle_alpha   90.00000000
_cell_angle_beta   90.00000000
_cell_angle_gamma   120.00000273
_symmetry_Int_Tables_number   1
_chemical_formula_structural   Ge4Rh
_chemical_formula_sum   'Ge12 Rh3'
_cell_volume   274.23228944
_cell_formula_units_Z   3
loop_
 _symmetry_equiv_pos_site_id
 _symmetry_equiv_pos_as_xyz
  1  'x, y, z'
loop_
 _atom_site_type_symbol
 _atom_site_label
 _atom_site_symmetry_multiplicity
 _atom_site_fract_x
 _atom_site_fract_y
 _atom_site_fract_z
 _atom_site_occupancy
  Ge  Ge0  1  0.92444970  0.92445062  0.16663643  1
  Ge  Ge1  1  0.07554938  -0.00000092  0.49997043  1
  Ge  Ge2  1  0.00000092  0.07555030  0.83330343  1
  Ge  Ge3  1  0.38624343  0.38623723  0.16664321  1
  Ge  Ge4  1  0.61376277  0.00000619  0.49997721  1
  Ge  Ge5  1  0.99999381  0.61375657  0.83331021  1
  Ge  Ge6  1  0.73454630  0.51182615  0.38959814  1
  Ge  Ge7  1  0.48817385  0.22272015  0.72293214  1
  Ge  Ge8  1  0.77727985  0.26545370  0.05626514  1
  Ge  Ge9  1  0.26544449  0.77728070  0.27704028  1
  Ge  Ge10  1  0.22271930  0.48816379  0.61037428  1
  Ge  Ge11  1  0.51183621  0.73455551  0.94370728  1
  Rh  Rh12  1  0.68206687  0.68207019  0.66664694  1
  Rh  Rh13  1  0.31792981  0.99999668  0.99998094  1
  Rh  Rh14  1  0.00000332  0.31793313  0.33331394  1
