# generated using pymatgen
data_Mn2CrSbO6
_symmetry_space_group_name_H-M   'P 1'
_cell_length_a   5.31256194
_cell_length_b   5.45877461
_cell_length_c   7.70833456
_cell_angle_alpha   90.00000000
_cell_angle_beta   90.23378016
_cell_angle_gamma   90.00000000
_symmetry_Int_Tables_number   1
_chemical_formula_structural   Mn2CrSbO6
_chemical_formula_sum   'Mn4 Cr2 Sb2 O12'
_cell_volume   223.54044474
_cell_formula_units_Z   2
loop_
 _symmetry_equiv_pos_site_id
 _symmetry_equiv_pos_as_xyz
  1  'x, y, z'
loop_
 _atom_site_type_symbol
 _atom_site_label
 _atom_site_symmetry_multiplicity
 _atom_site_fract_x
 _atom_site_fract_y
 _atom_site_fract_z
 _atom_site_occupancy
  Mn  Mn0  1  0.48726537  0.54895197  0.75246530  1
  Mn  Mn1  1  0.98726537  0.95104803  0.25246530  1
  Mn  Mn2  1  0.51273463  0.45104803  0.24753470  1
  Mn  Mn3  1  0.01273463  0.04895197  0.74753470  1
  Cr  Cr4  1  0.00000000  0.50000000  0.50000000  1
  Cr  Cr5  1  0.50000000  -0.00000000  0.00000000  1
  Sb  Sb6  1  0.50000000  0.00000000  0.50000000  1
  Sb  Sb7  1  0.00000000  0.50000000  0.00000000  1
  O  O8  1  0.18985317  0.80849552  0.56137530  1
  O  O9  1  0.68985317  0.69150448  0.06137530  1
  O  O10  1  0.81014683  0.19150448  0.43862470  1
  O  O11  1  0.31014683  0.30849552  0.93862470  1
  O  O12  1  0.18663719  0.80627980  0.93452364  1
  O  O13  1  0.68663719  0.69372020  0.43452364  1
  O  O14  1  0.81336281  0.19372020  0.06547636  1
  O  O15  1  0.31336281  0.30627980  0.56547636  1
  O  O16  1  0.61992353  0.94431249  0.74790587  1
  O  O17  1  0.11992353  0.55568751  0.24790587  1
  O  O18  1  0.38007647  0.05568751  0.25209413  1
  O  O19  1  0.88007647  0.44431249  0.75209413  1
