# generated using pymatgen
data_Ce3Pt2
_symmetry_space_group_name_H-M   'P 1'
_cell_length_a   7.58525356
_cell_length_b   7.59304784
_cell_length_c   7.57138767
_cell_angle_alpha   72.41460455
_cell_angle_beta   72.35600854
_cell_angle_gamma   72.43111568
_symmetry_Int_Tables_number   1
_chemical_formula_structural   Ce3Pt2
_chemical_formula_sum   'Ce9 Pt6'
_cell_volume   385.38279891
_cell_formula_units_Z   3
loop_
 _symmetry_equiv_pos_site_id
 _symmetry_equiv_pos_as_xyz
  1  'x, y, z'
loop_
 _atom_site_type_symbol
 _atom_site_label
 _atom_site_symmetry_multiplicity
 _atom_site_fract_x
 _atom_site_fract_y
 _atom_site_fract_z
 _atom_site_occupancy
  Ce  Ce0  1  0.00018321  0.99996688  0.99978580  1
  Ce  Ce1  1  0.79268866  0.79293527  0.79307151  1
  Ce  Ce2  1  0.20725891  0.20705093  0.20712130  1
  Ce  Ce3  1  0.61100644  0.33862315  0.83289874  1
  Ce  Ce4  1  0.33879198  0.83270344  0.61078280  1
  Ce  Ce5  1  0.83288836  0.61099788  0.33839250  1
  Ce  Ce6  1  0.38901897  0.66132210  0.16724388  1
  Ce  Ce7  1  0.66119730  0.16729257  0.38911005  1
  Ce  Ce8  1  0.16701469  0.38929821  0.66140490  1
  Pt  Pt9  1  0.95505919  0.15878872  0.59385403  1
  Pt  Pt10  1  0.15890942  0.59372598  0.95507960  1
  Pt  Pt11  1  0.59369107  0.95484297  0.15933369  1
  Pt  Pt12  1  0.04484434  0.84115821  0.40631369  1
  Pt  Pt13  1  0.84112047  0.40635202  0.04487778  1
  Pt  Pt14  1  0.40632700  0.04494166  0.84072973  1
