# generated using pymatgen
data_Tb6Ni2Sn
_symmetry_space_group_name_H-M   'P 1'
_cell_length_a   8.46074252
_cell_length_b   8.46074252
_cell_length_c   8.46074252
_cell_angle_alpha   107.34671733
_cell_angle_beta   109.15133571
_cell_angle_gamma   111.94907277
_symmetry_Int_Tables_number   1
_chemical_formula_structural   Tb6Ni2Sn
_chemical_formula_sum   'Tb12 Ni4 Sn2'
_cell_volume   465.46610265
_cell_formula_units_Z   2
loop_
 _symmetry_equiv_pos_site_id
 _symmetry_equiv_pos_as_xyz
  1  'x, y, z'
loop_
 _atom_site_type_symbol
 _atom_site_label
 _atom_site_symmetry_multiplicity
 _atom_site_fract_x
 _atom_site_fract_y
 _atom_site_fract_z
 _atom_site_occupancy
  Tb  Tb0  1  0.70569476  0.26506884  0.97076360  1
  Tb  Tb1  1  0.29430524  0.73493116  0.02923640  1
  Tb  Tb2  1  0.70569476  0.73493116  0.44062591  1
  Tb  Tb3  1  0.29430524  0.26506884  0.55937409  1
  Tb  Tb4  1  0.81050019  0.13542421  0.32492402  1
  Tb  Tb5  1  0.81050019  0.48557616  0.67507598  1
  Tb  Tb6  1  0.18949981  0.86457579  0.67507598  1
  Tb  Tb7  1  0.18949981  0.51442384  0.32492402  1
  Tb  Tb8  1  0.60487611  0.78600132  0.81887479  1
  Tb  Tb9  1  0.96712653  0.78600132  0.18112521  1
  Tb  Tb10  1  0.03287347  0.21399868  0.81887479  1
  Tb  Tb11  1  0.39512389  0.21399868  0.18112521  1
  Ni  Ni12  1  0.85152538  0.50000000  0.35152538  1
  Ni  Ni13  1  0.14847462  0.50000000  0.64847462  1
  Ni  Ni14  1  0.00000000  0.12171769  0.12171769  1
  Ni  Ni15  1  -0.00000000  0.87828231  0.87828231  1
  Sn  Sn16  1  0.50000000  0.50000000  -0.00000000  1
  Sn  Sn17  1  0.50000000  -0.00000000  0.50000000  1
