# generated using pymatgen
data_VCoO4
_symmetry_space_group_name_H-M   'P 1'
_cell_length_a   5.64510615
_cell_length_b   5.64510615
_cell_length_c   5.64510615
_cell_angle_alpha   60.50910659
_cell_angle_beta   87.60933985
_cell_angle_gamma   117.77508876
_symmetry_Int_Tables_number   1
_chemical_formula_structural   VCoO4
_chemical_formula_sum   'V2 Co2 O8'
_cell_volume   129.67579014
_cell_formula_units_Z   2
loop_
 _symmetry_equiv_pos_site_id
 _symmetry_equiv_pos_as_xyz
  1  'x, y, z'
loop_
 _atom_site_type_symbol
 _atom_site_label
 _atom_site_symmetry_multiplicity
 _atom_site_fract_x
 _atom_site_fract_y
 _atom_site_fract_z
 _atom_site_occupancy
  V  V0  1  0.12578178  0.25000000  0.12421822  1
  V  V1  1  0.87421822  0.75000000  0.87578178  1
  Co  Co2  1  0.50000000  0.00000000  0.50000000  1
  Co  Co3  1  0.00000000  0.50000000  0.50000000  1
  O  O4  1  0.76457204  0.02075655  0.25618451  1
  O  O5  1  0.74914656  0.47488807  0.27596537  1
  O  O6  1  0.25085344  0.97488807  0.27425949  1
  O  O7  1  0.22305893  0.47924345  0.25618451  1
  O  O8  1  0.77694107  0.52075655  0.74381549  1
  O  O9  1  0.74914656  0.02511193  0.72574051  1
  O  O10  1  0.25085344  0.52511193  0.72403463  1
  O  O11  1  0.23542796  0.97924345  0.74381549  1
