# generated using pymatgen
data_Zr2CuH5
_symmetry_space_group_name_H-M   'P 1'
_cell_length_a   3.64991621
_cell_length_b   5.73691424
_cell_length_c   7.22160289
_cell_angle_alpha   78.58702586
_cell_angle_beta   75.36217746
_cell_angle_gamma   71.45146370
_symmetry_Int_Tables_number   1
_chemical_formula_structural   Zr2CuH5
_chemical_formula_sum   'Zr4 Cu2 H10'
_cell_volume   137.56444298
_cell_formula_units_Z   2
loop_
 _symmetry_equiv_pos_site_id
 _symmetry_equiv_pos_as_xyz
  1  'x, y, z'
loop_
 _atom_site_type_symbol
 _atom_site_label
 _atom_site_symmetry_multiplicity
 _atom_site_fract_x
 _atom_site_fract_y
 _atom_site_fract_z
 _atom_site_occupancy
  Zr  Zr0  1  0.08069500  0.68216723  0.15644277  1
  Zr  Zr1  1  0.91930500  0.31783277  0.84355723  1
  Zr  Zr2  1  0.67386804  0.22628853  0.42597538  1
  Zr  Zr3  1  0.32613196  0.77371147  0.57402462  1
  Cu  Cu4  1  0.37715494  0.09474645  0.15094366  1
  Cu  Cu5  1  0.62284506  0.90525355  0.84905634  1
  H  H6  1  0.13537513  0.15279111  0.57645862  1
  H  H7  1  0.86462487  0.84720889  0.42354138  1
  H  H8  1  0.46554018  0.39698006  0.67193958  1
  H  H9  1  0.53445982  0.60301994  0.32806042  1
  H  H10  1  0.31565110  0.38819429  0.98050351  1
  H  H11  1  0.68434890  0.61180571  0.01949649  1
  H  H12  1  0.18438315  0.33410969  0.29712402  1
  H  H13  1  0.81561685  0.66589031  0.70287598  1
  H  H14  1  0.88189866  0.09604060  0.14016208  1
  H  H15  1  0.11810134  0.90395940  0.85983792  1
