# generated using pymatgen
data_Eu2GeS4
_symmetry_space_group_name_H-M   'P 1'
_cell_length_a   6.68914911
_cell_length_b   6.69903404
_cell_length_c   13.36965712
_cell_angle_alpha   90.00000000
_cell_angle_beta   144.65602261
_cell_angle_gamma   90.00000000
_symmetry_Int_Tables_number   1
_chemical_formula_structural   Eu2GeS4
_chemical_formula_sum   'Eu4 Ge2 S8'
_cell_volume   346.57289383
_cell_formula_units_Z   2
loop_
 _symmetry_equiv_pos_site_id
 _symmetry_equiv_pos_as_xyz
  1  'x, y, z'
loop_
 _atom_site_type_symbol
 _atom_site_label
 _atom_site_symmetry_multiplicity
 _atom_site_fract_x
 _atom_site_fract_y
 _atom_site_fract_z
 _atom_site_occupancy
  Eu  Eu0  1  0.87500456  0.25000000  0.06741489  1
  Eu  Eu1  1  0.11252164  0.75000000  0.44753070  1
  Eu  Eu2  1  0.88747836  0.25000000  0.55246930  1
  Eu  Eu3  1  0.12499544  0.75000000  0.93258511  1
  Ge  Ge4  1  0.62604339  0.25000000  0.69500976  1
  Ge  Ge5  1  0.37395661  0.75000000  0.30499024  1
  S  S6  1  0.47955936  0.00367009  0.24405495  1
  S  S7  1  0.24368482  0.25000000  0.41532167  1
  S  S8  1  0.52044064  0.50367009  0.75594505  1
  S  S9  1  0.75631518  0.75000000  0.58467833  1
  S  S10  1  0.17809407  0.25000000  0.87338015  1
  S  S11  1  0.52044064  0.99632991  0.75594505  1
  S  S12  1  0.82190593  0.75000000  0.12661985  1
  S  S13  1  0.47955936  0.49632991  0.24405495  1
