# generated using pymatgen
data_Cd(CoO2)2
_symmetry_space_group_name_H-M   'P 1'
_cell_length_a   5.06679259
_cell_length_b   5.90934994
_cell_length_c   11.01085148
_cell_angle_alpha   90.92451689
_cell_angle_beta   90.08008515
_cell_angle_gamma   89.28698015
_symmetry_Int_Tables_number   1
_chemical_formula_structural   Cd(CoO2)2
_chemical_formula_sum   'Cd4 Co8 O16'
_cell_volume   329.61218546
_cell_formula_units_Z   4
loop_
 _symmetry_equiv_pos_site_id
 _symmetry_equiv_pos_as_xyz
  1  'x, y, z'
loop_
 _atom_site_type_symbol
 _atom_site_label
 _atom_site_symmetry_multiplicity
 _atom_site_fract_x
 _atom_site_fract_y
 _atom_site_fract_z
 _atom_site_occupancy
  Cd  Cd0  1  0.02553688  0.74128843  0.24967409  1
  Cd  Cd1  1  0.35468185  0.75357423  0.74998940  1
  Cd  Cd2  1  0.64397120  0.24791883  0.24990688  1
  Cd  Cd3  1  0.97283612  0.25878567  0.75027795  1
  Co  Co4  1  0.00896451  0.24641145  0.01175167  1
  Co  Co5  1  0.99260845  0.75264803  0.98861234  1
  Co  Co6  1  0.00757804  0.25142399  0.48955201  1
  Co  Co7  1  0.99194982  0.75194659  0.51053994  1
  Co  Co8  1  0.50042927  0.00023316  -0.00007496  1
  Co  Co9  1  0.49776527  0.00065013  0.50557215  1
  Co  Co10  1  0.50066044  0.50046805  0.99973883  1
  Co  Co11  1  0.50197156  0.50017429  0.49519076  1
  O  O12  1  0.16405982  0.02257339  0.90002555  1
  O  O13  1  0.17825177  0.00217208  0.61424425  1
  O  O14  1  0.15122069  0.49753993  0.59409655  1
  O  O15  1  0.16602727  0.51959118  0.88967935  1
  O  O16  1  0.33231585  0.25604831  0.09674604  1
  O  O17  1  0.33151428  0.24330262  0.40316124  1
  O  O18  1  0.31319516  0.75072800  0.08500241  1
  O  O19  1  0.31320587  0.74868900  0.41402505  1
  O  O20  1  0.68533385  0.25505034  0.58655511  1
  O  O21  1  0.68695308  0.24750159  0.91387499  1
  O  O22  1  0.66891930  0.74967287  0.59717056  1
  O  O23  1  0.66864105  0.74490558  0.90277548  1
  O  O24  1  0.83369025  0.97941760  0.10306444  1
  O  O25  1  0.84714609  0.99599082  0.40557901  1
  O  O26  1  0.83736866  0.48217021  0.10559573  1
  O  O27  1  0.82320359  0.49912361  0.38767317  1
