# generated using pymatgen
data_Li2CrFe3O8
_symmetry_space_group_name_H-M   'P 1'
_cell_length_a   5.89027544
_cell_length_b   5.93014740
_cell_length_c   9.59957305
_cell_angle_alpha   90.05820477
_cell_angle_beta   89.97070108
_cell_angle_gamma   120.22417125
_symmetry_Int_Tables_number   1
_chemical_formula_structural   Li2CrFe3O8
_chemical_formula_sum   'Li4 Cr2 Fe6 O16'
_cell_volume   289.73299259
_cell_formula_units_Z   2
loop_
 _symmetry_equiv_pos_site_id
 _symmetry_equiv_pos_as_xyz
  1  'x, y, z'
loop_
 _atom_site_type_symbol
 _atom_site_label
 _atom_site_symmetry_multiplicity
 _atom_site_fract_x
 _atom_site_fract_y
 _atom_site_fract_z
 _atom_site_occupancy
  Li  Li0  1  0.33601654  0.66795978  0.89438504  1
  Li  Li1  1  0.00050963  0.00004776  0.99742661  1
  Li  Li2  1  -0.00050963  -0.00046186  0.49742661  1
  Li  Li3  1  0.66398346  0.33194325  0.39438504  1
  Cr  Cr4  1  0.32818170  0.66408008  0.48467998  1
  Cr  Cr5  1  0.67181830  0.33589838  0.98467998  1
  Fe  Fe6  1  0.16941380  0.83118341  0.21291939  1
  Fe  Fe7  1  0.16883236  0.33826758  0.21335820  1
  Fe  Fe8  1  0.66255543  0.83140866  0.21310914  1
  Fe  Fe9  1  0.33744457  0.16885322  0.71310914  1
  Fe  Fe10  1  0.83058620  0.66176961  0.71291939  1
  Fe  Fe11  1  0.83116764  0.16943523  0.71335820  1
  O  O12  1  0.16025654  0.83336321  0.60093766  1
  O  O13  1  0.03752346  0.51829786  0.34095781  1
  O  O14  1  0.33322888  0.66754104  0.10249290  1
  O  O15  1  0.00094643  -0.00066546  0.31022443  1
  O  O16  1  0.99905357  0.99838911  0.81022443  1
  O  O17  1  0.15848741  0.32719310  0.60148350  1
  O  O18  1  0.47440775  0.95754724  0.34173266  1
  O  O19  1  0.47229497  0.51483525  0.34121364  1
  O  O20  1  0.33187368  0.16635327  0.09899703  1
  O  O21  1  0.66812632  0.83447960  0.59899703  1
  O  O22  1  0.52559225  0.48314048  0.84173266  1
  O  O23  1  0.52770503  0.04254028  0.84121364  1
  O  O24  1  0.66677112  0.33431216  0.60249290  1
  O  O25  1  0.83974346  0.67310668  0.10093766  1
  O  O26  1  0.96247654  0.48077340  0.84095781  1
  O  O27  1  0.84151259  0.16870669  0.10148350  1
