# generated using pymatgen
data_Nd19Ti20O60
_symmetry_space_group_name_H-M   'P 1'
_cell_length_a   27.49963288
_cell_length_b   12.40454643
_cell_length_c   9.57851470
_cell_angle_alpha   59.27208927
_cell_angle_beta   54.95222302
_cell_angle_gamma   27.18350182
_symmetry_Int_Tables_number   1
_chemical_formula_structural   Nd19Ti20O60
_chemical_formula_sum   'Nd19 Ti20 O60'
_cell_volume   1222.03173511
_cell_formula_units_Z   1
loop_
 _symmetry_equiv_pos_site_id
 _symmetry_equiv_pos_as_xyz
  1  'x, y, z'
loop_
 _atom_site_type_symbol
 _atom_site_label
 _atom_site_symmetry_multiplicity
 _atom_site_fract_x
 _atom_site_fract_y
 _atom_site_fract_z
 _atom_site_occupancy
  Nd  Nd0  1  0.12641113  0.05396529  0.24876419  1
  Nd  Nd1  1  0.03092662  0.55450370  0.24814649  1
  Nd  Nd2  1  0.32811572  0.05400384  0.24292552  1
  Nd  Nd3  1  0.17656710  0.43655258  0.74974184  1
  Nd  Nd4  1  0.23199210  0.55026317  0.24857630  1
  Nd  Nd5  1  0.52501955  0.05236675  0.25667385  1
  Nd  Nd6  1  0.07231465  0.94940715  0.75002359  1
  Nd  Nd7  1  0.37146800  0.43351025  0.74988194  1
  Nd  Nd8  1  0.43026275  0.55199882  0.25204215  1
  Nd  Nd9  1  0.72420614  0.05746467  0.24962122  1
  Nd  Nd10  1  0.27660158  0.94451787  0.74927227  1
  Nd  Nd11  1  0.56913223  0.45517357  0.75001268  1
  Nd  Nd12  1  0.62938286  0.55582697  0.24925090  1
  Nd  Nd13  1  0.92490484  0.05642719  0.25157036  1
  Nd  Nd14  1  0.76101167  0.45922849  0.74997577  1
  Nd  Nd15  1  0.82867158  0.55619981  0.25137684  1
  Nd  Nd16  1  0.67301236  0.94776636  0.75068875  1
  Nd  Nd17  1  0.96956753  0.44650632  0.75027849  1
  Nd  Nd18  1  0.87242421  0.95021752  0.75016483  1
  Ti  Ti19  1  0.10066495  0.99993849  0.99878383  1
  Ti  Ti20  1  0.30367239  0.99601897  0.99451745  1
  Ti  Ti21  1  0.20038156  0.00078798  0.50000598  1
  Ti  Ti22  1  0.10005482  0.50018775  0.50068388  1
  Ti  Ti23  1  0.20264367  0.49634535  0.99914662  1
  Ti  Ti24  1  0.40079539  0.99708470  0.50524136  1
  Ti  Ti25  1  0.49890164  0.99830980  0.99773538  1
  Ti  Ti26  1  0.30221184  0.49590587  0.50053976  1
  Ti  Ti27  1  0.40123101  0.49693248  0.99814799  1
  Ti  Ti28  1  0.69892724  0.00300738  0.99954302  1
  Ti  Ti29  1  0.59754826  0.99831193  0.50304640  1
  Ti  Ti30  1  0.59548922  0.51300227  0.99569077  1
  Ti  Ti31  1  0.49973623  0.49919055  0.50097702  1
  Ti  Ti32  1  0.89958089  0.00161309  0.99903953  1
  Ti  Ti33  1  0.79895228  0.00249048  0.50060204  1
  Ti  Ti34  1  0.69351915  0.51270696  0.50537682  1
  Ti  Ti35  1  0.79870422  0.50193271  0.99921358  1
  Ti  Ti36  1  0.99989207  0.00055306  0.50039475  1
  Ti  Ti37  1  0.00005960  0.50070176  0.99940294  1
  Ti  Ti38  1  0.89878743  0.50165537  0.50073969  1
  O  O39  1  0.01423719  0.29432677  0.04428460  1
  O  O40  1  0.04844107  0.20808770  0.54558236  1
  O  O41  1  0.15783458  0.02377312  0.74958304  1
  O  O42  1  0.21466730  0.29374196  0.04121006  1
  O  O43  1  0.13079110  0.29637209  0.45521550  1
  O  O44  1  0.03285521  0.79459944  0.04423245  1
  O  O45  1  0.02424791  0.52330669  0.74993190  1
  O  O46  1  0.17177239  0.48399247  0.25160182  1
  O  O47  1  0.16584093  0.20566394  0.96045603  1
  O  O48  1  0.24992924  0.20633967  0.53861889  1
  O  O49  1  0.06867396  0.70517865  0.54594138  1
  O  O50  1  0.04297686  0.97586507  0.24962277  1
  O  O51  1  0.35480492  0.01092982  0.75008837  1
  O  O52  1  0.33106096  0.29381677  0.45884737  1
  O  O53  1  0.41590273  0.29060216  0.04464438  1
  O  O54  1  0.23332484  0.79328617  0.04308226  1
  O  O55  1  0.15081658  0.79338468  0.45620212  1
  O  O56  1  0.22387100  0.52935275  0.74971567  1
  O  O57  1  0.37307522  0.48132951  0.24747163  1
  O  O58  1  0.44984883  0.21886295  0.52861021  1
  O  O59  1  0.36158992  0.21851464  0.97129435  1
  O  O60  1  0.26709982  0.70963341  0.54335274  1
  O  O61  1  0.18443765  0.70982354  0.95620837  1
  O  O62  1  0.24131775  0.97734114  0.25022144  1
  O  O63  1  0.56098121  0.01410248  0.74992523  1
  O  O64  1  0.61380438  0.29612161  0.04234354  1
  O  O65  1  0.53317203  0.29174799  0.45569740  1
  O  O66  1  0.43183265  0.78248137  0.05840428  1
  O  O67  1  0.35030669  0.79483145  0.45626445  1
  O  O68  1  0.42422389  0.51942269  0.75031217  1
  O  O69  1  0.57599868  0.47513772  0.25103700  1
  O  O70  1  0.64939105  0.20637958  0.54350883  1
  O  O71  1  0.56621373  0.20767752  0.95745130  1
  O  O72  1  0.46939445  0.70168546  0.54345549  1
  O  O73  1  0.38654795  0.70183095  0.95624996  1
  O  O74  1  0.44103333  0.97963104  0.25238755  1
  O  O75  1  0.75696253  0.02291157  0.74997498  1
  O  O76  1  0.73183476  0.29369917  0.45832266  1
  O  O77  1  0.81561826  0.29070363  0.04642829  1
  O  O78  1  0.63219990  0.79716331  0.04377569  1
  O  O79  1  0.55516192  0.78210263  0.44379475  1
  O  O80  1  0.63428347  0.50617665  0.75020272  1
  O  O81  1  0.77672817  0.47544460  0.24910594  1
  O  O82  1  0.76599844  0.20672797  0.95857740  1
  O  O83  1  0.84975788  0.20608050  0.54095227  1
  O  O84  1  0.59001507  0.69357287  0.97426558  1
  O  O85  1  0.67958230  0.69352557  0.52586496  1
  O  O86  1  0.64201794  0.98043181  0.24802647  1
  O  O87  1  0.95470681  0.02882522  0.74973209  1
  O  O88  1  0.93373407  0.29195318  0.45328127  1
  O  O89  1  0.83295164  0.79525940  0.04236468  1
  O  O90  1  0.74996680  0.79669380  0.45545920  1
  O  O91  1  0.82308023  0.52351727  0.74991786  1
  O  O92  1  0.97569903  0.47829997  0.25053148  1
  O  O93  1  0.96660998  0.20828815  0.95482523  1
  O  O94  1  0.86791194  0.70606908  0.54588616  1
  O  O95  1  0.78593996  0.70648121  0.95522033  1
  O  O96  1  0.84201303  0.97704509  0.25076168  1
  O  O97  1  0.94939822  0.79583756  0.45802928  1
  O  O98  1  0.98710315  0.70553757  0.95382528  1
