# generated using pymatgen
data_Li2MnCoO4
_symmetry_space_group_name_H-M   'P 1'
_cell_length_a   2.92467398
_cell_length_b   5.10418084
_cell_length_c   5.19051768
_cell_angle_alpha   100.03612186
_cell_angle_beta   89.99999927
_cell_angle_gamma   73.35160203
_symmetry_Int_Tables_number   1
_chemical_formula_structural   Li2MnCoO4
_chemical_formula_sum   'Li2 Mn1 Co1 O4'
_cell_volume   72.99791274
_cell_formula_units_Z   1
loop_
 _symmetry_equiv_pos_site_id
 _symmetry_equiv_pos_as_xyz
  1  'x, y, z'
loop_
 _atom_site_type_symbol
 _atom_site_label
 _atom_site_symmetry_multiplicity
 _atom_site_fract_x
 _atom_site_fract_y
 _atom_site_fract_z
 _atom_site_occupancy
  Li  Li0  1  0.24819180  0.50361640  0.24021071  1
  Li  Li1  1  0.75180820  0.49638360  0.75978929  1
  Mn  Mn2  1  0.50000000  0.00000000  0.50000000  1
  Co  Co3  1  -0.00000000  0.00000000  -0.00000000  1
  O  O4  1  0.38549529  0.22900942  0.84773730  1
  O  O5  1  0.88712622  0.22574755  0.39646667  1
  O  O6  1  0.11287378  0.77425245  0.60353333  1
  O  O7  1  0.61450471  0.77099058  0.15226270  1
