# generated using pymatgen
data_Nb2SiTe4
_symmetry_space_group_name_H-M   'P 1'
_cell_length_a   8.05420077
_cell_length_b   6.39387046
_cell_length_c   7.87333165
_cell_angle_alpha   97.14535708
_cell_angle_beta   104.57194454
_cell_angle_gamma   89.97959738
_symmetry_Int_Tables_number   1
_chemical_formula_structural   Nb2SiTe4
_chemical_formula_sum   'Nb4 Si2 Te8'
_cell_volume   389.16477368
_cell_formula_units_Z   2
loop_
 _symmetry_equiv_pos_site_id
 _symmetry_equiv_pos_as_xyz
  1  'x, y, z'
loop_
 _atom_site_type_symbol
 _atom_site_label
 _atom_site_symmetry_multiplicity
 _atom_site_fract_x
 _atom_site_fract_y
 _atom_site_fract_z
 _atom_site_occupancy
  Nb  Nb0  1  0.08624635  0.10334997  0.00017597  1
  Nb  Nb1  1  0.41375365  0.89665003  0.99982403  1
  Nb  Nb2  1  0.58599261  0.39650352  0.99987663  1
  Nb  Nb3  1  0.91400739  0.60349648  0.00012337  1
  Si  Si4  1  0.25000000  0.50000000  -0.00000000  1
  Si  Si5  1  0.75000000  0.00000000  -0.00000000  1
  Te  Te6  1  0.08165050  0.74049852  0.75165832  1
  Te  Te7  1  0.20416828  0.81645969  0.24840319  1
  Te  Te8  1  0.29583172  0.18354031  0.75159681  1
  Te  Te9  1  0.41834950  0.25950148  0.24834168  1
  Te  Te10  1  0.58165302  0.68353946  0.75154181  1
  Te  Te11  1  0.70386826  0.75899693  0.24801871  1
  Te  Te12  1  0.79613174  0.24100307  0.75198129  1
  Te  Te13  1  0.91834698  0.31646054  0.24845819  1
