# generated using pymatgen
data_NaLa2Ti2MnO9
_symmetry_space_group_name_H-M   'P 1'
_cell_length_a   5.55061801
_cell_length_b   5.54004868
_cell_length_c   16.61170427
_cell_angle_alpha   60.29414226
_cell_angle_beta   59.91021460
_cell_angle_gamma   59.93262895
_symmetry_Int_Tables_number   1
_chemical_formula_structural   NaLa2Ti2MnO9
_chemical_formula_sum   'Na2 La4 Ti4 Mn2 O18'
_cell_volume   361.56889794
_cell_formula_units_Z   2
loop_
 _symmetry_equiv_pos_site_id
 _symmetry_equiv_pos_as_xyz
  1  'x, y, z'
loop_
 _atom_site_type_symbol
 _atom_site_label
 _atom_site_symmetry_multiplicity
 _atom_site_fract_x
 _atom_site_fract_y
 _atom_site_fract_z
 _atom_site_occupancy
  Na  Na0  1  0.74969975  0.25217229  0.08280470  1
  Na  Na1  1  0.75079449  0.25243421  0.41529703  1
  La  La2  1  0.25043968  0.74222356  0.25226252  1
  La  La3  1  0.25400985  0.74495605  0.58228422  1
  La  La4  1  0.24714597  0.73692210  0.92293844  1
  La  La5  1  0.74776007  0.25678554  0.74921533  1
  Ti  Ti6  1  0.49531779  0.00152006  0.00257382  1
  Ti  Ti7  1  0.99820707  0.51163912  0.49726025  1
  Ti  Ti8  1  0.49907120  0.00409931  0.33252165  1
  Ti  Ti9  1  0.99637017  0.50437829  0.16758124  1
  Mn  Mn10  1  0.50415454  -0.00002358  0.66380774  1
  Mn  Mn11  1  0.99952650  0.49351248  0.83572273  1
  O  O12  1  0.24948360  0.17584509  0.10839925  1
  O  O13  1  0.22068781  0.28587484  0.26042915  1
  O  O14  1  0.28133370  0.71397380  0.07176937  1
  O  O15  1  0.25229378  0.17775303  0.43926814  1
  O  O16  1  0.19849604  0.29916216  0.59650807  1
  O  O17  1  0.28550795  0.71744431  0.40283355  1
  O  O18  1  0.71236196  0.28580659  0.26044032  1
  O  O19  1  0.78941937  0.71392122  0.07180780  1
  O  O20  1  0.25059113  0.17412775  0.77484244  1
  O  O21  1  0.75193900  0.80799352  0.22942597  1
  O  O22  1  0.23028081  0.28365839  0.92769182  1
  O  O23  1  0.28673565  0.71341167  0.73606739  1
  O  O24  1  0.71307720  0.29905440  0.59654595  1
  O  O25  1  0.78861351  0.71742694  0.40288688  1
  O  O26  1  0.75703510  0.81047073  0.55861784  1
  O  O27  1  0.70317295  0.28357338  0.92774102  1
  O  O28  1  0.79120444  0.71356926  0.73605816  1
  O  O29  1  0.74526892  0.82631350  0.89439721  1
