# generated using pymatgen
data_Na2Ni4Mo4(HO4)5
_symmetry_space_group_name_H-M   'P 1'
_cell_length_a   5.69567146
_cell_length_b   11.39533300
_cell_length_c   11.11483232
_cell_angle_alpha   39.88545613
_cell_angle_beta   63.61750240
_cell_angle_gamma   68.08369193
_symmetry_Int_Tables_number   1
_chemical_formula_structural   Na2Ni4Mo4(HO4)5
_chemical_formula_sum   'Na2 Ni4 Mo4 H5 O20'
_cell_volume   413.76418870
_cell_formula_units_Z   1
loop_
 _symmetry_equiv_pos_site_id
 _symmetry_equiv_pos_as_xyz
  1  'x, y, z'
loop_
 _atom_site_type_symbol
 _atom_site_label
 _atom_site_symmetry_multiplicity
 _atom_site_fract_x
 _atom_site_fract_y
 _atom_site_fract_z
 _atom_site_occupancy
  Na  Na0  1  0.49967974  0.49897341  0.50146609  1
  Na  Na1  1  0.50032026  0.00102659  0.49853391  1
  Ni  Ni2  1  -0.00000000  0.25000000  0.00000000  1
  Ni  Ni3  1  0.50227976  0.00062391  0.99828091  1
  Ni  Ni4  1  0.49772024  0.49937609  0.00171909  1
  Ni  Ni5  1  -0.00000000  0.75000000  0.00000000  1
  Mo  Mo6  1  0.07637525  0.17977351  0.71698496  1
  Mo  Mo7  1  0.07816314  0.68037564  0.71781906  1
  Mo  Mo8  1  0.92362475  0.32022649  0.28301504  1
  Mo  Mo9  1  0.92183686  0.81962436  0.28218094  1
  H  H10  1  0.32113212  0.04906583  0.22209137  1
  H  H11  1  0.31743861  0.54757024  0.22223478  1
  H  H12  1  0.50000000  0.75000000  0.00000000  1
  H  H13  1  0.67886788  0.45093417  0.77790863  1
  H  H14  1  0.68256139  0.95242976  0.77776522  1
  O  O15  1  0.33497721  0.12610375  0.08521663  1
  O  O16  1  0.27103344  0.27769694  0.26041130  1
  O  O17  1  0.23492280  0.37718283  0.48195308  1
  O  O18  1  0.35398522  0.63774865  0.07941427  1
  O  O19  1  0.16447420  0.13796104  0.88989650  1
  O  O20  1  0.81277020  0.00557601  0.25812545  1
  O  O21  1  0.26922399  0.77556264  0.25885146  1
  O  O22  1  0.18722980  0.49442399  0.74187455  1
  O  O23  1  0.83552580  0.36203896  0.11010350  1
  O  O24  1  0.76507720  0.12281717  0.51804692  1
  O  O25  1  0.23814840  0.87741919  0.48268768  1
  O  O26  1  0.16707982  0.63852612  0.89065438  1
  O  O27  1  0.81308107  0.50632728  0.25856278  1
  O  O28  1  0.72896656  0.22230306  0.73958870  1
  O  O29  1  0.18691893  0.99367272  0.74143722  1
  O  O30  1  0.83292018  0.86147388  0.10934562  1
  O  O31  1  0.66502279  0.37389625  0.91478337  1
  O  O32  1  0.76185160  0.62258081  0.51731232  1
  O  O33  1  0.73077601  0.72443736  0.74114854  1
  O  O34  1  0.64601478  0.86225135  0.92058573  1
