# generated using pymatgen
data_Sr6La3Ti3Cu3O20
_symmetry_space_group_name_H-M   'P 1'
_cell_length_a   3.92100716
_cell_length_b   11.71902930
_cell_length_c   10.54221474
_cell_angle_alpha   100.59069491
_cell_angle_beta   100.50614080
_cell_angle_gamma   90.00449468
_symmetry_Int_Tables_number   1
_chemical_formula_structural   Sr6La3Ti3Cu3O20
_chemical_formula_sum   'Sr6 La3 Ti3 Cu3 O20'
_cell_volume   467.90135905
_cell_formula_units_Z   1
loop_
 _symmetry_equiv_pos_site_id
 _symmetry_equiv_pos_as_xyz
  1  'x, y, z'
loop_
 _atom_site_type_symbol
 _atom_site_label
 _atom_site_symmetry_multiplicity
 _atom_site_fract_x
 _atom_site_fract_y
 _atom_site_fract_z
 _atom_site_occupancy
  Sr  Sr0  1  0.00352418  0.99362890  0.99113819  1
  Sr  Sr1  1  0.99857036  0.33574656  0.99891749  1
  Sr  Sr2  1  0.99624147  0.66786794  0.99353337  1
  Sr  Sr3  1  0.19636629  0.07316306  0.35982403  1
  Sr  Sr4  1  0.20886337  0.37782228  0.36802761  1
  Sr  Sr5  1  0.79864074  0.61502094  0.63341893  1
  La  La6  1  0.19450097  0.73287690  0.36324802  1
  La  La7  1  0.80728087  0.26150136  0.64302752  1
  La  La8  1  0.78918469  0.94101169  0.64030364  1
  Ti  Ti9  1  0.38972294  0.46929994  0.80229048  1
  Ti  Ti10  1  0.61096345  0.52513950  0.19433577  1
  Ti  Ti11  1  0.59792564  0.87020407  0.18354249  1
  Cu  Cu12  1  0.38929264  0.13360477  0.80950849  1
  Cu  Cu13  1  0.38745408  0.80136086  0.80158567  1
  Cu  Cu14  1  0.61194717  0.19817913  0.18505210  1
  O  O15  1  0.10696088  0.19726337  0.17426066  1
  O  O16  1  0.10183604  0.54528283  0.19870708  1
  O  O17  1  0.10569171  0.86773690  0.20635523  1
  O  O18  1  0.33063782  0.10195414  0.59817446  1
  O  O19  1  0.32558332  0.41908699  0.61555300  1
  O  O20  1  0.30093156  0.77600948  0.59459134  1
  O  O21  1  0.39848262  0.29856201  0.82171717  1
  O  O22  1  0.38364840  0.62666297  0.79789153  1
  O  O23  1  0.37909289  0.97217671  0.80453635  1
  O  O24  1  0.50136912  0.50577440  0.00484266  1
  O  O25  1  0.49437203  0.82933930  0.00279651  1
  O  O26  1  0.60530046  0.03325388  0.17923446  1
  O  O27  1  0.61152676  0.36310750  0.18685080  1
  O  O28  1  0.60975898  0.70503362  0.20088874  1
  O  O29  1  0.71871358  0.23622539  0.42099980  1
  O  O30  1  0.67666144  0.56905352  0.39053675  1
  O  O31  1  0.68301127  0.89448090  0.40249241  1
  O  O32  1  0.89677938  0.13301914  0.81825205  1
  O  O33  1  0.90210258  0.45897986  0.81298189  1
  O  O34  1  0.88706031  0.80390217  0.80058333  1
