# generated using pymatgen
data_Os(OF2)2
_symmetry_space_group_name_H-M   'P 1'
_cell_length_a   9.52358641
_cell_length_b   9.52358614
_cell_length_c   11.78354022
_cell_angle_alpha   90.00000000
_cell_angle_beta   90.00000000
_cell_angle_gamma   119.99999796
_symmetry_Int_Tables_number   1
_chemical_formula_structural   Os(OF2)2
_chemical_formula_sum   'Os6 O12 F24'
_cell_volume   925.56616509
_cell_formula_units_Z   6
loop_
 _symmetry_equiv_pos_site_id
 _symmetry_equiv_pos_as_xyz
  1  'x, y, z'
loop_
 _atom_site_type_symbol
 _atom_site_label
 _atom_site_symmetry_multiplicity
 _atom_site_fract_x
 _atom_site_fract_y
 _atom_site_fract_z
 _atom_site_occupancy
  Os  Os0  1  0.99007237  0.46833164  0.84409318  1
  Os  Os1  1  0.47825927  0.00992763  0.51076018  1
  Os  Os2  1  0.46833164  0.47825927  0.67742618  1
  Os  Os3  1  0.53166836  0.52174073  0.17742618  1
  Os  Os4  1  0.52174073  0.99007237  0.01076018  1
  Os  Os5  1  0.00992763  0.53166836  0.34409318  1
  O  O6  1  0.02165462  0.57458738  0.48638992  1
  O  O7  1  0.18919319  0.61425371  0.83014330  1
  O  O8  1  0.38574629  0.57493948  0.16347630  1
  O  O9  1  0.42541262  0.44706724  0.81972292  1
  O  O10  1  0.42506052  0.81080681  0.49681030  1
  O  O11  1  0.55293276  0.97834538  0.15305592  1
  O  O12  1  0.44706724  0.02165462  0.65305592  1
  O  O13  1  0.57493948  0.18919319  0.99681030  1
  O  O14  1  0.57458738  0.55293276  0.31972292  1
  O  O15  1  0.61425371  0.42506052  0.66347630  1
  O  O16  1  0.81080681  0.38574629  0.33014330  1
  O  O17  1  0.97834538  0.42541262  0.98638992  1
  F  F18  1  0.98883693  0.71630471  0.31925061  1
  F  F19  1  0.30405876  0.94283083  0.01168447  1
  F  F20  1  0.41005367  0.75663027  0.00254968  1
  F  F21  1  0.48310436  0.04013323  0.34948983  1
  F  F22  1  0.95986677  0.44297113  0.68282283  1
  F  F23  1  0.05716917  0.36122794  0.34501747  1
  F  F24  1  0.28369529  0.27253222  0.65258361  1
  F  F25  1  0.34657660  0.58994633  0.66921568  1
  F  F26  1  0.24336973  0.65342340  0.33588268  1
  F  F27  1  0.36122794  0.30405876  0.17835047  1
  F  F28  1  0.27253222  0.98883693  0.48591761  1
  F  F29  1  0.55702887  0.51689564  0.01615683  1
  F  F30  1  0.44297113  0.48310436  0.51615683  1
  F  F31  1  0.72746778  0.01116307  0.98591761  1
  F  F32  1  0.63877206  0.69594124  0.67835047  1
  F  F33  1  0.75663027  0.34657660  0.83588268  1
  F  F34  1  0.65342340  0.41005367  0.16921568  1
  F  F35  1  0.71630471  0.72746778  0.15258361  1
  F  F36  1  0.94283083  0.63877206  0.84501747  1
  F  F37  1  0.04013323  0.55702887  0.18282283  1
  F  F38  1  0.51689564  0.95986677  0.84948983  1
  F  F39  1  0.58994633  0.24336973  0.50254968  1
  F  F40  1  0.69594124  0.05716917  0.51168447  1
  F  F41  1  0.01116307  0.28369529  0.81925061  1
