# generated using pymatgen
data_Sr2La2MgMnO8
_symmetry_space_group_name_H-M   'P 1'
_cell_length_a   3.89035308
_cell_length_b   15.56757402
_cell_length_c   6.87728490
_cell_angle_alpha   106.72859496
_cell_angle_beta   106.42918119
_cell_angle_gamma   90.01953918
_symmetry_Int_Tables_number   1
_chemical_formula_structural   Sr2La2MgMnO8
_chemical_formula_sum   'Sr4 La4 Mg2 Mn2 O16'
_cell_volume   381.07967375
_cell_formula_units_Z   2
loop_
 _symmetry_equiv_pos_site_id
 _symmetry_equiv_pos_as_xyz
  1  'x, y, z'
loop_
 _atom_site_type_symbol
 _atom_site_label
 _atom_site_symmetry_multiplicity
 _atom_site_fract_x
 _atom_site_fract_y
 _atom_site_fract_z
 _atom_site_occupancy
  Sr  Sr0  1  0.35814028  0.08944220  0.71469881  1
  Sr  Sr1  1  0.35547805  0.33938864  0.71342507  1
  Sr  Sr2  1  0.64185972  0.16055780  0.28530119  1
  Sr  Sr3  1  0.64452195  0.91061136  0.28657493  1
  La  La4  1  0.35541117  0.58768476  0.72585487  1
  La  La5  1  0.36167270  0.83757756  0.72282868  1
  La  La6  1  0.63832730  0.41242244  0.27717132  1
  La  La7  1  0.64458883  0.66231524  0.27414513  1
  Mg  Mg8  1  0.99610911  0.49774715  0.99512332  1
  Mg  Mg9  1  0.00389089  0.75225285  0.00487668  1
  Mn  Mn10  1  0.00167271  0.00119585  0.00238887  1
  Mn  Mn11  1  0.99832729  0.24880415  0.99761113  1
  O  O12  1  -0.00000000  0.12500000  0.00000000  1
  O  O13  1  0.00256191  0.36951579  0.00496779  1
  O  O14  1  -0.00000000  0.62500000  0.00000000  1
  O  O15  1  0.99743809  0.88048421  0.99503221  1
  O  O16  1  0.15775893  0.03959254  0.31276714  1
  O  O17  1  0.15619248  0.29329623  0.31743240  1
  O  O18  1  0.17009211  0.54038828  0.35790251  1
  O  O19  1  0.17329465  0.78737551  0.35258544  1
  O  O20  1  0.49684543  0.99885852  0.99000884  1
  O  O21  1  0.50315457  0.25114148  0.00999116  1
  O  O22  1  0.50410059  0.49858704  0.01013120  1
  O  O23  1  0.49589941  0.75141296  0.98986880  1
  O  O24  1  0.84224107  0.21040746  0.68723286  1
  O  O25  1  0.82670535  0.46262449  0.64741456  1
  O  O26  1  0.82990789  0.70961172  0.64209749  1
  O  O27  1  0.84380752  0.95670377  0.68256760  1
