# generated using pymatgen
data_Sr6La4Zn3(RuO10)2
_symmetry_space_group_name_H-M   'P 1'
_cell_length_a   19.88544770
_cell_length_b   5.64643544
_cell_length_c   6.95301293
_cell_angle_alpha   114.01242240
_cell_angle_beta   106.68091571
_cell_angle_gamma   44.83591447
_symmetry_Int_Tables_number   1
_chemical_formula_structural   Sr6La4Zn3(RuO10)2
_chemical_formula_sum   'Sr6 La4 Zn3 Ru2 O20'
_cell_volume   502.81412543
_cell_formula_units_Z   1
loop_
 _symmetry_equiv_pos_site_id
 _symmetry_equiv_pos_as_xyz
  1  'x, y, z'
loop_
 _atom_site_type_symbol
 _atom_site_label
 _atom_site_symmetry_multiplicity
 _atom_site_fract_x
 _atom_site_fract_y
 _atom_site_fract_z
 _atom_site_occupancy
  Sr  Sr0  1  0.39928289  0.35666979  0.71415395  1
  Sr  Sr1  1  0.40012695  0.64588377  0.28692284  1
  Sr  Sr2  1  0.60046911  0.35263780  0.71342833  1
  Sr  Sr3  1  0.80278764  0.34766585  0.71497080  1
  Sr  Sr4  1  0.79940313  0.64651680  0.28495539  1
  Sr  Sr5  1  0.00474836  0.63454587  0.27905557  1
  La  La6  1  0.19032556  0.36647481  0.72114567  1
  La  La7  1  0.19012260  0.68568321  0.27851205  1
  La  La8  1  0.60098900  0.67155831  0.28694510  1
  La  La9  1  0.00689888  0.31614083  0.72249179  1
  Zn  Zn10  1  0.99942426  0.00264354  0.00743775  1
  Zn  Zn11  1  0.20016961  0.00679286  0.01188416  1
  Zn  Zn12  1  0.59995121  0.99890740  0.99182674  1
  Ru  Ru13  1  0.39990528  -0.00030742  0.99813863  1
  Ru  Ru14  1  0.80002513  -0.00100096  0.99894705  1
  O  O15  1  0.10303762  0.98727540  0.99624530  1
  O  O16  1  0.00649815  0.84946023  0.65619468  1
  O  O17  1  0.10198946  0.49469133  0.99508699  1
  O  O18  1  0.20243616  0.14248189  0.36058390  1
  O  O19  1  0.30047100  0.00726742  0.00121639  1
  O  O20  1  0.19410176  0.85226002  0.63656697  1
  O  O21  1  0.30042269  0.48878253  0.99680118  1
  O  O22  1  0.40121641  0.15710628  0.32023648  1
  O  O23  1  0.49718947  0.00179594  0.99890109  1
  O  O24  1  0.39713452  0.85015748  0.68107195  1
  O  O25  1  0.49844189  0.51437802  0.00439403  1
  O  O26  1  0.59999780  0.12593879  0.33649100  1
  O  O27  1  0.70045457  0.00855868  0.00200569  1
  O  O28  1  0.59831926  0.82941559  0.64313357  1
  O  O29  1  0.70237379  0.48720177  0.99534692  1
  O  O30  1  0.79233147  0.17993184  0.32078404  1
  O  O31  1  0.89848374  0.99501344  0.99886782  1
  O  O32  1  0.80505010  0.82693077  0.67969428  1
  O  O33  1  0.89707708  0.51314822  0.00404767  1
  O  O34  1  0.00834345  0.15739189  0.36151424  1
