# generated using pymatgen
data_Na4Cu7P4(ClO9)2
_symmetry_space_group_name_H-M   'P 1'
_cell_length_a   6.43844537
_cell_length_b   8.56314559
_cell_length_c   8.56314526
_cell_angle_alpha   104.99337794
_cell_angle_beta   90.00000000
_cell_angle_gamma   90.00000000
_symmetry_Int_Tables_number   1
_chemical_formula_structural   Na4Cu7P4(ClO9)2
_chemical_formula_sum   'Na4 Cu7 P4 Cl2 O18'
_cell_volume   456.04203901
_cell_formula_units_Z   1
loop_
 _symmetry_equiv_pos_site_id
 _symmetry_equiv_pos_as_xyz
  1  'x, y, z'
loop_
 _atom_site_type_symbol
 _atom_site_label
 _atom_site_symmetry_multiplicity
 _atom_site_fract_x
 _atom_site_fract_y
 _atom_site_fract_z
 _atom_site_occupancy
  Na  Na0  1  0.00508497  0.30602870  0.68951822  1
  Na  Na1  1  0.00508497  0.68951822  0.30602870  1
  Na  Na2  1  0.49491503  0.30602870  0.68951822  1
  Na  Na3  1  0.49491503  0.68951822  0.30602870  1
  Cu  Cu4  1  0.00256513  0.00206183  0.00206183  1
  Cu  Cu5  1  0.25000000  0.67843063  0.90225310  1
  Cu  Cu6  1  0.25000000  0.90225310  0.67843063  1
  Cu  Cu7  1  0.49743487  0.00206183  0.00206183  1
  Cu  Cu8  1  0.75000000  0.08433056  0.31531450  1
  Cu  Cu9  1  0.75000000  0.31531450  0.08433056  1
  Cu  Cu10  1  0.75000000  0.62030393  0.62030393  1
  P  P11  1  0.25000000  0.04195199  0.37633783  1
  P  P12  1  0.25000000  0.37633783  0.04195199  1
  P  P13  1  0.75000000  0.63300425  0.96179861  1
  P  P14  1  0.75000000  0.96179861  0.63300425  1
  Cl  Cl15  1  0.25000000  0.60684319  0.60684319  1
  Cl  Cl16  1  0.75000000  0.40215028  0.40215028  1
  O  O17  1  0.05390759  0.02231761  0.26215000  1
  O  O18  1  0.05390759  0.26215000  0.02231761  1
  O  O19  1  0.25000000  0.19708558  0.50939174  1
  O  O20  1  0.25000000  0.44806139  0.88944928  1
  O  O21  1  0.25000000  0.88944928  0.44806139  1
  O  O22  1  0.25000000  0.50939174  0.19708558  1
  O  O23  1  0.25000000  0.90850439  0.90850439  1
  O  O24  1  0.44609241  0.02231761  0.26215000  1
  O  O25  1  0.44609241  0.26215000  0.02231761  1
  O  O26  1  0.55341958  0.74195105  0.98436371  1
  O  O27  1  0.55341958  0.98436371  0.74195105  1
  O  O28  1  0.75000000  0.09785312  0.54233604  1
  O  O29  1  0.75000000  0.50832290  0.79168152  1
  O  O30  1  0.75000000  0.54233604  0.09785312  1
  O  O31  1  0.75000000  0.79168152  0.50832290  1
  O  O32  1  0.75000000  0.09351294  0.09351294  1
  O  O33  1  0.94658042  0.74195105  0.98436371  1
  O  O34  1  0.94658042  0.98436371  0.74195105  1
