# generated using pymatgen
data_Li5Mn3O8
_symmetry_space_group_name_H-M   'P 1'
_cell_length_a   5.05444126
_cell_length_b   5.91479863
_cell_length_c   5.77226034
_cell_angle_alpha   60.85830870
_cell_angle_beta   106.57973133
_cell_angle_gamma   105.79217264
_symmetry_Int_Tables_number   1
_chemical_formula_structural   Li5Mn3O8
_chemical_formula_sum   'Li5 Mn3 O8'
_cell_volume   142.61677489
_cell_formula_units_Z   1
loop_
 _symmetry_equiv_pos_site_id
 _symmetry_equiv_pos_as_xyz
  1  'x, y, z'
loop_
 _atom_site_type_symbol
 _atom_site_label
 _atom_site_symmetry_multiplicity
 _atom_site_fract_x
 _atom_site_fract_y
 _atom_site_fract_z
 _atom_site_occupancy
  Li  Li0  1  0.49398702  0.25014928  0.75321386  1
  Li  Li1  1  0.50926973  0.73872576  0.76336378  1
  Li  Li2  1  0.50601298  0.74985072  0.24678614  1
  Li  Li3  1  0.49073027  0.26127424  0.23663622  1
  Li  Li4  1  -0.00000000  0.50000000  0.00000000  1
  Mn  Mn5  1  -0.00000000  -0.00000000  0.00000000  1
  Mn  Mn6  1  -0.00000000  0.50000000  0.50000000  1
  Mn  Mn7  1  -0.00000000  -0.00000000  0.50000000  1
  O  O8  1  0.22407164  0.88884698  0.86182734  1
  O  O9  1  0.22028436  0.35259266  0.86734859  1
  O  O10  1  0.21946216  0.35127590  0.39168148  1
  O  O11  1  0.23466702  0.90352199  0.35648395  1
  O  O12  1  0.78053784  0.64872410  0.60831852  1
  O  O13  1  0.76533298  0.09647801  0.64351605  1
  O  O14  1  0.77592836  0.11115302  0.13817266  1
  O  O15  1  0.77971564  0.64740734  0.13265141  1
