# generated using pymatgen
data_Li7Mn5O12
_symmetry_space_group_name_H-M   'P 1'
_cell_length_a   5.07524555
_cell_length_b   7.65102023
_cell_length_c   6.00190378
_cell_angle_alpha   98.67416988
_cell_angle_beta   104.39378606
_cell_angle_gamma   77.43562701
_symmetry_Int_Tables_number   1
_chemical_formula_structural   Li7Mn5O12
_chemical_formula_sum   'Li7 Mn5 O12'
_cell_volume   219.18050139
_cell_formula_units_Z   1
loop_
 _symmetry_equiv_pos_site_id
 _symmetry_equiv_pos_as_xyz
  1  'x, y, z'
loop_
 _atom_site_type_symbol
 _atom_site_label
 _atom_site_symmetry_multiplicity
 _atom_site_fract_x
 _atom_site_fract_y
 _atom_site_fract_z
 _atom_site_occupancy
  Li  Li0  1  0.50000000  0.16666700  0.16666700  1
  Li  Li1  1  0.50000000  0.16666700  0.66666700  1
  Li  Li2  1  0.50011736  0.50509290  0.49910822  1
  Li  Li3  1  0.49049582  0.50602297  0.00304043  1
  Li  Li4  1  0.49988264  0.82824010  0.83422478  1
  Li  Li5  1  0.50950418  0.82731003  0.33029257  1
  Li  Li6  1  -0.00000000  0.66666700  0.16666700  1
  Mn  Mn7  1  0.99712232  0.99661459  0.99841400  1
  Mn  Mn8  1  -0.00000000  0.66666700  0.66666700  1
  Mn  Mn9  1  0.99785663  0.99451680  0.49151934  1
  Mn  Mn10  1  0.00287768  0.33671841  0.33491900  1
  Mn  Mn11  1  0.00214337  0.33881620  0.84181366  1
  O  O12  1  0.21842249  0.08978600  0.82816183  1
  O  O13  1  0.23435019  0.08860807  0.34859233  1
  O  O14  1  0.23120001  0.40539114  0.16396138  1
  O  O15  1  0.23480799  0.43023360  0.68549296  1
  O  O16  1  0.22789261  0.75733372  0.51072761  1
  O  O17  1  0.21614043  0.75428609  0.96814737  1
  O  O18  1  0.78157751  0.24354800  0.50517217  1
  O  O19  1  0.76564981  0.24472593  0.98474167  1
  O  O20  1  0.77210739  0.57599928  0.82260539  1
  O  O21  1  0.78385957  0.57904691  0.36518563  1
  O  O22  1  0.76879999  0.92794186  0.16937162  1
  O  O23  1  0.76519201  0.90309940  0.64784004  1
