# generated using pymatgen
data_Li3Co2O5
_symmetry_space_group_name_H-M   'P 1'
_cell_length_a   4.95142684
_cell_length_b   5.02580844
_cell_length_c   7.56259140
_cell_angle_alpha   108.20089187
_cell_angle_beta   72.19121537
_cell_angle_gamma   100.18197598
_symmetry_Int_Tables_number   1
_chemical_formula_structural   Li3Co2O5
_chemical_formula_sum   'Li6 Co4 O10'
_cell_volume   169.52384751
_cell_formula_units_Z   2
loop_
 _symmetry_equiv_pos_site_id
 _symmetry_equiv_pos_as_xyz
  1  'x, y, z'
loop_
 _atom_site_type_symbol
 _atom_site_label
 _atom_site_symmetry_multiplicity
 _atom_site_fract_x
 _atom_site_fract_y
 _atom_site_fract_z
 _atom_site_occupancy
  Li  Li0  1  0.68906575  0.50090685  0.10321116  1
  Li  Li1  1  0.50247530  0.49304448  0.49487730  1
  Li  Li2  1  0.11093425  0.49909315  0.29678884  1
  Li  Li3  1  0.90000000  0.50000000  0.70000000  1
  Li  Li4  1  0.29752470  0.50695552  0.90512270  1
  Li  Li5  1  0.40000000  -0.00000000  0.20000000  1
  Co  Co6  1  -0.00062466  0.00158578  0.00582122  1
  Co  Co7  1  0.80062466  0.99841422  0.39417878  1
  Co  Co8  1  0.59506908  0.00239604  0.80933288  1
  Co  Co9  1  0.20493092  0.99760396  0.59066712  1
  O  O10  1  0.93581485  0.21894548  0.85787172  1
  O  O11  1  0.77266684  0.21699042  0.24532448  1
  O  O12  1  0.32675154  0.23588448  0.04030224  1
  O  O13  1  0.12828686  0.22536211  0.45833402  1
  O  O14  1  0.55291151  0.21441726  0.63335831  1
  O  O15  1  0.47324846  0.76411552  0.35969776  1
  O  O16  1  0.24708849  0.78558274  0.76664169  1
  O  O17  1  0.86418515  0.78105452  0.54212828  1
  O  O18  1  0.67171314  0.77463789  0.94166598  1
  O  O19  1  0.02733316  0.78300958  0.15467552  1
