# generated using pymatgen
data_Li7Mn5O12
_symmetry_space_group_name_H-M   'P 1'
_cell_length_a   5.24024413
_cell_length_b   6.02052598
_cell_length_c   7.67780848
_cell_angle_alpha   81.39913993
_cell_angle_beta   82.85554717
_cell_angle_gamma   109.89533102
_symmetry_Int_Tables_number   1
_chemical_formula_structural   Li7Mn5O12
_chemical_formula_sum   'Li7 Mn5 O12'
_cell_volume   221.17115006
_cell_formula_units_Z   1
loop_
 _symmetry_equiv_pos_site_id
 _symmetry_equiv_pos_as_xyz
  1  'x, y, z'
loop_
 _atom_site_type_symbol
 _atom_site_label
 _atom_site_symmetry_multiplicity
 _atom_site_fract_x
 _atom_site_fract_y
 _atom_site_fract_z
 _atom_site_occupancy
  Li  Li0  1  0.50029831  0.08113668  0.17081494  1
  Li  Li1  1  0.49685993  0.75657711  0.50522451  1
  Li  Li2  1  0.50702041  0.42736349  0.82547334  1
  Li  Li3  1  0.49970169  0.58552932  0.16251906  1
  Li  Li4  1  0.49297959  0.23930351  0.50785966  1
  Li  Li5  1  0.50314007  0.91008989  0.82810849  1
  Li  Li6  1  -0.00000000  0.83333300  0.66666700  1
  Mn  Mn7  1  0.99604537  0.00153083  0.99711357  1
  Mn  Mn8  1  -0.00000000  0.33333300  0.66666700  1
  Mn  Mn9  1  0.00395463  0.66513617  0.33621943  1
  Mn  Mn10  1  0.99830526  0.50944981  0.99362532  1
  Mn  Mn11  1  0.00169474  0.15721719  0.33970768  1
  O  O12  1  0.21539722  0.28163642  0.09127737  1
  O  O13  1  0.22828012  0.95306426  0.40559329  1
  O  O14  1  0.23460827  0.60557930  0.75488029  1
  O  O15  1  0.23557293  0.77084559  0.08673192  1
  O  O16  1  0.23613821  0.42881383  0.43071547  1
  O  O17  1  0.20989440  0.14036004  0.75604045  1
  O  O18  1  0.76442707  0.89582041  0.24660208  1
  O  O19  1  0.79010560  0.52630696  0.57729255  1
  O  O20  1  0.76386179  0.23785317  0.90261753  1
  O  O21  1  0.78460278  0.38502958  0.24205663  1
  O  O22  1  0.76539173  0.06108770  0.57845271  1
  O  O23  1  0.77171988  0.71360274  0.92773971  1
