# generated using pymatgen
data_Na3Li3Mn2P2(CO7)2
_symmetry_space_group_name_H-M   'P 1'
_cell_length_a   8.75921477
_cell_length_b   6.79216465
_cell_length_c   10.26003542
_cell_angle_alpha   89.96881277
_cell_angle_beta   88.33989180
_cell_angle_gamma   89.76964445
_symmetry_Int_Tables_number   1
_chemical_formula_structural   Na3Li3Mn2P2(CO7)2
_chemical_formula_sum   'Na6 Li6 Mn4 P4 C4 O28'
_cell_volume   610.14965098
_cell_formula_units_Z   2
loop_
 _symmetry_equiv_pos_site_id
 _symmetry_equiv_pos_as_xyz
  1  'x, y, z'
loop_
 _atom_site_type_symbol
 _atom_site_label
 _atom_site_symmetry_multiplicity
 _atom_site_fract_x
 _atom_site_fract_y
 _atom_site_fract_z
 _atom_site_occupancy
  Na  Na0  1  0.08420457  0.25585947  0.87577414  1
  Na  Na1  1  0.25154914  0.99761815  0.62694242  1
  Na  Na2  1  0.25374187  0.00105062  0.12635330  1
  Na  Na3  1  0.25277784  0.49926849  0.12708889  1
  Na  Na4  1  0.75008058  0.50078548  0.87378083  1
  Na  Na5  1  0.74722150  0.50061395  0.37377539  1
  Li  Li6  1  0.08948554  0.24001914  0.37581649  1
  Li  Li7  1  0.28382777  0.45736445  0.60583658  1
  Li  Li8  1  0.72139950  0.96133131  0.89023766  1
  Li  Li9  1  0.72746501  0.97579237  0.38407302  1
  Li  Li10  1  0.90525312  0.75918097  0.62639614  1
  Li  Li11  1  0.90130922  0.76962724  0.12754433  1
  Mn  Mn12  1  0.36139674  0.74580405  0.88435453  1
  Mn  Mn13  1  0.35708602  0.74766670  0.39082192  1
  Mn  Mn14  1  0.65186022  0.24188840  0.61189391  1
  Mn  Mn15  1  0.64285530  0.24467503  0.10998452  1
  P  P16  1  0.41734132  0.24646450  0.85189518  1
  P  P17  1  0.40936999  0.24422608  0.35856509  1
  P  P18  1  0.59528471  0.74681838  0.64214755  1
  P  P19  1  0.59330990  0.75244022  0.14279916  1
  C  C20  1  0.04271661  0.76260784  0.86506627  1
  C  C21  1  0.04223897  0.76349408  0.36487212  1
  C  C22  1  0.96185186  0.26467659  0.62608017  1
  C  C23  1  0.93876902  0.24681666  0.14837497  1
  O  O24  1  0.10568666  0.28528163  0.64838561  1
  O  O25  1  0.08209168  0.25055813  0.17732421  1
  O  O26  1  0.07137647  0.75553926  0.98891322  1
  O  O27  1  0.07279211  0.76377995  0.48746198  1
  O  O28  1  0.15383914  0.74766969  0.77822426  1
  O  O29  1  0.15333751  0.74555161  0.27703267  1
  O  O30  1  0.31784051  0.06467885  0.88944336  1
  O  O31  1  0.33145855  0.43025042  0.90651973  1
  O  O32  1  0.30662162  0.06584708  0.39808568  1
  O  O33  1  0.31871423  0.42960864  0.40757337  1
  O  O34  1  0.43083514  0.26270530  0.69965489  1
  O  O35  1  0.43037935  0.73022211  0.58962253  1
  O  O36  1  0.42743719  0.25183011  0.20680024  1
  O  O37  1  0.43204204  0.75005942  0.08399480  1
  O  O38  1  0.58214933  0.22806649  0.90483903  1
  O  O39  1  0.58024469  0.77186267  0.79368953  1
  O  O40  1  0.57115760  0.23281417  0.41603289  1
  O  O41  1  0.57342945  0.77723879  0.29405227  1
  O  O42  1  0.69505430  0.56262885  0.60961716  1
  O  O43  1  0.68657475  0.92350812  0.58289205  1
  O  O44  1  0.68730752  0.56312699  0.11165790  1
  O  O45  1  0.69280913  0.92367348  0.08573594  1
  O  O46  1  0.86392821  0.24924997  0.72461171  1
  O  O47  1  0.83517357  0.23160227  0.24167195  1
  O  O48  1  0.91295942  0.25596313  0.50785525  1
  O  O49  1  0.89548451  0.25764336  0.02861792  1
  O  O50  1  0.90381512  0.78304048  0.82472689  1
  O  O51  1  0.90306191  0.77990885  0.32448832  1
