# generated using pymatgen
data_Li4Mn3CoO8
_symmetry_space_group_name_H-M   'P 1'
_cell_length_a   3.09388168
_cell_length_b   5.06925225
_cell_length_c   10.01591714
_cell_angle_alpha   77.24177175
_cell_angle_beta   95.63203572
_cell_angle_gamma   94.86704470
_symmetry_Int_Tables_number   1
_chemical_formula_structural   Li4Mn3CoO8
_chemical_formula_sum   'Li4 Mn3 Co1 O8'
_cell_volume   152.14509043
_cell_formula_units_Z   1
loop_
 _symmetry_equiv_pos_site_id
 _symmetry_equiv_pos_as_xyz
  1  'x, y, z'
loop_
 _atom_site_type_symbol
 _atom_site_label
 _atom_site_symmetry_multiplicity
 _atom_site_fract_x
 _atom_site_fract_y
 _atom_site_fract_z
 _atom_site_occupancy
  Li  Li0  1  0.00064154  0.24851733  0.24908100  1
  Li  Li1  1  0.50055516  0.24730817  0.75262169  1
  Li  Li2  1  0.49944484  0.75269183  0.24737831  1
  Li  Li3  1  0.99935846  0.75148267  0.75091900  1
  Mn  Mn4  1  0.50000000  0.00000000  0.50000000  1
  Mn  Mn5  1  0.50000000  0.50000000  0.00000000  1
  Mn  Mn6  1  -0.00000000  0.50000000  0.50000000  1
  Co  Co7  1  -0.00000000  0.00000000  0.00000000  1
  O  O8  1  0.47778274  0.13217101  0.11345504  1
  O  O9  1  0.97631638  0.13487120  0.61638033  1
  O  O10  1  0.97858959  0.64203743  0.11409067  1
  O  O11  1  0.47595231  0.63477128  0.61716738  1
  O  O12  1  0.52404769  0.36522872  0.38283262  1
  O  O13  1  0.02141041  0.35796257  0.88590933  1
  O  O14  1  0.02368362  0.86512880  0.38361967  1
  O  O15  1  0.52221726  0.86782899  0.88654496  1
