# generated using pymatgen
data_Li7Mn4CoO12
_symmetry_space_group_name_H-M   'P 1'
_cell_length_a   5.10017838
_cell_length_b   7.66743267
_cell_length_c   5.94765749
_cell_angle_alpha   100.18557867
_cell_angle_beta   106.18948892
_cell_angle_gamma   77.58669618
_symmetry_Int_Tables_number   1
_chemical_formula_structural   Li7Mn4CoO12
_chemical_formula_sum   'Li7 Mn4 Co1 O12'
_cell_volume   216.43879105
_cell_formula_units_Z   1
loop_
 _symmetry_equiv_pos_site_id
 _symmetry_equiv_pos_as_xyz
  1  'x, y, z'
loop_
 _atom_site_type_symbol
 _atom_site_label
 _atom_site_symmetry_multiplicity
 _atom_site_fract_x
 _atom_site_fract_y
 _atom_site_fract_z
 _atom_site_occupancy
  Li  Li0  1  0.50100324  0.17492233  0.16795945  1
  Li  Li1  1  0.49435417  0.17395927  0.67302842  1
  Li  Li2  1  0.49996732  0.49592689  0.50399608  1
  Li  Li3  1  0.50403072  0.49387127  0.98841205  1
  Li  Li4  1  0.49758748  0.82918980  0.82891799  1
  Li  Li5  1  0.50359226  0.83079501  0.33742202  1
  Li  Li6  1  0.99866980  0.33624479  0.83297679  1
  Mn  Mn7  1  -0.00019226  0.00064805  0.99695258  1
  Mn  Mn8  1  0.00441243  0.33398181  0.33903258  1
  Mn  Mn9  1  0.99992036  0.00309362  0.50547680  1
  Mn  Mn10  1  0.99751519  0.66316844  0.16070320  1
  Co  Co11  1  0.99736606  0.65961140  0.66808784  1
  O  O12  1  0.22669666  0.06644173  0.81538780  1
  O  O13  1  0.23087055  0.09628301  0.35272562  1
  O  O14  1  0.22374359  0.42746050  0.17699269  1
  O  O15  1  0.23279781  0.41508100  0.64133127  1
  O  O16  1  0.21735674  0.75908913  0.47830563  1
  O  O17  1  0.22733145  0.75717483  0.01675348  1
  O  O18  1  0.77912848  0.24161532  0.49049611  1
  O  O19  1  0.78127046  0.23964433  0.02545745  1
  O  O20  1  0.76594721  0.59735450  0.85862047  1
  O  O21  1  0.77057724  0.57000553  0.31406146  1
  O  O22  1  0.78405876  0.91250141  0.18142719  1
  O  O23  1  0.76199430  0.92193603  0.64547505  1
