# generated using pymatgen
data_Li7Mn4CoO12
_symmetry_space_group_name_H-M   'P 1'
_cell_length_a   5.02671644
_cell_length_b   6.49378498
_cell_length_c   6.76241398
_cell_angle_alpha   83.88460232
_cell_angle_beta   99.13197057
_cell_angle_gamma   97.19334284
_symmetry_Int_Tables_number   1
_chemical_formula_structural   Li7Mn4CoO12
_chemical_formula_sum   'Li7 Mn4 Co1 O12'
_cell_volume   215.38053488
_cell_formula_units_Z   1
loop_
 _symmetry_equiv_pos_site_id
 _symmetry_equiv_pos_as_xyz
  1  'x, y, z'
loop_
 _atom_site_type_symbol
 _atom_site_label
 _atom_site_symmetry_multiplicity
 _atom_site_fract_x
 _atom_site_fract_y
 _atom_site_fract_z
 _atom_site_occupancy
  Li  Li0  1  0.73735984  0.24937688  0.25551802  1
  Li  Li1  1  0.74729004  0.58204506  0.90702452  1
  Li  Li2  1  0.25996051  0.08842468  0.41498596  1
  Li  Li3  1  0.27167523  0.41367024  0.06450790  1
  Li  Li4  1  0.72860395  0.91440786  0.60374365  1
  Li  Li5  1  0.26102142  0.75524417  0.74985282  1
  Li  Li6  1  0.50120991  0.16740368  0.82856294  1
  Mn  Mn7  1  0.00113257  0.00387391  0.98840749  1
  Mn  Mn8  1  0.99675016  0.33152859  0.67051609  1
  Mn  Mn9  1  0.00146066  0.66511444  0.34016308  1
  Mn  Mn10  1  0.50021939  0.83888281  0.16122688  1
  Co  Co11  1  0.49487052  0.49555111  0.50774082  1
  O  O12  1  0.90071347  0.28286721  0.94259064  1
  O  O13  1  0.85421396  0.60063311  0.62653441  1
  O  O14  1  0.36408345  0.10786851  0.12218494  1
  O  O15  1  0.36071632  0.45419841  0.76444308  1
  O  O16  1  0.87930845  0.95261245  0.26216059  1
  O  O17  1  0.35731480  0.77171377  0.45999755  1
  O  O18  1  0.63664246  0.22860694  0.54643059  1
  O  O19  1  0.62558619  0.55386563  0.23418107  1
  O  O20  1  0.10458036  0.05282394  0.72239763  1
  O  O21  1  0.12356807  0.38097712  0.40465239  1
  O  O22  1  0.65400296  0.88090124  0.88259020  1
  O  O23  1  0.13771534  0.72740823  0.03958672  1
