# generated using pymatgen
data_Li6Mn3CoO10
_symmetry_space_group_name_H-M   'P 1'
_cell_length_a   5.01585241
_cell_length_b   5.82459754
_cell_length_c   6.63741408
_cell_angle_alpha   76.46465134
_cell_angle_beta   81.62379933
_cell_angle_gamma   106.77742321
_symmetry_Int_Tables_number   1
_chemical_formula_structural   Li6Mn3CoO10
_chemical_formula_sum   'Li6 Mn3 Co1 O10'
_cell_volume   175.70362427
_cell_formula_units_Z   1
loop_
 _symmetry_equiv_pos_site_id
 _symmetry_equiv_pos_as_xyz
  1  'x, y, z'
loop_
 _atom_site_type_symbol
 _atom_site_label
 _atom_site_symmetry_multiplicity
 _atom_site_fract_x
 _atom_site_fract_y
 _atom_site_fract_z
 _atom_site_occupancy
  Li  Li0  1  0.79419548  0.10146578  0.40357082  1
  Li  Li1  1  0.98661297  0.49992163  0.98829400  1
  Li  Li2  1  0.60176042  0.70094034  0.79504111  1
  Li  Li3  1  0.41044010  0.29872989  0.20000754  1
  Li  Li4  1  0.20844771  0.89988862  0.61328844  1
  Li  Li5  1  0.59925332  0.20057682  0.79506944  1
  Mn  Mn6  1  0.00282444  0.00096521  0.99469540  1
  Mn  Mn7  1  0.20231345  0.39908095  0.60395160  1
  Mn  Mn8  1  0.40151623  0.80353994  0.19730364  1
  Co  Co9  1  0.80070396  0.59768250  0.40389112  1
  O  O10  1  0.70032710  0.12453531  0.10296360  1
  O  O11  1  0.91539673  0.54941694  0.67024504  1
  O  O12  1  0.50530492  0.72249333  0.50930445  1
  O  O13  1  0.27012933  0.33497382  0.89101727  1
  O  O14  1  0.09306728  0.93890818  0.27937454  1
  O  O15  1  0.92325030  0.06463773  0.71224496  1
  O  O16  1  0.10606626  0.46576097  0.32055754  1
  O  O17  1  0.70662617  0.66422882  0.11425785  1
  O  O18  1  0.50013902  0.27876095  0.49830890  1
  O  O19  1  0.27162480  0.85349228  0.90661274  1
