# generated using pymatgen
data_LiMn2O2F3
_symmetry_space_group_name_H-M   'P 1'
_cell_length_a   4.99729718
_cell_length_b   6.11412731
_cell_length_c   7.68236108
_cell_angle_alpha   75.29558961
_cell_angle_beta   108.98041150
_cell_angle_gamma   65.87880773
_symmetry_Int_Tables_number   1
_chemical_formula_structural   LiMn2O2F3
_chemical_formula_sum   'Li2 Mn4 O4 F6'
_cell_volume   181.10546248
_cell_formula_units_Z   2
loop_
 _symmetry_equiv_pos_site_id
 _symmetry_equiv_pos_as_xyz
  1  'x, y, z'
loop_
 _atom_site_type_symbol
 _atom_site_label
 _atom_site_symmetry_multiplicity
 _atom_site_fract_x
 _atom_site_fract_y
 _atom_site_fract_z
 _atom_site_occupancy
  Li  Li0  1  -0.00000000  0.50000000  0.00000000  1
  Li  Li1  1  0.50000000  0.00000000  0.50000000  1
  Mn  Mn2  1  0.79511109  0.98963359  0.13232793  1
  Mn  Mn3  1  0.34758325  0.48963359  0.63232793  1
  Mn  Mn4  1  0.65241675  0.51036641  0.36767207  1
  Mn  Mn5  1  0.20488891  0.01036641  0.86767207  1
  O  O6  1  0.24532806  0.73714286  0.36761639  1
  O  O7  1  0.38514446  0.23714286  0.86761639  1
  O  O8  1  0.61485554  0.76285714  0.13238361  1
  O  O9  1  0.75467194  0.26285714  0.63238361  1
  F  F10  1  0.46073208  0.75000000  0.75000000  1
  F  F11  1  0.87720369  0.70259592  0.55093014  1
  F  F12  1  0.97113052  0.20259592  0.05093014  1
  F  F13  1  0.02886948  0.79740408  0.94906986  1
  F  F14  1  0.12279631  0.29740408  0.44906986  1
  F  F15  1  0.53926792  0.25000000  0.25000000  1
