# generated using pymatgen
data_Na3V24O58
_symmetry_space_group_name_H-M   'P 1'
_cell_length_a   14.60588370
_cell_length_b   7.35985252
_cell_length_c   10.39204228
_cell_angle_alpha   90.02360149
_cell_angle_beta   102.09810269
_cell_angle_gamma   82.75660804
_symmetry_Int_Tables_number   1
_chemical_formula_structural   Na3V24O58
_chemical_formula_sum   'Na3 V24 O58'
_cell_volume   1083.19712168
_cell_formula_units_Z   1
loop_
 _symmetry_equiv_pos_site_id
 _symmetry_equiv_pos_as_xyz
  1  'x, y, z'
loop_
 _atom_site_type_symbol
 _atom_site_label
 _atom_site_symmetry_multiplicity
 _atom_site_fract_x
 _atom_site_fract_y
 _atom_site_fract_z
 _atom_site_occupancy
  Na  Na0  1  0.00959234  0.00043161  0.37155023  1
  Na  Na1  1  0.48672861  0.12884849  0.45304599  1
  Na  Na2  1  0.98911438  0.50374328  0.62797671  1
  V  V3  1  0.17412295  0.20838987  0.85985926  1
  V  V4  1  0.17147156  0.70683903  0.85843088  1
  V  V5  1  0.12395284  0.46964903  0.08093570  1
  V  V6  1  0.12969957  0.96741220  0.08500059  1
  V  V7  1  0.22142771  0.19412198  0.53912007  1
  V  V8  1  0.21899692  0.69580331  0.53556694  1
  V  V9  1  0.29081731  0.42881614  0.33783286  1
  V  V10  1  0.29016262  0.92581282  0.33542083  1
  V  V11  1  0.39549395  0.15100245  0.79021211  1
  V  V12  1  0.38980082  0.65201899  0.78873939  1
  V  V13  1  0.35492018  0.41274594  0.02488007  1
  V  V14  1  0.35849786  0.90991868  0.02420108  1
  V  V15  1  0.64276250  0.08927420  0.97540569  1
  V  V16  1  0.64390536  0.58917811  0.97155480  1
  V  V17  1  0.60778671  0.34826508  0.21184701  1
  V  V18  1  0.60662235  0.84780410  0.20634982  1
  V  V19  1  0.71272307  0.07221578  0.66881746  1
  V  V20  1  0.70470278  0.57332583  0.65894123  1
  V  V21  1  0.78006669  0.30453035  0.46330000  1
  V  V22  1  0.78000578  0.80552207  0.46421871  1
  V  V23  1  0.88021645  0.03108550  0.91856151  1
  V  V24  1  0.87653911  0.52951956  0.92439970  1
  V  V25  1  0.82771092  0.29221607  0.14303583  1
  V  V26  1  0.82455970  0.79597304  0.13897233  1
  O  O27  1  0.07031013  0.24002164  0.76393443  1
  O  O28  1  0.06801903  0.72124848  0.75913557  1
  O  O29  1  0.99842512  0.00046711  0.99738510  1
  O  O30  1  0.99789214  0.50001071  0.99966205  1
  O  O31  1  0.10693942  0.22143578  0.50221545  1
  O  O32  1  0.10470967  0.72617589  0.50121650  1
  O  O33  1  0.20316140  0.44210592  0.90143203  1
  O  O34  1  0.20140929  0.95741194  0.90907107  1
  O  O35  1  0.12153039  0.46926540  0.23727031  1
  O  O36  1  0.12509302  0.96993236  0.24402598  1
  O  O37  1  0.13956645  0.22313471  0.03440848  1
  O  O38  1  0.13973772  0.70655335  0.03644033  1
  O  O39  1  0.24752017  0.18656690  0.72032258  1
  O  O40  1  0.25097337  0.68853421  0.71721612  1
  O  O41  1  0.24827564  0.43841700  0.51246257  1
  O  O42  1  0.24801011  0.93756925  0.51190589  1
  O  O43  1  0.33793691  0.17259365  0.97676517  1
  O  O44  1  0.32998806  0.66059089  0.98354874  1
  O  O45  1  0.26513110  0.18552329  0.36660419  1
  O  O46  1  0.25978513  0.68325707  0.36355455  1
  O  O47  1  0.27885922  0.42689739  0.15630861  1
  O  O48  1  0.27840022  0.93207647  0.15919515  1
  O  O49  1  0.38837514  0.41250048  0.84469356  1
  O  O50  1  0.38765867  0.89319679  0.84485752  1
  O  O51  1  0.40170127  0.15001673  0.63348680  1
  O  O52  1  0.40825842  0.64759610  0.64114717  1
  O  O53  1  0.40433572  0.40641710  0.38277228  1
  O  O54  1  0.40392713  0.89292521  0.38318218  1
  O  O55  1  0.53131224  0.11777067  0.88103721  1
  O  O56  1  0.53307834  0.61606494  0.88224862  1
  O  O57  1  0.46464421  0.38549826  0.11749685  1
  O  O58  1  0.46987823  0.88271130  0.11957473  1
  O  O59  1  0.59221250  0.60256449  0.61212091  1
  O  O60  1  0.59891891  0.09933014  0.62657661  1
  O  O61  1  0.59243319  0.33920747  0.36357443  1
  O  O62  1  0.59347856  0.86025061  0.35810768  1
  O  O63  1  0.61298009  0.08871927  0.15469838  1
  O  O64  1  0.61217458  0.60462904  0.15711058  1
  O  O65  1  0.72519478  0.06962811  0.84383524  1
  O  O66  1  0.71681477  0.56964653  0.84229393  1
  O  O67  1  0.73796700  0.31710352  0.63563199  1
  O  O68  1  0.73891561  0.81361282  0.63592124  1
  O  O69  1  0.66567273  0.34292577  0.02479570  1
  O  O70  1  0.66572208  0.82465891  0.01804020  1
  O  O71  1  0.75294052  0.05965337  0.48832561  1
  O  O72  1  0.74961116  0.56443052  0.48706903  1
  O  O73  1  0.75127388  0.31326540  0.28445584  1
  O  O74  1  0.75020459  0.81110199  0.27896512  1
  O  O75  1  0.85767253  0.78507374  0.96301215  1
  O  O76  1  0.85703303  0.28665800  0.96190247  1
  O  O77  1  0.88022308  0.03005234  0.76064148  1
  O  O78  1  0.87660925  0.53072677  0.76547393  1
  O  O79  1  0.80291314  0.55578677  0.09452833  1
  O  O80  1  0.79455481  0.04458415  0.09463522  1
  O  O81  1  0.89464837  0.28081841  0.50006618  1
  O  O82  1  0.89441120  0.77250604  0.49764676  1
  O  O83  1  0.92820022  0.77978017  0.23546077  1
  O  O84  1  0.93234928  0.25373909  0.23905563  1
