# generated using pymatgen
data_LiFe3O4
_symmetry_space_group_name_H-M   'P 1'
_cell_length_a   6.03141306
_cell_length_b   6.20377485
_cell_length_c   6.03141316
_cell_angle_alpha   59.19112658
_cell_angle_beta   92.17788879
_cell_angle_gamma   120.80888469
_symmetry_Int_Tables_number   1
_chemical_formula_structural   LiFe3O4
_chemical_formula_sum   'Li2 Fe6 O8'
_cell_volume   158.59503370
_cell_formula_units_Z   2
loop_
 _symmetry_equiv_pos_site_id
 _symmetry_equiv_pos_as_xyz
  1  'x, y, z'
loop_
 _atom_site_type_symbol
 _atom_site_label
 _atom_site_symmetry_multiplicity
 _atom_site_fract_x
 _atom_site_fract_y
 _atom_site_fract_z
 _atom_site_occupancy
  Li  Li0  1  0.00000000  0.00000000  0.50000000  1
  Li  Li1  1  0.00000000  0.50000000  0.50000000  1
  Fe  Fe2  1  0.00000000  0.00000000  -0.00000000  1
  Fe  Fe3  1  0.50000000  0.00000000  -0.00000000  1
  Fe  Fe4  1  0.00000000  0.50000000  -0.00000000  1
  Fe  Fe5  1  0.50000000  0.00000000  0.50000000  1
  Fe  Fe6  1  0.50000000  0.50000000  -0.00000000  1
  Fe  Fe7  1  0.50000000  0.50000000  0.50000000  1
  O  O8  1  0.25851753  0.99755024  0.24456636  1
  O  O9  1  0.75530463  0.02064151  0.25715633  1
  O  O10  1  0.25543364  0.49755024  0.24148247  1
  O  O11  1  0.75715633  0.47935849  0.25530463  1
  O  O12  1  0.24284367  0.52064151  0.74469537  1
  O  O13  1  0.74456636  0.50244976  0.75851753  1
  O  O14  1  0.24469537  0.97935849  0.74284367  1
  O  O15  1  0.74148247  0.00244976  0.75543364  1
