# generated using pymatgen
data_LiCo2(PO4)2
_symmetry_space_group_name_H-M   'P 1'
_cell_length_a   5.11885251
_cell_length_b   8.67138192
_cell_length_c   8.56755583
_cell_angle_alpha   108.13670973
_cell_angle_beta   89.99999223
_cell_angle_gamma   89.99999560
_symmetry_Int_Tables_number   1
_chemical_formula_structural   LiCo2(PO4)2
_chemical_formula_sum   'Li2 Co4 P4 O16'
_cell_volume   361.39832572
_cell_formula_units_Z   2
loop_
 _symmetry_equiv_pos_site_id
 _symmetry_equiv_pos_as_xyz
  1  'x, y, z'
loop_
 _atom_site_type_symbol
 _atom_site_label
 _atom_site_symmetry_multiplicity
 _atom_site_fract_x
 _atom_site_fract_y
 _atom_site_fract_z
 _atom_site_occupancy
  Li  Li0  1  0.43630934  0.50415865  0.00197615  1
  Li  Li1  1  0.56369066  0.00415865  0.50197615  1
  Co  Co2  1  0.04418000  0.25149104  0.75007864  1
  Co  Co3  1  0.44792637  0.75315539  0.75270286  1
  Co  Co4  1  0.55207363  0.25315539  0.25270286  1
  Co  Co5  1  0.95582000  0.75149104  0.25007864  1
  P  P6  1  0.53970097  0.12678812  0.87430635  1
  P  P7  1  0.95018022  0.62561076  0.87541001  1
  P  P8  1  0.04981978  0.12561076  0.37541001  1
  P  P9  1  0.46029903  0.62678812  0.37430735  1
  O  O10  1  0.83614167  0.17403887  0.88319301  1
  O  O11  1  0.65141152  0.65184938  0.89989590  1
  O  O12  1  0.38750315  0.27327716  0.84222549  1
  O  O13  1  0.93285443  0.11025676  0.54144857  1
  O  O14  1  0.08434571  0.76026847  0.82607034  1
  O  O15  1  0.49021281  0.97445352  0.72412692  1
  O  O16  1  0.01383381  0.45929431  0.74218518  1
  O  O17  1  0.91565429  0.26026847  0.32607034  1
  O  O18  1  0.53961649  0.60242259  0.53597958  1
  O  O19  1  0.34858848  0.15184938  0.39989590  1
  O  O20  1  0.61249685  0.77327716  0.34222549  1
  O  O21  1  0.98616619  0.95929431  0.24218518  1
  O  O22  1  0.50978719  0.47445352  0.22412692  1
  O  O23  1  0.16385833  0.67403887  0.38319301  1
  O  O24  1  0.46038351  0.10242259  0.03597958  1
  O  O25  1  0.06714557  0.61025676  0.04144857  1
