# generated using pymatgen
data_MnFeCo(PO4)3
_symmetry_space_group_name_H-M   'P 1'
_cell_length_a   9.90590556
_cell_length_b   5.93936438
_cell_length_c   14.60273310
_cell_angle_alpha   90.00000000
_cell_angle_beta   90.12068185
_cell_angle_gamma   90.00000000
_symmetry_Int_Tables_number   1
_chemical_formula_structural   MnFeCo(PO4)3
_chemical_formula_sum   'Mn4 Fe4 Co4 P12 O48'
_cell_volume   859.14672144
_cell_formula_units_Z   4
loop_
 _symmetry_equiv_pos_site_id
 _symmetry_equiv_pos_as_xyz
  1  'x, y, z'
loop_
 _atom_site_type_symbol
 _atom_site_label
 _atom_site_symmetry_multiplicity
 _atom_site_fract_x
 _atom_site_fract_y
 _atom_site_fract_z
 _atom_site_occupancy
  Mn  Mn0  1  0.21997436  0.75000000  0.14743041  1
  Mn  Mn1  1  0.21535489  0.75000000  0.81246618  1
  Mn  Mn2  1  0.28141947  0.25000000  0.64779155  1
  Mn  Mn3  1  0.71634104  0.75000000  0.02137439  1
  Fe  Fe4  1  0.22602589  0.75000000  0.48802697  1
  Fe  Fe5  1  0.27483416  0.25000000  0.98764924  1
  Fe  Fe6  1  0.27708730  0.25000000  0.32159016  1
  Fe  Fe7  1  0.72401689  0.75000000  0.34619915  1
  Co  Co8  1  0.72145408  0.75000000  0.68350108  1
  Co  Co9  1  0.78298588  0.25000000  0.85035234  1
  Co  Co10  1  0.77780365  0.25000000  0.51646932  1
  Co  Co11  1  0.77688510  0.25000000  0.18291196  1
  P  P12  1  0.09626595  0.25000000  0.80441843  1
  P  P13  1  0.09744897  0.25000000  0.47289290  1
  P  P14  1  0.09476112  0.25000000  0.13917245  1
  P  P15  1  0.40152409  0.75000000  0.30608740  1
  P  P16  1  0.40022175  0.75000000  0.97383646  1
  P  P17  1  0.40377617  0.75000000  0.63966575  1
  P  P18  1  0.59763794  0.25000000  0.02831808  1
  P  P19  1  0.59891740  0.25000000  0.36266773  1
  P  P20  1  0.59746434  0.25000000  0.69268899  1
  P  P21  1  0.90306316  0.75000000  0.19181918  1
  P  P22  1  0.90198096  0.75000000  0.52789404  1
  P  P23  1  0.90268742  0.75000000  0.85738186  1
  O  O24  1  0.05362659  0.75000000  0.21531864  1
  O  O25  1  0.05204537  0.75000000  0.55130102  1
  O  O26  1  0.05344290  0.75000000  0.88427086  1
  O  O27  1  0.11804464  0.25000000  0.57764034  1
  O  O28  1  0.11659305  0.25000000  0.90838313  1
  O  O29  1  0.11730565  0.25000000  0.24233576  1
  O  O30  1  0.17130555  0.04837243  0.75680902  1
  O  O31  1  0.17130555  0.45162757  0.75680902  1
  O  O32  1  0.17064564  0.05025871  0.08937807  1
  O  O33  1  0.17064564  0.44974129  0.08937807  1
  O  O34  1  0.17270217  0.04830288  0.42522422  1
  O  O35  1  0.17270217  0.45169712  0.42522422  1
  O  O36  1  0.32953566  0.54519419  0.92736401  1
  O  O37  1  0.32953566  0.95480581  0.92736401  1
  O  O38  1  0.32844365  0.54524913  0.25965105  1
  O  O39  1  0.32844365  0.95475087  0.25965105  1
  O  O40  1  0.32818196  0.55053824  0.59006961  1
  O  O41  1  0.32818196  0.94946176  0.59006961  1
  O  O42  1  0.38239571  0.75000000  0.41022624  1
  O  O43  1  0.38171274  0.75000000  0.74374451  1
  O  O44  1  0.38311030  0.75000000  0.07931497  1
  O  O45  1  0.44795755  0.25000000  0.05285060  1
  O  O46  1  0.44905862  0.25000000  0.38674159  1
  O  O47  1  0.44631425  0.25000000  0.71812270  1
  O  O48  1  0.55315526  0.75000000  0.95311744  1
  O  O49  1  0.55312356  0.75000000  0.28349431  1
  O  O50  1  0.55340993  0.75000000  0.61581288  1
  O  O51  1  0.61711293  0.25000000  0.25793567  1
  O  O52  1  0.61328971  0.25000000  0.58851742  1
  O  O53  1  0.61838233  0.25000000  0.92469942  1
  O  O54  1  0.67360693  0.05043003  0.07848533  1
  O  O55  1  0.67360693  0.44956997  0.07848533  1
  O  O56  1  0.67460165  0.04760849  0.40993670  1
  O  O57  1  0.67460165  0.45239151  0.40993670  1
  O  O58  1  0.67185492  0.04604328  0.74071531  1
  O  O59  1  0.67185492  0.45395672  0.74071531  1
  O  O60  1  0.82644873  0.54622525  0.57527605  1
  O  O61  1  0.82644873  0.95377475  0.57527605  1
  O  O62  1  0.82828679  0.54787495  0.24027090  1
  O  O63  1  0.82828679  0.95212505  0.24027090  1
  O  O64  1  0.82864490  0.54520338  0.90422250  1
  O  O65  1  0.82864490  0.95479662  0.90422250  1
  O  O66  1  0.88206643  0.75000000  0.42388135  1
  O  O67  1  0.88731473  0.75000000  0.75291840  1
  O  O68  1  0.88336888  0.75000000  0.08747407  1
  O  O69  1  0.94602897  0.25000000  0.77825570  1
  O  O70  1  0.94474713  0.25000000  0.11383560  1
  O  O71  1  0.94706871  0.25000000  0.44965478  1
