# generated using pymatgen
data_Mn11Cu7O24
_symmetry_space_group_name_H-M   'P 1'
_cell_length_a   6.07268927
_cell_length_b   10.43242071
_cell_length_c   8.30860469
_cell_angle_alpha   113.41592073
_cell_angle_beta   89.84095988
_cell_angle_gamma   73.14542266
_symmetry_Int_Tables_number   1
_chemical_formula_structural   Mn11Cu7O24
_chemical_formula_sum   'Mn11 Cu7 O24'
_cell_volume   458.08320398
_cell_formula_units_Z   1
loop_
 _symmetry_equiv_pos_site_id
 _symmetry_equiv_pos_as_xyz
  1  'x, y, z'
loop_
 _atom_site_type_symbol
 _atom_site_label
 _atom_site_symmetry_multiplicity
 _atom_site_fract_x
 _atom_site_fract_y
 _atom_site_fract_z
 _atom_site_occupancy
  Mn  Mn0  1  0.25247253  0.49884858  0.12519574  1
  Mn  Mn1  1  0.08333300  0.83333300  0.29166700  1
  Mn  Mn2  1  0.58333300  0.33333300  0.29166700  1
  Mn  Mn3  1  0.74867889  0.49884858  0.62365385  1
  Mn  Mn4  1  0.91419447  0.16781742  0.45813826  1
  Mn  Mn5  1  0.58333300  0.83333300  0.79166700  1
  Mn  Mn6  1  0.74906245  0.00187510  0.62593755  1
  Mn  Mn7  1  0.24969471  0.00061059  0.62530529  1
  Mn  Mn8  1  0.41760455  0.66479090  0.95739545  1
  Mn  Mn9  1  0.91697229  0.66605641  0.95802771  1
  Mn  Mn10  1  0.41798811  0.16781742  0.95968015  1
  Cu  Cu11  1  0.99909115  0.00191884  0.00118743  1
  Cu  Cu12  1  0.66767599  0.66474816  0.33260259  1
  Cu  Cu13  1  0.08333300  0.33333300  0.29166700  1
  Cu  Cu14  1  0.49899001  0.00191884  0.25073141  1
  Cu  Cu15  1  0.16757585  0.66474816  0.58214657  1
  Cu  Cu16  1  0.32722836  0.33333300  0.66342499  1
  Cu  Cu17  1  0.83943864  0.33333300  0.91990801  1
  O  O18  1  0.58268464  0.81948597  0.02209699  1
  O  O19  1  0.09782839  0.81948597  0.04738897  1
  O  O20  1  0.93954826  0.66507275  0.19441678  1
  O  O21  1  0.39871423  0.66185921  0.19427020  1
  O  O22  1  0.11530348  0.33333300  0.04676996  1
  O  O23  1  0.56558318  0.33333300  0.05376309  1
  O  O24  1  0.42064985  0.18118251  0.20275900  1
  O  O25  1  0.06883861  0.84718003  0.53594403  1
  O  O26  1  0.26849836  0.48548449  0.35490949  1
  O  O27  1  0.89816764  0.18118251  0.22842351  1
  O  O28  1  0.74601715  0.48548449  0.38057500  1
  O  O29  1  0.58398136  0.84718003  0.56123601  1
  O  O30  1  0.60108282  0.33333300  0.52957091  1
  O  O31  1  0.05136352  0.33333300  0.53656304  1
  O  O32  1  0.22711774  0.00159425  0.38891622  1
  O  O33  1  0.43942756  0.66185921  0.71758901  1
  O  O34  1  0.76795277  0.00480779  0.38906380  1
  O  O35  1  0.89537899  0.66507275  0.72065597  1
  O  O36  1  0.91741777  0.15319853  0.68944226  1
  O  O37  1  0.73728330  0.51346847  0.86957674  1
  O  O38  1  0.42938370  0.15319853  0.71375626  1
  O  O39  1  0.24924823  0.51346847  0.89389174  1
  O  O40  1  0.72723944  0.00480779  0.86574399  1
  O  O41  1  0.27128801  0.00159425  0.86267803  1
