# generated using pymatgen
data_Li6P8W3O29
_symmetry_space_group_name_H-M   'P 1'
_cell_length_a   9.98227667
_cell_length_b   9.96685202
_cell_length_c   14.12011716
_cell_angle_alpha   89.54836231
_cell_angle_beta   89.62781646
_cell_angle_gamma   60.25052922
_symmetry_Int_Tables_number   1
_chemical_formula_structural   Li6P8W3O29
_chemical_formula_sum   'Li12 P16 W6 O58'
_cell_volume   1219.64089402
_cell_formula_units_Z   2
loop_
 _symmetry_equiv_pos_site_id
 _symmetry_equiv_pos_as_xyz
  1  'x, y, z'
loop_
 _atom_site_type_symbol
 _atom_site_label
 _atom_site_symmetry_multiplicity
 _atom_site_fract_x
 _atom_site_fract_y
 _atom_site_fract_z
 _atom_site_occupancy
  Li  Li0  1  0.01252087  0.04854934  0.51044530  1
  Li  Li1  1  0.00825681  0.00496229  0.00580682  1
  Li  Li2  1  0.08757066  0.68316188  0.06082660  1
  Li  Li3  1  0.33274904  0.31586481  0.88964053  1
  Li  Li4  1  0.23200233  0.67769702  0.55921831  1
  Li  Li5  1  0.67418453  0.09534982  0.56187456  1
  Li  Li6  1  0.33312387  0.76484861  0.94399599  1
  Li  Li7  1  0.68340277  0.22886710  0.06091132  1
  Li  Li8  1  0.32977838  0.90535101  0.43724862  1
  Li  Li9  1  0.76606787  0.33213957  0.44042021  1
  Li  Li10  1  0.90051859  0.32739744  0.93783506  1
  Li  Li11  1  0.90378639  0.77070124  0.44421645  1
  P  P12  1  0.07924948  0.21640407  0.33773156  1
  P  P13  1  0.21739691  0.08013147  0.84082350  1
  P  P14  1  0.08789056  0.68694230  0.84676249  1
  P  P15  1  0.33426014  0.33838373  0.12392907  1
  P  P16  1  0.33608425  0.33257810  0.62552504  1
  P  P17  1  0.22363044  0.68834958  0.34320007  1
  P  P18  1  0.30793003  0.77684807  0.15686464  1
  P  P19  1  0.69135935  0.08161123  0.34773496  1
  P  P20  1  0.30555455  0.92104496  0.65004595  1
  P  P21  1  0.68341975  0.22321820  0.84317801  1
  P  P22  1  0.77413336  0.31099613  0.65648105  1
  P  P23  1  0.66960531  0.66155399  0.87619914  1
  P  P24  1  0.66192165  0.67143135  0.37746416  1
  P  P25  1  0.91737061  0.30540287  0.15044375  1
  P  P26  1  0.78391908  0.92173472  0.15905093  1
  P  P27  1  0.91914764  0.77457105  0.65753182  1
  W  W28  1  0.00207241  0.43233991  0.74915376  1
  W  W29  1  0.99834078  0.56517406  0.24960901  1
  W  W30  1  0.43418393  0.00440787  0.24642020  1
  W  W31  1  0.56579576  0.99452578  0.75011667  1
  W  W32  1  0.43562215  0.56481409  0.74836662  1
  W  W33  1  0.56439766  0.43577414  0.25169844  1
  O  O34  1  0.01333275  0.19491261  0.23751955  1
  O  O35  1  0.98577558  0.22333010  0.05900108  1
  O  O36  1  0.07771378  0.24573371  0.84614642  1
  O  O37  1  0.20029016  0.01475504  0.73923898  1
  O  O38  1  0.22037191  0.99580323  0.56015248  1
  O  O39  1  0.24579072  0.08025684  0.34269027  1
  O  O40  1  0.07519565  0.37251061  0.33236525  1
  O  O41  1  0.20192546  0.32114259  0.67563993  1
  O  O42  1  0.10560570  0.52252433  0.83623952  1
  O  O43  1  0.00843308  0.77988165  0.57174181  1
  O  O44  1  0.00274330  0.78656829  0.75318379  1
  O  O45  1  0.07886432  0.66681536  0.34437389  1
  O  O46  1  0.32182714  0.20406540  0.17180892  1
  O  O47  1  0.36518753  0.09490822  0.83788107  1
  O  O48  1  0.19271373  0.49328695  0.15787179  1
  O  O49  1  0.34335514  0.33237120  0.01776032  1
  O  O50  1  0.33764288  0.33463016  0.52053517  1
  O  O51  1  0.32275967  0.48876638  0.66513426  1
  O  O52  1  0.53426898  0.09096587  0.33351816  1
  O  O53  1  0.49052683  0.19208134  0.66714760  1
  O  O54  1  0.25292234  0.66530266  0.84349530  1
  O  O55  1  0.20346545  0.78903565  0.24931706  1
  O  O56  1  0.21638861  0.78355516  0.06997871  1
  O  O57  1  0.22198622  0.77829616  0.42922863  1
  O  O58  1  0.37019926  0.53024844  0.33489666  1
  O  O59  1  0.48850160  0.32582785  0.16340945  1
  O  O60  1  0.32883509  0.75563275  0.65660652  1
  O  O61  1  0.52037686  0.36791785  0.83512980  1
  O  O62  1  0.66233981  0.08144072  0.84159063  1
  O  O63  1  0.20816922  0.97940047  0.91690468  1
  O  O64  1  0.81163065  0.01060836  0.08260750  1
  O  O65  1  0.80225036  0.98909328  0.26042526  1
  O  O66  1  0.33245174  0.91610634  0.16120233  1
  O  O67  1  0.46267892  0.62662405  0.16480139  1
  O  O68  1  0.67103792  0.24586999  0.34614474  1
  O  O69  1  0.51891689  0.66762465  0.83490995  1
  O  O70  1  0.62321259  0.46661892  0.66138555  1
  O  O71  1  0.78339916  0.21747183  0.56976552  1
  O  O72  1  0.77156046  0.22629933  0.92877934  1
  O  O73  1  0.78294706  0.21196218  0.74992882  1
  O  O74  1  0.75117559  0.33154911  0.15980916  1
  O  O75  1  0.51108518  0.81187732  0.33324797  1
  O  O76  1  0.46160869  0.91630143  0.66025806  1
  O  O77  1  0.67453101  0.51695821  0.33570232  1
  O  O78  1  0.66659119  0.66129524  0.98116671  1
  O  O79  1  0.65262153  0.67141283  0.48284492  1
  O  O80  1  0.81357908  0.50821718  0.83655190  1
  O  O81  1  0.63042889  0.92390147  0.15927304  1
  O  O82  1  0.67662966  0.79689945  0.82445201  1
  O  O83  1  0.91385582  0.33408588  0.66060582  1
  O  O84  1  0.98215373  0.20466774  0.41570819  1
  O  O85  1  0.91497879  0.45958093  0.16451504  1
  O  O86  1  0.80411124  0.68208657  0.33961540  1
  O  O87  1  0.90921221  0.62670611  0.66350117  1
  O  O88  1  0.75715529  0.91975818  0.65712822  1
  O  O89  1  0.77194174  0.99764393  0.43764509  1
  O  O90  1  0.92131701  0.75086922  0.15972340  1
  O  O91  1  0.00675388  0.77061387  0.93475385  1
