# generated using pymatgen
data_Li7Fe6(SiO4)6
_symmetry_space_group_name_H-M   'P 1'
_cell_length_a   8.62546596
_cell_length_b   8.77327579
_cell_length_c   8.67192257
_cell_angle_alpha   107.86240652
_cell_angle_beta   73.15719115
_cell_angle_gamma   71.85472196
_symmetry_Int_Tables_number   1
_chemical_formula_structural   Li7Fe6(SiO4)6
_chemical_formula_sum   'Li7 Fe6 Si6 O24'
_cell_volume   536.99914727
_cell_formula_units_Z   1
loop_
 _symmetry_equiv_pos_site_id
 _symmetry_equiv_pos_as_xyz
  1  'x, y, z'
loop_
 _atom_site_type_symbol
 _atom_site_label
 _atom_site_symmetry_multiplicity
 _atom_site_fract_x
 _atom_site_fract_y
 _atom_site_fract_z
 _atom_site_occupancy
  Li  Li0  1  0.84765360  0.72092797  0.86493217  1
  Li  Li1  1  0.78207371  0.60056636  0.43890179  1
  Li  Li2  1  0.63022681  0.93354813  0.53097737  1
  Li  Li3  1  0.55435850  0.23913890  0.62315449  1
  Li  Li4  1  0.27272041  0.89360028  0.13341516  1
  Li  Li5  1  0.39327662  0.43527412  0.21484534  1
  Li  Li6  1  0.14604413  0.14466894  0.71774026  1
  Fe  Fe7  1  0.45082780  0.93716743  0.81047817  1
  Fe  Fe8  1  0.22785343  0.53612320  0.95006079  1
  Fe  Fe9  1  0.05083477  0.77521438  0.53625337  1
  Fe  Fe10  1  0.94664482  0.23748709  0.45522420  1
  Fe  Fe11  1  0.76595245  0.44898404  0.05489327  1
  Fe  Fe12  1  0.53603621  0.05522485  0.23290676  1
  Si  Si13  1  0.90685905  0.87806582  0.27712615  1
  Si  Si14  1  0.61631627  0.56021975  0.79233298  1
  Si  Si15  1  0.71144887  0.09673957  0.87211861  1
  Si  Si16  1  0.43342595  0.79401302  0.38719003  1
  Si  Si17  1  0.20489965  0.39308877  0.56503062  1
  Si  Si18  1  0.12008556  0.28949989  0.10905550  1
  O  O19  1  0.92796501  0.00181112  0.73420091  1
  O  O20  1  0.89715180  0.77598451  0.41073090  1
  O  O21  1  0.73577434  0.56683890  0.90978756  1
  O  O22  1  0.69304042  0.02048727  0.35189646  1
  O  O23  1  0.02184247  0.99163021  0.31476125  1
  O  O24  1  0.01555852  0.31009142  0.97865496  1
  O  O25  1  0.64831351  0.29989765  0.02049001  1
  O  O26  1  0.63874026  0.69074587  0.69611754  1
  O  O27  1  0.70401500  0.35622638  0.63181137  1
  O  O28  1  0.63872473  0.62949767  0.29722704  1
  O  O29  1  0.40359777  0.62770214  0.92736370  1
  O  O30  1  0.39019645  0.93087873  0.58852790  1
  O  O31  1  0.58841858  0.09080980  0.75928287  1
  O  O32  1  0.42563514  0.90495614  0.26320311  1
  O  O33  1  0.67755955  0.97990204  0.98789473  1
  O  O34  1  0.29195865  0.70476407  0.38183810  1
  O  O35  1  0.29411837  0.38483983  0.70841475  1
  O  O36  1  0.25327311  0.08185417  0.04635416  1
  O  O37  1  0.37076044  0.30227605  0.36371635  1
  O  O38  1  0.06516697  0.59947713  0.62473180  1
  O  O39  1  0.23091274  0.41257334  0.09713514  1
  O  O40  1  0.09587585  0.26921453  0.57151503  1
  O  O41  1  0.99674479  0.73596179  0.06692584  1
  O  O42  1  0.96688693  0.36337976  0.31332949  1
