# generated using pymatgen
data_Zn(AgO2)2
_symmetry_space_group_name_H-M   'P 1'
_cell_length_a   6.40889622
_cell_length_b   6.40885150
_cell_length_c   18.93059036
_cell_angle_alpha   59.58911965
_cell_angle_beta   59.58907945
_cell_angle_gamma   59.95750432
_symmetry_Int_Tables_number   1
_chemical_formula_structural   Zn(AgO2)2
_chemical_formula_sum   'Zn6 Ag12 O24'
_cell_volume   546.19697461
_cell_formula_units_Z   6
loop_
 _symmetry_equiv_pos_site_id
 _symmetry_equiv_pos_as_xyz
  1  'x, y, z'
loop_
 _atom_site_type_symbol
 _atom_site_label
 _atom_site_symmetry_multiplicity
 _atom_site_fract_x
 _atom_site_fract_y
 _atom_site_fract_z
 _atom_site_occupancy
  Zn  Zn0  1  0.11819156  0.11818680  0.04847515  1
  Zn  Zn1  1  0.11959898  0.11959707  0.38037710  1
  Zn  Zn2  1  0.49890948  0.49890888  0.33452516  1
  Zn  Zn3  1  0.12005646  0.12005820  0.71323758  1
  Zn  Zn4  1  0.49803198  0.49803495  0.00193729  1
  Zn  Zn5  1  0.87966974  0.87966747  0.62034568  1
  Ag  Ag6  1  0.49899791  0.49899643  0.16683781  1
  Ag  Ag7  1  0.49859224  0.00183547  0.16689858  1
  Ag  Ag8  1  0.49753919  0.49753414  0.49963747  1
  Ag  Ag9  1  0.00183208  0.49859380  0.16689756  1
  Ag  Ag10  1  0.49747700  0.00615767  0.49967658  1
  Ag  Ag11  1  0.50103417  0.50103733  0.66560367  1
  Ag  Ag12  1  0.87644642  0.87646125  0.29017487  1
  Ag  Ag13  1  0.50132651  0.50133171  0.83366722  1
  Ag  Ag14  1  0.00615812  0.49747366  0.49967732  1
  Ag  Ag15  1  0.50121289  0.99611303  0.83371403  1
  Ag  Ag16  1  0.99611004  0.50121718  0.83371363  1
  Ag  Ag17  1  0.87861333  0.87861226  0.95469206  1
  O  O18  1  0.25887554  0.25887745  0.08720335  1
  O  O19  1  0.24953694  0.24957369  0.25003097  1
  O  O20  1  0.25874919  0.71999538  0.08743658  1
  O  O21  1  0.71998897  0.25874249  0.08744114  1
  O  O22  1  0.26178059  0.26177709  0.41511113  1
  O  O23  1  0.30052971  0.73731659  0.24174549  1
  O  O24  1  0.25122721  0.25123401  0.58205712  1
  O  O25  1  0.73730700  0.30052703  0.24175195  1
  O  O26  1  0.74424907  0.74419013  0.08992348  1
  O  O27  1  0.26210163  0.73142237  0.41495067  1
  O  O28  1  0.73142176  0.26209738  0.41495170  1
  O  O29  1  0.73707077  0.73705492  0.24193622  1
  O  O30  1  0.24954474  0.24954225  0.75838548  1
  O  O31  1  0.26409130  0.74949577  0.57887830  1
  O  O32  1  0.74949250  0.26409042  0.57887906  1
  O  O33  1  0.24623753  0.24624964  0.92034900  1
  O  O34  1  0.73738490  0.73737907  0.42942157  1
  O  O35  1  0.24972117  0.72560027  0.75829895  1
  O  O36  1  0.72559577  0.24972012  0.75829989  1
  O  O37  1  0.74985080  0.74985382  0.57859854  1
  O  O38  1  0.30017797  0.73595270  0.90919717  1
  O  O39  1  0.73594629  0.30017590  0.90919928  1
  O  O40  1  0.75340875  0.75339572  0.74668544  1
  O  O41  1  0.73591281  0.73591750  0.90917878  1
