# generated using pymatgen
data_Li3MnV(PO4)3
_symmetry_space_group_name_H-M   'P 1'
_cell_length_a   8.69916732
_cell_length_b   8.74775056
_cell_length_c   12.29348173
_cell_angle_alpha   90.00000000
_cell_angle_beta   91.21971882
_cell_angle_gamma   90.00000000
_symmetry_Int_Tables_number   1
_chemical_formula_structural   Li3MnV(PO4)3
_chemical_formula_sum   'Li12 Mn4 V4 P12 O48'
_cell_volume   935.29919323
_cell_formula_units_Z   4
loop_
 _symmetry_equiv_pos_site_id
 _symmetry_equiv_pos_as_xyz
  1  'x, y, z'
loop_
 _atom_site_type_symbol
 _atom_site_label
 _atom_site_symmetry_multiplicity
 _atom_site_fract_x
 _atom_site_fract_y
 _atom_site_fract_z
 _atom_site_occupancy
  Li  Li0  1  0.07650720  0.09546969  0.69723597  1
  Li  Li1  1  0.07740050  0.70332785  0.75704339  1
  Li  Li2  1  0.20866483  0.77315994  0.17768546  1
  Li  Li3  1  0.29133517  0.27315994  0.32231454  1
  Li  Li4  1  0.42259950  0.20332785  0.74295661  1
  Li  Li5  1  0.42349280  0.59546969  0.80276403  1
  Li  Li6  1  0.58266191  0.40414590  0.19769360  1
  Li  Li7  1  0.58689917  0.79694250  0.25989559  1
  Li  Li8  1  0.71088570  0.72514611  0.67586683  1
  Li  Li9  1  0.78911430  0.22514611  0.82413317  1
  Li  Li10  1  0.91310083  0.29694250  0.24010441  1
  Li  Li11  1  0.91733809  0.90414590  0.30230640  1
  Mn  Mn12  1  0.74686503  0.04290210  0.61052660  1
  Mn  Mn13  1  0.74618542  0.96474915  0.10336974  1
  Mn  Mn14  1  0.75313497  0.54290210  0.88947340  1
  Mn  Mn15  1  0.75381458  0.46474915  0.39663026  1
  V  V16  1  0.24688463  0.53190063  0.61020659  1
  V  V17  1  0.24726340  0.45699207  0.11132110  1
  V  V18  1  0.25311537  0.03190063  0.88979341  1
  V  V19  1  0.25273660  0.95699207  0.38867890  1
  P  P20  1  0.03930917  0.24733307  0.49266939  1
  P  P21  1  0.10449018  0.38863571  0.85262714  1
  P  P22  1  0.10329087  0.09794118  0.14814247  1
  P  P23  1  0.39550982  0.88863571  0.64737286  1
  P  P24  1  0.39670913  0.59794118  0.35185753  1
  P  P25  1  0.46069083  0.74733307  0.00733061  1
  P  P26  1  0.53990760  0.24802272  0.99583884  1
  P  P27  1  0.60464576  0.40343643  0.65596149  1
  P  P28  1  0.60645782  0.11189562  0.35964381  1
  P  P29  1  0.89535424  0.90343643  0.84403851  1
  P  P30  1  0.89354218  0.61189562  0.14035619  1
  P  P31  1  0.96009240  0.74802272  0.50416116  1
  O  O32  1  0.04924694  0.86324925  0.43283080  1
  O  O33  1  0.06596528  0.67217204  0.59179279  1
  O  O34  1  0.06879760  0.59363626  0.16310150  1
  O  O35  1  0.07465799  0.89886400  0.84279783  1
  O  O36  1  0.11594646  0.35855475  0.57362853  1
  O  O37  1  0.14897025  0.41437315  0.97188951  1
  O  O38  1  0.14848614  0.22235183  0.81831632  1
  O  O39  1  0.15011021  0.97570997  0.23662603  1
  O  O40  1  0.15689132  0.25955634  0.18618221  1
  O  O41  1  0.16647823  0.16568368  0.42901078  1
  O  O42  1  0.16802226  0.04997048  0.04026661  1
  O  O43  1  0.19111839  0.50895719  0.78228792  1
  O  O44  1  0.30888161  0.00895719  0.71771208  1
  O  O45  1  0.33197774  0.54997048  0.45973339  1
  O  O46  1  0.33352177  0.66568368  0.07098922  1
  O  O47  1  0.34310868  0.75955634  0.31381779  1
  O  O48  1  0.35151386  0.72235183  0.68168368  1
  O  O49  1  0.34988979  0.47570997  0.26337397  1
  O  O50  1  0.35102975  0.91437315  0.52811049  1
  O  O51  1  0.38405354  0.85855475  0.92637147  1
  O  O52  1  0.42534201  0.39886400  0.65720217  1
  O  O53  1  0.43120240  0.09363626  0.33689850  1
  O  O54  1  0.43403472  0.17217204  0.90820721  1
  O  O55  1  0.45075306  0.36324925  0.06716920  1
  O  O56  1  0.54970745  0.63387492  0.93558796  1
  O  O57  1  0.56476546  0.82523584  0.09579952  1
  O  O58  1  0.57115156  0.90516859  0.66761483  1
  O  O59  1  0.57649327  0.60527457  0.34910899  1
  O  O60  1  0.60807299  0.13540729  0.08157993  1
  O  O61  1  0.63714722  0.09829486  0.48308493  1
  O  O62  1  0.64800931  0.52829369  0.74500753  1
  O  O63  1  0.64983728  0.27891262  0.32280185  1
  O  O64  1  0.65334878  0.24291838  0.69494220  1
  O  O65  1  0.66911152  0.32653356  0.93426840  1
  O  O66  1  0.67175505  0.45484010  0.55026051  1
  O  O67  1  0.69632708  0.99016694  0.29595963  1
  O  O68  1  0.80367292  0.49016694  0.20404037  1
  O  O69  1  0.82824495  0.95484010  0.94973949  1
  O  O70  1  0.83088848  0.82653356  0.56573160  1
  O  O71  1  0.84665122  0.74291738  0.80505780  1
  O  O72  1  0.85199069  0.02829369  0.75499247  1
  O  O73  1  0.85016272  0.77891262  0.17719815  1
  O  O74  1  0.86285278  0.59829486  0.01691507  1
  O  O75  1  0.89192701  0.63540729  0.41842007  1
  O  O76  1  0.92350673  0.10527457  0.15089101  1
  O  O77  1  0.92884844  0.40516859  0.83238517  1
  O  O78  1  0.93523454  0.32523584  0.40420048  1
  O  O79  1  0.95029255  0.13387492  0.56441204  1
