# generated using pymatgen
data_Li8Fe7Cu(PO4)12
_symmetry_space_group_name_H-M   'P 1'
_cell_length_a   8.67144248
_cell_length_b   8.81127336
_cell_length_c   12.23813280
_cell_angle_alpha   89.99616556
_cell_angle_beta   89.95412738
_cell_angle_gamma   89.95530895
_symmetry_Int_Tables_number   1
_chemical_formula_structural   Li8Fe7Cu(PO4)12
_chemical_formula_sum   'Li8 Fe7 Cu1 P12 O48'
_cell_volume   935.07169681
_cell_formula_units_Z   1
loop_
 _symmetry_equiv_pos_site_id
 _symmetry_equiv_pos_as_xyz
  1  'x, y, z'
loop_
 _atom_site_type_symbol
 _atom_site_label
 _atom_site_symmetry_multiplicity
 _atom_site_fract_x
 _atom_site_fract_y
 _atom_site_fract_z
 _atom_site_occupancy
  Li  Li0  1  0.21656219  0.72211218  0.18178532  1
  Li  Li1  1  0.21654304  0.77787587  0.81849010  1
  Li  Li2  1  0.28337509  0.22200289  0.31842910  1
  Li  Li3  1  0.28376108  0.27802942  0.68141378  1
  Li  Li4  1  0.71569823  0.72179994  0.31871816  1
  Li  Li5  1  0.71640194  0.77636688  0.68185083  1
  Li  Li6  1  0.78404527  0.22197725  0.18182900  1
  Li  Li7  1  0.78437476  0.27784783  0.81638645  1
  Fe  Fe8  1  0.24923642  0.95924218  0.61350089  1
  Fe  Fe9  1  0.24927362  0.54066348  0.38687212  1
  Fe  Fe10  1  0.25038533  0.04122594  0.11289400  1
  Fe  Fe11  1  0.24997171  0.45868837  0.88674317  1
  Fe  Fe12  1  0.74985075  0.54122854  0.11239237  1
  Fe  Fe13  1  0.74955487  0.95917268  0.88675239  1
  Fe  Fe14  1  0.75071844  0.04046388  0.38665248  1
  Cu  Cu15  1  0.75323298  0.45865776  0.61024327  1
  P  P16  1  0.10615558  0.39295068  0.14683655  1
  P  P17  1  0.10605171  0.10647267  0.85283287  1
  P  P18  1  0.39509823  0.60533350  0.64668029  1
  P  P19  1  0.39362011  0.89309642  0.35310969  1
  P  P20  1  0.60583259  0.10758887  0.64613940  1
  P  P21  1  0.60713678  0.39244079  0.35330845  1
  P  P22  1  0.89446148  0.60739462  0.85181370  1
  P  P23  1  0.89397883  0.89278911  0.14674503  1
  P  P24  1  0.03820702  0.25111095  0.50001499  1
  P  P25  1  0.46032728  0.74993143  0.99991675  1
  P  P26  1  0.54005166  0.25013102  0.99990229  1
  P  P27  1  0.95936140  0.74852554  0.49926305  1
  O  O28  1  0.05611724  0.64111273  0.42930490  1
  O  O29  1  0.05664392  0.85596142  0.56998061  1
  O  O30  1  0.07267147  0.89533951  0.15513889  1
  O  O31  1  0.07312922  0.60476144  0.84341421  1
  O  O32  1  0.14846982  0.16328274  0.57824218  1
  O  O33  1  0.14797759  0.33795124  0.42119348  1
  O  O34  1  0.15681477  0.43362139  0.03056589  1
  O  O35  1  0.15754968  0.06610078  0.96905736  1
  O  O36  1  0.16312933  0.23281178  0.18006207  1
  O  O37  1  0.16353494  0.26660283  0.81983820  1
  O  O38  1  0.17372355  0.51329154  0.22638975  1
  O  O39  1  0.17323430  0.98596847  0.77311050  1
  O  O40  1  0.32653974  0.01362916  0.27365118  1
  O  O41  1  0.32735103  0.48552215  0.72625571  1
  O  O42  1  0.33798645  0.76623374  0.67972570  1
  O  O43  1  0.33621547  0.73291949  0.32031071  1
  O  O44  1  0.34401041  0.56524501  0.53059100  1
  O  O45  1  0.34173760  0.93347407  0.46955787  1
  O  O46  1  0.35112390  0.83749906  0.07855222  1
  O  O47  1  0.35106517  0.66239209  0.92151510  1
  O  O48  1  0.42689635  0.10427291  0.65483723  1
  O  O49  1  0.42791731  0.39502950  0.34421941  1
  O  O50  1  0.44308162  0.14302037  0.07039519  1
  O  O51  1  0.44255001  0.35728833  0.92995255  1
  O  O52  1  0.55734448  0.64282464  0.07035076  1
  O  O53  1  0.55724453  0.85716086  0.92953987  1
  O  O54  1  0.57374354  0.60747799  0.65705204  1
  O  O55  1  0.57220645  0.89549922  0.34515074  1
  O  O56  1  0.64927009  0.33753757  0.07850058  1
  O  O57  1  0.64910113  0.16281053  0.92117351  1
  O  O58  1  0.65692631  0.06821429  0.52999254  1
  O  O59  1  0.65028646  0.43934854  0.46993239  1
  O  O60  1  0.66459377  0.23276710  0.32015753  1
  O  O61  1  0.66170640  0.26809274  0.68102956  1
  O  O62  1  0.67334201  0.51300647  0.27299892  1
  O  O63  1  0.67313402  0.98736489  0.72590693  1
  O  O64  1  0.82669597  0.01306512  0.22634091  1
  O  O65  1  0.82351684  0.48508879  0.77537443  1
  O  O66  1  0.83681347  0.73243723  0.17972730  1
  O  O67  1  0.83739117  0.76771140  0.81941382  1
  O  O68  1  0.84312073  0.56532797  0.96811761  1
  O  O69  1  0.84282585  0.93317198  0.03053110  1
  O  O70  1  0.85303326  0.66325750  0.58195485  1
  O  O71  1  0.85069616  0.83684811  0.42116463  1
  O  O72  1  0.92745053  0.10406615  0.84485596  1
  O  O73  1  0.92740510  0.39607404  0.15550394  1
  O  O74  1  0.94078677  0.14491522  0.43016495  1
  O  O75  1  0.94863067  0.35747921  0.57768777  1
