# generated using pymatgen
data_Li4V5Cr3O16
_symmetry_space_group_name_H-M   'P 1'
_cell_length_a   5.90281460
_cell_length_b   5.91265470
_cell_length_c   9.52198057
_cell_angle_alpha   89.89278179
_cell_angle_beta   89.96243362
_cell_angle_gamma   120.45721211
_symmetry_Int_Tables_number   1
_chemical_formula_structural   Li4V5Cr3O16
_chemical_formula_sum   'Li4 V5 Cr3 O16'
_cell_volume   286.46970898
_cell_formula_units_Z   1
loop_
 _symmetry_equiv_pos_site_id
 _symmetry_equiv_pos_as_xyz
  1  'x, y, z'
loop_
 _atom_site_type_symbol
 _atom_site_label
 _atom_site_symmetry_multiplicity
 _atom_site_fract_x
 _atom_site_fract_y
 _atom_site_fract_z
 _atom_site_occupancy
  Li  Li0  1  0.33786933  0.67046671  0.89519081  1
  Li  Li1  1  0.99900398  0.99942493  0.99499658  1
  Li  Li2  1  0.99910847  0.99735815  0.49624086  1
  Li  Li3  1  0.66984097  0.33554562  0.39197658  1
  V  V4  1  0.82721477  0.65141592  0.71639043  1
  V  V5  1  0.33192890  0.66375044  0.48974310  1
  V  V6  1  0.65560991  0.82664818  0.21533910  1
  V  V7  1  0.65859096  0.32836125  0.99113797  1
  V  V8  1  0.82812654  0.17037365  0.71244017  1
  Cr  Cr9  1  0.16795491  0.82845741  0.21445470  1
  Cr  Cr10  1  0.16759049  0.33983577  0.21395978  1
  Cr  Cr11  1  0.33864194  0.16840601  0.71315360  1
  O  O12  1  0.16632920  0.82843955  0.59636186  1
  O  O13  1  0.04341197  0.52060395  0.34116221  1
  O  O14  1  0.35072390  0.67669931  0.10454034  1
  O  O15  1  0.98875950  0.99384293  0.30839440  1
  O  O16  1  0.99300499  0.98602485  0.80692668  1
  O  O17  1  0.16626489  0.33708110  0.59596676  1
  O  O18  1  0.48569058  0.95846645  0.34443564  1
  O  O19  1  0.48497510  0.52545455  0.34335411  1
  O  O20  1  0.34069120  0.17156792  0.09536463  1
  O  O21  1  0.66277145  0.82688731  0.59713087  1
  O  O22  1  0.52216354  0.48218549  0.84226176  1
  O  O23  1  0.52135516  0.04280369  0.84278874  1
  O  O24  1  0.67255085  0.35050988  0.60137099  1
  O  O25  1  0.83050800  0.66657725  0.09797968  1
  O  O26  1  0.95795220  0.48831621  0.84838990  1
  O  O27  1  0.83136630  0.16479655  0.09638775  1
