# generated using pymatgen
data_Cr3Sn3(SbO8)2
_symmetry_space_group_name_H-M   'P 1'
_cell_length_a   6.20190541
_cell_length_b   6.18601367
_cell_length_c   9.32276342
_cell_angle_alpha   89.98937319
_cell_angle_beta   89.23046635
_cell_angle_gamma   120.14074637
_symmetry_Int_Tables_number   1
_chemical_formula_structural   Cr3Sn3(SbO8)2
_chemical_formula_sum   'Cr3 Sn3 Sb2 O16'
_cell_volume   309.27192992
_cell_formula_units_Z   1
loop_
 _symmetry_equiv_pos_site_id
 _symmetry_equiv_pos_as_xyz
  1  'x, y, z'
loop_
 _atom_site_type_symbol
 _atom_site_label
 _atom_site_symmetry_multiplicity
 _atom_site_fract_x
 _atom_site_fract_y
 _atom_site_fract_z
 _atom_site_occupancy
  Cr  Cr0  1  0.65575696  0.82737661  0.21042131  1
  Cr  Cr1  1  0.82669307  0.65760357  0.71719688  1
  Cr  Cr2  1  0.82855516  0.16955773  0.70789102  1
  Sn  Sn3  1  0.16394546  0.82857753  0.21228254  1
  Sn  Sn4  1  0.16459638  0.33486703  0.21194175  1
  Sn  Sn5  1  0.33534427  0.16667770  0.70339941  1
  Sb  Sb6  1  0.34431168  0.67113341  0.49360999  1
  Sb  Sb7  1  0.67494381  0.33601903  0.98835128  1
  O  O8  1  0.16835884  0.82244979  0.60026975  1
  O  O9  1  0.04481183  0.52131705  0.35393566  1
  O  O10  1  0.33642247  0.66837353  0.09939921  1
  O  O11  1  0.98818538  0.99369888  0.30820800  1
  O  O12  1  0.98262578  0.98333713  0.79477124  1
  O  O13  1  0.16987354  0.34254281  0.59985947  1
  O  O14  1  0.48254464  0.95451448  0.34404450  1
  O  O15  1  0.48195490  0.52719261  0.34352745  1
  O  O16  1  0.34409760  0.17212168  0.09522615  1
  O  O17  1  0.65647112  0.82558141  0.60582885  1
  O  O18  1  0.53592905  0.48562519  0.84304571  1
  O  O19  1  0.52916354  0.05234642  0.84284458  1
  O  O20  1  0.68367105  0.35305744  0.60560620  1
  O  O21  1  0.82469946  0.65396111  0.09992312  1
  O  O22  1  0.95148196  0.48261721  0.83531866  1
  O  O23  1  0.82556404  0.16964964  0.09881727  1
