# generated using pymatgen
data_Li2VCr3O8
_symmetry_space_group_name_H-M   'P 1'
_cell_length_a   5.90489560
_cell_length_b   5.90489498
_cell_length_c   5.90489561
_cell_angle_alpha   61.03445774
_cell_angle_beta   61.03445550
_cell_angle_gamma   61.03444771
_symmetry_Int_Tables_number   1
_chemical_formula_structural   Li2VCr3O8
_chemical_formula_sum   'Li2 V1 Cr3 O8'
_cell_volume   148.97818956
_cell_formula_units_Z   1
loop_
 _symmetry_equiv_pos_site_id
 _symmetry_equiv_pos_as_xyz
  1  'x, y, z'
loop_
 _atom_site_type_symbol
 _atom_site_label
 _atom_site_symmetry_multiplicity
 _atom_site_fract_x
 _atom_site_fract_y
 _atom_site_fract_z
 _atom_site_occupancy
  Li  Li0  1  0.12768433  0.12768433  0.12768433  1
  Li  Li1  1  0.87231567  0.87231567  0.87231567  1
  V  V2  1  0.50000000  0.50000000  0.50000000  1
  Cr  Cr3  1  -0.00000000  0.50000000  0.50000000  1
  Cr  Cr4  1  0.50000000  0.00000000  0.50000000  1
  Cr  Cr5  1  0.50000000  0.50000000  0.00000000  1
  O  O6  1  0.26340189  0.26340189  0.26340189  1
  O  O7  1  0.27188310  0.27188310  0.71160796  1
  O  O8  1  0.27188310  0.71160796  0.27188310  1
  O  O9  1  0.71160796  0.27188310  0.27188310  1
  O  O10  1  0.28839204  0.72811690  0.72811690  1
  O  O11  1  0.72811690  0.28839204  0.72811690  1
  O  O12  1  0.72811690  0.72811690  0.28839204  1
  O  O13  1  0.73659811  0.73659811  0.73659811  1
