# generated using pymatgen
data_Li4VO4F
_symmetry_space_group_name_H-M   'P 1'
_cell_length_a   5.26241343
_cell_length_b   5.26241406
_cell_length_c   10.88053983
_cell_angle_alpha   71.02260170
_cell_angle_beta   108.97740050
_cell_angle_gamma   70.14455966
_symmetry_Int_Tables_number   1
_chemical_formula_structural   Li4VO4F
_chemical_formula_sum   'Li8 V2 O8 F2'
_cell_volume   233.64982869
_cell_formula_units_Z   2
loop_
 _symmetry_equiv_pos_site_id
 _symmetry_equiv_pos_as_xyz
  1  'x, y, z'
loop_
 _atom_site_type_symbol
 _atom_site_label
 _atom_site_symmetry_multiplicity
 _atom_site_fract_x
 _atom_site_fract_y
 _atom_site_fract_z
 _atom_site_occupancy
  Li  Li0  1  0.28410985  0.45445532  0.42169052  1
  Li  Li1  1  0.50310345  0.36469753  0.74852392  1
  Li  Li2  1  0.07376748  0.80265078  0.04180358  1
  Li  Li3  1  0.19734922  0.92623252  0.54180358  1
  Li  Li4  1  0.54554468  0.71589015  0.92169052  1
  Li  Li5  1  0.47869892  0.22290243  0.03547335  1
  Li  Li6  1  0.63530247  0.49689655  0.24852392  1
  Li  Li7  1  0.77709757  0.52130108  0.53547335  1
  V  V8  1  0.18898658  0.13085467  0.22767490  1
  V  V9  1  0.86914533  0.81101342  0.72767490  1
  O  O10  1  0.03306779  0.66756002  0.63182583  1
  O  O11  1  0.16839682  0.68186503  0.90228910  1
  O  O12  1  0.30626443  0.39583854  0.24615318  1
  O  O13  1  0.66524747  0.21440092  0.62839251  1
  O  O14  1  0.31813497  0.83160318  0.40228910  1
  O  O15  1  0.60416146  0.69373557  0.74615318  1
  O  O16  1  0.33243998  0.96693221  0.13182583  1
  O  O17  1  0.78559908  0.33475253  0.12839251  1
  F  F18  1  0.63219455  0.03520211  0.93445311  1
  F  F19  1  0.96479789  0.36780545  0.43445311  1
