# generated using pymatgen
data_HgPtO2
_symmetry_space_group_name_H-M   'P 1'
_cell_length_a   3.20414973
_cell_length_b   3.20414973
_cell_length_c   7.67950014
_cell_angle_alpha   89.49057551
_cell_angle_beta   90.50942449
_cell_angle_gamma   120.36322497
_symmetry_Int_Tables_number   1
_chemical_formula_structural   HgPtO2
_chemical_formula_sum   'Hg1 Pt1 O2'
_cell_volume   68.02446889
_cell_formula_units_Z   1
loop_
 _symmetry_equiv_pos_site_id
 _symmetry_equiv_pos_as_xyz
  1  'x, y, z'
loop_
 _atom_site_type_symbol
 _atom_site_label
 _atom_site_symmetry_multiplicity
 _atom_site_fract_x
 _atom_site_fract_y
 _atom_site_fract_z
 _atom_site_occupancy
  Hg  Hg0  1  0.50000000  0.50000000  0.50000000  1
  Pt  Pt1  1  0.00000000  -0.00000000  -0.00000000  1
  O  O2  1  0.33239720  0.66760280  0.87713582  1
  O  O3  1  0.66760280  0.33239720  0.12286418  1
