# generated using pymatgen
data_Li2MnF4
_symmetry_space_group_name_H-M   'P 1'
_cell_length_a   5.23599624
_cell_length_b   6.47818805
_cell_length_c   9.80579224
_cell_angle_alpha   90.00000000
_cell_angle_beta   83.11122284
_cell_angle_gamma   90.00000000
_symmetry_Int_Tables_number   1
_chemical_formula_structural   Li2MnF4
_chemical_formula_sum   'Li8 Mn4 F16'
_cell_volume   330.20903907
_cell_formula_units_Z   4
loop_
 _symmetry_equiv_pos_site_id
 _symmetry_equiv_pos_as_xyz
  1  'x, y, z'
loop_
 _atom_site_type_symbol
 _atom_site_label
 _atom_site_symmetry_multiplicity
 _atom_site_fract_x
 _atom_site_fract_y
 _atom_site_fract_z
 _atom_site_occupancy
  Li  Li0  1  0.26581421  0.01782326  0.07631422  1
  Li  Li1  1  0.23418579  0.51782326  0.42368578  1
  Li  Li2  1  0.23505036  0.01832869  0.42476058  1
  Li  Li3  1  0.26494964  0.51832869  0.07523942  1
  Li  Li4  1  0.73505036  0.48167131  0.92476058  1
  Li  Li5  1  0.76494964  0.98167131  0.57523942  1
  Li  Li6  1  0.76581421  0.48217674  0.57631422  1
  Li  Li7  1  0.73418579  0.98217674  0.92368578  1
  Mn  Mn8  1  0.25049503  0.73684250  0.75056249  1
  Mn  Mn9  1  0.24950497  0.23684250  0.74943751  1
  Mn  Mn10  1  0.75049503  0.76315750  0.25056249  1
  Mn  Mn11  1  0.74950497  0.26315750  0.24943751  1
  F  F12  1  0.11114507  0.76808801  0.13891208  1
  F  F13  1  0.09529442  0.26843704  0.12239546  1
  F  F14  1  0.11977125  0.98565038  0.62335571  1
  F  F15  1  0.12175708  0.48864187  0.62261849  1
  F  F16  1  0.40470558  0.76843704  0.37760454  1
  F  F17  1  0.38885493  0.26808801  0.36108792  1
  F  F18  1  0.61977125  0.51434962  0.12335571  1
  F  F19  1  0.37824292  0.98864187  0.87738151  1
  F  F20  1  0.62175708  0.01135813  0.12261849  1
  F  F21  1  0.38022875  0.48565038  0.87664429  1
  F  F22  1  0.61114507  0.73191199  0.63891208  1
  F  F23  1  0.59529442  0.23156296  0.62239546  1
  F  F24  1  0.87824292  0.51135813  0.37738151  1
  F  F25  1  0.88022875  0.01434962  0.37664429  1
  F  F26  1  0.90470558  0.73156296  0.87760454  1
  F  F27  1  0.88885493  0.23191199  0.86108792  1
