# generated using pymatgen
data_Li2Mn3SbO8
_symmetry_space_group_name_H-M   'P 1'
_cell_length_a   6.19450852
_cell_length_b   6.19450847
_cell_length_c   6.19450832
_cell_angle_alpha   58.13077460
_cell_angle_beta   58.13077327
_cell_angle_gamma   58.13077127
_symmetry_Int_Tables_number   1
_chemical_formula_structural   Li2Mn3SbO8
_chemical_formula_sum   'Li2 Mn3 Sb1 O8'
_cell_volume   160.87429589
_cell_formula_units_Z   1
loop_
 _symmetry_equiv_pos_site_id
 _symmetry_equiv_pos_as_xyz
  1  'x, y, z'
loop_
 _atom_site_type_symbol
 _atom_site_label
 _atom_site_symmetry_multiplicity
 _atom_site_fract_x
 _atom_site_fract_y
 _atom_site_fract_z
 _atom_site_occupancy
  Li  Li0  1  0.12795399  0.12795399  0.12795399  1
  Li  Li1  1  0.87204601  0.87204601  0.87204601  1
  Mn  Mn2  1  0.00000000  0.50000000  0.50000000  1
  Mn  Mn3  1  0.50000000  -0.00000000  0.50000000  1
  Mn  Mn4  1  0.50000000  0.50000000  0.00000000  1
  Sb  Sb5  1  0.50000000  0.50000000  0.50000000  1
  O  O6  1  0.27340896  0.27340896  0.27340896  1
  O  O7  1  0.26612224  0.26612224  0.72385798  1
  O  O8  1  0.26612224  0.72385798  0.26612224  1
  O  O9  1  0.72385798  0.26612224  0.26612224  1
  O  O10  1  0.27614202  0.73387776  0.73387776  1
  O  O11  1  0.73387776  0.27614202  0.73387776  1
  O  O12  1  0.73387776  0.73387776  0.27614202  1
  O  O13  1  0.72659104  0.72659104  0.72659104  1
