# generated using pymatgen
data_Li6Mn3V(PO4)6
_symmetry_space_group_name_H-M   'P 1'
_cell_length_a   8.60163974
_cell_length_b   12.48432124
_cell_length_c   8.66502902
_cell_angle_alpha   90.00000000
_cell_angle_beta   90.00000000
_cell_angle_gamma   92.18933200
_symmetry_Int_Tables_number   1
_chemical_formula_structural   Li6Mn3V(PO4)6
_chemical_formula_sum   'Li12 Mn6 V2 P12 O48'
_cell_volume   929.82041068
_cell_formula_units_Z   2
loop_
 _symmetry_equiv_pos_site_id
 _symmetry_equiv_pos_as_xyz
  1  'x, y, z'
loop_
 _atom_site_type_symbol
 _atom_site_label
 _atom_site_symmetry_multiplicity
 _atom_site_fract_x
 _atom_site_fract_y
 _atom_site_fract_z
 _atom_site_occupancy
  Li  Li0  1  0.08194005  0.69667841  0.08252567  1
  Li  Li1  1  0.08076627  0.75936107  0.69456708  1
  Li  Li2  1  0.20791588  0.17423598  0.78276539  1
  Li  Li3  1  0.29208412  0.32576402  0.28276539  1
  Li  Li4  1  0.41923373  0.74063893  0.19456708  1
  Li  Li5  1  0.41805995  0.80332159  0.58252567  1
  Li  Li6  1  0.58003134  0.19777607  0.41651281  1
  Li  Li7  1  0.58524292  0.26058704  0.80626144  1
  Li  Li8  1  0.71120261  0.67372689  0.71762330  1
  Li  Li9  1  0.78879739  0.82627311  0.21762330  1
  Li  Li10  1  0.91475708  0.23941296  0.30626144  1
  Li  Li11  1  0.91996866  0.30222393  0.91651281  1
  Mn  Mn12  1  0.24981377  0.60109448  0.53723664  1
  Mn  Mn13  1  0.25018623  0.89890552  0.03723664  1
  Mn  Mn14  1  0.74848650  0.60931971  0.04179603  1
  Mn  Mn15  1  0.75151350  0.89068029  0.54179603  1
  Mn  Mn16  1  0.74834942  0.09734932  0.96252729  1
  Mn  Mn17  1  0.75165058  0.40265068  0.46252729  1
  V  V18  1  0.24627481  0.11052606  0.45798849  1
  V  V19  1  0.25372519  0.38947394  0.95798849  1
  P  P20  1  0.03911709  0.49453435  0.24855548  1
  P  P21  1  0.10227835  0.85796782  0.38386187  1
  P  P22  1  0.09822932  0.15220271  0.10082373  1
  P  P23  1  0.40177068  0.34779729  0.60082373  1
  P  P24  1  0.39772165  0.64203218  0.88386187  1
  P  P25  1  0.46088291  0.00546565  0.74855548  1
  P  P26  1  0.53723729  0.99632853  0.24643925  1
  P  P27  1  0.60588387  0.36178825  0.11625765  1
  P  P28  1  0.60032519  0.65731372  0.40267249  1
  P  P29  1  0.89967481  0.84268628  0.90267249  1
  P  P30  1  0.89411613  0.13821175  0.61625765  1
  P  P31  1  0.96276271  0.50367147  0.74643925  1
  O  O32  1  0.05022288  0.43345776  0.86259829  1
  O  O33  1  0.08240132  0.84943216  0.89401035  1
  O  O34  1  0.07309719  0.59427337  0.67771964  1
  O  O35  1  0.07101186  0.16315385  0.59395598  1
  O  O36  1  0.10646263  0.57375624  0.36859059  1
  O  O37  1  0.14019317  0.82209953  0.21398353  1
  O  O38  1  0.14052761  0.97853337  0.39923686  1
  O  O39  1  0.13778340  0.24428880  0.98188670  1
  O  O40  1  0.15239856  0.18993799  0.26542718  1
  O  O41  1  0.17167688  0.43432874  0.16817186  1
  O  O42  1  0.17033910  0.05178108  0.04402392  1
  O  O43  1  0.19526157  0.79518215  0.50377615  1
  O  O44  1  0.30473843  0.70481785  0.00377615  1
  O  O45  1  0.32966090  0.44821892  0.54402392  1
  O  O46  1  0.32832312  0.06567126  0.66817186  1
  O  O47  1  0.34760144  0.31006201  0.76542718  1
  O  O48  1  0.35947239  0.52146663  0.89923686  1
  O  O49  1  0.35980683  0.67790047  0.71398353  1
  O  O50  1  0.36221660  0.25571120  0.48188670  1
  O  O51  1  0.39353737  0.92624376  0.86859059  1
  O  O52  1  0.42690281  0.90572663  0.17771964  1
  O  O53  1  0.41759868  0.65056784  0.39401035  1
  O  O54  1  0.42898814  0.33684615  0.09395598  1
  O  O55  1  0.44977712  0.06654224  0.36259829  1
  O  O56  1  0.54698003  0.93464243  0.63241895  1
  O  O57  1  0.57529159  0.66656058  0.90508941  1
  O  O58  1  0.58364060  0.35326263  0.61266828  1
  O  O59  1  0.56969623  0.09598504  0.81773875  1
  O  O60  1  0.59889838  0.07825363  0.12531234  1
  O  O61  1  0.63842950  0.74880740  0.52455278  1
  O  O62  1  0.64168623  0.32568692  0.28693491  1
  O  O63  1  0.63655729  0.48385209  0.10514070  1
  O  O64  1  0.64902126  0.69580299  0.24004722  1
  O  O65  1  0.67053632  0.93798943  0.32123500  1
  O  O66  1  0.67408658  0.55684285  0.45999321  1
  O  O67  1  0.70003204  0.29986862  0.99707283  1
  O  O68  1  0.79996796  0.20013138  0.49707283  1
  O  O69  1  0.82591342  0.94315715  0.95999321  1
  O  O70  1  0.82946368  0.56201057  0.82123500  1
  O  O71  1  0.85097874  0.80419701  0.74004722  1
  O  O72  1  0.86157050  0.75119260  0.02455278  1
  O  O73  1  0.86344271  0.01614791  0.60514070  1
  O  O74  1  0.85831377  0.17431308  0.78693491  1
  O  O75  1  0.90110162  0.42174637  0.62531234  1
  O  O76  1  0.92470841  0.83343942  0.40508941  1
  O  O77  1  0.93030377  0.40401496  0.31773875  1
  O  O78  1  0.91635940  0.14673737  0.11266828  1
  O  O79  1  0.95301997  0.56535757  0.13241895  1
