# generated using pymatgen
data_CrSO4
_symmetry_space_group_name_H-M   'P 1'
_cell_length_a   4.97846245
_cell_length_b   8.64738203
_cell_length_c   7.12122315
_cell_angle_alpha   90.00000000
_cell_angle_beta   90.00000000
_cell_angle_gamma   90.00000000
_symmetry_Int_Tables_number   1
_chemical_formula_structural   CrSO4
_chemical_formula_sum   'Cr4 S4 O16'
_cell_volume   306.57340452
_cell_formula_units_Z   4
loop_
 _symmetry_equiv_pos_site_id
 _symmetry_equiv_pos_as_xyz
  1  'x, y, z'
loop_
 _atom_site_type_symbol
 _atom_site_label
 _atom_site_symmetry_multiplicity
 _atom_site_fract_x
 _atom_site_fract_y
 _atom_site_fract_z
 _atom_site_occupancy
  Cr  Cr0  1  -0.00000000  -0.00000000  0.00000000  1
  Cr  Cr1  1  -0.00000000  -0.00000000  0.50000000  1
  Cr  Cr2  1  0.50000000  0.50000000  0.00000000  1
  Cr  Cr3  1  0.50000000  0.50000000  0.50000000  1
  S  S4  1  0.03468686  0.68227652  0.25000000  1
  S  S5  1  0.46531314  0.18227652  0.25000000  1
  S  S6  1  0.53468686  0.81772348  0.75000000  1
  S  S7  1  0.96531314  0.31772348  0.75000000  1
  O  O8  1  0.04639769  0.85922792  0.25000000  1
  O  O9  1  0.17220408  0.62966036  0.07731792  1
  O  O10  1  0.17220408  0.62966036  0.42268208  1
  O  O11  1  0.25217865  0.86694757  0.75000000  1
  O  O12  1  0.24782135  0.36694757  0.75000000  1
  O  O13  1  0.32779592  0.12966036  0.07731792  1
  O  O14  1  0.32779592  0.12966036  0.42268208  1
  O  O15  1  0.45360231  0.35922792  0.25000000  1
  O  O16  1  0.54639769  0.64077208  0.75000000  1
  O  O17  1  0.67220408  0.87033964  0.57731792  1
  O  O18  1  0.67220408  0.87033964  0.92268208  1
  O  O19  1  0.75217865  0.63305243  0.25000000  1
  O  O20  1  0.74782135  0.13305243  0.25000000  1
  O  O21  1  0.82779592  0.37033964  0.57731792  1
  O  O22  1  0.82779592  0.37033964  0.92268208  1
  O  O23  1  0.95360231  0.14077208  0.75000000  1
