# generated using pymatgen
data_Bi2O3
_symmetry_space_group_name_H-M   'P 1'
_cell_length_a   6.38211678
_cell_length_b   6.38213356
_cell_length_c   5.98913906
_cell_angle_alpha   122.19556167
_cell_angle_beta   57.80457582
_cell_angle_gamma   120.00007678
_symmetry_Int_Tables_number   1
_chemical_formula_structural   Bi2O3
_chemical_formula_sum   'Bi4 O6'
_cell_volume   166.54852288
_cell_formula_units_Z   2
loop_
 _symmetry_equiv_pos_site_id
 _symmetry_equiv_pos_as_xyz
  1  'x, y, z'
loop_
 _atom_site_type_symbol
 _atom_site_label
 _atom_site_symmetry_multiplicity
 _atom_site_fract_x
 _atom_site_fract_y
 _atom_site_fract_z
 _atom_site_occupancy
  Bi  Bi0  1  0.63598755  0.36401133  0.09203420  1
  Bi  Bi1  1  0.86401093  0.13598843  0.40796632  1
  Bi  Bi2  1  0.13598774  0.86401092  0.59203307  1
  Bi  Bi3  1  0.36401207  0.63598970  0.90796687  1
  O  O4  1  0.50526273  0.74999934  0.24999947  1
  O  O5  1  0.99473571  0.49473657  0.24999916  1
  O  O6  1  0.24999969  0.00526164  0.25000101  1
  O  O7  1  0.75000022  0.99473759  0.75000079  1
  O  O8  1  0.00526182  0.50526452  0.75000164  1
  O  O9  1  0.49473853  0.24999996  0.74999848  1
