# generated using pymatgen
data_AlPb3OF9
_symmetry_space_group_name_H-M   'P 1'
_cell_length_a   26.35046999
_cell_length_b   5.75445766
_cell_length_c   5.87068873
_cell_angle_alpha   90.00000000
_cell_angle_beta   88.10115066
_cell_angle_gamma   90.00000000
_symmetry_Int_Tables_number   1
_chemical_formula_structural   AlPb3OF9
_chemical_formula_sum   'Al4 Pb12 O4 F36'
_cell_volume   889.69935231
_cell_formula_units_Z   4
loop_
 _symmetry_equiv_pos_site_id
 _symmetry_equiv_pos_as_xyz
  1  'x, y, z'
loop_
 _atom_site_type_symbol
 _atom_site_label
 _atom_site_symmetry_multiplicity
 _atom_site_fract_x
 _atom_site_fract_y
 _atom_site_fract_z
 _atom_site_occupancy
  Al  Al0  1  0.40303872  0.80124908  0.25943277  1
  Al  Al1  1  0.90303872  0.69875092  0.75943277  1
  Al  Al2  1  0.59696128  0.19875092  0.74056723  1
  Al  Al3  1  0.09696128  0.30124908  0.24056723  1
  Pb  Pb4  1  0.42521093  0.28619536  0.73160003  1
  Pb  Pb5  1  0.92521093  0.21380464  0.23160003  1
  Pb  Pb6  1  0.57478907  0.71380464  0.26839997  1
  Pb  Pb7  1  0.07478907  0.78619536  0.76839997  1
  Pb  Pb8  1  0.30906604  0.30160499  0.22115406  1
  Pb  Pb9  1  0.80906604  0.19839501  0.72115406  1
  Pb  Pb10  1  0.69093396  0.69839501  0.77884594  1
  Pb  Pb11  1  0.19093396  0.80160499  0.27884594  1
  Pb  Pb12  1  0.30542031  0.82973901  0.75959544  1
  Pb  Pb13  1  0.80542031  0.67026099  0.25959544  1
  Pb  Pb14  1  0.69457969  0.17026099  0.24040456  1
  Pb  Pb15  1  0.19457969  0.32973901  0.74040456  1
  O  O16  1  0.50110606  0.41679656  0.06607745  1
  O  O17  1  0.00110606  0.08320344  0.56607745  1
  O  O18  1  0.49889394  0.58320344  0.93392255  1
  O  O19  1  0.99889394  0.91679656  0.43392255  1
  F  F20  1  0.37995948  0.63587941  0.52014949  1
  F  F21  1  0.87995948  0.86412059  0.02014949  1
  F  F22  1  0.62004052  0.36412059  0.47985051  1
  F  F23  1  0.12004052  0.13587941  0.97985051  1
  F  F24  1  0.33371522  0.85524212  0.19343206  1
  F  F25  1  0.83371522  0.64475788  0.69343206  1
  F  F26  1  0.66628478  0.14475788  0.80656794  1
  F  F27  1  0.16628478  0.35524212  0.30656794  1
  F  F28  1  0.46653399  0.76809303  0.34347977  1
  F  F29  1  0.96653399  0.73190697  0.84347977  1
  F  F30  1  0.53346601  0.23190697  0.65652023  1
  F  F31  1  0.03346601  0.26809303  0.15652023  1
  F  F32  1  0.41983269  0.96288738  0.99704685  1
  F  F33  1  0.91983269  0.53711262  0.49704685  1
  F  F34  1  0.58016731  0.03711262  0.00295315  1
  F  F35  1  0.08016731  0.46288738  0.50295315  1
  F  F36  1  0.39649665  0.52923788  0.09780157  1
  F  F37  1  0.89649665  0.97076212  0.59780157  1
  F  F38  1  0.60350335  0.47076212  0.90219843  1
  F  F39  1  0.10350335  0.02923788  0.40219843  1
  F  F40  1  0.39410571  0.07723520  0.42241846  1
  F  F41  1  0.89410571  0.42276480  0.92241846  1
  F  F42  1  0.60589429  0.92276480  0.57758154  1
  F  F43  1  0.10589429  0.57723520  0.07758154  1
  F  F44  1  0.24505554  0.06968051  0.00489010  1
  F  F45  1  0.74505554  0.43031949  0.50489010  1
  F  F46  1  0.75494446  0.93031949  0.99510990  1
  F  F47  1  0.25494446  0.56968051  0.49510990  1
  F  F48  1  0.24973367  0.06195589  0.50616501  1
  F  F49  1  0.74973367  0.43804411  0.00616501  1
  F  F50  1  0.75026633  0.93804411  0.49383499  1
  F  F51  1  0.25026633  0.56195589  0.99383499  1
  F  F52  1  0.33659787  0.24828028  0.81413638  1
  F  F53  1  0.83659787  0.25171972  0.31413638  1
  F  F54  1  0.66340213  0.75171972  0.18586362  1
  F  F55  1  0.16340213  0.74828028  0.68586362  1
