# generated using pymatgen
data_V2ZnO6
_symmetry_space_group_name_H-M   'P 1'
_cell_length_a   3.57913509
_cell_length_b   5.02756502
_cell_length_c   6.66013216
_cell_angle_alpha   109.75377089
_cell_angle_beta   90.00000000
_cell_angle_gamma   110.85174929
_symmetry_Int_Tables_number   1
_chemical_formula_structural   V2ZnO6
_chemical_formula_sum   'V2 Zn1 O6'
_cell_volume   104.41414115
_cell_formula_units_Z   1
loop_
 _symmetry_equiv_pos_site_id
 _symmetry_equiv_pos_as_xyz
  1  'x, y, z'
loop_
 _atom_site_type_symbol
 _atom_site_label
 _atom_site_symmetry_multiplicity
 _atom_site_fract_x
 _atom_site_fract_y
 _atom_site_fract_z
 _atom_site_occupancy
  V  V0  1  0.16700388  0.38280298  0.65228345  1
  V  V1  1  0.78420090  0.61719702  0.34771655  1
  Zn  Zn2  1  0.99183195  -0.00000000  0.00000000  1
  O  O3  1  0.28113162  0.61120081  0.43350652  1
  O  O4  1  0.31557488  0.68645299  0.88741723  1
  O  O5  1  0.66993081  0.38879919  0.56649348  1
  O  O6  1  0.62912188  0.31354701  0.11258277  1
  O  O7  1  0.94430390  0.93540373  0.27849394  1
  O  O8  1  0.00890018  0.06459627  0.72150606  1
