# generated using pymatgen
data_TiV4CoO12
_symmetry_space_group_name_H-M   'P 1'
_cell_length_a   6.82674831
_cell_length_b   6.82674849
_cell_length_c   5.74850503
_cell_angle_alpha   75.13572292
_cell_angle_beta   104.86426969
_cell_angle_gamma   95.60412146
_symmetry_Int_Tables_number   1
_chemical_formula_structural   TiV4CoO12
_chemical_formula_sum   'Ti1 V4 Co1 O12'
_cell_volume   250.13040147
_cell_formula_units_Z   1
loop_
 _symmetry_equiv_pos_site_id
 _symmetry_equiv_pos_as_xyz
  1  'x, y, z'
loop_
 _atom_site_type_symbol
 _atom_site_label
 _atom_site_symmetry_multiplicity
 _atom_site_fract_x
 _atom_site_fract_y
 _atom_site_fract_z
 _atom_site_occupancy
  Ti  Ti0  1  0.90504036  0.90504036  0.25000000  1
  V  V1  1  0.20458253  0.61179174  0.74855103  1
  V  V2  1  0.38485505  0.80349464  0.25090727  1
  V  V3  1  0.61179174  0.20458253  0.75144897  1
  V  V4  1  0.80349464  0.38485505  0.24909273  1
  Co  Co5  1  0.08632200  0.08632200  0.75000000  1
  O  O6  1  0.03479877  0.81254125  0.62106854  1
  O  O7  1  0.08600379  0.38264063  0.76045691  1
  O  O8  1  0.17798590  0.96965688  0.12394708  1
  O  O9  1  0.38012235  0.64707356  0.55842699  1
  O  O10  1  0.38264063  0.08600379  0.73954309  1
  O  O11  1  0.33281369  0.62618378  0.04960314  1
  O  O12  1  0.64707356  0.38012235  0.94157301  1
  O  O13  1  0.64051448  0.91357760  0.26867234  1
  O  O14  1  0.62618378  0.33281369  0.45039686  1
  O  O15  1  0.81254125  0.03479877  0.87893146  1
  O  O16  1  0.91357760  0.64051448  0.23132766  1
  O  O17  1  0.96965688  0.17798590  0.37605292  1
