# generated using pymatgen
data_Ge2N2O
_symmetry_space_group_name_H-M   'P 1'
_cell_length_a   3.10313347
_cell_length_b   5.46481668
_cell_length_c   4.86317830
_cell_angle_alpha   63.60956315
_cell_angle_beta   90.00259523
_cell_angle_gamma   73.53785689
_symmetry_Int_Tables_number   1
_chemical_formula_structural   Ge2N2O
_chemical_formula_sum   'Ge2 N2 O1'
_cell_volume   70.08090240
_cell_formula_units_Z   1
loop_
 _symmetry_equiv_pos_site_id
 _symmetry_equiv_pos_as_xyz
  1  'x, y, z'
loop_
 _atom_site_type_symbol
 _atom_site_label
 _atom_site_symmetry_multiplicity
 _atom_site_fract_x
 _atom_site_fract_y
 _atom_site_fract_z
 _atom_site_occupancy
  Ge  Ge0  1  0.17379457  0.65237792  0.92374816  1
  Ge  Ge1  1  0.82618265  0.34757370  0.57599305  1
  N  N2  1  0.69767040  0.60447634  0.74411631  1
  N  N3  1  0.30225247  0.39544203  0.34847515  1
  O  O4  1  0.00009991  0.00012901  0.90766833  1
