# generated using pymatgen
data_Mg16Al12Ga
_symmetry_space_group_name_H-M   'P 1'
_cell_length_a   9.10240667
_cell_length_b   9.10003071
_cell_length_c   9.10003161
_cell_angle_alpha   109.46592715
_cell_angle_beta   109.47651670
_cell_angle_gamma   109.47650624
_symmetry_Int_Tables_number   1
_chemical_formula_structural   Mg16Al12Ga
_chemical_formula_sum   'Mg16 Al12 Ga1'
_cell_volume   580.21874103
_cell_formula_units_Z   1
loop_
 _symmetry_equiv_pos_site_id
 _symmetry_equiv_pos_as_xyz
  1  'x, y, z'
loop_
 _atom_site_type_symbol
 _atom_site_label
 _atom_site_symmetry_multiplicity
 _atom_site_fract_x
 _atom_site_fract_y
 _atom_site_fract_z
 _atom_site_occupancy
  Mg  Mg0  1  0.59330903  0.30170916  0.00000100  1
  Mg  Mg1  1  0.00238453  -0.00000000  -0.00000000  1
  Mg  Mg2  1  0.00161311  0.34584996  0.00000000  1
  Mg  Mg3  1  0.31524608  0.60064126  0.00000100  1
  Mg  Mg4  1  0.68318532  0.68228599  0.28154579  1
  Mg  Mg5  1  0.59330903  -0.00000000  0.30171016  1
  Mg  Mg6  1  0.00089933  0.59925980  0.31771401  1
  Mg  Mg7  1  0.00161311  -0.00000000  0.34584996  1
  Mg  Mg8  1  0.71460582  0.39935974  0.39935974  1
  Mg  Mg9  1  0.40164053  0.71845621  0.40074120  1
  Mg  Mg10  1  0.00089933  0.31771401  0.59925880  1
  Mg  Mg11  1  0.31524608  0.00000100  0.60064126  1
  Mg  Mg12  1  0.65576215  0.65414904  0.65415004  1
  Mg  Mg13  1  0.68318532  0.28154579  0.68228599  1
  Mg  Mg14  1  0.29159987  0.69829084  0.69829084  1
  Mg  Mg15  1  0.40164053  0.40074120  0.71845521  1
  Al  Al16  1  0.64036353  0.81349838  0.00000000  1
  Al  Al17  1  0.81416102  0.62649511  0.00000100  1
  Al  Al18  1  0.36685760  0.36857747  0.18304693  1
  Al  Al19  1  0.18380967  0.81695207  0.18553055  1
  Al  Al20  1  0.82686515  0.18650162  0.18650162  1
  Al  Al21  1  0.36685760  0.18304793  0.36857747  1
  Al  Al22  1  0.18766491  0.37350389  0.37350389  1
  Al  Al23  1  0.81416102  0.00000000  0.62649611  1
  Al  Al24  1  0.99828013  0.81447145  0.63142453  1
  Al  Al25  1  0.64036353  -0.00000000  0.81349938  1
  Al  Al26  1  0.99828013  0.63142453  0.81447045  1
  Al  Al27  1  0.18380967  0.18552955  0.81695207  1
  Ga  Ga28  1  0.32238986  -0.00000000  -0.00000000  1
