# generated using pymatgen
data_Li4Fe3TeO8
_symmetry_space_group_name_H-M   'P 1'
_cell_length_a   10.56763630
_cell_length_b   10.57022478
_cell_length_c   14.92391869
_cell_angle_alpha   19.64845435
_cell_angle_beta   19.65042556
_cell_angle_gamma   33.68291829
_symmetry_Int_Tables_number   1
_chemical_formula_structural   Li4Fe3TeO8
_chemical_formula_sum   'Li4 Fe3 Te1 O8'
_cell_volume   164.87548027
_cell_formula_units_Z   1
loop_
 _symmetry_equiv_pos_site_id
 _symmetry_equiv_pos_as_xyz
  1  'x, y, z'
loop_
 _atom_site_type_symbol
 _atom_site_label
 _atom_site_symmetry_multiplicity
 _atom_site_fract_x
 _atom_site_fract_y
 _atom_site_fract_z
 _atom_site_occupancy
  Li  Li0  1  0.99999600  0.99999909  0.50000373  1
  Li  Li1  1  0.00000505  0.50000372  0.49999494  1
  Li  Li2  1  0.49999862  0.00000269  0.49999888  1
  Li  Li3  1  0.50000060  0.49999737  0.50000259  1
  Fe  Fe4  1  -0.00000563  0.49999137  0.00000738  1
  Fe  Fe5  1  0.50001402  0.00000621  -0.00001295  1
  Fe  Fe6  1  0.49998687  0.50000307  0.00000403  1
  Te  Te7  1  0.00000211  -0.00000288  0.00000068  1
  O  O8  1  0.02445014  0.02432583  0.22650930  1
  O  O9  1  0.98113330  0.47886328  0.28082208  1
  O  O10  1  0.47895161  0.98056086  0.28098312  1
  O  O11  1  0.97555610  0.97567493  0.77348844  1
  O  O12  1  0.51268562  0.51258120  0.23784665  1
  O  O13  1  0.01885997  0.52113090  0.71918671  1
  O  O14  1  0.52104660  0.01943689  0.71901829  1
  O  O15  1  0.48731902  0.48742646  0.76214713  1
