# generated using pymatgen
data_Mg16Al12In
_symmetry_space_group_name_H-M   'P 1'
_cell_length_a   9.17643122
_cell_length_b   9.11429885
_cell_length_c   9.14365757
_cell_angle_alpha   109.42404202
_cell_angle_beta   109.50970390
_cell_angle_gamma   109.48521317
_symmetry_Int_Tables_number   1
_chemical_formula_structural   Mg16Al12In
_chemical_formula_sum   'Mg16 Al12 In1'
_cell_volume   588.66274681
_cell_formula_units_Z   1
loop_
 _symmetry_equiv_pos_site_id
 _symmetry_equiv_pos_as_xyz
  1  'x, y, z'
loop_
 _atom_site_type_symbol
 _atom_site_label
 _atom_site_symmetry_multiplicity
 _atom_site_fract_x
 _atom_site_fract_y
 _atom_site_fract_z
 _atom_site_occupancy
  Mg  Mg0  1  0.00011823  0.34602056  0.00005686  1
  Mg  Mg1  1  0.34136519  0.00490609  -0.00003493  1
  Mg  Mg2  1  0.31337018  0.60177049  -0.00006062  1
  Mg  Mg3  1  0.00109372  0.00110904  0.99997535  1
  Mg  Mg4  1  0.68042211  0.68269498  0.28343304  1
  Mg  Mg5  1  0.59959992  0.99970683  0.31359890  1
  Mg  Mg6  1  0.00299553  0.60323094  0.31710491  1
  Mg  Mg7  1  0.00323802  0.99773187  0.34863204  1
  Mg  Mg8  1  0.71222664  0.39560656  0.39363045  1
  Mg  Mg9  1  0.40062854  0.71775215  0.40252468  1
  Mg  Mg10  1  0.99824461  0.31529733  0.59759107  1
  Mg  Mg11  1  0.31861766  0.00202892  0.60641193  1
  Mg  Mg12  1  0.65456385  0.64908276  0.65146193  1
  Mg  Mg13  1  0.68585605  0.28616297  0.68279036  1
  Mg  Mg14  1  0.28615218  0.68605323  0.68643835  1
  Mg  Mg15  1  0.39697495  0.39932922  0.71654225  1
  Al  Al16  1  0.63280468  0.81178627  0.99987519  1
  Al  Al17  1  0.82155364  0.63906816  0.99996972  1
  Al  Al18  1  0.36122600  0.36835532  0.18272313  1
  Al  Al19  1  0.18599111  0.81919209  0.18598811  1
  Al  Al20  1  0.82224267  0.18045907  0.18734268  1
  Al  Al21  1  0.18049388  0.36713208  0.36848868  1
  Al  Al22  1  0.36743303  0.18408885  0.36950763  1
  Al  Al23  1  0.99791867  0.81468653  0.63067890  1
  Al  Al24  1  0.81229550  0.99876223  0.63155813  1
  Al  Al25  1  0.63453068  0.99288224  0.81264182  1
  Al  Al26  1  0.00001258  0.63319344  0.81393799  1
  Al  Al27  1  0.17848066  0.18558167  0.81721605  1
  In  In28  1  0.60955153  0.31632908  0.99997442  1
