# generated using pymatgen
data_Pm3Nd
_symmetry_space_group_name_H-M   'P 1'
_cell_length_a   7.33844634
_cell_length_b   7.33844454
_cell_length_c   6.02021799
_cell_angle_alpha   90.00000000
_cell_angle_beta   90.00000000
_cell_angle_gamma   120.00000308
_symmetry_Int_Tables_number   1
_chemical_formula_structural   Pm3Nd
_chemical_formula_sum   'Pm6 Nd2'
_cell_volume   280.77017641
_cell_formula_units_Z   2
loop_
 _symmetry_equiv_pos_site_id
 _symmetry_equiv_pos_as_xyz
  1  'x, y, z'
loop_
 _atom_site_type_symbol
 _atom_site_label
 _atom_site_symmetry_multiplicity
 _atom_site_fract_x
 _atom_site_fract_y
 _atom_site_fract_z
 _atom_site_occupancy
  Pm  Pm0  1  0.83360054  0.16640046  0.75000000  1
  Pm  Pm1  1  0.33279993  0.16640046  0.75000000  1
  Pm  Pm2  1  0.83360054  0.66719807  0.75000000  1
  Pm  Pm3  1  0.16639946  0.83359954  0.25000100  1
  Pm  Pm4  1  0.66720007  0.83359954  0.25000100  1
  Pm  Pm5  1  0.16640146  0.33280193  0.25000100  1
  Nd  Nd6  1  0.66666600  0.33333200  0.25000100  1
  Nd  Nd7  1  0.33333400  0.66666800  0.75000000  1
