# generated using pymatgen
data_Mg2Ag
_symmetry_space_group_name_H-M   'P 1'
_cell_length_a   3.27941498
_cell_length_b   7.62309596
_cell_length_c   4.86958837
_cell_angle_alpha   90.00000000
_cell_angle_beta   90.00000000
_cell_angle_gamma   77.57875947
_symmetry_Int_Tables_number   1
_chemical_formula_structural   Mg2Ag
_chemical_formula_sum   'Mg4 Ag2'
_cell_volume   118.88674746
_cell_formula_units_Z   2
loop_
 _symmetry_equiv_pos_site_id
 _symmetry_equiv_pos_as_xyz
  1  'x, y, z'
loop_
 _atom_site_type_symbol
 _atom_site_label
 _atom_site_symmetry_multiplicity
 _atom_site_fract_x
 _atom_site_fract_y
 _atom_site_fract_z
 _atom_site_occupancy
  Mg  Mg0  1  0.98396571  0.03206958  0.00000000  1
  Mg  Mg1  1  0.65986387  0.68027526  0.00000000  1
  Mg  Mg2  1  0.46048029  0.07904042  0.49999900  1
  Mg  Mg3  1  0.78458213  0.43083674  0.49999900  1
  Ag  Ag4  1  0.32699555  0.34600890  0.00000000  1
  Ag  Ag5  1  0.11744845  0.76510310  0.49999900  1
