# generated using pymatgen
data_Mg16Al12Pd
_symmetry_space_group_name_H-M   'P 1'
_cell_length_a   9.12984445
_cell_length_b   9.06955960
_cell_length_c   9.02075900
_cell_angle_alpha   109.38419085
_cell_angle_beta   109.66275156
_cell_angle_gamma   109.72139861
_symmetry_Int_Tables_number   1
_chemical_formula_structural   Mg16Al12Pd
_chemical_formula_sum   'Mg16 Al12 Pd1'
_cell_volume   572.46888681
_cell_formula_units_Z   1
loop_
 _symmetry_equiv_pos_site_id
 _symmetry_equiv_pos_as_xyz
  1  'x, y, z'
loop_
 _atom_site_type_symbol
 _atom_site_label
 _atom_site_symmetry_multiplicity
 _atom_site_fract_x
 _atom_site_fract_y
 _atom_site_fract_z
 _atom_site_occupancy
  Mg  Mg0  1  0.00332068  0.99876767  -0.00000127  1
  Mg  Mg1  1  0.30653337  0.60169202  0.00000724  1
  Mg  Mg2  1  0.37784640  0.04353080  0.00000871  1
  Mg  Mg3  1  0.99010928  0.34091385  0.99999884  1
  Mg  Mg4  1  0.66979022  0.65825563  0.25714346  1
  Mg  Mg5  1  0.59347088  0.99554281  0.30859738  1
  Mg  Mg6  1  0.00004013  0.60137344  0.31780365  1
  Mg  Mg7  1  0.99707150  0.99439261  0.34975970  1
  Mg  Mg8  1  0.70420743  0.39360267  0.38243597  1
  Mg  Mg9  1  0.39727358  0.71856830  0.40262791  1
  Mg  Mg10  1  0.99464091  0.31593905  0.59736447  1
  Mg  Mg11  1  0.32176579  0.01117132  0.61755601  1
  Mg  Mg12  1  0.64729916  0.64462696  0.65023861  1
  Mg  Mg13  1  0.68223029  0.28356861  0.68219355  1
  Mg  Mg14  1  0.28487067  0.68693545  0.69138935  1
  Mg  Mg15  1  0.41265113  0.40111538  0.74285194  1
  Al  Al16  1  0.81414838  0.62491335  -0.00000068  1
  Al  Al17  1  0.63630430  0.81068789  0.00000040  1
  Al  Al18  1  0.35304551  0.36901514  0.18314472  1
  Al  Al19  1  0.81598552  0.18325325  0.18518684  1
  Al  Al20  1  0.18576758  0.82415295  0.18712971  1
  Al  Al21  1  0.36486595  0.18537130  0.37072107  1
  Al  Al22  1  0.17970713  0.36701699  0.37668792  1
  Al  Al23  1  0.80300841  0.99032233  0.62332013  1
  Al  Al24  1  0.99415856  0.81466744  0.62928757  1
  Al  Al25  1  0.99861990  0.63702152  0.81285983  1
  Al  Al26  1  0.63081852  0.99807653  0.81482688  1
  Al  Al27  1  0.16988434  0.18587044  0.81686110  1
  Pd  Pd28  1  0.67056250  0.31963530  0.99999498  1
