# generated using pymatgen
data_Nd3Er
_symmetry_space_group_name_H-M   'P 1'
_cell_length_a   7.34237876
_cell_length_b   7.34407494
_cell_length_c   5.96212930
_cell_angle_alpha   89.96739794
_cell_angle_beta   90.04918561
_cell_angle_gamma   119.98175042
_symmetry_Int_Tables_number   1
_chemical_formula_structural   Nd3Er
_chemical_formula_sum   'Nd6 Er2'
_cell_volume   278.47459142
_cell_formula_units_Z   2
loop_
 _symmetry_equiv_pos_site_id
 _symmetry_equiv_pos_as_xyz
  1  'x, y, z'
loop_
 _atom_site_type_symbol
 _atom_site_label
 _atom_site_symmetry_multiplicity
 _atom_site_fract_x
 _atom_site_fract_y
 _atom_site_fract_z
 _atom_site_occupancy
  Nd  Nd0  1  0.16830885  0.33665925  0.24997502  1
  Nd  Nd1  1  0.66339767  0.83182399  0.25002782  1
  Nd  Nd2  1  0.16837693  0.83178662  0.25017333  1
  Nd  Nd3  1  0.83271328  0.66516459  0.74992469  1
  Nd  Nd4  1  0.33493074  0.16726534  0.75001382  1
  Nd  Nd5  1  0.83257754  0.16736641  0.74982403  1
  Er  Er6  1  0.33331836  0.66677246  0.75009145  1
  Er  Er7  1  0.66637864  0.33316332  0.24997384  1
