# generated using pymatgen
data_Nd3Tm
_symmetry_space_group_name_H-M   'P 1'
_cell_length_a   7.32412032
_cell_length_b   7.32411808
_cell_length_c   5.95008825
_cell_angle_alpha   90.00000000
_cell_angle_beta   90.00000000
_cell_angle_gamma   119.99999442
_symmetry_Int_Tables_number   1
_chemical_formula_structural   Nd3Tm
_chemical_formula_sum   'Nd6 Tm2'
_cell_volume   276.41707748
_cell_formula_units_Z   2
loop_
 _symmetry_equiv_pos_site_id
 _symmetry_equiv_pos_as_xyz
  1  'x, y, z'
loop_
 _atom_site_type_symbol
 _atom_site_label
 _atom_site_symmetry_multiplicity
 _atom_site_fract_x
 _atom_site_fract_y
 _atom_site_fract_z
 _atom_site_occupancy
  Nd  Nd0  1  0.16800679  0.33601359  0.25000000  1
  Nd  Nd1  1  0.66398541  0.83199421  0.25000000  1
  Nd  Nd2  1  0.16800779  0.83199421  0.25000000  1
  Nd  Nd3  1  0.83199321  0.66398541  0.75000000  1
  Nd  Nd4  1  0.33601359  0.16800679  0.75000000  1
  Nd  Nd5  1  0.83199221  0.16800679  0.75000000  1
  Tm  Tm6  1  0.33333400  0.66666800  0.75000000  1
  Tm  Tm7  1  0.66666700  0.33333400  0.25000000  1
