# generated using pymatgen
data_Nd3Ho
_symmetry_space_group_name_H-M   'P 1'
_cell_length_a   7.31698394
_cell_length_b   7.31762680
_cell_length_c   5.97778008
_cell_angle_alpha   90.01291164
_cell_angle_beta   89.98822547
_cell_angle_gamma   119.99565603
_symmetry_Int_Tables_number   1
_chemical_formula_structural   Nd3Ho
_chemical_formula_sum   'Nd6 Ho2'
_cell_volume   277.19916541
_cell_formula_units_Z   2
loop_
 _symmetry_equiv_pos_site_id
 _symmetry_equiv_pos_as_xyz
  1  'x, y, z'
loop_
 _atom_site_type_symbol
 _atom_site_label
 _atom_site_symmetry_multiplicity
 _atom_site_fract_x
 _atom_site_fract_y
 _atom_site_fract_z
 _atom_site_occupancy
  Nd  Nd0  1  0.16725516  0.33451279  0.25001581  1
  Nd  Nd1  1  0.66545343  0.83273978  0.25002588  1
  Nd  Nd2  1  0.16731081  0.83273218  0.24998133  1
  Nd  Nd3  1  0.83228684  0.66461351  0.74997245  1
  Nd  Nd4  1  0.33537701  0.16770612  0.74997388  1
  Nd  Nd5  1  0.83229906  0.16770428  0.74999747  1
  Ho  Ho6  1  0.33333004  0.66668229  0.74998251  1
  Ho  Ho7  1  0.66668765  0.33330905  0.25005067  1
