# generated using pymatgen
data_Pm(Mg4Al3)4
_symmetry_space_group_name_H-M   'P 1'
_cell_length_a   9.15358009
_cell_length_b   9.15357955
_cell_length_c   9.15358009
_cell_angle_alpha   109.47121566
_cell_angle_beta   109.47122171
_cell_angle_gamma   109.47121566
_symmetry_Int_Tables_number   1
_chemical_formula_structural   Pm(Mg4Al3)4
_chemical_formula_sum   'Pm1 Mg16 Al12'
_cell_volume   590.40644396
_cell_formula_units_Z   1
loop_
 _symmetry_equiv_pos_site_id
 _symmetry_equiv_pos_as_xyz
  1  'x, y, z'
loop_
 _atom_site_type_symbol
 _atom_site_label
 _atom_site_symmetry_multiplicity
 _atom_site_fract_x
 _atom_site_fract_y
 _atom_site_fract_z
 _atom_site_occupancy
  Pm  Pm0  1  -0.00000000  -0.00000000  0.00000000  1
  Mg  Mg1  1  0.60265918  0.31945131  0.99999900  1
  Mg  Mg2  1  0.31945131  0.60265918  0.99999900  1
  Mg  Mg3  1  0.00000000  0.36100687  0.00000000  1
  Mg  Mg4  1  0.36100687  0.00000000  0.00000100  1
  Mg  Mg5  1  0.68054769  0.68054769  0.28320786  1
  Mg  Mg6  1  0.60266018  0.99999900  0.31945131  1
  Mg  Mg7  1  0.99999900  0.60265918  0.31945131  1
  Mg  Mg8  1  0.00000100  0.00000000  0.36100687  1
  Mg  Mg9  1  0.71679214  0.39733982  0.39733982  1
  Mg  Mg10  1  0.39733982  0.71679214  0.39733982  1
  Mg  Mg11  1  0.99999900  0.31945131  0.60265918  1
  Mg  Mg12  1  0.31945131  0.99999900  0.60266018  1
  Mg  Mg13  1  0.63899313  0.63899313  0.63899313  1
  Mg  Mg14  1  0.28320786  0.68054769  0.68054769  1
  Mg  Mg15  1  0.68054769  0.28320786  0.68054769  1
  Mg  Mg16  1  0.39733982  0.39733982  0.71679214  1
  Al  Al17  1  0.62966610  0.81288095  0.00000000  1
  Al  Al18  1  0.81288095  0.62966710  1.00000000  1
  Al  Al19  1  0.37033390  0.37033390  0.18321384  1
  Al  Al20  1  0.81678516  0.18711905  0.18711905  1
  Al  Al21  1  0.18711905  0.81678416  0.18711905  1
  Al  Al22  1  0.18321384  0.37033390  0.37033390  1
  Al  Al23  1  0.37033390  0.18321384  0.37033390  1
  Al  Al24  1  0.00000000  0.81288095  0.62966610  1
  Al  Al25  1  0.81288095  0.00000000  0.62966710  1
  Al  Al26  1  1.00000000  0.62966710  0.81288095  1
  Al  Al27  1  0.62966710  0.00000000  0.81288095  1
  Al  Al28  1  0.18711905  0.18711905  0.81678516  1
