# generated using pymatgen
data_CoTeO4
_symmetry_space_group_name_H-M   'P 1'
_cell_length_a   6.23527044
_cell_length_b   6.23527120
_cell_length_c   6.12897950
_cell_angle_alpha   119.63760828
_cell_angle_beta   119.63761031
_cell_angle_gamma   92.23858483
_symmetry_Int_Tables_number   1
_chemical_formula_structural   CoTeO4
_chemical_formula_sum   'Co2 Te2 O8'
_cell_volume   166.84881033
_cell_formula_units_Z   2
loop_
 _symmetry_equiv_pos_site_id
 _symmetry_equiv_pos_as_xyz
  1  'x, y, z'
loop_
 _atom_site_type_symbol
 _atom_site_label
 _atom_site_symmetry_multiplicity
 _atom_site_fract_x
 _atom_site_fract_y
 _atom_site_fract_z
 _atom_site_occupancy
  Co  Co0  1  0.00000000  0.50000000  0.00000000  1
  Co  Co1  1  0.50000000  0.00000000  0.50000000  1
  Te  Te2  1  0.00000000  0.00000000  0.50000000  1
  Te  Te3  1  0.00000000  0.00000000  0.00000000  1
  O  O4  1  0.21190888  0.78690461  0.02376570  1
  O  O5  1  0.22253237  0.22053356  0.47295414  1
  O  O6  1  0.21309539  0.78809112  0.47623430  1
  O  O7  1  0.77946644  0.77746763  0.02704586  1
  O  O8  1  0.22053356  0.22253237  0.97295414  1
  O  O9  1  0.78690461  0.21190888  0.52376570  1
  O  O10  1  0.77746763  0.77946644  0.52704586  1
  O  O11  1  0.78809112  0.21309539  0.97623430  1
