# generated using pymatgen
data_TbNd3
_symmetry_space_group_name_H-M   'P 1'
_cell_length_a   7.32384652
_cell_length_b   7.32384515
_cell_length_c   6.00734750
_cell_angle_alpha   90.00000000
_cell_angle_beta   90.00000000
_cell_angle_gamma   119.99999569
_symmetry_Int_Tables_number   1
_chemical_formula_structural   TbNd3
_chemical_formula_sum   'Tb2 Nd6'
_cell_volume   279.05627539
_cell_formula_units_Z   2
loop_
 _symmetry_equiv_pos_site_id
 _symmetry_equiv_pos_as_xyz
  1  'x, y, z'
loop_
 _atom_site_type_symbol
 _atom_site_label
 _atom_site_symmetry_multiplicity
 _atom_site_fract_x
 _atom_site_fract_y
 _atom_site_fract_z
 _atom_site_occupancy
  Tb  Tb0  1  0.33333300  0.66666700  0.75000100  1
  Tb  Tb1  1  0.66666700  0.33333300  0.25000100  1
  Nd  Nd2  1  0.16727386  0.33454771  0.25000100  1
  Nd  Nd3  1  0.66545229  0.83272714  0.25000100  1
  Nd  Nd4  1  0.16727486  0.83272714  0.25000100  1
  Nd  Nd5  1  0.83272614  0.66545229  0.75000100  1
  Nd  Nd6  1  0.33454571  0.16727286  0.75000100  1
  Nd  Nd7  1  0.83272714  0.16727286  0.75000100  1
