# generated using pymatgen
data_TbSm
_symmetry_space_group_name_H-M   'P 1'
_cell_length_a   3.64104804
_cell_length_b   3.64103117
_cell_length_c   5.85785839
_cell_angle_alpha   90.00966554
_cell_angle_beta   89.99024604
_cell_angle_gamma   119.98974827
_symmetry_Int_Tables_number   1
_chemical_formula_structural   TbSm
_chemical_formula_sum   'Tb1 Sm1'
_cell_volume   67.26128386
_cell_formula_units_Z   1
loop_
 _symmetry_equiv_pos_site_id
 _symmetry_equiv_pos_as_xyz
  1  'x, y, z'
loop_
 _atom_site_type_symbol
 _atom_site_label
 _atom_site_symmetry_multiplicity
 _atom_site_fract_x
 _atom_site_fract_y
 _atom_site_fract_z
 _atom_site_occupancy
  Tb  Tb0  1  0.33330169  0.66669499  0.25023600  1
  Sm  Sm1  1  0.66669931  0.33330401  0.74976300  1
