# generated using pymatgen
data_Tb(Mg4Al3)4
_symmetry_space_group_name_H-M   'P 1'
_cell_length_a   9.13962261
_cell_length_b   9.13962205
_cell_length_c   9.13962261
_cell_angle_alpha   109.47121748
_cell_angle_beta   109.47122369
_cell_angle_gamma   109.47121748
_symmetry_Int_Tables_number   1
_chemical_formula_structural   Tb(Mg4Al3)4
_chemical_formula_sum   'Tb1 Mg16 Al12'
_cell_volume   587.70974200
_cell_formula_units_Z   1
loop_
 _symmetry_equiv_pos_site_id
 _symmetry_equiv_pos_as_xyz
  1  'x, y, z'
loop_
 _atom_site_type_symbol
 _atom_site_label
 _atom_site_symmetry_multiplicity
 _atom_site_fract_x
 _atom_site_fract_y
 _atom_site_fract_z
 _atom_site_occupancy
  Tb  Tb0  1  0.00000000  0.00000000  0.00000000  1
  Mg  Mg1  1  0.31915966  0.60293480  0.00000000  1
  Mg  Mg2  1  0.35847909  0.00000100  1.00000000  1
  Mg  Mg3  1  0.00000000  0.35847809  0.00000000  1
  Mg  Mg4  1  0.60293380  0.31915866  1.00000000  1
  Mg  Mg5  1  0.68084034  0.68084034  0.28377513  1
  Mg  Mg6  1  0.00000000  0.60293480  0.31915966  1
  Mg  Mg7  1  0.60293380  0.00000100  0.31915966  1
  Mg  Mg8  1  1.00000000  0.00000100  0.35847909  1
  Mg  Mg9  1  0.71622587  0.39706720  0.39706720  1
  Mg  Mg10  1  0.39706720  0.71622587  0.39706720  1
  Mg  Mg11  1  0.31915966  0.00000100  0.60293380  1
  Mg  Mg12  1  1.00000000  0.31915866  0.60293380  1
  Mg  Mg13  1  0.64151991  0.64151991  0.64151991  1
  Mg  Mg14  1  0.68084034  0.28377513  0.68084034  1
  Mg  Mg15  1  0.28377513  0.68084034  0.68084034  1
  Mg  Mg16  1  0.39706720  0.39706720  0.71622587  1
  Al  Al17  1  0.81358521  0.63144537  1.00000000  1
  Al  Al18  1  0.63144537  0.81358521  0.00000000  1
  Al  Al19  1  0.36855563  0.36855563  0.18214084  1
  Al  Al20  1  0.81785916  0.18641479  0.18641479  1
  Al  Al21  1  0.18641479  0.81785916  0.18641479  1
  Al  Al22  1  0.18214084  0.36855563  0.36855563  1
  Al  Al23  1  0.36855563  0.18214084  0.36855563  1
  Al  Al24  1  0.00000000  0.81358521  0.63144537  1
  Al  Al25  1  0.81358521  -0.00000000  0.63144537  1
  Al  Al26  1  1.00000000  0.63144537  0.81358521  1
  Al  Al27  1  0.63144537  -0.00000000  0.81358521  1
  Al  Al28  1  0.18641479  0.18641479  0.81785916  1
