# generated using pymatgen
data_NaNbO3
_symmetry_space_group_name_H-M   'P 1'
_cell_length_a   5.62623730
_cell_length_b   5.67929455
_cell_length_c   7.88861342
_cell_angle_alpha   90.00000000
_cell_angle_beta   90.00000000
_cell_angle_gamma   90.00000000
_symmetry_Int_Tables_number   1
_chemical_formula_structural   NaNbO3
_chemical_formula_sum   'Na4 Nb4 O12'
_cell_volume   252.06532874
_cell_formula_units_Z   4
loop_
 _symmetry_equiv_pos_site_id
 _symmetry_equiv_pos_as_xyz
  1  'x, y, z'
loop_
 _atom_site_type_symbol
 _atom_site_label
 _atom_site_symmetry_multiplicity
 _atom_site_fract_x
 _atom_site_fract_y
 _atom_site_fract_z
 _atom_site_occupancy
  Na  Na0  1  0.50505982  0.50709104  0.25000000  1
  Na  Na1  1  0.99494018  0.00709104  0.25000000  1
  Na  Na2  1  0.49494018  0.49290896  0.75000000  1
  Na  Na3  1  0.00505982  0.99290896  0.75000000  1
  Nb  Nb4  1  0.50000000  -0.00000000  0.00000000  1
  Nb  Nb5  1  -0.00000000  0.50000000  0.50000000  1
  Nb  Nb6  1  0.50000000  -0.00000000  0.50000000  1
  Nb  Nb7  1  -0.00000000  0.50000000  -0.00000000  1
  O  O8  1  0.43567805  0.99857995  0.25000000  1
  O  O9  1  0.06432195  0.49857995  0.25000000  1
  O  O10  1  0.56432195  0.00142005  0.75000000  1
  O  O11  1  0.93567805  0.50142005  0.75000000  1
  O  O12  1  0.75124360  0.75147027  0.03325843  1
  O  O13  1  0.74875640  0.25147027  0.46674157  1
  O  O14  1  0.24875640  0.24852973  0.53325843  1
  O  O15  1  0.25124360  0.74852973  0.96674157  1
  O  O16  1  0.24875640  0.24852973  0.96674157  1
  O  O17  1  0.25124360  0.74852973  0.53325843  1
  O  O18  1  0.75124360  0.75147027  0.46674157  1
  O  O19  1  0.74875640  0.25147027  0.03325843  1
