# generated using pymatgen
data_La5CoPb3
_symmetry_space_group_name_H-M   'P 1'
_cell_length_a   7.18835751
_cell_length_b   9.67661978
_cell_length_c   9.67636450
_cell_angle_alpha   120.00087791
_cell_angle_beta   90.00000000
_cell_angle_gamma   90.00000000
_symmetry_Int_Tables_number   1
_chemical_formula_structural   La5CoPb3
_chemical_formula_sum   'La10 Co2 Pb6'
_cell_volume   582.89771730
_cell_formula_units_Z   2
loop_
 _symmetry_equiv_pos_site_id
 _symmetry_equiv_pos_as_xyz
  1  'x, y, z'
loop_
 _atom_site_type_symbol
 _atom_site_label
 _atom_site_symmetry_multiplicity
 _atom_site_fract_x
 _atom_site_fract_y
 _atom_site_fract_z
 _atom_site_occupancy
  La  La0  1  0.74999009  0.23074530  1.00000000  1
  La  La1  1  0.75001043  0.76922197  0.76920975  1
  La  La2  1  0.75001043  0.00001222  0.23079025  1
  La  La3  1  0.24999009  0.76925470  0.00000000  1
  La  La4  1  0.25001043  0.23077803  0.23079025  1
  La  La5  1  0.25001043  -0.00001222  0.76920975  1
  La  La6  1  0.49999419  0.33330790  0.66668320  1
  La  La7  1  0.49999419  0.66662469  0.33331680  1
  La  La8  1  0.99999419  0.66669210  0.33331680  1
  La  La9  1  0.99999419  0.33337531  0.66668320  1
  Co  Co10  1  0.49999944  0.99999371  1.00000000  1
  Co  Co11  1  -0.00000056  0.00000629  0.00000000  1
  Pb  Pb12  1  0.75000083  0.59555624  1.00000000  1
  Pb  Pb13  1  0.75000019  0.40445136  0.40445319  1
  Pb  Pb14  1  0.75000019  -0.00000183  0.59554681  1
  Pb  Pb15  1  0.25000083  0.40444376  0.00000000  1
  Pb  Pb16  1  0.25000019  0.59554864  0.59554681  1
  Pb  Pb17  1  0.25000019  0.00000183  0.40445319  1
