# generated using pymatgen
data_Y2ZnPt
_symmetry_space_group_name_H-M   'P 1'
_cell_length_a   4.99598353
_cell_length_b   4.99594017
_cell_length_c   4.99591354
_cell_angle_alpha   60.00059040
_cell_angle_beta   59.99989475
_cell_angle_gamma   59.99954856
_symmetry_Int_Tables_number   1
_chemical_formula_structural   Y2ZnPt
_chemical_formula_sum   'Y2 Zn1 Pt1'
_cell_volume   88.17353495
_cell_formula_units_Z   1
loop_
 _symmetry_equiv_pos_site_id
 _symmetry_equiv_pos_as_xyz
  1  'x, y, z'
loop_
 _atom_site_type_symbol
 _atom_site_label
 _atom_site_symmetry_multiplicity
 _atom_site_fract_x
 _atom_site_fract_y
 _atom_site_fract_z
 _atom_site_occupancy
  Y  Y0  1  -0.00000022  0.00000057  0.00000061  1
  Y  Y1  1  0.50000144  0.50000058  0.50000105  1
  Zn  Zn2  1  0.75000165  0.75000157  0.75000174  1
  Pt  Pt3  1  0.25000113  0.25000127  0.25000059  1
