# generated using pymatgen
data_Nd5Si3
_symmetry_space_group_name_H-M   'P 1'
_cell_length_a   6.66527235
_cell_length_b   8.79258252
_cell_length_c   8.79261242
_cell_angle_alpha   119.99988518
_cell_angle_beta   90.00000000
_cell_angle_gamma   90.00000000
_symmetry_Int_Tables_number   1
_chemical_formula_structural   Nd5Si3
_chemical_formula_sum   'Nd10 Si6'
_cell_volume   446.25533054
_cell_formula_units_Z   2
loop_
 _symmetry_equiv_pos_site_id
 _symmetry_equiv_pos_as_xyz
  1  'x, y, z'
loop_
 _atom_site_type_symbol
 _atom_site_label
 _atom_site_symmetry_multiplicity
 _atom_site_fract_x
 _atom_site_fract_y
 _atom_site_fract_z
 _atom_site_occupancy
  Nd  Nd0  1  0.50000021  0.33330759  0.66665936  1
  Nd  Nd1  1  0.50000021  0.66664824  0.33334064  1
  Nd  Nd2  1  0.00000021  0.66669241  0.33334064  1
  Nd  Nd3  1  0.00000021  0.33335176  0.66665936  1
  Nd  Nd4  1  0.75001626  0.24458596  1.00000000  1
  Nd  Nd5  1  0.74999092  0.75533994  0.75533164  1
  Nd  Nd6  1  0.74999092  0.00000830  0.24466836  1
  Nd  Nd7  1  0.25001626  0.75541404  0.00000000  1
  Nd  Nd8  1  0.24999092  0.24466006  0.24466836  1
  Nd  Nd9  1  0.24999092  -0.00000830  0.75533164  1
  Si  Si10  1  0.74999126  0.60602896  1.00000000  1
  Si  Si11  1  0.75000511  0.39404021  0.39398142  1
  Si  Si12  1  0.75000511  0.00005879  0.60601858  1
  Si  Si13  1  0.24999126  0.39397104  0.00000000  1
  Si  Si14  1  0.25000511  0.60595979  0.60601858  1
  Si  Si15  1  0.25000511  0.99994121  0.39398142  1
