# generated using pymatgen
data_Ho2Al3Ge4
_symmetry_space_group_name_H-M   'P 1'
_cell_length_a   6.01727578
_cell_length_b   7.88249493
_cell_length_c   8.00445123
_cell_angle_alpha   90.00000000
_cell_angle_beta   112.07813148
_cell_angle_gamma   90.00000000
_symmetry_Int_Tables_number   1
_chemical_formula_structural   Ho2Al3Ge4
_chemical_formula_sum   'Ho4 Al6 Ge8'
_cell_volume   351.82062426
_cell_formula_units_Z   2
loop_
 _symmetry_equiv_pos_site_id
 _symmetry_equiv_pos_as_xyz
  1  'x, y, z'
loop_
 _atom_site_type_symbol
 _atom_site_label
 _atom_site_symmetry_multiplicity
 _atom_site_fract_x
 _atom_site_fract_y
 _atom_site_fract_z
 _atom_site_occupancy
  Ho  Ho0  1  0.61350795  0.08243189  0.22701590  1
  Ho  Ho1  1  0.38649205  0.91756811  0.77298410  1
  Ho  Ho2  1  0.88649205  0.58243189  0.77298410  1
  Ho  Ho3  1  0.11350795  0.41756811  0.22701590  1
  Al  Al4  1  0.50000000  0.50000000  0.00000000  1
  Al  Al5  1  -0.00000000  0.00000000  -0.00000000  1
  Al  Al6  1  0.03213409  0.25000000  0.56426818  1
  Al  Al7  1  0.46786591  0.75000000  0.43573182  1
  Al  Al8  1  0.96786591  0.75000000  0.43573182  1
  Al  Al9  1  0.53213409  0.25000000  0.56426818  1
  Ge  Ge10  1  0.20286429  0.25000000  0.90572859  1
  Ge  Ge11  1  0.29713571  0.75000000  0.09427141  1
  Ge  Ge12  1  0.79713571  0.75000000  0.09427141  1
  Ge  Ge13  1  0.70286429  0.25000000  0.90572859  1
  Ge  Ge14  1  0.68437474  0.44940373  0.36874947  1
  Ge  Ge15  1  0.31562526  0.55059627  0.63125053  1
  Ge  Ge16  1  0.81562526  0.94940373  0.63125053  1
  Ge  Ge17  1  0.18437474  0.05059627  0.36874947  1
