# generated using pymatgen
data_Yb3Pb
_symmetry_space_group_name_H-M   'P 1'
_cell_length_a   7.11170154
_cell_length_b   7.11170204
_cell_length_c   5.67254572
_cell_angle_alpha   90.00000000
_cell_angle_beta   90.00000000
_cell_angle_gamma   119.99999769
_symmetry_Int_Tables_number   1
_chemical_formula_structural   Yb3Pb
_chemical_formula_sum   'Yb6 Pb2'
_cell_volume   248.45956538
_cell_formula_units_Z   2
loop_
 _symmetry_equiv_pos_site_id
 _symmetry_equiv_pos_as_xyz
  1  'x, y, z'
loop_
 _atom_site_type_symbol
 _atom_site_label
 _atom_site_symmetry_multiplicity
 _atom_site_fract_x
 _atom_site_fract_y
 _atom_site_fract_z
 _atom_site_occupancy
  Yb  Yb0  1  0.17176371  0.34352742  0.25000000  1
  Yb  Yb1  1  0.65647258  0.82823529  0.25000000  1
  Yb  Yb2  1  0.17176271  0.82823529  0.25000000  1
  Yb  Yb3  1  0.82823629  0.65647258  0.74999900  1
  Yb  Yb4  1  0.34352642  0.17176271  0.74999900  1
  Yb  Yb5  1  0.82823629  0.17176271  0.74999900  1
  Pb  Pb6  1  0.33333400  0.66666800  0.74999900  1
  Pb  Pb7  1  0.66666600  0.33333300  0.25000000  1
