# generated using pymatgen
data_La3TiBeS7
_symmetry_space_group_name_H-M   'P 1'
_cell_length_a   5.81807071
_cell_length_b   10.32018635
_cell_length_c   10.31998761
_cell_angle_alpha   119.99176173
_cell_angle_beta   90.00000000
_cell_angle_gamma   90.00000000
_symmetry_Int_Tables_number   1
_chemical_formula_structural   La3TiBeS7
_chemical_formula_sum   'La6 Ti2 Be2 S14'
_cell_volume   536.67626550
_cell_formula_units_Z   2
loop_
 _symmetry_equiv_pos_site_id
 _symmetry_equiv_pos_as_xyz
  1  'x, y, z'
loop_
 _atom_site_type_symbol
 _atom_site_label
 _atom_site_symmetry_multiplicity
 _atom_site_fract_x
 _atom_site_fract_y
 _atom_site_fract_z
 _atom_site_occupancy
  La  La0  1  0.25093858  0.25484769  0.39142495  1
  La  La1  1  0.25098979  0.60850425  0.86330841  1
  La  La2  1  0.25097530  0.13653991  0.74523471  1
  La  La3  1  0.75093858  0.74515231  0.60857505  1
  La  La4  1  0.75098979  0.39149575  0.13669159  1
  La  La5  1  0.75097530  0.86346009  0.25476529  1
  Ti  Ti6  1  0.48474198  0.99998666  0.99999792  1
  Ti  Ti7  1  0.98474198  0.00001334  0.00000208  1
  Be  Be8  1  0.84126074  0.33329444  0.66663611  1
  Be  Be9  1  0.34126074  0.66670556  0.33336389  1
  S  S10  1  0.73381496  0.14706440  0.22357199  1
  S  S11  1  0.73377887  0.77640765  0.92337034  1
  S  S12  1  0.73380943  0.07652697  0.85298780  1
  S  S13  1  0.23381496  0.85293560  0.77642801  1
  S  S14  1  0.23377887  0.22359235  0.07662966  1
  S  S15  1  0.23380943  0.92347303  0.14701220  1
  S  S16  1  0.96807282  0.11478289  0.51764892  1
  S  S17  1  0.96805763  0.48234516  0.59707843  1
  S  S18  1  0.96814706  0.40275931  0.88517901  1
  S  S19  1  0.46807282  0.88521711  0.48235108  1
  S  S20  1  0.46805763  0.51765484  0.40292157  1
  S  S21  1  0.46814706  0.59724069  0.11482099  1
  S  S22  1  0.48341285  0.33335344  0.66671410  1
  S  S23  1  0.98341285  0.66664656  0.33328590  1
