# generated using pymatgen
data_TlPHO3
_symmetry_space_group_name_H-M   'P 1'
_cell_length_a   5.75847089
_cell_length_b   8.01708277
_cell_length_c   8.44697952
_cell_angle_alpha   90.00000000
_cell_angle_beta   90.00000000
_cell_angle_gamma   94.79219032
_symmetry_Int_Tables_number   1
_chemical_formula_structural   TlPHO3
_chemical_formula_sum   'Tl4 P4 H4 O12'
_cell_volume   388.60120417
_cell_formula_units_Z   4
loop_
 _symmetry_equiv_pos_site_id
 _symmetry_equiv_pos_as_xyz
  1  'x, y, z'
loop_
 _atom_site_type_symbol
 _atom_site_label
 _atom_site_symmetry_multiplicity
 _atom_site_fract_x
 _atom_site_fract_y
 _atom_site_fract_z
 _atom_site_occupancy
  Tl  Tl0  1  0.95849013  0.40683417  0.74357510  1
  Tl  Tl1  1  0.04150987  0.09316583  0.24357510  1
  Tl  Tl2  1  0.04150987  0.59316583  0.25642490  1
  Tl  Tl3  1  0.95849013  0.90683417  0.75642490  1
  P  P4  1  0.52121509  0.37460033  0.04936184  1
  P  P5  1  0.47878491  0.12539967  0.54936184  1
  P  P6  1  0.47878491  0.62539967  0.95063816  1
  P  P7  1  0.52121509  0.87460033  0.45063816  1
  H  H8  1  0.44045547  0.19337176  0.85417436  1
  H  H9  1  0.55954453  0.30662824  0.35417436  1
  H  H10  1  0.55954453  0.80662824  0.14582564  1
  H  H11  1  0.44045547  0.69337176  0.64582564  1
  O  O12  1  0.77569304  0.33834340  0.03286951  1
  O  O13  1  0.22430696  0.16165660  0.53286951  1
  O  O14  1  0.22430696  0.66165660  0.96713049  1
  O  O15  1  0.77569304  0.83834340  0.46713049  1
  O  O16  1  0.41817314  0.37206651  0.21682678  1
  O  O17  1  0.58182686  0.12793349  0.71682678  1
  O  O18  1  0.58182686  0.62793349  0.78317322  1
  O  O19  1  0.41817314  0.87206651  0.28317322  1
  O  O20  1  0.35325785  0.24836263  0.94483034  1
  O  O21  1  0.64674215  0.25163737  0.44483034  1
  O  O22  1  0.64674215  0.75163737  0.05516966  1
  O  O23  1  0.35325785  0.74836263  0.55516966  1
