# generated using pymatgen
data_Tb2Zr2O7
_symmetry_space_group_name_H-M   'P 1'
_cell_length_a   7.35066890
_cell_length_b   7.35062040
_cell_length_c   12.68643510
_cell_angle_alpha   89.99972283
_cell_angle_beta   89.99970413
_cell_angle_gamma   90.00586073
_symmetry_Int_Tables_number   1
_chemical_formula_structural   Tb2Zr2O7
_chemical_formula_sum   'Tb8 Zr8 O28'
_cell_volume   685.47316295
_cell_formula_units_Z   4
loop_
 _symmetry_equiv_pos_site_id
 _symmetry_equiv_pos_as_xyz
  1  'x, y, z'
loop_
 _atom_site_type_symbol
 _atom_site_label
 _atom_site_symmetry_multiplicity
 _atom_site_fract_x
 _atom_site_fract_y
 _atom_site_fract_z
 _atom_site_occupancy
  Tb  Tb0  1  0.13771075  0.62707416  0.13491590  1
  Tb  Tb1  1  0.12713336  0.36235824  0.88491403  1
  Tb  Tb2  1  0.37292633  0.86229362  0.36508806  1
  Tb  Tb3  1  0.36233702  0.12713432  0.11508176  1
  Tb  Tb4  1  0.63764580  0.87287260  0.61508773  1
  Tb  Tb5  1  0.62707426  0.13771686  0.86509230  1
  Tb  Tb6  1  0.87286459  0.63766456  0.38491734  1
  Tb  Tb7  1  0.86228525  0.37292585  0.63491000  1
  Zr  Zr8  1  0.10014614  0.86996380  0.59503240  1
  Zr  Zr9  1  0.13004499  0.89985036  0.90496339  1
  Zr  Zr10  1  0.36993373  0.39980016  0.34505114  1
  Zr  Zr11  1  0.39982146  0.36992669  0.65494574  1
  Zr  Zr12  1  0.60019407  0.63006571  0.15495023  1
  Zr  Zr13  1  0.63007275  0.60017777  0.84505272  1
  Zr  Zr14  1  0.86996427  0.10015259  0.40495875  1
  Zr  Zr15  1  0.89985142  0.13002998  0.09503530  1
  O  O16  1  0.06925043  0.90679409  0.41499431  1
  O  O17  1  0.08542908  0.32710257  0.07379430  1
  O  O18  1  0.09321437  0.93074726  0.08500374  1
  O  O19  1  0.15580749  0.63811426  0.95492277  1
  O  O20  1  0.17286211  0.58529740  0.32377364  1
  O  O21  1  0.13806117  0.34452134  0.70489947  1
  O  O22  1  0.15095788  0.84905821  0.74999623  1
  O  O23  1  0.34884110  0.34871198  0.49999560  1
  O  O24  1  0.36188856  0.84422514  0.54508052  1
  O  O25  1  0.32709852  0.08544225  0.92620196  1
  O  O26  1  0.34445307  0.13805201  0.29507957  1
  O  O27  1  0.40677844  0.43079215  0.16500099  1
  O  O28  1  0.41468724  0.82713055  0.17622752  1
  O  O29  1  0.43079075  0.40678041  0.83500359  1
  O  O30  1  0.56920875  0.59321349  0.33500482  1
  O  O31  1  0.58531737  0.17285714  0.67623722  1
  O  O32  1  0.59322448  0.56920887  0.66499882  1
  O  O33  1  0.65548186  0.86194413  0.79510396  1
  O  O34  1  0.67289804  0.91457568  0.42620603  1
  O  O35  1  0.63810786  0.15575537  0.04508827  1
  O  O36  1  0.65128940  0.65113825  0.00000705  1
  O  O37  1  0.84901644  0.15094008  0.24999595  1
  O  O38  1  0.86194118  0.65554797  0.20491892  1
  O  O39  1  0.82714835  0.41468654  0.82376021  1
  O  O40  1  0.84422912  0.36189186  0.45491259  1
  O  O41  1  0.90680957  0.06926320  0.58500512  1
  O  O42  1  0.91455465  0.67290594  0.57379175  1
  O  O43  1  0.93074650  0.09319563  0.91500029  1
