# generated using pymatgen
data_La5Sn3C
_symmetry_space_group_name_H-M   'P 1'
_cell_length_a   6.87821260
_cell_length_b   9.56445809
_cell_length_c   9.55863627
_cell_angle_alpha   120.02015197
_cell_angle_beta   89.99994896
_cell_angle_gamma   90.00010202
_symmetry_Int_Tables_number   1
_chemical_formula_structural   La5Sn3C
_chemical_formula_sum   'La10 Sn6 C2'
_cell_volume   544.47043900
_cell_formula_units_Z   2
loop_
 _symmetry_equiv_pos_site_id
 _symmetry_equiv_pos_as_xyz
  1  'x, y, z'
loop_
 _atom_site_type_symbol
 _atom_site_label
 _atom_site_symmetry_multiplicity
 _atom_site_fract_x
 _atom_site_fract_y
 _atom_site_fract_z
 _atom_site_occupancy
  La  La0  1  0.50000372  0.33345151  0.66689422  1
  La  La1  1  0.50000372  0.66655729  0.33310578  1
  La  La2  1  0.99999815  0.66653352  0.33307719  1
  La  La3  1  0.99999815  0.33345633  0.66692281  1
  La  La4  1  0.74997988  0.21235269  0.00000000  1
  La  La5  1  0.74999719  0.78760277  0.78762908  1
  La  La6  1  0.74999719  0.99997369  0.21237092  1
  La  La7  1  0.25000722  0.78765816  1.00000000  1
  La  La8  1  0.24999530  0.21239189  0.21237968  1
  La  La9  1  0.24999530  0.00001221  0.78762032  1
  Sn  Sn10  1  0.75000973  0.58987129  0.00000000  1
  Sn  Sn11  1  0.74999603  0.41116785  0.41109190  1
  Sn  Sn12  1  0.74999603  0.00007595  0.58890810  1
  Sn  Sn13  1  0.25000911  0.41013053  1.00000000  1
  Sn  Sn14  1  0.24999646  0.58883494  0.58890922  1
  Sn  Sn15  1  0.24999646  0.99992572  0.41109078  1
  C  C16  1  0.50000880  0.00000155  1.00000000  1
  C  C17  1  0.00001158  0.00000212  0.00000000  1
