# generated using pymatgen
data_Cs3NiCl5
_symmetry_space_group_name_H-M   'P 1'
_cell_length_a   9.26806918
_cell_length_b   9.26806918
_cell_length_c   9.99320723
_cell_angle_alpha   117.62731122
_cell_angle_beta   117.62731122
_cell_angle_gamma   90.00000000
_symmetry_Int_Tables_number   1
_chemical_formula_structural   Cs3NiCl5
_chemical_formula_sum   'Cs6 Ni2 Cl10'
_cell_volume   648.02888792
_cell_formula_units_Z   2
loop_
 _symmetry_equiv_pos_site_id
 _symmetry_equiv_pos_as_xyz
  1  'x, y, z'
loop_
 _atom_site_type_symbol
 _atom_site_label
 _atom_site_symmetry_multiplicity
 _atom_site_fract_x
 _atom_site_fract_y
 _atom_site_fract_z
 _atom_site_occupancy
  Cs  Cs0  1  0.75000000  0.75000000  0.50000000  1
  Cs  Cs1  1  0.25000000  0.25000000  0.50000000  1
  Cs  Cs2  1  0.83235823  0.66764177  -0.00000000  1
  Cs  Cs3  1  0.16764177  0.33235823  -0.00000000  1
  Cs  Cs4  1  0.66764177  0.16764177  0.00000000  1
  Cs  Cs5  1  0.33235823  0.83235823  1.00000000  1
  Ni  Ni6  1  0.25000000  0.75000000  0.50000000  1
  Ni  Ni7  1  0.75000000  0.25000000  0.50000000  1
  Cl  Cl8  1  0.50000000  0.50000000  -0.00000000  1
  Cl  Cl9  1  -0.00000000  -0.00000000  -0.00000000  1
  Cl  Cl10  1  0.52325510  0.28652102  0.30977612  1
  Cl  Cl11  1  0.78652102  0.02325510  0.30977612  1
  Cl  Cl12  1  0.28652102  0.78652102  0.30977612  1
  Cl  Cl13  1  0.02325510  0.52325510  0.30977612  1
  Cl  Cl14  1  0.47674490  0.71347898  0.69022388  1
  Cl  Cl15  1  0.21347898  0.97674490  0.69022388  1
  Cl  Cl16  1  0.71347898  0.21347898  0.69022388  1
  Cl  Cl17  1  0.97674490  0.47674490  0.69022388  1
