# generated using pymatgen
data_Er3CuSnS7
_symmetry_space_group_name_H-M   'P 1'
_cell_length_a   6.15978837
_cell_length_b   9.72177676
_cell_length_c   9.72072347
_cell_angle_alpha   119.99664519
_cell_angle_beta   90.00000000
_cell_angle_gamma   90.00000000
_symmetry_Int_Tables_number   1
_chemical_formula_structural   Er3CuSnS7
_chemical_formula_sum   'Er6 Cu2 Sn2 S14'
_cell_volume   504.14485181
_cell_formula_units_Z   2
loop_
 _symmetry_equiv_pos_site_id
 _symmetry_equiv_pos_as_xyz
  1  'x, y, z'
loop_
 _atom_site_type_symbol
 _atom_site_label
 _atom_site_symmetry_multiplicity
 _atom_site_fract_x
 _atom_site_fract_y
 _atom_site_fract_z
 _atom_site_occupancy
  Er  Er0  1  0.26702867  0.21688820  0.35862131  1
  Er  Er1  1  0.26686677  0.64158027  0.85827764  1
  Er  Er2  1  0.26693577  0.14167272  0.78317297  1
  Er  Er3  1  0.76702867  0.78311180  0.64137869  1
  Er  Er4  1  0.76686677  0.35841973  0.14172236  1
  Er  Er5  1  0.76693577  0.85832728  0.21682703  1
  Cu  Cu6  1  0.16786692  0.00107336  0.00114679  1
  Cu  Cu7  1  0.66786692  -0.00107336  -0.00114679  1
  Sn  Sn8  1  0.82935744  0.33341325  0.66682227  1
  Sn  Sn9  1  0.32935744  0.66658675  0.33317773  1
  S  S10  1  0.69316658  0.15164511  0.26178734  1
  S  S11  1  0.69337552  0.73707982  0.88933887  1
  S  S12  1  0.69324301  0.11041086  0.84801922  1
  S  S13  1  0.19316658  0.84835489  0.73821266  1
  S  S14  1  0.19337552  0.26292018  0.11066113  1
  S  S15  1  0.19324301  0.88958914  0.15198078  1
  S  S16  1  0.01626432  0.08311554  0.51467827  1
  S  S17  1  0.01631472  0.48531098  0.56834879  1
  S  S18  1  0.01640904  0.43165219  0.91709694  1
  S  S19  1  0.51626432  0.91688446  0.48532173  1
  S  S20  1  0.51631472  0.51468902  0.43165121  1
  S  S21  1  0.51640904  0.56834781  0.08290306  1
  S  S22  1  0.44117124  0.33335076  0.66670892  1
  S  S23  1  0.94117124  0.66664924  0.33329108  1
