# generated using pymatgen
data_Ce3Co8Si
_symmetry_space_group_name_H-M   'P 1'
_cell_length_a   4.98000513
_cell_length_b   4.98000513
_cell_length_c   15.81174984
_cell_angle_alpha   90.00000000
_cell_angle_beta   90.00000000
_cell_angle_gamma   119.99024634
_symmetry_Int_Tables_number   1
_chemical_formula_structural   Ce3Co8Si
_chemical_formula_sum   'Ce6 Co16 Si2'
_cell_volume   339.63530068
_cell_formula_units_Z   2
loop_
 _symmetry_equiv_pos_site_id
 _symmetry_equiv_pos_as_xyz
  1  'x, y, z'
loop_
 _atom_site_type_symbol
 _atom_site_label
 _atom_site_symmetry_multiplicity
 _atom_site_fract_x
 _atom_site_fract_y
 _atom_site_fract_z
 _atom_site_occupancy
  Ce  Ce0  1  0.66670152  0.33329848  0.03995366  1
  Ce  Ce1  1  0.33329848  0.66670152  0.96004634  1
  Ce  Ce2  1  0.33329848  0.66670152  0.53995366  1
  Ce  Ce3  1  0.66670152  0.33329848  0.46004634  1
  Ce  Ce4  1  0.66670819  0.33329181  0.25000000  1
  Ce  Ce5  1  0.33329181  0.66670819  0.75000000  1
  Co  Co6  1  0.83370706  0.66741626  0.63020438  1
  Co  Co7  1  0.83370189  0.16629811  0.63013201  1
  Co  Co8  1  0.33258374  0.16629294  0.63020438  1
  Co  Co9  1  0.16629294  0.33258374  0.36979562  1
  Co  Co10  1  0.16629811  0.83370189  0.36986799  1
  Co  Co11  1  0.66741626  0.83370706  0.36979562  1
  Co  Co12  1  0.16629294  0.33258374  0.13020438  1
  Co  Co13  1  0.16629811  0.83370189  0.13013201  1
  Co  Co14  1  0.66741626  0.83370706  0.13020438  1
  Co  Co15  1  0.83370706  0.66741626  0.86979562  1
  Co  Co16  1  0.83370189  0.16629811  0.86986799  1
  Co  Co17  1  0.33258374  0.16629294  0.86979562  1
  Co  Co18  1  0.66679616  0.33320384  0.75000000  1
  Co  Co19  1  0.33320384  0.66679616  0.25000000  1
  Co  Co20  1  0.00000000  -0.00000000  0.50000000  1
  Co  Co21  1  0.00000000  -0.00000000  -0.00000000  1
  Si  Si22  1  -0.00008202  0.00008202  0.75000000  1
  Si  Si23  1  0.00008202  -0.00008202  0.25000000  1
