# generated using pymatgen
data_Ce4CdRu
_symmetry_space_group_name_H-M   'P 1'
_cell_length_a   9.72474480
_cell_length_b   9.72474480
_cell_length_c   9.72474480
_cell_angle_alpha   60.00000000
_cell_angle_beta   60.00000000
_cell_angle_gamma   60.00000000
_symmetry_Int_Tables_number   1
_chemical_formula_structural   Ce4CdRu
_chemical_formula_sum   'Ce16 Cd4 Ru4'
_cell_volume   650.30881547
_cell_formula_units_Z   4
loop_
 _symmetry_equiv_pos_site_id
 _symmetry_equiv_pos_as_xyz
  1  'x, y, z'
loop_
 _atom_site_type_symbol
 _atom_site_label
 _atom_site_symmetry_multiplicity
 _atom_site_fract_x
 _atom_site_fract_y
 _atom_site_fract_z
 _atom_site_occupancy
  Ce  Ce0  1  0.05961241  0.44038759  0.44038759  1
  Ce  Ce1  1  0.05961241  0.44038759  0.05961241  1
  Ce  Ce2  1  0.05961241  0.05961241  0.44038759  1
  Ce  Ce3  1  0.44038759  0.05961241  0.05961241  1
  Ce  Ce4  1  0.44038759  0.05961241  0.44038759  1
  Ce  Ce5  1  0.44038759  0.44038759  0.05961241  1
  Ce  Ce6  1  0.19000550  0.80999450  0.80999450  1
  Ce  Ce7  1  0.19000550  0.80999450  0.19000550  1
  Ce  Ce8  1  0.19000550  0.19000550  0.80999450  1
  Ce  Ce9  1  0.80999450  0.19000550  0.19000550  1
  Ce  Ce10  1  0.80999450  0.19000550  0.80999450  1
  Ce  Ce11  1  0.80999450  0.80999450  0.19000550  1
  Ce  Ce12  1  0.04159936  0.65280021  0.65280021  1
  Ce  Ce13  1  0.65280021  0.04159936  0.65280021  1
  Ce  Ce14  1  0.65280021  0.65280021  0.04159936  1
  Ce  Ce15  1  0.65280021  0.65280021  0.65280021  1
  Cd  Cd16  1  0.73701920  0.42099360  0.42099360  1
  Cd  Cd17  1  0.42099360  0.73701920  0.42099360  1
  Cd  Cd18  1  0.42099360  0.42099360  0.73701920  1
  Cd  Cd19  1  0.42099360  0.42099360  0.42099360  1
  Ru  Ru20  1  0.40882464  0.86372512  0.86372512  1
  Ru  Ru21  1  0.86372512  0.40882464  0.86372512  1
  Ru  Ru22  1  0.86372512  0.86372512  0.40882464  1
  Ru  Ru23  1  0.86372512  0.86372512  0.86372512  1
