# generated using pymatgen
data_Sc2B4Os5
_symmetry_space_group_name_H-M   'P 1'
_cell_length_a   3.03258756
_cell_length_b   10.18248838
_cell_length_c   8.57301743
_cell_angle_alpha   89.98806193
_cell_angle_beta   90.00000000
_cell_angle_gamma   90.00000000
_symmetry_Int_Tables_number   1
_chemical_formula_structural   Sc2B4Os5
_chemical_formula_sum   'Sc4 B8 Os10'
_cell_volume   264.72866508
_cell_formula_units_Z   2
loop_
 _symmetry_equiv_pos_site_id
 _symmetry_equiv_pos_as_xyz
  1  'x, y, z'
loop_
 _atom_site_type_symbol
 _atom_site_label
 _atom_site_symmetry_multiplicity
 _atom_site_fract_x
 _atom_site_fract_y
 _atom_site_fract_z
 _atom_site_occupancy
  Sc  Sc0  1  0.50000000  0.31880490  0.15612523  1
  Sc  Sc1  1  0.50000000  0.68119510  0.84387477  1
  Sc  Sc2  1  0.50000000  0.18090858  0.65629209  1
  Sc  Sc3  1  0.50000000  0.81909142  0.34370791  1
  B  B4  1  0.50000000  0.10198586  0.35272147  1
  B  B5  1  0.50000000  0.89801414  0.64727853  1
  B  B6  1  0.50000000  0.40997011  0.46306190  1
  B  B7  1  0.50000000  0.59002989  0.53693810  1
  B  B8  1  0.50000000  0.39808524  0.85247441  1
  B  B9  1  0.50000000  0.60191476  0.14752559  1
  B  B10  1  0.50000000  0.08964828  0.96231929  1
  B  B11  1  0.50000000  0.91035172  0.03768071  1
  Os  Os12  1  0.00000000  0.04805143  0.15874563  1
  Os  Os13  1  -0.00000000  0.95194857  0.84125437  1
  Os  Os14  1  -0.00000000  0.45222576  0.65851670  1
  Os  Os15  1  0.00000000  0.54777424  0.34148330  1
  Os  Os16  1  -0.00000000  0.26179760  0.40438118  1
  Os  Os17  1  -0.00000000  0.73820240  0.59561882  1
  Os  Os18  1  0.00000000  0.23817674  0.90433166  1
  Os  Os19  1  -0.00000000  0.76182326  0.09566834  1
  Os  Os20  1  0.00000000  0.00000000  0.50000000  1
  Os  Os21  1  0.00000000  0.50000000  0.00000000  1
