# generated using pymatgen
data_MnV2Pb2O9
_symmetry_space_group_name_H-M   'P 1'
_cell_length_a   5.93204449
_cell_length_b   8.24245160
_cell_length_c   9.09674289
_cell_angle_alpha   113.03762662
_cell_angle_beta   90.00000000
_cell_angle_gamma   90.00000000
_symmetry_Int_Tables_number   1
_chemical_formula_structural   MnV2Pb2O9
_chemical_formula_sum   'Mn2 V4 Pb4 O18'
_cell_volume   409.30932100
_cell_formula_units_Z   2
loop_
 _symmetry_equiv_pos_site_id
 _symmetry_equiv_pos_as_xyz
  1  'x, y, z'
loop_
 _atom_site_type_symbol
 _atom_site_label
 _atom_site_symmetry_multiplicity
 _atom_site_fract_x
 _atom_site_fract_y
 _atom_site_fract_z
 _atom_site_occupancy
  Mn  Mn0  1  0.50000000  -0.00000000  -0.00000000  1
  Mn  Mn1  1  -0.00000000  -0.00000000  -0.00000000  1
  V  V2  1  0.25000000  0.41478479  0.17398219  1
  V  V3  1  0.75000000  0.58521521  0.82601781  1
  V  V4  1  0.25000000  0.02114218  0.32306224  1
  V  V5  1  0.75000000  0.97885782  0.67693776  1
  Pb  Pb6  1  0.25000000  0.70965192  0.63318324  1
  Pb  Pb7  1  0.75000000  0.29034808  0.36681676  1
  Pb  Pb8  1  0.25000000  0.29164951  0.73062923  1
  Pb  Pb9  1  0.75000000  0.70835049  0.26937077  1
  O  O10  1  0.49078253  0.49020516  0.29125484  1
  O  O11  1  0.99078253  0.50979484  0.70874516  1
  O  O12  1  0.50921747  0.50979484  0.70874516  1
  O  O13  1  0.00921747  0.49020516  0.29125484  1
  O  O14  1  0.25000000  0.48952756  0.02855241  1
  O  O15  1  0.75000000  0.51047244  0.97144759  1
  O  O16  1  0.25000000  0.16875511  0.07992205  1
  O  O17  1  0.75000000  0.83124489  0.92007795  1
  O  O18  1  0.25000000  0.24367272  0.44207412  1
  O  O19  1  0.75000000  0.75632728  0.55792588  1
  O  O20  1  0.50138420  0.03153774  0.79945924  1
  O  O21  1  0.00138420  0.96846226  0.20054076  1
  O  O22  1  0.49861580  0.96846226  0.20054076  1
  O  O23  1  0.99861580  0.03153774  0.79945924  1
  O  O24  1  0.25000000  0.90664274  0.44105966  1
  O  O25  1  0.75000000  0.09335726  0.55894034  1
  O  O26  1  0.25000000  0.84147485  0.92142461  1
  O  O27  1  0.75000000  0.15852515  0.07857539  1
