# generated using pymatgen
data_CuH2PbSO6
_symmetry_space_group_name_H-M   'P 1'
_cell_length_a   4.75795983
_cell_length_b   5.73464963
_cell_length_c   9.97868679
_cell_angle_alpha   90.00000000
_cell_angle_beta   103.98824221
_cell_angle_gamma   90.00000000
_symmetry_Int_Tables_number   1
_chemical_formula_structural   CuH2PbSO6
_chemical_formula_sum   'Cu2 H4 Pb2 S2 O12'
_cell_volume   264.19669502
_cell_formula_units_Z   2
loop_
 _symmetry_equiv_pos_site_id
 _symmetry_equiv_pos_as_xyz
  1  'x, y, z'
loop_
 _atom_site_type_symbol
 _atom_site_label
 _atom_site_symmetry_multiplicity
 _atom_site_fract_x
 _atom_site_fract_y
 _atom_site_fract_z
 _atom_site_occupancy
  Cu  Cu0  1  0.00000000  0.50000000  0.00000000  1
  Cu  Cu1  1  0.00000000  -0.00000000  0.00000000  1
  H  H2  1  0.39134230  0.75000000  0.94272271  1
  H  H3  1  0.60865770  0.25000000  0.05727729  1
  H  H4  1  0.74713704  0.75000000  0.13188255  1
  H  H5  1  0.25286296  0.25000000  0.86811745  1
  Pb  Pb6  1  0.97798505  0.75000000  0.65880475  1
  Pb  Pb7  1  0.02201495  0.25000000  0.34119525  1
  S  S8  1  0.44604436  0.75000000  0.33329057  1
  S  S9  1  0.55395564  0.25000000  0.66670943  1
  O  O10  1  0.40682013  0.75000000  0.47567721  1
  O  O11  1  0.59317987  0.25000000  0.52432279  1
  O  O12  1  0.76037324  0.75000000  0.33300388  1
  O  O13  1  0.23962676  0.25000000  0.66699612  1
  O  O14  1  0.68977840  0.03676018  0.74445359  1
  O  O15  1  0.31022160  0.53676018  0.25554641  1
  O  O16  1  0.31022160  0.96323982  0.25554641  1
  O  O17  1  0.68977840  0.46323982  0.74445359  1
  O  O18  1  0.74566295  0.75000000  0.03303308  1
  O  O19  1  0.25433705  0.25000000  0.96696692  1
  O  O20  1  0.17418733  0.75000000  0.90608820  1
  O  O21  1  0.82581267  0.25000000  0.09391180  1
