# generated using pymatgen
data_Lu2PbSe4
_symmetry_space_group_name_H-M   'P 1'
_cell_length_a   4.06911170
_cell_length_b   12.61166880
_cell_length_c   14.74890217
_cell_angle_alpha   90.00000000
_cell_angle_beta   90.00000000
_cell_angle_gamma   90.00000000
_symmetry_Int_Tables_number   1
_chemical_formula_structural   Lu2PbSe4
_chemical_formula_sum   'Lu8 Pb4 Se16'
_cell_volume   756.88842503
_cell_formula_units_Z   4
loop_
 _symmetry_equiv_pos_site_id
 _symmetry_equiv_pos_as_xyz
  1  'x, y, z'
loop_
 _atom_site_type_symbol
 _atom_site_label
 _atom_site_symmetry_multiplicity
 _atom_site_fract_x
 _atom_site_fract_y
 _atom_site_fract_z
 _atom_site_occupancy
  Lu  Lu0  1  0.75000000  0.06022970  0.11235805  1
  Lu  Lu1  1  0.75000000  0.56022970  0.38764195  1
  Lu  Lu2  1  0.25000000  0.93977030  0.88764195  1
  Lu  Lu3  1  0.25000000  0.43977030  0.61235805  1
  Lu  Lu4  1  0.75000000  0.08326797  0.59689834  1
  Lu  Lu5  1  0.75000000  0.58326797  0.90310166  1
  Lu  Lu6  1  0.25000000  0.91673203  0.40310166  1
  Lu  Lu7  1  0.25000000  0.41673203  0.09689834  1
  Pb  Pb8  1  0.75000000  0.74051108  0.16691874  1
  Pb  Pb9  1  0.75000000  0.24051108  0.33308126  1
  Pb  Pb10  1  0.25000000  0.25948892  0.83308126  1
  Pb  Pb11  1  0.25000000  0.75948892  0.66691874  1
  Se  Se12  1  0.75000000  0.29454970  0.66794769  1
  Se  Se13  1  0.75000000  0.79454970  0.83205231  1
  Se  Se14  1  0.25000000  0.70545030  0.33205231  1
  Se  Se15  1  0.25000000  0.20545030  0.16794769  1
  Se  Se16  1  0.75000000  0.37340652  0.96916348  1
  Se  Se17  1  0.75000000  0.87340652  0.53083652  1
  Se  Se18  1  0.25000000  0.62659348  0.03083652  1
  Se  Se19  1  0.25000000  0.12659348  0.46916348  1
  Se  Se20  1  0.75000000  0.47079224  0.21491946  1
  Se  Se21  1  0.75000000  0.97079224  0.28508054  1
  Se  Se22  1  0.25000000  0.52920776  0.78508054  1
  Se  Se23  1  0.25000000  0.02920776  0.71491946  1
  Se  Se24  1  0.75000000  0.08930456  0.92444597  1
  Se  Se25  1  0.75000000  0.58930456  0.57555403  1
  Se  Se26  1  0.25000000  0.91069544  0.07555403  1
  Se  Se27  1  0.25000000  0.41069544  0.42444597  1
