# generated using pymatgen
data_Sm2Ga2(Fe5C)3
_symmetry_space_group_name_H-M   'P 1'
_cell_length_a   6.57258786
_cell_length_b   6.57258786
_cell_length_c   6.57258821
_cell_angle_alpha   83.43552140
_cell_angle_beta   83.43552140
_cell_angle_gamma   83.43551480
_symmetry_Int_Tables_number   1
_chemical_formula_structural   Sm2Ga2(Fe5C)3
_chemical_formula_sum   'Sm2 Ga2 Fe15 C3'
_cell_volume   278.73930119
_cell_formula_units_Z   1
loop_
 _symmetry_equiv_pos_site_id
 _symmetry_equiv_pos_as_xyz
  1  'x, y, z'
loop_
 _atom_site_type_symbol
 _atom_site_label
 _atom_site_symmetry_multiplicity
 _atom_site_fract_x
 _atom_site_fract_y
 _atom_site_fract_z
 _atom_site_occupancy
  Sm  Sm0  1  0.65160369  0.65160369  0.65160369  1
  Sm  Sm1  1  0.34839631  0.34839631  0.34839631  1
  Ga  Ga2  1  0.89760040  0.89760040  0.89760040  1
  Ga  Ga3  1  0.10239960  0.10239960  0.10239960  1
  Fe  Fe4  1  0.00000000  -0.00000000  0.50000000  1
  Fe  Fe5  1  0.00000000  0.50000000  -0.00000000  1
  Fe  Fe6  1  0.50000000  -0.00000000  -0.00000000  1
  Fe  Fe7  1  0.28510256  0.71489744  -0.00000000  1
  Fe  Fe8  1  0.71489744  1.00000000  0.28510256  1
  Fe  Fe9  1  0.00000000  0.28510256  0.71489744  1
  Fe  Fe10  1  0.28510256  0.00000000  0.71489744  1
  Fe  Fe11  1  1.00000000  0.71489744  0.28510256  1
  Fe  Fe12  1  0.71489744  0.28510256  -0.00000000  1
  Fe  Fe13  1  0.34386235  0.34386235  0.85368299  1
  Fe  Fe14  1  0.34386235  0.85368299  0.34386235  1
  Fe  Fe15  1  0.85368299  0.34386235  0.34386235  1
  Fe  Fe16  1  0.65613765  0.65613765  0.14631701  1
  Fe  Fe17  1  0.65613765  0.14631701  0.65613765  1
  Fe  Fe18  1  0.14631701  0.65613765  0.65613765  1
  C  C19  1  0.50000000  0.50000000  -0.00000000  1
  C  C20  1  0.50000000  -0.00000000  0.50000000  1
  C  C21  1  0.00000000  0.50000000  0.50000000  1
