# generated using pymatgen
data_KV4O10
_symmetry_space_group_name_H-M   'P 1'
_cell_length_a   3.71258669
_cell_length_b   6.16626225
_cell_length_c   19.30783428
_cell_angle_alpha   90.00000000
_cell_angle_beta   90.00000000
_cell_angle_gamma   107.52009979
_symmetry_Int_Tables_number   1
_chemical_formula_structural   KV4O10
_chemical_formula_sum   'K2 V8 O20'
_cell_volume   421.50583630
_cell_formula_units_Z   2
loop_
 _symmetry_equiv_pos_site_id
 _symmetry_equiv_pos_as_xyz
  1  'x, y, z'
loop_
 _atom_site_type_symbol
 _atom_site_label
 _atom_site_symmetry_multiplicity
 _atom_site_fract_x
 _atom_site_fract_y
 _atom_site_fract_z
 _atom_site_occupancy
  K  K0  1  0.08027362  0.16054723  0.25000000  1
  K  K1  1  0.91972638  0.83945277  0.75000000  1
  V  V2  1  0.43529628  0.87059256  0.07883788  1
  V  V3  1  0.56470372  0.12940744  0.92116212  1
  V  V4  1  0.43529628  0.87059256  0.42116212  1
  V  V5  1  0.56470372  0.12940744  0.57883788  1
  V  V6  1  0.73119777  0.46239555  0.08026171  1
  V  V7  1  0.26880223  0.53760445  0.91973829  1
  V  V8  1  0.73119777  0.46239555  0.41973829  1
  V  V9  1  0.26880223  0.53760445  0.58026171  1
  O  O10  1  0.57942157  0.15884313  0.45218634  1
  O  O11  1  0.42057843  0.84115687  0.54781366  1
  O  O12  1  0.57942157  0.15884313  0.04781366  1
  O  O13  1  0.42057843  0.84115687  0.95218634  1
  O  O14  1  0.45248425  0.90496849  0.16282343  1
  O  O15  1  0.54751575  0.09503151  0.83717657  1
  O  O16  1  0.45248425  0.90496849  0.33717657  1
  O  O17  1  0.54751575  0.09503151  0.66282343  1
  O  O18  1  0.71063576  0.42127152  0.16380935  1
  O  O19  1  0.28936424  0.57872848  0.83619065  1
  O  O20  1  0.71063576  0.42127152  0.33619065  1
  O  O21  1  0.28936424  0.57872848  0.66380935  1
  O  O22  1  0.26037565  0.52075129  0.05836208  1
  O  O23  1  0.73962435  0.47924871  0.94163792  1
  O  O24  1  0.26037565  0.52075129  0.44163792  1
  O  O25  1  0.73962435  0.47924871  0.55836208  1
  O  O26  1  0.89909639  0.79819279  0.43441731  1
  O  O27  1  0.10090361  0.20180721  0.56558269  1
  O  O28  1  0.89909639  0.79819279  0.06558269  1
  O  O29  1  0.10090361  0.20180721  0.93441731  1
