# generated using pymatgen
data_BaGdFe4O7
_symmetry_space_group_name_H-M   'P 1'
_cell_length_a   6.56649778
_cell_length_b   6.56649778
_cell_length_c   10.63045202
_cell_angle_alpha   90.00000000
_cell_angle_beta   90.00000000
_cell_angle_gamma   120.86020805
_symmetry_Int_Tables_number   1
_chemical_formula_structural   BaGdFe4O7
_chemical_formula_sum   'Ba2 Gd2 Fe8 O14'
_cell_volume   393.47744923
_cell_formula_units_Z   2
loop_
 _symmetry_equiv_pos_site_id
 _symmetry_equiv_pos_as_xyz
  1  'x, y, z'
loop_
 _atom_site_type_symbol
 _atom_site_label
 _atom_site_symmetry_multiplicity
 _atom_site_fract_x
 _atom_site_fract_y
 _atom_site_fract_z
 _atom_site_occupancy
  Ba  Ba0  1  0.69320040  0.30679960  0.02028912  1
  Ba  Ba1  1  0.30679960  0.69320040  0.52028912  1
  Gd  Gd2  1  0.66066867  0.33933133  0.62694651  1
  Gd  Gd3  1  0.33933133  0.66066867  0.12694651  1
  Fe  Fe4  1  0.16670088  0.83329912  0.82050796  1
  Fe  Fe5  1  0.65315473  0.82451061  0.81380388  1
  Fe  Fe6  1  0.17548939  0.34684527  0.81380388  1
  Fe  Fe7  1  0.83329912  0.16670088  0.32050796  1
  Fe  Fe8  1  0.34684527  0.17548939  0.31380388  1
  Fe  Fe9  1  0.82451061  0.65315473  0.31380388  1
  Fe  Fe10  1  0.99468487  0.00531513  0.05959532  1
  Fe  Fe11  1  0.00531513  0.99468487  0.55959532  1
  O  O12  1  0.47874614  0.52125386  0.71679132  1
  O  O13  1  0.00197180  0.51833286  0.75455654  1
  O  O14  1  0.48166714  0.99802820  0.75455654  1
  O  O15  1  0.52125386  0.47874614  0.21679132  1
  O  O16  1  0.99802820  0.48166714  0.25455654  1
  O  O17  1  0.51833286  0.00197180  0.25455654  1
  O  O18  1  0.16478208  0.83521792  -0.00043488  1
  O  O19  1  0.66054400  0.86779240  0.99919848  1
  O  O20  1  0.13220760  0.33945600  0.99919848  1
  O  O21  1  0.83521792  0.16478208  0.49956512  1
  O  O22  1  0.33945600  0.13220760  0.49919848  1
  O  O23  1  0.86779240  0.66054400  0.49919848  1
  O  O24  1  0.99232901  0.00767099  0.25798687  1
  O  O25  1  0.00767099  0.99232901  0.75798687  1
