# generated using pymatgen
data_Co3BPO7
_symmetry_space_group_name_H-M   'P 1'
_cell_length_a   4.94555837
_cell_length_b   8.08959307
_cell_length_c   8.08959307
_cell_angle_alpha   104.93974268
_cell_angle_beta   107.65831503
_cell_angle_gamma   107.65831503
_symmetry_Int_Tables_number   1
_chemical_formula_structural   Co3BPO7
_chemical_formula_sum   'Co6 B2 P2 O14'
_cell_volume   271.17958986
_cell_formula_units_Z   2
loop_
 _symmetry_equiv_pos_site_id
 _symmetry_equiv_pos_as_xyz
  1  'x, y, z'
loop_
 _atom_site_type_symbol
 _atom_site_label
 _atom_site_symmetry_multiplicity
 _atom_site_fract_x
 _atom_site_fract_y
 _atom_site_fract_z
 _atom_site_occupancy
  Co  Co0  1  0.20197481  0.34501255  0.84900506  1
  Co  Co1  1  0.20197481  0.84900506  0.34501255  1
  Co  Co2  1  0.51296231  0.30241590  0.52301290  1
  Co  Co3  1  0.51296231  0.52301290  0.30241590  1
  Co  Co4  1  0.57364772  0.78292089  0.06412524  1
  Co  Co5  1  0.57364772  0.06412524  0.78292089  1
  B  B6  1  0.86846643  0.04748189  0.48406088  1
  B  B7  1  0.86846643  0.48406088  0.04748189  1
  P  P8  1  0.22754470  0.06111517  0.06111517  1
  P  P9  1  0.20912936  0.60196401  0.60196401  1
  O  O10  1  0.44041891  0.24159633  0.24159633  1
  O  O11  1  0.42497352  0.97936435  0.97936435  1
  O  O12  1  0.01909343  0.10917502  0.91159475  1
  O  O13  1  0.01909343  0.91159475  0.10917502  1
  O  O14  1  0.25455357  0.45605451  0.45605451  1
  O  O15  1  0.85803023  0.55142240  0.55142240  1
  O  O16  1  0.36477095  0.79744942  0.59670354  1
  O  O17  1  0.36477095  0.59670354  0.79744942  1
  O  O18  1  0.81501464  0.18002725  0.60334149  1
  O  O19  1  0.81501464  0.60334149  0.18002725  1
  O  O20  1  0.62015504  0.89072433  0.33798686  1
  O  O21  1  0.62015504  0.33798686  0.89072433  1
  O  O22  1  0.17363953  0.51741571  0.07092956  1
  O  O23  1  0.17363953  0.07092956  0.51741571  1
