# generated using pymatgen
data_Mg(BH4)2
_symmetry_space_group_name_H-M   'P 1'
_cell_length_a   5.62095379
_cell_length_b   5.62095379
_cell_length_c   5.94846569
_cell_angle_alpha   90.00000000
_cell_angle_beta   90.00000000
_cell_angle_gamma   90.00000000
_symmetry_Int_Tables_number   1
_chemical_formula_structural   Mg(BH4)2
_chemical_formula_sum   'Mg2 B4 H16'
_cell_volume   187.94249627
_cell_formula_units_Z   2
loop_
 _symmetry_equiv_pos_site_id
 _symmetry_equiv_pos_as_xyz
  1  'x, y, z'
loop_
 _atom_site_type_symbol
 _atom_site_label
 _atom_site_symmetry_multiplicity
 _atom_site_fract_x
 _atom_site_fract_y
 _atom_site_fract_z
 _atom_site_occupancy
  Mg  Mg0  1  0.00000000  -0.00000000  -0.00000000  1
  Mg  Mg1  1  0.50000000  0.50000000  0.50000000  1
  B  B2  1  0.75011923  0.25007345  0.74988934  1
  B  B3  1  0.24988077  0.74992655  0.74988934  1
  B  B4  1  0.74992655  0.75011923  0.25011066  1
  B  B5  1  0.25007345  0.24988077  0.25011066  1
  H  H6  1  0.71791632  0.46023634  0.78890853  1
  H  H7  1  0.28208368  0.53976366  0.78890853  1
  H  H8  1  0.53976366  0.71791632  0.21109147  1
  H  H9  1  0.46023634  0.28208368  0.21109147  1
  H  H10  1  0.67328337  0.13851543  0.91020788  1
  H  H11  1  0.32671663  0.86148457  0.91020788  1
  H  H12  1  0.86148457  0.67328337  0.08979212  1
  H  H13  1  0.13851543  0.32671663  0.08979212  1
  H  H14  1  0.96302128  0.22258412  0.71482052  1
  H  H15  1  0.03697872  0.77741588  0.71482052  1
  H  H16  1  0.77741588  0.96302128  0.28517948  1
  H  H17  1  0.22258412  0.03697872  0.28517948  1
  H  H18  1  0.64524666  0.17452556  0.58460043  1
  H  H19  1  0.35475334  0.82547444  0.58460043  1
  H  H20  1  0.82547444  0.64524666  0.41539957  1
  H  H21  1  0.17452556  0.35475334  0.41539957  1
