# generated using pymatgen
data_CsP2(HO2)3
_symmetry_space_group_name_H-M   'P 1'
_cell_length_a   7.49291686
_cell_length_b   7.70495724
_cell_length_c   7.97659954
_cell_angle_alpha   87.71763537
_cell_angle_beta   64.75598255
_cell_angle_gamma   61.33548910
_symmetry_Int_Tables_number   1
_chemical_formula_structural   CsP2(HO2)3
_chemical_formula_sum   'Cs2 P4 H6 O12'
_cell_volume   357.52133137
_cell_formula_units_Z   2
loop_
 _symmetry_equiv_pos_site_id
 _symmetry_equiv_pos_as_xyz
  1  'x, y, z'
loop_
 _atom_site_type_symbol
 _atom_site_label
 _atom_site_symmetry_multiplicity
 _atom_site_fract_x
 _atom_site_fract_y
 _atom_site_fract_z
 _atom_site_occupancy
  Cs  Cs0  1  0.46115763  0.20460906  0.23613817  1
  Cs  Cs1  1  0.53884237  0.79539094  0.76386183  1
  P  P2  1  0.04743002  0.92237100  0.36061934  1
  P  P3  1  0.95256998  0.07762900  0.63938066  1
  P  P4  1  0.14709150  0.47987287  0.86677915  1
  P  P5  1  0.85290850  0.52012713  0.13322085  1
  H  H6  1  0.99419627  0.17499713  0.18072312  1
  H  H7  1  0.00580373  0.82500287  0.81927688  1
  H  H8  1  0.42427468  0.70374952  0.24332091  1
  H  H9  1  0.57572532  0.29625048  0.75667909  1
  H  H10  1  0.10868167  0.30225400  0.68499457  1
  H  H11  1  0.89131833  0.69774600  0.31500543  1
  O  O12  1  0.84699039  0.90591022  0.37701023  1
  O  O13  1  0.15300961  0.09408978  0.62298977  1
  O  O14  1  0.12668735  0.03954843  0.20983311  1
  O  O15  1  0.87331265  0.96045157  0.79016689  1
  O  O16  1  0.26522818  0.70761906  0.31297334  1
  O  O17  1  0.73477182  0.29238094  0.68702666  1
  O  O18  1  0.36401413  0.29915434  0.85776486  1
  O  O19  1  0.63598587  0.70084566  0.14223514  1
  O  O20  1  0.15006435  0.67782501  0.85682554  1
  O  O21  1  0.84993565  0.32217499  0.14317446  1
  O  O22  1  0.09242677  0.44213587  0.70459137  1
  O  O23  1  0.90757323  0.55786413  0.29540863  1
