# generated using pymatgen
data_CsUPNO9
_symmetry_space_group_name_H-M   'P 1'
_cell_length_a   7.16298061
_cell_length_b   7.68476165
_cell_length_c   9.87133794
_cell_angle_alpha   71.02151445
_cell_angle_beta   74.98507952
_cell_angle_gamma   79.48371405
_symmetry_Int_Tables_number   1
_chemical_formula_structural   CsUPNO9
_chemical_formula_sum   'Cs2 U2 P2 N2 O18'
_cell_volume   493.41446545
_cell_formula_units_Z   2
loop_
 _symmetry_equiv_pos_site_id
 _symmetry_equiv_pos_as_xyz
  1  'x, y, z'
loop_
 _atom_site_type_symbol
 _atom_site_label
 _atom_site_symmetry_multiplicity
 _atom_site_fract_x
 _atom_site_fract_y
 _atom_site_fract_z
 _atom_site_occupancy
  Cs  Cs0  1  0.29124577  0.66920174  0.82043106  1
  Cs  Cs1  1  0.70875423  0.33079826  0.17956894  1
  U  U2  1  0.74210740  0.26831453  0.68586154  1
  U  U3  1  0.25789260  0.73168547  0.31413846  1
  P  P4  1  0.73160416  0.71659776  0.41358825  1
  P  P5  1  0.26839584  0.28340224  0.58641175  1
  N  N6  1  0.76589452  0.86100349  0.83255712  1
  N  N7  1  0.23410548  0.13899651  0.16744288  1
  O  O8  1  0.70768109  0.57620299  0.56899698  1
  O  O9  1  0.29231891  0.42379701  0.43100302  1
  O  O10  1  0.65672218  0.31510826  0.86219658  1
  O  O11  1  0.34327782  0.68489174  0.13780342  1
  O  O12  1  0.94141254  0.68939610  0.32486551  1
  O  O13  1  0.05858746  0.31060390  0.67513449  1
  O  O14  1  0.58308820  0.69166474  0.33410715  1
  O  O15  1  0.41691180  0.30833526  0.66589285  1
  O  O16  1  0.61180011  0.95150919  0.79069230  1
  O  O17  1  0.38819989  0.04849081  0.20930770  1
  O  O18  1  0.82417563  0.21962529  0.51127049  1
  O  O19  1  0.17582437  0.78037471  0.48872951  1
  O  O20  1  0.90517705  0.95859151  0.81125379  1
  O  O21  1  0.09482295  0.04140849  0.18874621  1
  O  O22  1  0.69085639  0.91936330  0.41965297  1
  O  O23  1  0.30914361  0.08063670  0.58034703  1
  O  O24  1  0.78180647  0.69156800  0.88876071  1
  O  O25  1  0.21819353  0.30843200  0.11123929  1
