# generated using pymatgen
data_Tl2PO3
_symmetry_space_group_name_H-M   'P 1'
_cell_length_a   5.51055820
_cell_length_b   12.70165382
_cell_length_c   13.32945355
_cell_angle_alpha   90.00000000
_cell_angle_beta   90.00000000
_cell_angle_gamma   90.00000000
_symmetry_Int_Tables_number   1
_chemical_formula_structural   Tl2PO3
_chemical_formula_sum   'Tl16 P8 O24'
_cell_volume   932.97114302
_cell_formula_units_Z   8
loop_
 _symmetry_equiv_pos_site_id
 _symmetry_equiv_pos_as_xyz
  1  'x, y, z'
loop_
 _atom_site_type_symbol
 _atom_site_label
 _atom_site_symmetry_multiplicity
 _atom_site_fract_x
 _atom_site_fract_y
 _atom_site_fract_z
 _atom_site_occupancy
  Tl  Tl0  1  0.06134628  0.35559781  0.71516156  1
  Tl  Tl1  1  0.43865372  0.85559781  0.28483844  1
  Tl  Tl2  1  0.56134628  0.64440219  0.78483844  1
  Tl  Tl3  1  0.93865372  0.14440219  0.21516156  1
  Tl  Tl4  1  0.93865372  0.64440219  0.28483844  1
  Tl  Tl5  1  0.56134628  0.14440219  0.71516156  1
  Tl  Tl6  1  0.43865372  0.35559781  0.21516156  1
  Tl  Tl7  1  0.06134628  0.85559781  0.78483844  1
  Tl  Tl8  1  0.49726455  0.64846704  0.07970760  1
  Tl  Tl9  1  0.00273545  0.14846704  0.92029240  1
  Tl  Tl10  1  0.99726455  0.35153296  0.42029240  1
  Tl  Tl11  1  0.50273545  0.85153296  0.57970760  1
  Tl  Tl12  1  0.50273545  0.35153296  0.92029240  1
  Tl  Tl13  1  0.99726455  0.85153296  0.07970760  1
  Tl  Tl14  1  0.00273545  0.64846704  0.57970760  1
  Tl  Tl15  1  0.49726455  0.14846704  0.42029240  1
  P  P16  1  0.02351462  0.55533717  0.93595955  1
  P  P17  1  0.47648538  0.05533717  0.06404045  1
  P  P18  1  0.52351462  0.44466283  0.56404045  1
  P  P19  1  0.97648538  0.94466283  0.43595955  1
  P  P20  1  0.97648538  0.44466283  0.06404045  1
  P  P21  1  0.52351462  0.94466283  0.93595955  1
  P  P22  1  0.47648538  0.55533717  0.43595955  1
  P  P23  1  0.02351462  0.05533717  0.56404045  1
  O  O24  1  0.89565162  0.50780541  0.84270393  1
  O  O25  1  0.60434838  0.00780541  0.15729607  1
  O  O26  1  0.39565162  0.49219459  0.65729607  1
  O  O27  1  0.10434838  0.99219459  0.34270393  1
  O  O28  1  0.10434838  0.49219459  0.15729607  1
  O  O29  1  0.39565162  0.99219459  0.84270393  1
  O  O30  1  0.60434838  0.50780541  0.34270393  1
  O  O31  1  0.89565162  0.00780541  0.65729607  1
  O  O32  1  0.91090735  0.66149169  0.96682731  1
  O  O33  1  0.58909265  0.16149169  0.03317269  1
  O  O34  1  0.41090735  0.33850831  0.53317269  1
  O  O35  1  0.08909265  0.83850831  0.46682731  1
  O  O36  1  0.08909265  0.33850831  0.03317269  1
  O  O37  1  0.41090735  0.83850831  0.96682731  1
  O  O38  1  0.58909265  0.66149169  0.46682731  1
  O  O39  1  0.91090735  0.16149169  0.53317269  1
  O  O40  1  0.30501658  0.56040545  0.92178361  1
  O  O41  1  0.19498342  0.06040545  0.07821639  1
  O  O42  1  0.80501658  0.43959455  0.57821639  1
  O  O43  1  0.69498342  0.93959455  0.42178361  1
  O  O44  1  0.69498342  0.43959455  0.07821639  1
  O  O45  1  0.80501658  0.93959455  0.92178361  1
  O  O46  1  0.19498342  0.56040545  0.42178361  1
  O  O47  1  0.30501658  0.06040545  0.57821639  1
