# generated using pymatgen
data_V3As2O9
_symmetry_space_group_name_H-M   'P 1'
_cell_length_a   4.78535527
_cell_length_b   9.07218991
_cell_length_c   9.07218991
_cell_angle_alpha   90.00000000
_cell_angle_beta   90.00000000
_cell_angle_gamma   90.00000000
_symmetry_Int_Tables_number   1
_chemical_formula_structural   V3As2O9
_chemical_formula_sum   'V6 As4 O18'
_cell_volume   393.85689378
_cell_formula_units_Z   2
loop_
 _symmetry_equiv_pos_site_id
 _symmetry_equiv_pos_as_xyz
  1  'x, y, z'
loop_
 _atom_site_type_symbol
 _atom_site_label
 _atom_site_symmetry_multiplicity
 _atom_site_fract_x
 _atom_site_fract_y
 _atom_site_fract_z
 _atom_site_occupancy
  V  V0  1  0.35507241  0.61675808  0.88324192  1
  V  V1  1  0.35507241  0.38324192  0.11675808  1
  V  V2  1  0.35507241  0.88324192  0.38324192  1
  V  V3  1  0.35507241  0.11675808  0.61675808  1
  V  V4  1  0.42997679  0.50000000  0.50000000  1
  V  V5  1  0.42997679  0.00000000  -0.00000000  1
  As  As6  1  0.70870933  0.79996114  0.70003886  1
  As  As7  1  0.70870933  0.20003886  0.29996114  1
  As  As8  1  0.70870933  0.70003886  0.20003886  1
  As  As9  1  0.70870933  0.29996114  0.79996114  1
  O  O10  1  0.52963732  0.62024127  0.68211747  1
  O  O11  1  0.52963732  0.37975873  0.31788253  1
  O  O12  1  0.52963732  0.87975873  0.18211747  1
  O  O13  1  0.52963732  0.12024127  0.81788253  1
  O  O14  1  0.52963732  0.68211747  0.37975873  1
  O  O15  1  0.52963732  0.31788253  0.62024127  1
  O  O16  1  0.52963732  0.18211747  0.12024127  1
  O  O17  1  0.52963732  0.81788253  0.87975873  1
  O  O18  1  0.44089258  0.90310436  0.59689564  1
  O  O19  1  0.44089258  0.09689564  0.40310436  1
  O  O20  1  0.44089258  0.59689564  0.09689564  1
  O  O21  1  0.44089258  0.40310436  0.90310436  1
  O  O22  1  0.09001708  0.50000000  0.50000000  1
  O  O23  1  0.09001708  0.00000000  -0.00000000  1
  O  O24  1  0.01205911  0.62919050  0.87080950  1
  O  O25  1  0.01205911  0.37080950  0.12919050  1
  O  O26  1  0.01205911  0.87080950  0.37080950  1
  O  O27  1  0.01205911  0.12919050  0.62919050  1
