# generated using pymatgen
data_Cd8Au5
_symmetry_space_group_name_H-M   'P 1'
_cell_length_a   8.79243721
_cell_length_b   8.79243721
_cell_length_c   8.79243721
_cell_angle_alpha   109.47122063
_cell_angle_beta   109.47122063
_cell_angle_gamma   109.47122063
_symmetry_Int_Tables_number   1
_chemical_formula_structural   Cd8Au5
_chemical_formula_sum   'Cd16 Au10'
_cell_volume   523.24602272
_cell_formula_units_Z   2
loop_
 _symmetry_equiv_pos_site_id
 _symmetry_equiv_pos_as_xyz
  1  'x, y, z'
loop_
 _atom_site_type_symbol
 _atom_site_label
 _atom_site_symmetry_multiplicity
 _atom_site_fract_x
 _atom_site_fract_y
 _atom_site_fract_z
 _atom_site_occupancy
  Cd  Cd0  1  0.21862962  -0.00000000  0.00000000  1
  Cd  Cd1  1  0.00000000  0.21862962  0.00000000  1
  Cd  Cd2  1  0.00000000  -0.00000000  0.21862962  1
  Cd  Cd3  1  0.78137038  0.78137038  0.78137038  1
  Cd  Cd4  1  0.35021109  0.72332463  -0.00000000  1
  Cd  Cd5  1  0.62688646  0.27667537  0.27667537  1
  Cd  Cd6  1  0.35021109  -0.00000000  0.72332463  1
  Cd  Cd7  1  0.72332463  0.35021109  0.00000000  1
  Cd  Cd8  1  0.00000000  0.35021109  0.72332463  1
  Cd  Cd9  1  0.27667537  0.62688646  0.27667537  1
  Cd  Cd10  1  0.27667537  0.27667537  0.62688646  1
  Cd  Cd11  1  0.00000000  0.72332463  0.35021109  1
  Cd  Cd12  1  0.72332463  -0.00000000  0.35021109  1
  Cd  Cd13  1  0.64978891  0.64978891  0.37311354  1
  Cd  Cd14  1  0.37311354  0.64978891  0.64978891  1
  Cd  Cd15  1  0.64978891  0.37311354  0.64978891  1
  Au  Au16  1  0.65365933  0.00000000  0.00000000  1
  Au  Au17  1  -0.00000000  0.65365933  -0.00000000  1
  Au  Au18  1  -0.00000000  0.00000000  0.65365933  1
  Au  Au19  1  0.34634067  0.34634067  0.34634067  1
  Au  Au20  1  0.00000000  0.64192603  0.64192603  1
  Au  Au21  1  0.35807397  -0.00000000  0.35807397  1
  Au  Au22  1  0.35807397  0.35807397  -0.00000000  1
  Au  Au23  1  -0.00000000  0.35807397  0.35807397  1
  Au  Au24  1  0.64192603  -0.00000000  0.64192603  1
  Au  Au25  1  0.64192603  0.64192603  0.00000000  1
