# generated using pymatgen
data_Na3VP2O9
_symmetry_space_group_name_H-M   'P 1'
_cell_length_a   7.42264693
_cell_length_b   6.98108301
_cell_length_c   8.69821327
_cell_angle_alpha   113.65909893
_cell_angle_beta   93.77555936
_cell_angle_gamma   89.99999984
_symmetry_Int_Tables_number   1
_chemical_formula_structural   Na3VP2O9
_chemical_formula_sum   'Na6 V2 P4 O18'
_cell_volume   411.77303366
_cell_formula_units_Z   2
loop_
 _symmetry_equiv_pos_site_id
 _symmetry_equiv_pos_as_xyz
  1  'x, y, z'
loop_
 _atom_site_type_symbol
 _atom_site_label
 _atom_site_symmetry_multiplicity
 _atom_site_fract_x
 _atom_site_fract_y
 _atom_site_fract_z
 _atom_site_occupancy
  Na  Na0  1  0.00000000  0.77884023  1.00000000  1
  Na  Na1  1  -0.00000000  0.22115977  0.00000000  1
  Na  Na2  1  0.70005341  0.60603191  0.21206282  1
  Na  Na3  1  0.29994659  0.39396809  0.78793718  1
  Na  Na4  1  0.50000000  0.00000000  0.50000000  1
  Na  Na5  1  0.50000000  0.50000000  0.50000000  1
  V  V6  1  -0.00000000  0.00000000  0.50000000  1
  V  V7  1  -0.00000000  0.50000000  0.50000000  1
  P  P8  1  0.77335547  0.38098510  0.76197020  1
  P  P9  1  0.22664453  0.61901490  0.23802980  1
  P  P10  1  0.71202789  0.12821173  0.25642245  1
  P  P11  1  0.28797211  0.87178827  0.74357755  1
  O  O12  1  0.79630785  0.47635153  0.95270405  1
  O  O13  1  0.20369215  0.52364847  0.04729595  1
  O  O14  1  0.58008985  0.34179797  0.68359595  1
  O  O15  1  0.41991015  0.65820203  0.31640405  1
  O  O16  1  0.87934925  0.16788632  0.69835803  1
  O  O17  1  0.87934925  0.53047170  0.69835803  1
  O  O18  1  0.12065075  0.83211368  0.30164197  1
  O  O19  1  0.12065075  0.46952830  0.30164197  1
  O  O20  1  0.78885249  0.99467829  0.36040274  1
  O  O21  1  0.78885249  0.36572445  0.36040274  1
  O  O22  1  0.21114751  0.00532171  0.63959726  1
  O  O23  1  0.21114751  0.63427555  0.63959726  1
  O  O24  1  0.79546670  0.04442682  0.08885365  1
  O  O25  1  0.20453330  0.95557318  0.91114635  1
  O  O26  1  0.51145849  0.13619626  0.27239251  1
  O  O27  1  0.48854151  0.86380374  0.72760749  1
  O  O28  1  0.08026562  0.24474865  0.48949630  1
  O  O29  1  0.91973438  0.75525135  0.51050370  1
