# generated using pymatgen
data_BaFeBP2O9
_symmetry_space_group_name_H-M   'P 1'
_cell_length_a   5.35472208
_cell_length_b   8.23622231
_cell_length_c   8.17356047
_cell_angle_alpha   88.53394035
_cell_angle_beta   80.02128611
_cell_angle_gamma   87.70107583
_symmetry_Int_Tables_number   1
_chemical_formula_structural   BaFeBP2O9
_chemical_formula_sum   'Ba2 Fe2 B2 P4 O18'
_cell_volume   354.67338357
_cell_formula_units_Z   2
loop_
 _symmetry_equiv_pos_site_id
 _symmetry_equiv_pos_as_xyz
  1  'x, y, z'
loop_
 _atom_site_type_symbol
 _atom_site_label
 _atom_site_symmetry_multiplicity
 _atom_site_fract_x
 _atom_site_fract_y
 _atom_site_fract_z
 _atom_site_occupancy
  Ba  Ba0  1  0.27566998  0.68942662  0.87045409  1
  Ba  Ba1  1  0.72433002  0.31057338  0.12954591  1
  Fe  Fe2  1  0.72637218  0.80653384  0.21092598  1
  Fe  Fe3  1  0.27362782  0.19346616  0.78907402  1
  B  B4  1  0.87990926  0.74343796  0.54281768  1
  B  B5  1  0.12009074  0.25656204  0.45718232  1
  P  P6  1  0.79484939  0.42705511  0.69693412  1
  P  P7  1  0.20515061  0.57294489  0.30306588  1
  P  P8  1  0.77717364  0.94288889  0.81787022  1
  P  P9  1  0.22282636  0.05711111  0.18212978  1
  O  O10  1  0.54527433  0.36924467  0.80359169  1
  O  O11  1  0.45472567  0.63075533  0.19640831  1
  O  O12  1  0.98970339  0.58283506  0.19807494  1
  O  O13  1  0.01029661  0.41716494  0.80192506  1
  O  O14  1  0.86489298  0.33104940  0.53290569  1
  O  O15  1  0.13510702  0.66895060  0.46709431  1
  O  O16  1  0.73080057  0.60823657  0.65162467  1
  O  O17  1  0.26919943  0.39176343  0.34837533  1
  O  O18  1  0.92113565  0.08750060  0.86254837  1
  O  O19  1  0.07886435  0.91249940  0.13745163  1
  O  O20  1  0.50703397  0.99041337  0.78863815  1
  O  O21  1  0.49296603  0.00958663  0.21136185  1
  O  O22  1  0.75348712  0.80397158  0.95362355  1
  O  O23  1  0.24651288  0.19602842  0.04637645  1
  O  O24  1  0.94788589  0.86215122  0.66243510  1
  O  O25  1  0.05211411  0.13784878  0.33756490  1
  O  O26  1  0.73098030  0.80832525  0.43380486  1
  O  O27  1  0.26901970  0.19167475  0.56619514  1
