# generated using pymatgen
data_Al3Cr3(SbO8)2
_symmetry_space_group_name_H-M   'P 1'
_cell_length_a   5.78167198
_cell_length_b   5.81752340
_cell_length_c   9.29624139
_cell_angle_alpha   89.97448959
_cell_angle_beta   89.60719449
_cell_angle_gamma   120.21387875
_symmetry_Int_Tables_number   1
_chemical_formula_structural   Al3Cr3(SbO8)2
_chemical_formula_sum   'Al3 Cr3 Sb2 O16'
_cell_volume   270.19354446
_cell_formula_units_Z   1
loop_
 _symmetry_equiv_pos_site_id
 _symmetry_equiv_pos_as_xyz
  1  'x, y, z'
loop_
 _atom_site_type_symbol
 _atom_site_label
 _atom_site_symmetry_multiplicity
 _atom_site_fract_x
 _atom_site_fract_y
 _atom_site_fract_z
 _atom_site_occupancy
  Al  Al0  1  0.66567724  0.83285692  0.20278590  1
  Al  Al1  1  0.83506505  0.66618619  0.70399644  1
  Al  Al2  1  0.83403867  0.16823560  0.70389209  1
  Cr  Cr3  1  0.17286235  0.83457682  0.21691594  1
  Cr  Cr4  1  0.17288302  0.33940424  0.21807013  1
  Cr  Cr5  1  0.34044420  0.17093485  0.72475607  1
  Sb  Sb6  1  0.34039003  0.67059318  0.49440503  1
  Sb  Sb7  1  0.67821856  0.33860970  0.99062909  1
  O  O8  1  0.16359415  0.83019077  0.60349470  1
  O  O9  1  0.03990157  0.52010583  0.34033212  1
  O  O10  1  0.33142228  0.66452106  0.10944999  1
  O  O11  1  0.99335053  0.99742972  0.30038160  1
  O  O12  1  0.00394070  0.00235689  0.80109321  1
  O  O13  1  0.16380950  0.33345704  0.60399448  1
  O  O14  1  0.48125267  0.95583722  0.33517442  1
  O  O15  1  0.48180223  0.52542790  0.33643595  1
  O  O16  1  0.33726663  0.16820079  0.10216190  1
  O  O17  1  0.67384824  0.83715816  0.60606307  1
  O  O18  1  0.51480335  0.47515416  0.83795175  1
  O  O19  1  0.51092296  0.03788566  0.83815519  1
  O  O20  1  0.65179379  0.32610516  0.61113994  1
  O  O21  1  0.83181607  0.67039491  0.10242006  1
  O  O22  1  0.94966826  0.47444701  0.83018855  1
  O  O23  1  0.83122992  0.16013220  0.10183240  1
