# generated using pymatgen
data_VH9(NF)3
_symmetry_space_group_name_H-M   'P 1'
_cell_length_a   5.81080708
_cell_length_b   9.54507202
_cell_length_c   10.70349593
_cell_angle_alpha   90.00000000
_cell_angle_beta   89.98123863
_cell_angle_gamma   90.00000000
_symmetry_Int_Tables_number   1
_chemical_formula_structural   VH9(NF)3
_chemical_formula_sum   'V4 H36 N12 F12'
_cell_volume   593.66478983
_cell_formula_units_Z   4
loop_
 _symmetry_equiv_pos_site_id
 _symmetry_equiv_pos_as_xyz
  1  'x, y, z'
loop_
 _atom_site_type_symbol
 _atom_site_label
 _atom_site_symmetry_multiplicity
 _atom_site_fract_x
 _atom_site_fract_y
 _atom_site_fract_z
 _atom_site_occupancy
  V  V0  1  0.73802776  0.26800028  0.75849929  1
  V  V1  1  0.26197224  0.76800028  0.74150071  1
  V  V2  1  0.26197224  0.73199972  0.24150071  1
  V  V3  1  0.73802776  0.23199972  0.25849929  1
  H  H4  1  0.99042955  0.05929873  0.86214422  1
  H  H5  1  0.00957045  0.55929873  0.63785578  1
  H  H6  1  0.00957045  0.94070127  0.13785578  1
  H  H7  1  0.99042955  0.44070127  0.36214422  1
  H  H8  1  0.95955826  0.17476941  0.97405684  1
  H  H9  1  0.04044174  0.67476941  0.52594316  1
  H  H10  1  0.04044174  0.82523059  0.02594316  1
  H  H11  1  0.95955826  0.32523059  0.47405684  1
  H  H12  1  0.15688438  0.19851191  0.86645077  1
  H  H13  1  0.84311562  0.69851191  0.63354923  1
  H  H14  1  0.84311562  0.80148809  0.13354923  1
  H  H15  1  0.15688438  0.30148809  0.36645077  1
  H  H16  1  0.60917678  0.51642163  0.86037003  1
  H  H17  1  0.39082322  0.01642163  0.63962997  1
  H  H18  1  0.39082322  0.48357837  0.13962997  1
  H  H19  1  0.60917678  0.98357837  0.36037003  1
  H  H20  1  0.89593328  0.50839530  0.86190832  1
  H  H21  1  0.10406672  0.00839530  0.63809168  1
  H  H22  1  0.10406672  0.49160470  0.13809168  1
  H  H23  1  0.89593328  0.99160470  0.36190832  1
  H  H24  1  0.74297928  0.42787699  0.97197086  1
  H  H25  1  0.25702072  0.92787699  0.52802914  1
  H  H26  1  0.25702072  0.57212301  0.02802914  1
  H  H27  1  0.74297928  0.07212301  0.47197086  1
  H  H28  1  0.31969907  0.35509069  0.66448561  1
  H  H29  1  0.68030093  0.85509069  0.83551439  1
  H  H30  1  0.68030093  0.64490931  0.33551439  1
  H  H31  1  0.31969907  0.14490931  0.16448561  1
  H  H32  1  0.50752178  0.47917094  0.63618699  1
  H  H33  1  0.49247822  0.97917094  0.86381301  1
  H  H34  1  0.49247822  0.52082906  0.36381301  1
  H  H35  1  0.50752178  0.02082906  0.13618699  1
  H  H36  1  0.50156852  0.33771723  0.54754613  1
  H  H37  1  0.49843148  0.83771723  0.95245387  1
  H  H38  1  0.49843148  0.66228277  0.45245387  1
  H  H39  1  0.50156852  0.16228277  0.04754613  1
  N  N40  1  0.98984136  0.16547538  0.87981819  1
  N  N41  1  0.01015864  0.66547538  0.62018181  1
  N  N42  1  0.01015864  0.83452462  0.12018181  1
  N  N43  1  0.98984136  0.33452462  0.37981819  1
  N  N44  1  0.74816036  0.45257848  0.87821887  1
  N  N45  1  0.25183964  0.95257848  0.62178113  1
  N  N46  1  0.25183964  0.54742152  0.12178113  1
  N  N47  1  0.74816036  0.04742152  0.37821887  1
  N  N48  1  0.48784854  0.37203140  0.63837445  1
  N  N49  1  0.51215146  0.87203140  0.86162555  1
  N  N50  1  0.51215146  0.62796860  0.36162555  1
  N  N51  1  0.48784854  0.12796860  0.13837445  1
  F  F52  1  0.49514341  0.19590061  0.86597566  1
  F  F53  1  0.50485659  0.69590061  0.63402434  1
  F  F54  1  0.50485659  0.80409939  0.13402434  1
  F  F55  1  0.49514341  0.30409939  0.36597566  1
  F  F56  1  0.72761463  0.10630769  0.64787908  1
  F  F57  1  0.27238537  0.60630769  0.85212092  1
  F  F58  1  0.27238537  0.89369231  0.35212092  1
  F  F59  1  0.72761463  0.39369231  0.14787908  1
  F  F60  1  0.98361671  0.35728304  0.66387894  1
  F  F61  1  0.01638329  0.85728304  0.83612106  1
  F  F62  1  0.01638329  0.64271696  0.33612106  1
  F  F63  1  0.98361671  0.14271696  0.16387894  1
