# generated using pymatgen
data_SrCuH3ClO3
_symmetry_space_group_name_H-M   'P 1'
_cell_length_a   6.63563496
_cell_length_b   6.61131616
_cell_length_c   16.10854279
_cell_angle_alpha   90.00000000
_cell_angle_beta   90.00000000
_cell_angle_gamma   90.00000000
_symmetry_Int_Tables_number   1
_chemical_formula_structural   SrCuH3ClO3
_chemical_formula_sum   'Sr6 Cu6 H18 Cl6 O18'
_cell_volume   706.68629295
_cell_formula_units_Z   6
loop_
 _symmetry_equiv_pos_site_id
 _symmetry_equiv_pos_as_xyz
  1  'x, y, z'
loop_
 _atom_site_type_symbol
 _atom_site_label
 _atom_site_symmetry_multiplicity
 _atom_site_fract_x
 _atom_site_fract_y
 _atom_site_fract_z
 _atom_site_occupancy
  Sr  Sr0  1  0.33280528  0.08671799  -0.00000000  1
  Sr  Sr1  1  0.66719472  0.58671799  0.50000000  1
  Sr  Sr2  1  0.06736646  0.44121403  0.16982347  1
  Sr  Sr3  1  0.06736646  0.44121403  0.83017653  1
  Sr  Sr4  1  0.93263354  0.94121403  0.33017653  1
  Sr  Sr5  1  0.93263354  0.94121403  0.66982347  1
  Cu  Cu6  1  0.47259089  0.59016353  -0.00000000  1
  Cu  Cu7  1  0.52740911  0.09016353  0.50000000  1
  Cu  Cu8  1  0.79310437  0.91923473  0.10110072  1
  Cu  Cu9  1  0.79310437  0.91923473  0.89889928  1
  Cu  Cu10  1  0.20689563  0.41923473  0.39889928  1
  Cu  Cu11  1  0.20689563  0.41923473  0.60110072  1
  H  H12  1  0.45795431  0.76826533  0.13773329  1
  H  H13  1  0.45795431  0.76826533  0.86226671  1
  H  H14  1  0.54204569  0.26826533  0.36226671  1
  H  H15  1  0.54204569  0.26826533  0.63773329  1
  H  H16  1  0.82034199  0.19726999  -0.00000000  1
  H  H17  1  0.17965801  0.69726999  0.50000000  1
  H  H18  1  0.70635390  0.68736702  0.21116114  1
  H  H19  1  0.70635390  0.68736702  0.78883886  1
  H  H20  1  0.29364610  0.18736702  0.28883886  1
  H  H21  1  0.29364610  0.18736702  0.71116114  1
  H  H22  1  0.49895521  0.38279105  0.12727633  1
  H  H23  1  0.49895521  0.38279105  0.87272367  1
  H  H24  1  0.50104479  0.88279105  0.37272367  1
  H  H25  1  0.50104479  0.88279105  0.62727633  1
  H  H26  1  0.12240298  0.99465945  0.16017303  1
  H  H27  1  0.12240298  0.99465945  0.83982697  1
  H  H28  1  0.87759702  0.49465945  0.33982697  1
  H  H29  1  0.87759702  0.49465945  0.66017303  1
  Cl  Cl30  1  0.92445571  0.52339622  -0.00000000  1
  Cl  Cl31  1  0.07554429  0.02339622  0.50000000  1
  Cl  Cl32  1  0.68350962  0.26514780  0.23910797  1
  Cl  Cl33  1  0.68350962  0.26514780  0.76089203  1
  Cl  Cl34  1  0.31649038  0.76514780  0.26089203  1
  Cl  Cl35  1  0.31649038  0.76514780  0.73910797  1
  O  O36  1  0.51441134  0.80802683  0.08381890  1
  O  O37  1  0.51441134  0.80802683  0.91618110  1
  O  O38  1  0.48558866  0.30802683  0.41618110  1
  O  O39  1  0.48558866  0.30802683  0.58381890  1
  O  O40  1  0.73466665  0.07609442  -0.00000000  1
  O  O41  1  0.26533335  0.57609442  0.50000000  1
  O  O42  1  0.83766633  0.74885475  0.19992802  1
  O  O43  1  0.83766633  0.74885475  0.80007198  1
  O  O44  1  0.16233367  0.24885475  0.30007198  1
  O  O45  1  0.16233367  0.24885475  0.69992802  1
  O  O46  1  0.38818260  0.40034215  0.08753219  1
  O  O47  1  0.38818260  0.40034215  0.91246781  1
  O  O48  1  0.61181740  0.90034215  0.41246781  1
  O  O49  1  0.61181740  0.90034215  0.58753219  1
  O  O50  1  0.05329016  0.06251080  0.11413325  1
  O  O51  1  0.05329016  0.06251080  0.88586675  1
  O  O52  1  0.94670984  0.56251080  0.38586675  1
  O  O53  1  0.94670984  0.56251080  0.61413325  1
