# generated using pymatgen
data_MnZnGeO4
_symmetry_space_group_name_H-M   'P 1'
_cell_length_a   5.02643056
_cell_length_b   6.27943346
_cell_length_c   10.87351800
_cell_angle_alpha   90.00000000
_cell_angle_beta   90.00000000
_cell_angle_gamma   90.00000000
_symmetry_Int_Tables_number   1
_chemical_formula_structural   MnZnGeO4
_chemical_formula_sum   'Mn4 Zn4 Ge4 O16'
_cell_volume   343.20233007
_cell_formula_units_Z   4
loop_
 _symmetry_equiv_pos_site_id
 _symmetry_equiv_pos_as_xyz
  1  'x, y, z'
loop_
 _atom_site_type_symbol
 _atom_site_label
 _atom_site_symmetry_multiplicity
 _atom_site_fract_x
 _atom_site_fract_y
 _atom_site_fract_z
 _atom_site_occupancy
  Mn  Mn0  1  0.49083287  0.75000000  0.22175564  1
  Mn  Mn1  1  0.00916713  0.75000000  0.72175564  1
  Mn  Mn2  1  0.50916713  0.25000000  0.77824436  1
  Mn  Mn3  1  0.99083287  0.25000000  0.27824436  1
  Zn  Zn4  1  0.50000000  0.00000000  0.50000000  1
  Zn  Zn5  1  -0.00000000  0.50000000  -0.00000000  1
  Zn  Zn6  1  0.50000000  0.50000000  0.50000000  1
  Zn  Zn7  1  -0.00000000  0.00000000  0.00000000  1
  Ge  Ge8  1  0.93279681  0.75000000  0.40638236  1
  Ge  Ge9  1  0.56720319  0.75000000  0.90638236  1
  Ge  Ge10  1  0.06720319  0.25000000  0.59361764  1
  Ge  Ge11  1  0.43279681  0.25000000  0.09361764  1
  O  O12  1  0.77045828  0.97321881  0.33744854  1
  O  O13  1  0.72954172  0.52678119  0.83744854  1
  O  O14  1  0.22954172  0.47321881  0.66255146  1
  O  O15  1  0.27045828  0.02678119  0.16255146  1
  O  O16  1  0.22954172  0.02678119  0.66255146  1
  O  O17  1  0.27045828  0.47321881  0.16255146  1
  O  O18  1  0.77045828  0.52678119  0.33744854  1
  O  O19  1  0.72954172  0.97321881  0.83744854  1
  O  O20  1  0.28439715  0.75000000  0.40983977  1
  O  O21  1  0.21560285  0.75000000  0.90983977  1
  O  O22  1  0.71560285  0.25000000  0.59016023  1
  O  O23  1  0.78439715  0.25000000  0.09016023  1
  O  O24  1  0.73219928  0.75000000  0.05489137  1
  O  O25  1  0.76780072  0.75000000  0.55489137  1
  O  O26  1  0.26780072  0.25000000  0.94510863  1
  O  O27  1  0.23219928  0.25000000  0.44510863  1
