# generated using pymatgen
data_LiCr3O4
_symmetry_space_group_name_H-M   'P 1'
_cell_length_a   5.91016580
_cell_length_b   3.17624091
_cell_length_c   5.91636804
_cell_angle_alpha   63.68615168
_cell_angle_beta   90.16067803
_cell_angle_gamma   116.41886471
_symmetry_Int_Tables_number   1
_chemical_formula_structural   LiCr3O4
_chemical_formula_sum   'Li1 Cr3 O4'
_cell_volume   86.50291600
_cell_formula_units_Z   1
loop_
 _symmetry_equiv_pos_site_id
 _symmetry_equiv_pos_as_xyz
  1  'x, y, z'
loop_
 _atom_site_type_symbol
 _atom_site_label
 _atom_site_symmetry_multiplicity
 _atom_site_fract_x
 _atom_site_fract_y
 _atom_site_fract_z
 _atom_site_occupancy
  Li  Li0  1  0.00028520  0.00092148  0.49988046  1
  Cr  Cr1  1  0.00050898  0.00081528  0.99960202  1
  Cr  Cr2  1  0.49970586  0.00045481  0.99951134  1
  Cr  Cr3  1  0.49978321  0.00009714  0.50012858  1
  O  O4  1  0.28847512  0.13826345  0.21135706  1
  O  O5  1  0.74469744  0.00274992  0.24356007  1
  O  O6  1  0.25548439  0.99844418  0.75595258  1
  O  O7  1  0.71163679  0.86274776  0.78807488  1
