# generated using pymatgen
data_ZnH8SO8
_symmetry_space_group_name_H-M   'P 1'
_cell_length_a   6.13267875
_cell_length_b   7.86475872
_cell_length_c   13.74456175
_cell_angle_alpha   90.00000000
_cell_angle_beta   90.00000000
_cell_angle_gamma   88.72975214
_symmetry_Int_Tables_number   1
_chemical_formula_structural   ZnH8SO8
_chemical_formula_sum   'Zn4 H32 S4 O32'
_cell_volume   662.76532342
_cell_formula_units_Z   4
loop_
 _symmetry_equiv_pos_site_id
 _symmetry_equiv_pos_as_xyz
  1  'x, y, z'
loop_
 _atom_site_type_symbol
 _atom_site_label
 _atom_site_symmetry_multiplicity
 _atom_site_fract_x
 _atom_site_fract_y
 _atom_site_fract_z
 _atom_site_occupancy
  Zn  Zn0  1  0.92690792  0.77688172  0.09987714  1
  Zn  Zn1  1  0.42690792  0.27688172  0.40012286  1
  Zn  Zn2  1  0.07309208  0.22311828  0.90012286  1
  Zn  Zn3  1  0.57309208  0.72311828  0.59987714  1
  H  H4  1  0.69165665  0.72676646  0.26370663  1
  H  H5  1  0.19165665  0.22676646  0.23629337  1
  H  H6  1  0.30834335  0.27323354  0.73629337  1
  H  H7  1  0.80834335  0.77323354  0.76370663  1
  H  H8  1  0.92623664  0.78176264  0.30603334  1
  H  H9  1  0.42623664  0.28176264  0.19396666  1
  H  H10  1  0.07376336  0.21823736  0.69396666  1
  H  H11  1  0.57376336  0.71823736  0.80603334  1
  H  H12  1  0.30534203  0.88182335  0.18635360  1
  H  H13  1  0.80534203  0.38182335  0.31364640  1
  H  H14  1  0.69465797  0.11817665  0.81364640  1
  H  H15  1  0.19465797  0.61817665  0.68635360  1
  H  H16  1  0.23052692  0.02608909  0.10744928  1
  H  H17  1  0.73052692  0.52608909  0.39255072  1
  H  H18  1  0.76947308  0.97391091  0.89255072  1
  H  H19  1  0.26947308  0.47391091  0.60744928  1
  H  H20  1  0.54487454  0.68143367  0.02119463  1
  H  H21  1  0.04487454  0.18143367  0.47880537  1
  H  H22  1  0.45512546  0.31856633  0.97880537  1
  H  H23  1  0.95512546  0.81856633  0.52119463  1
  H  H24  1  0.64370198  0.52130310  0.07950005  1
  H  H25  1  0.14370198  0.02130310  0.42049995  1
  H  H26  1  0.35629802  0.47869690  0.92049995  1
  H  H27  1  0.85629802  0.97869690  0.57950005  1
  H  H28  1  0.20414673  0.55740305  0.18513082  1
  H  H29  1  0.70414673  0.05740305  0.31486918  1
  H  H30  1  0.79585327  0.44259695  0.81486918  1
  H  H31  1  0.29585327  0.94259695  0.68513082  1
  H  H32  1  0.08056895  0.44437454  0.10435115  1
  H  H33  1  0.58056895  0.94437454  0.39564885  1
  H  H34  1  0.91943105  0.55562546  0.89564885  1
  H  H35  1  0.41943105  0.05562546  0.60435115  1
  S  S36  1  0.80697736  0.18104670  0.11158285  1
  S  S37  1  0.30697736  0.68104670  0.38841715  1
  S  S38  1  0.19302264  0.81895330  0.88841715  1
  S  S39  1  0.69302264  0.31895330  0.61158285  1
  O  O40  1  0.75341053  0.00771881  0.07793411  1
  O  O41  1  0.25341053  0.50771881  0.42206589  1
  O  O42  1  0.24658947  0.99228119  0.92206589  1
  O  O43  1  0.74658947  0.49228119  0.57793411  1
  O  O44  1  0.00312422  0.24390500  0.05608860  1
  O  O45  1  0.50312422  0.74390500  0.44391140  1
  O  O46  1  0.99687578  0.75609500  0.94391140  1
  O  O47  1  0.49687578  0.25609500  0.55608860  1
  O  O48  1  0.86292194  0.18757805  0.21655636  1
  O  O49  1  0.36292194  0.68757805  0.28344364  1
  O  O50  1  0.13707806  0.81242195  0.78344364  1
  O  O51  1  0.63707806  0.31242195  0.71655636  1
  O  O52  1  0.61209141  0.29624501  0.09216087  1
  O  O53  1  0.11209141  0.79624501  0.40783913  1
  O  O54  1  0.38790859  0.70375499  0.90783913  1
  O  O55  1  0.88790859  0.20375499  0.59216087  1
  O  O56  1  0.82717862  0.78634247  0.24921798  1
  O  O57  1  0.32717862  0.28634247  0.25078202  1
  O  O58  1  0.17282138  0.21365753  0.75078202  1
  O  O59  1  0.67282138  0.71365753  0.74921798  1
  O  O60  1  0.20645640  0.91255937  0.13290830  1
  O  O61  1  0.70645640  0.41255937  0.36709170  1
  O  O62  1  0.79354360  0.08744063  0.86709170  1
  O  O63  1  0.29354360  0.58744063  0.63290830  1
  O  O64  1  0.64364252  0.64723878  0.07474065  1
  O  O65  1  0.14364252  0.14723878  0.42525935  1
  O  O66  1  0.35635748  0.35276122  0.92525935  1
  O  O67  1  0.85635748  0.85276122  0.57474065  1
  O  O68  1  0.11823103  0.56104270  0.12472905  1
  O  O69  1  0.61823103  0.06104270  0.37527095  1
  O  O70  1  0.88176897  0.43895730  0.87527095  1
  O  O71  1  0.38176897  0.93895730  0.62472905  1
