# generated using pymatgen
data_CaFe5O7
_symmetry_space_group_name_H-M   'P 1'
_cell_length_a   5.39499782
_cell_length_b   6.16721800
_cell_length_c   18.02394108
_cell_angle_alpha   90.00000000
_cell_angle_beta   90.00000000
_cell_angle_gamma   106.70445245
_symmetry_Int_Tables_number   1
_chemical_formula_structural   CaFe5O7
_chemical_formula_sum   'Ca4 Fe20 O28'
_cell_volume   574.38784171
_cell_formula_units_Z   4
loop_
 _symmetry_equiv_pos_site_id
 _symmetry_equiv_pos_as_xyz
  1  'x, y, z'
loop_
 _atom_site_type_symbol
 _atom_site_label
 _atom_site_symmetry_multiplicity
 _atom_site_fract_x
 _atom_site_fract_y
 _atom_site_fract_z
 _atom_site_occupancy
  Ca  Ca0  1  0.58304700  0.89521955  0.25000000  1
  Ca  Ca1  1  0.41695300  0.10478045  0.75000000  1
  Ca  Ca2  1  0.57878416  0.39415003  0.25000000  1
  Ca  Ca3  1  0.42121584  0.60584997  0.75000000  1
  Fe  Fe4  1  0.55111336  0.13893430  0.07454982  1
  Fe  Fe5  1  0.44888664  0.86106570  0.57454982  1
  Fe  Fe6  1  0.44888664  0.86106570  0.92545018  1
  Fe  Fe7  1  0.55111336  0.13893430  0.42545018  1
  Fe  Fe8  1  0.91910020  0.22924316  0.84829595  1
  Fe  Fe9  1  0.08089980  0.77075684  0.34829595  1
  Fe  Fe10  1  0.08089980  0.77075684  0.15170405  1
  Fe  Fe11  1  0.91910020  0.22924316  0.65170405  1
  Fe  Fe12  1  -0.00000000  0.00000000  -0.00000000  1
  Fe  Fe13  1  -0.00000000  0.00000000  0.50000000  1
  Fe  Fe14  1  0.54891410  0.63680985  0.07364684  1
  Fe  Fe15  1  0.45108590  0.36319015  0.57364684  1
  Fe  Fe16  1  0.45108590  0.36319015  0.92635316  1
  Fe  Fe17  1  0.54891410  0.63680985  0.42635316  1
  Fe  Fe18  1  0.91633014  0.72741040  0.84532149  1
  Fe  Fe19  1  0.08366986  0.27258960  0.34532149  1
  Fe  Fe20  1  0.08366986  0.27258960  0.15467851  1
  Fe  Fe21  1  0.91633014  0.72741040  0.65467851  1
  Fe  Fe22  1  -0.00000000  0.50000000  -0.00000000  1
  Fe  Fe23  1  -0.00000000  0.50000000  0.50000000  1
  O  O24  1  0.89973116  0.22531201  0.25000000  1
  O  O25  1  0.10026884  0.77468799  0.75000000  1
  O  O26  1  0.84900446  0.95706751  0.39464931  1
  O  O27  1  0.15099554  0.04293249  0.89464931  1
  O  O28  1  0.15099554  0.04293249  0.60535069  1
  O  O29  1  0.84900446  0.95706751  0.10535069  1
  O  O30  1  0.25856959  0.82705926  0.46819184  1
  O  O31  1  0.74143041  0.17294074  0.96819184  1
  O  O32  1  0.74143041  0.17294074  0.53180816  1
  O  O33  1  0.25856959  0.82705926  0.03180816  1
  O  O34  1  0.34439856  0.08015224  0.32991145  1
  O  O35  1  0.65560144  0.91984776  0.82991145  1
  O  O36  1  0.65560144  0.91984776  0.67008855  1
  O  O37  1  0.34439856  0.08015224  0.17008855  1
  O  O38  1  0.91767947  0.72994647  0.25000000  1
  O  O39  1  0.08232053  0.27005353  0.75000000  1
  O  O40  1  0.84497466  0.46935193  0.39129946  1
  O  O41  1  0.15502534  0.53064807  0.89129946  1
  O  O42  1  0.15502534  0.53064807  0.60870054  1
  O  O43  1  0.84497466  0.46935193  0.10870054  1
  O  O44  1  0.26568665  0.30419542  0.46876084  1
  O  O45  1  0.73431335  0.69580458  0.96876084  1
  O  O46  1  0.73431335  0.69580458  0.53123916  1
  O  O47  1  0.26568665  0.30419542  0.03123916  1
  O  O48  1  0.34408058  0.59391852  0.33106455  1
  O  O49  1  0.65591942  0.40608148  0.83106455  1
  O  O50  1  0.65591942  0.40608148  0.66893545  1
  O  O51  1  0.34408058  0.59391852  0.16893545  1
