# generated using pymatgen
data_La2Ir7
_symmetry_space_group_name_H-M   'P 1'
_cell_length_a   5.39841988
_cell_length_b   5.39841988
_cell_length_c   26.56335256
_cell_angle_alpha   90.00000000
_cell_angle_beta   90.00000000
_cell_angle_gamma   119.99595865
_symmetry_Int_Tables_number   1
_chemical_formula_structural   La2Ir7
_chemical_formula_sum   'La8 Ir28'
_cell_volume   670.44711024
_cell_formula_units_Z   4
loop_
 _symmetry_equiv_pos_site_id
 _symmetry_equiv_pos_as_xyz
  1  'x, y, z'
loop_
 _atom_site_type_symbol
 _atom_site_label
 _atom_site_symmetry_multiplicity
 _atom_site_fract_x
 _atom_site_fract_y
 _atom_site_fract_z
 _atom_site_occupancy
  La  La0  1  0.66667491  0.33332509  0.52892214  1
  La  La1  1  0.33332509  0.66667491  0.47107786  1
  La  La2  1  0.33332509  0.66667491  0.02892214  1
  La  La3  1  0.66667491  0.33332509  0.97107786  1
  La  La4  1  0.66668014  0.33331986  0.67449164  1
  La  La5  1  0.33331986  0.66668014  0.32550836  1
  La  La6  1  0.33331986  0.66668014  0.17449164  1
  La  La7  1  0.66668014  0.33331986  0.82550836  1
  Ir  Ir8  1  0.00000000  0.00000000  0.50000000  1
  Ir  Ir9  1  0.00000000  0.00000000  0.00000000  1
  Ir  Ir10  1  0.16780635  0.33558717  0.75000000  1
  Ir  Ir11  1  0.16778443  0.83221557  0.75000000  1
  Ir  Ir12  1  0.66441283  0.83219365  0.75000000  1
  Ir  Ir13  1  0.83219365  0.66441283  0.25000000  1
  Ir  Ir14  1  0.83221557  0.16778443  0.25000000  1
  Ir  Ir15  1  0.33558717  0.16780635  0.25000000  1
  Ir  Ir16  1  0.16566031  0.33130233  0.58706567  1
  Ir  Ir17  1  0.16565088  0.83434912  0.58706126  1
  Ir  Ir18  1  0.66869767  0.83433969  0.58706567  1
  Ir  Ir19  1  0.83433969  0.66869767  0.41293433  1
  Ir  Ir20  1  0.83434912  0.16565088  0.41293874  1
  Ir  Ir21  1  0.33130233  0.16566031  0.41293433  1
  Ir  Ir22  1  0.83433969  0.66869767  0.08706567  1
  Ir  Ir23  1  0.83434912  0.16565088  0.08706126  1
  Ir  Ir24  1  0.33130233  0.16566031  0.08706567  1
  Ir  Ir25  1  0.16566031  0.33130233  0.91293433  1
  Ir  Ir26  1  0.16565088  0.83434912  0.91293874  1
  Ir  Ir27  1  0.66869767  0.83433969  0.91293433  1
  Ir  Ir28  1  0.00001420  0.99998580  0.66818642  1
  Ir  Ir29  1  0.99998580  0.00001420  0.33181358  1
  Ir  Ir30  1  0.99998580  0.00001420  0.16818642  1
  Ir  Ir31  1  0.00001420  0.99998580  0.83181358  1
  Ir  Ir32  1  0.66668561  0.33331439  0.33337636  1
  Ir  Ir33  1  0.33331439  0.66668561  0.66662364  1
  Ir  Ir34  1  0.33331439  0.66668561  0.83337636  1
  Ir  Ir35  1  0.66668561  0.33331439  0.16662364  1
