# generated using pymatgen
data_Dy2Al2Fe15
_symmetry_space_group_name_H-M   'P 1'
_cell_length_a   8.41549745
_cell_length_b   8.39903697
_cell_length_c   8.39903697
_cell_angle_alpha   120.08388625
_cell_angle_beta   90.00000000
_cell_angle_gamma   90.00000000
_symmetry_Int_Tables_number   1
_chemical_formula_structural   Dy2Al2Fe15
_chemical_formula_sum   'Dy4 Al4 Fe30'
_cell_volume   513.69067559
_cell_formula_units_Z   2
loop_
 _symmetry_equiv_pos_site_id
 _symmetry_equiv_pos_as_xyz
  1  'x, y, z'
loop_
 _atom_site_type_symbol
 _atom_site_label
 _atom_site_symmetry_multiplicity
 _atom_site_fract_x
 _atom_site_fract_y
 _atom_site_fract_z
 _atom_site_occupancy
  Dy  Dy0  1  0.75000000  0.00005931  0.99994069  1
  Dy  Dy1  1  0.25000000  0.99994069  0.00005931  1
  Dy  Dy2  1  0.25000000  0.66664116  0.33335884  1
  Dy  Dy3  1  0.75000000  0.33335884  0.66664116  1
  Al  Al4  1  0.60020906  0.66680567  0.33319433  1
  Al  Al5  1  0.39979094  0.33319433  0.66680567  1
  Al  Al6  1  0.10020906  0.33319433  0.66680567  1
  Al  Al7  1  0.89979094  0.66680567  0.33319433  1
  Fe  Fe8  1  0.50000000  0.50000000  -0.00000000  1
  Fe  Fe9  1  0.50000000  0.50000000  0.50000000  1
  Fe  Fe10  1  0.50000000  0.00000000  0.50000000  1
  Fe  Fe11  1  0.00000000  0.50000000  -0.00000000  1
  Fe  Fe12  1  0.00000000  0.50000000  0.50000000  1
  Fe  Fe13  1  0.00000000  0.00000000  0.50000000  1
  Fe  Fe14  1  0.75000000  0.66929175  0.03901516  1
  Fe  Fe15  1  0.75000000  0.36995729  0.33075052  1
  Fe  Fe16  1  0.75000000  0.96120012  0.63016895  1
  Fe  Fe17  1  0.75000000  0.36983105  0.03879988  1
  Fe  Fe18  1  0.75000000  0.96098484  0.33070825  1
  Fe  Fe19  1  0.75000000  0.66924948  0.63004271  1
  Fe  Fe20  1  0.25000000  0.33070825  0.96098484  1
  Fe  Fe21  1  0.25000000  0.63004271  0.66924948  1
  Fe  Fe22  1  0.25000000  0.03879988  0.36983105  1
  Fe  Fe23  1  0.25000000  0.63016895  0.96120012  1
  Fe  Fe24  1  0.25000000  0.03901516  0.66929175  1
  Fe  Fe25  1  0.25000000  0.33075052  0.36995729  1
  Fe  Fe26  1  0.48780562  0.83492839  0.66980653  1
  Fe  Fe27  1  0.48779793  0.83482943  0.16517057  1
  Fe  Fe28  1  0.48780562  0.33019347  0.16507161  1
  Fe  Fe29  1  0.51219438  0.16507161  0.33019347  1
  Fe  Fe30  1  0.51220207  0.16517057  0.83482943  1
  Fe  Fe31  1  0.51219438  0.66980653  0.83492839  1
  Fe  Fe32  1  0.98780562  0.16507161  0.33019347  1
  Fe  Fe33  1  0.98779793  0.16517057  0.83482943  1
  Fe  Fe34  1  0.98780562  0.66980653  0.83492839  1
  Fe  Fe35  1  0.01219438  0.83492839  0.66980653  1
  Fe  Fe36  1  0.01220207  0.83482943  0.16517057  1
  Fe  Fe37  1  0.01219438  0.33019347  0.16507161  1
