# generated using pymatgen
data_K2SrTh2(MoO4)6
_symmetry_space_group_name_H-M   'P 1'
_cell_length_a   8.08223445
_cell_length_b   8.46004060
_cell_length_c   16.17886319
_cell_angle_alpha   101.55243464
_cell_angle_beta   102.48325452
_cell_angle_gamma   97.01157068
_symmetry_Int_Tables_number   1
_chemical_formula_structural   K2SrTh2(MoO4)6
_chemical_formula_sum   'K4 Sr2 Th4 Mo12 O48'
_cell_volume   1042.28264199
_cell_formula_units_Z   2
loop_
 _symmetry_equiv_pos_site_id
 _symmetry_equiv_pos_as_xyz
  1  'x, y, z'
loop_
 _atom_site_type_symbol
 _atom_site_label
 _atom_site_symmetry_multiplicity
 _atom_site_fract_x
 _atom_site_fract_y
 _atom_site_fract_z
 _atom_site_occupancy
  K  K0  1  0.80703063  0.28518623  0.56447790  1
  K  K1  1  0.19296937  0.71481377  0.43552210  1
  K  K2  1  0.14517585  0.49633764  0.15839996  1
  K  K3  1  0.85482415  0.50366236  0.84160004  1
  Sr  Sr4  1  0.33710314  0.37071785  0.84054820  1
  Sr  Sr5  1  0.66289686  0.62928215  0.15945180  1
  Th  Th6  1  0.68974290  0.69416081  0.49633484  1
  Th  Th7  1  0.31025710  0.30583919  0.50366516  1
  Th  Th8  1  0.93313570  0.99753913  0.83854072  1
  Th  Th9  1  0.06686430  0.00246087  0.16145928  1
  Mo  Mo10  1  0.47376082  0.00280616  0.66080095  1
  Mo  Mo11  1  0.52623918  0.99719384  0.33919905  1
  Mo  Mo12  1  0.08635682  0.05135185  0.65082925  1
  Mo  Mo13  1  0.91364318  0.94864815  0.34917075  1
  Mo  Mo14  1  0.14084554  0.67805117  0.66518222  1
  Mo  Mo15  1  0.85915446  0.32194883  0.33481778  1
  Mo  Mo16  1  0.53784274  0.62940525  0.68216475  1
  Mo  Mo17  1  0.46215726  0.37059475  0.31783525  1
  Mo  Mo18  1  0.38660085  0.16538481  0.01182802  1
  Mo  Mo19  1  0.61339915  0.83461519  0.98817198  1
  Mo  Mo20  1  0.77398004  0.23676472  0.00430400  1
  Mo  Mo21  1  0.22601996  0.76323528  0.99569600  1
  O  O22  1  0.27554333  0.54665549  0.59626784  1
  O  O23  1  0.72445667  0.45334451  0.40373216  1
  O  O24  1  0.40226942  0.78563328  0.72580585  1
  O  O25  1  0.59773058  0.21436672  0.27419415  1
  O  O26  1  0.34318470  0.11544819  0.72842034  1
  O  O27  1  0.65681530  0.88455181  0.27157966  1
  O  O28  1  0.07848871  0.86848077  0.72876890  1
  O  O29  1  0.92151129  0.13151923  0.27123110  1
  O  O30  1  0.48270430  0.13572974  0.58655516  1
  O  O31  1  0.51729570  0.86427026  0.41344484  1
  O  O32  1  0.02808871  0.17412880  0.74510945  1
  O  O33  1  0.97191129  0.82587120  0.25489055  1
  O  O34  1  0.87189900  0.24721009  0.91247903  1
  O  O35  1  0.12810100  0.75278991  0.08752097  1
  O  O36  1  0.59014073  0.50077820  0.58205549  1
  O  O37  1  0.40985927  0.49922180  0.41794451  1
  O  O38  1  0.87681127  0.94718379  0.58313179  1
  O  O39  1  0.12318873  0.05281621  0.41686821  1
  O  O40  1  0.95543588  0.17537612  0.07842588  1
  O  O41  1  0.04456412  0.82462388  0.92157412  1
  O  O42  1  0.50450839  0.47194896  0.73716394  1
  O  O43  1  0.49549161  0.52805104  0.26283606  1
  O  O44  1  0.21373859  0.88409194  0.59816577  1
  O  O45  1  0.78626141  0.11590806  0.40183423  1
  O  O46  1  0.53269230  0.80608504  0.59254141  1
  O  O47  1  0.46730770  0.19391496  0.40745859  1
  O  O48  1  0.61428157  0.11113756  0.06108554  1
  O  O49  1  0.38571843  0.88886244  0.93891446  1
  O  O50  1  0.13669756  0.20799048  0.59355350  1
  O  O51  1  0.86330244  0.79200952  0.40644650  1
  O  O52  1  0.20281705  0.15184004  0.91675523  1
  O  O53  1  0.79718295  0.84815996  0.08324477  1
  O  O54  1  0.80239765  0.44364823  0.06231607  1
  O  O55  1  0.19760235  0.55635177  0.93768393  1
  O  O56  1  0.10983185  0.54582077  0.73331786  1
  O  O57  1  0.89016815  0.45417923  0.26668214  1
  O  O58  1  0.74703178  0.73828054  0.74512878  1
  O  O59  1  0.25296822  0.26171946  0.25487122  1
  O  O60  1  0.53743478  0.23319088  0.93457477  1
  O  O61  1  0.46256522  0.76680912  0.06542523  1
  O  O62  1  0.67478168  0.05741081  0.73953546  1
  O  O63  1  0.32521832  0.94258919  0.26046454  1
  O  O64  1  0.40499912  0.36590098  0.07475954  1
  O  O65  1  0.59500088  0.63409902  0.92524046  1
  O  O66  1  0.26893577  0.03944725  0.07137248  1
  O  O67  1  0.73106423  0.96055275  0.92862752  1
  O  O68  1  0.94561505  0.62115216  0.57682114  1
  O  O69  1  0.05438495  0.37884784  0.42317886  1
