# generated using pymatgen
data_Ho2Cr2Co15
_symmetry_space_group_name_H-M   'P 1'
_cell_length_a   8.08925481
_cell_length_b   8.26235470
_cell_length_c   8.26235470
_cell_angle_alpha   119.96618633
_cell_angle_beta   90.00000000
_cell_angle_gamma   90.00000000
_symmetry_Int_Tables_number   1
_chemical_formula_structural   Ho2Cr2Co15
_chemical_formula_sum   'Ho4 Cr4 Co30'
_cell_volume   478.40388102
_cell_formula_units_Z   2
loop_
 _symmetry_equiv_pos_site_id
 _symmetry_equiv_pos_as_xyz
  1  'x, y, z'
loop_
 _atom_site_type_symbol
 _atom_site_label
 _atom_site_symmetry_multiplicity
 _atom_site_fract_x
 _atom_site_fract_y
 _atom_site_fract_z
 _atom_site_occupancy
  Ho  Ho0  1  0.75000000  0.99986478  0.00013522  1
  Ho  Ho1  1  0.25000000  0.00013522  0.99986478  1
  Ho  Ho2  1  0.25000000  0.66646247  0.33353753  1
  Ho  Ho3  1  0.75000000  0.33353753  0.66646247  1
  Cr  Cr4  1  0.62430833  0.66674523  0.33325477  1
  Cr  Cr5  1  0.37569167  0.33325477  0.66674523  1
  Cr  Cr6  1  0.12430833  0.33325477  0.66674523  1
  Cr  Cr7  1  0.87569167  0.66674523  0.33325477  1
  Co  Co8  1  0.50000000  0.50000000  0.00000000  1
  Co  Co9  1  0.50000000  0.50000000  0.50000000  1
  Co  Co10  1  0.50000000  0.00000000  0.50000000  1
  Co  Co11  1  0.00000000  0.50000000  0.00000000  1
  Co  Co12  1  0.00000000  0.50000000  0.50000000  1
  Co  Co13  1  0.00000000  0.00000000  0.50000000  1
  Co  Co14  1  0.75000000  0.67100327  0.03629461  1
  Co  Co15  1  0.75000000  0.36532973  0.32895494  1
  Co  Co16  1  0.75000000  0.96366979  0.63474476  1
  Co  Co17  1  0.75000000  0.36525524  0.03633021  1
  Co  Co18  1  0.75000000  0.96370539  0.32899673  1
  Co  Co19  1  0.75000000  0.67104506  0.63467027  1
  Co  Co20  1  0.25000000  0.32899673  0.96370539  1
  Co  Co21  1  0.25000000  0.63467027  0.67104506  1
  Co  Co22  1  0.25000000  0.03633021  0.36525524  1
  Co  Co23  1  0.25000000  0.63474476  0.96366979  1
  Co  Co24  1  0.25000000  0.03629461  0.67100327  1
  Co  Co25  1  0.25000000  0.32895494  0.36532973  1
  Co  Co26  1  0.48345417  0.83309260  0.66622431  1
  Co  Co27  1  0.48368660  0.83328527  0.16671473  1
  Co  Co28  1  0.48345417  0.33377569  0.16690740  1
  Co  Co29  1  0.51654583  0.16690740  0.33377569  1
  Co  Co30  1  0.51631340  0.16671473  0.83328527  1
  Co  Co31  1  0.51654583  0.66622431  0.83309260  1
  Co  Co32  1  0.98345417  0.16690740  0.33377569  1
  Co  Co33  1  0.98368660  0.16671473  0.83328527  1
  Co  Co34  1  0.98345417  0.66622431  0.83309260  1
  Co  Co35  1  0.01654583  0.83309260  0.66622431  1
  Co  Co36  1  0.01631340  0.83328527  0.16671473  1
  Co  Co37  1  0.01654583  0.33377569  0.16690740  1
