# generated using pymatgen
data_NaPH6C2(NO)4
_symmetry_space_group_name_H-M   'P 1'
_cell_length_a   7.27988229
_cell_length_b   7.52553732
_cell_length_c   7.52553732
_cell_angle_alpha   107.00287472
_cell_angle_beta   97.25835351
_cell_angle_gamma   97.25835351
_symmetry_Int_Tables_number   1
_chemical_formula_structural   NaPH6C2(NO)4
_chemical_formula_sum   'Na2 P2 H12 C4 N8 O8'
_cell_volume   385.26861718
_cell_formula_units_Z   2
loop_
 _symmetry_equiv_pos_site_id
 _symmetry_equiv_pos_as_xyz
  1  'x, y, z'
loop_
 _atom_site_type_symbol
 _atom_site_label
 _atom_site_symmetry_multiplicity
 _atom_site_fract_x
 _atom_site_fract_y
 _atom_site_fract_z
 _atom_site_occupancy
  Na  Na0  1  -0.00000000  -0.00000000  0.00000000  1
  Na  Na1  1  0.50000000  -0.00000000  0.00000000  1
  P  P2  1  0.25000000  0.24955882  0.75044118  1
  P  P3  1  0.75000000  0.75044118  0.24955882  1
  H  H4  1  0.09688888  0.12376313  0.43259849  1
  H  H5  1  0.40311112  0.56740151  0.87623687  1
  H  H6  1  0.90311112  0.87623687  0.56740151  1
  H  H7  1  0.59688888  0.43259849  0.12376313  1
  H  H8  1  0.57210149  0.23510236  0.61795864  1
  H  H9  1  0.92789851  0.38204136  0.76489764  1
  H  H10  1  0.42789851  0.76489764  0.38204136  1
  H  H11  1  0.07210149  0.61795864  0.23510236  1
  H  H12  1  0.64413734  0.23870357  0.40301515  1
  H  H13  1  0.85586266  0.59698485  0.76129643  1
  H  H14  1  0.35586266  0.76129643  0.59698485  1
  H  H15  1  0.14413734  0.40301515  0.23870357  1
  C  C16  1  0.36155637  0.19421349  0.39733901  1
  C  C17  1  0.13844363  0.60266099  0.80578651  1
  C  C18  1  0.63844363  0.80578651  0.60266099  1
  C  C19  1  0.86155637  0.39733901  0.19421349  1
  N  N20  1  0.22791950  0.18009445  0.50986598  1
  N  N21  1  0.27208050  0.49013402  0.81990555  1
  N  N22  1  0.77208050  0.81990555  0.49013402  1
  N  N23  1  0.72791950  0.50986598  0.18009445  1
  N  N24  1  0.54291664  0.24356287  0.48467569  1
  N  N25  1  0.95708336  0.51532431  0.75643713  1
  N  N26  1  0.45708336  0.75643713  0.51532431  1
  N  N27  1  0.04291664  0.48467569  0.24356287  1
  O  O28  1  0.06397608  0.16830510  0.78689041  1
  O  O29  1  0.43602392  0.21310959  0.83169490  1
  O  O30  1  0.93602392  0.83169490  0.21310959  1
  O  O31  1  0.56397608  0.78689041  0.16830510  1
  O  O32  1  0.31316140  0.16487060  0.22311179  1
  O  O33  1  0.18683860  0.77688821  0.83512940  1
  O  O34  1  0.68683860  0.83512940  0.77688821  1
  O  O35  1  0.81316140  0.22311179  0.16487060  1
