# generated using pymatgen
data_LaVZnCrO6
_symmetry_space_group_name_H-M   'P 1'
_cell_length_a   5.35564242
_cell_length_b   5.44874624
_cell_length_c   7.77106809
_cell_angle_alpha   90.00000000
_cell_angle_beta   89.87661527
_cell_angle_gamma   90.00000000
_symmetry_Int_Tables_number   1
_chemical_formula_structural   LaVZnCrO6
_chemical_formula_sum   'La2 V2 Zn2 Cr2 O12'
_cell_volume   226.77118104
_cell_formula_units_Z   2
loop_
 _symmetry_equiv_pos_site_id
 _symmetry_equiv_pos_as_xyz
  1  'x, y, z'
loop_
 _atom_site_type_symbol
 _atom_site_label
 _atom_site_symmetry_multiplicity
 _atom_site_fract_x
 _atom_site_fract_y
 _atom_site_fract_z
 _atom_site_occupancy
  La  La0  1  0.00638459  0.96287746  0.75111267  1
  La  La1  1  0.50638459  0.53712254  0.25111267  1
  V  V2  1  0.49770308  0.01455952  0.00023968  1
  V  V3  1  0.99770308  0.48544048  0.50023968  1
  Zn  Zn4  1  0.49202440  0.48396388  0.74817989  1
  Zn  Zn5  1  0.99202440  0.01603612  0.24817989  1
  Cr  Cr6  1  0.50013571  0.00202862  0.50151471  1
  Cr  Cr7  1  0.00013571  0.49797138  0.00151471  1
  O  O8  1  0.07623986  0.45690145  0.25112901  1
  O  O9  1  0.21812850  0.21832258  0.94726653  1
  O  O10  1  0.21000826  0.22588299  0.54573639  1
  O  O11  1  0.31704438  0.70412638  0.94643268  1
  O  O12  1  0.30909129  0.69341550  0.56060598  1
  O  O13  1  0.37323894  0.97946717  0.24778146  1
  O  O14  1  0.57623986  0.04309855  0.75112901  1
  O  O15  1  0.71812850  0.28167742  0.44726653  1
  O  O16  1  0.71000826  0.27411701  0.04573639  1
  O  O17  1  0.81704438  0.79587362  0.44643268  1
  O  O18  1  0.80909129  0.80658450  0.06060598  1
  O  O19  1  0.87323894  0.52053283  0.74778146  1
