# generated using pymatgen
data_DyP3(HO)6
_symmetry_space_group_name_H-M   'P 1'
_cell_length_a   5.81669415
_cell_length_b   8.14158620
_cell_length_c   11.03424383
_cell_angle_alpha   79.92890192
_cell_angle_beta   74.71772200
_cell_angle_gamma   69.07036000
_symmetry_Int_Tables_number   1
_chemical_formula_structural   DyP3(HO)6
_chemical_formula_sum   'Dy2 P6 H12 O12'
_cell_volume   468.92023684
_cell_formula_units_Z   2
loop_
 _symmetry_equiv_pos_site_id
 _symmetry_equiv_pos_as_xyz
  1  'x, y, z'
loop_
 _atom_site_type_symbol
 _atom_site_label
 _atom_site_symmetry_multiplicity
 _atom_site_fract_x
 _atom_site_fract_y
 _atom_site_fract_z
 _atom_site_occupancy
  Dy  Dy0  1  -0.00000000  0.50000000  0.50000000  1
  Dy  Dy1  1  -0.00000000  0.00000000  0.00000000  1
  P  P2  1  0.15569189  0.03997653  0.64863968  1
  P  P3  1  0.84430811  0.96002347  0.35136032  1
  P  P4  1  0.58688265  0.53452524  0.29170946  1
  P  P5  1  0.41311735  0.46547476  0.70829054  1
  P  P6  1  0.67125958  0.74081974  0.91666111  1
  P  P7  1  0.32874042  0.25918026  0.08333889  1
  H  H8  1  0.03117041  0.93467320  0.62048505  1
  H  H9  1  0.41367134  0.93467320  0.62048505  1
  H  H10  1  0.96882959  0.06532680  0.37951495  1
  H  H11  1  0.58632866  0.06532680  0.37951495  1
  H  H12  1  0.67606601  0.47930487  0.16856311  1
  H  H13  1  0.32393399  0.52069513  0.83143689  1
  H  H14  1  0.50241901  0.72124783  0.27391416  1
  H  H15  1  0.49758099  0.27875217  0.72608584  1
  H  H16  1  0.76558055  0.55546486  0.91337404  1
  H  H17  1  0.23441945  0.44453514  0.08662596  1
  H  H18  1  0.70372928  0.80485165  0.78768980  1
  H  H19  1  0.29627072  0.19514835  0.21231020  1
  O  O20  1  0.11885429  0.20555478  0.55673665  1
  O  O21  1  0.88114571  0.79444522  0.44326335  1
  O  O22  1  0.07392597  0.06357442  0.78857364  1
  O  O23  1  0.92607403  0.93642558  0.21142636  1
  O  O24  1  0.83735931  0.79488783  0.97698176  1
  O  O25  1  0.39077110  0.79488783  0.97698176  1
  O  O26  1  0.16264069  0.20511217  0.02301824  1
  O  O27  1  0.60922890  0.20511217  0.02301824  1
  O  O28  1  0.80902745  0.47235044  0.35561423  1
  O  O29  1  0.36300788  0.47235044  0.35561422  1
  O  O30  1  0.19097255  0.52764956  0.64438577  1
  O  O31  1  0.63699212  0.52764956  0.64438578  1
