# generated using pymatgen
data_Pu2Te4Cl2O11
_symmetry_space_group_name_H-M   'P 1'
_cell_length_a   8.16383872
_cell_length_b   9.79072362
_cell_length_c   10.64206840
_cell_angle_alpha   110.46527935
_cell_angle_beta   108.36792900
_cell_angle_gamma   97.41372598
_symmetry_Int_Tables_number   1
_chemical_formula_structural   Pu2Te4Cl2O11
_chemical_formula_sum   'Pu4 Te8 Cl4 O22'
_cell_volume   728.44514372
_cell_formula_units_Z   2
loop_
 _symmetry_equiv_pos_site_id
 _symmetry_equiv_pos_as_xyz
  1  'x, y, z'
loop_
 _atom_site_type_symbol
 _atom_site_label
 _atom_site_symmetry_multiplicity
 _atom_site_fract_x
 _atom_site_fract_y
 _atom_site_fract_z
 _atom_site_occupancy
  Pu  Pu0  1  0.38115020  0.61357672  0.61956975  1
  Pu  Pu1  1  0.61884980  0.38642328  0.38043025  1
  Pu  Pu2  1  0.12443142  0.87626475  0.88090675  1
  Pu  Pu3  1  0.87556858  0.12373525  0.11909325  1
  Te  Te4  1  0.99799036  0.76569295  0.49436158  1
  Te  Te5  1  0.00200964  0.23430705  0.50563842  1
  Te  Te6  1  0.20054762  0.53209344  0.23744420  1
  Te  Te7  1  0.79945238  0.46790656  0.76255580  1
  Te  Te8  1  0.74365224  0.99106621  0.70841801  1
  Te  Te9  1  0.25634776  0.00893379  0.29158199  1
  Te  Te10  1  0.53276542  0.74803912  0.05309510  1
  Te  Te11  1  0.46723458  0.25196088  0.94690490  1
  Cl  Cl12  1  0.90382221  0.63047294  0.12703926  1
  Cl  Cl13  1  0.09617779  0.36952706  0.87296074  1
  Cl  Cl14  1  0.63965958  0.89883022  0.39184949  1
  Cl  Cl15  1  0.36034042  0.10116978  0.60815051  1
  O  O16  1  0.69218406  0.92529956  0.08309018  1
  O  O17  1  0.30781594  0.07470044  0.91690982  1
  O  O18  1  0.05607683  0.33927122  0.17954055  1
  O  O19  1  0.94392317  0.66072878  0.82045945  1
  O  O20  1  0.56631354  0.82188402  0.66667860  1
  O  O21  1  0.43368646  0.17811598  0.33332140  1
  O  O22  1  0.16996769  0.75688706  0.66532047  1
  O  O23  1  0.83003231  0.24311294  0.33467953  1
  O  O24  1  0.92725342  0.89292869  0.66422565  1
  O  O25  1  0.07274658  0.10707131  0.33577435  1
  O  O26  1  0.82034833  0.59088004  0.43768792  1
  O  O27  1  0.17965167  0.40911996  0.56231208  1
  O  O28  1  0.16761376  0.64319530  0.41400007  1
  O  O29  1  0.83238624  0.35680470  0.58599993  1
  O  O30  1  0.89191897  0.00857763  0.89707490  1
  O  O31  1  0.10808103  0.99142237  0.10292510  1
  O  O32  1  0.40174465  0.50893849  0.38187996  1
  O  O33  1  0.59825535  0.49106151  0.61812004  1
  O  O34  1  0.33107983  0.82502225  0.04829420  1
  O  O35  1  0.66892017  0.17497775  0.95170580  1
  O  O36  1  0.46570964  0.65103305  0.84780859  1
  O  O37  1  0.53429036  0.34896695  0.15219141  1
