# generated using pymatgen
data_NdH6(CO3)3
_symmetry_space_group_name_H-M   'P 1'
_cell_length_a   6.08909849
_cell_length_b   7.73397114
_cell_length_c   8.92926930
_cell_angle_alpha   99.07068873
_cell_angle_beta   98.14174020
_cell_angle_gamma   97.72662804
_symmetry_Int_Tables_number   1
_chemical_formula_structural   NdH6(CO3)3
_chemical_formula_sum   'Nd2 H12 C6 O18'
_cell_volume   405.74056342
_cell_formula_units_Z   2
loop_
 _symmetry_equiv_pos_site_id
 _symmetry_equiv_pos_as_xyz
  1  'x, y, z'
loop_
 _atom_site_type_symbol
 _atom_site_label
 _atom_site_symmetry_multiplicity
 _atom_site_fract_x
 _atom_site_fract_y
 _atom_site_fract_z
 _atom_site_occupancy
  Nd  Nd0  1  0.49012397  0.19383145  0.20414329  1
  Nd  Nd1  1  0.50987603  0.80616855  0.79585671  1
  H  H2  1  0.94958783  0.15892518  0.35688541  1
  H  H3  1  0.05041217  0.84107482  0.64311459  1
  H  H4  1  0.85163058  0.24935967  0.50432539  1
  H  H5  1  0.14836942  0.75064033  0.49567461  1
  H  H6  1  0.54559772  0.87107570  0.36034675  1
  H  H7  1  0.45440228  0.12892430  0.63965325  1
  H  H8  1  0.29237175  0.81819081  0.27793038  1
  H  H9  1  0.70762825  0.18180919  0.72206962  1
  H  H10  1  0.87648925  0.45253233  0.78398820  1
  H  H11  1  0.12351075  0.54746767  0.21601180  1
  H  H12  1  0.07915554  0.38629398  0.71059815  1
  H  H13  1  0.92084446  0.61370602  0.28940185  1
  C  C14  1  0.61917070  0.48309358  0.98647192  1
  C  C15  1  0.38082930  0.51690642  0.01352808  1
  C  C16  1  0.94451893  0.02933658  0.07058051  1
  C  C17  1  0.05548107  0.97066342  0.92941949  1
  C  C18  1  0.42167681  0.43320368  0.53267073  1
  C  C19  1  0.57832319  0.56679632  0.46732927  1
  O  O20  1  0.69644201  0.36084001  0.04438323  1
  O  O21  1  0.30355799  0.63915999  0.95561677  1
  O  O22  1  0.73121712  0.99951161  0.05195345  1
  O  O23  1  0.26878288  0.00048839  0.94804655  1
  O  O24  1  0.37458343  0.27506665  0.45842404  1
  O  O25  1  0.62541657  0.72493335  0.54157596  1
  O  O26  1  0.28108032  0.41815117  0.09299679  1
  O  O27  1  0.71891968  0.58184883  0.90700321  1
  O  O28  1  0.07539762  0.10208533  0.19307850  1
  O  O29  1  0.92460238  0.89791467  0.80692150  1
  O  O30  1  0.64642193  0.50937146  0.34426127  1
  O  O31  1  0.35357807  0.49062854  0.65573873  1
  O  O32  1  0.81225756  0.17192860  0.40218732  1
  O  O33  1  0.18774244  0.82807140  0.59781268  1
  O  O34  1  0.43549213  0.89731605  0.27983833  1
  O  O35  1  0.56450787  0.10268395  0.72016167  1
  O  O36  1  0.91603902  0.35718844  0.70901029  1
  O  O37  1  0.08396098  0.64281156  0.29098971  1
