# generated using pymatgen
data_NdH3S2O9
_symmetry_space_group_name_H-M   'P 1'
_cell_length_a   7.04428774
_cell_length_b   8.81577857
_cell_length_c   10.88677018
_cell_angle_alpha   90.82594657
_cell_angle_beta   90.00000000
_cell_angle_gamma   90.00000000
_symmetry_Int_Tables_number   1
_chemical_formula_structural   NdH3S2O9
_chemical_formula_sum   'Nd4 H12 S8 O36'
_cell_volume   676.00777231
_cell_formula_units_Z   4
loop_
 _symmetry_equiv_pos_site_id
 _symmetry_equiv_pos_as_xyz
  1  'x, y, z'
loop_
 _atom_site_type_symbol
 _atom_site_label
 _atom_site_symmetry_multiplicity
 _atom_site_fract_x
 _atom_site_fract_y
 _atom_site_fract_z
 _atom_site_occupancy
  Nd  Nd0  1  0.66830829  0.94252164  0.65211177  1
  Nd  Nd1  1  0.16830829  0.05747836  0.84788823  1
  Nd  Nd2  1  0.33169171  0.05747836  0.34788823  1
  Nd  Nd3  1  0.83169171  0.94252164  0.15211177  1
  H  H4  1  0.06059750  0.64615202  0.34888488  1
  H  H5  1  0.56059750  0.35384798  0.15111512  1
  H  H6  1  0.93940250  0.35384798  0.65111512  1
  H  H7  1  0.43940250  0.64615202  0.84888488  1
  H  H8  1  0.29135880  0.59071091  0.36642754  1
  H  H9  1  0.79135880  0.40928909  0.13357246  1
  H  H10  1  0.70864120  0.40928909  0.63357246  1
  H  H11  1  0.20864120  0.59071091  0.86642754  1
  H  H12  1  0.10850438  0.46783386  0.37814227  1
  H  H13  1  0.60850438  0.53216614  0.12185773  1
  H  H14  1  0.89149562  0.53216614  0.62185773  1
  H  H15  1  0.39149562  0.46783386  0.87814227  1
  S  S16  1  0.65371953  0.72734105  0.41676397  1
  S  S17  1  0.15371953  0.27265895  0.08323603  1
  S  S18  1  0.34628047  0.27265895  0.58323603  1
  S  S19  1  0.84628047  0.72734105  0.91676397  1
  S  S20  1  0.66236905  0.18360696  0.88806853  1
  S  S21  1  0.16236905  0.81639304  0.61193147  1
  S  S22  1  0.33763095  0.81639304  0.11193147  1
  S  S23  1  0.83763095  0.18360696  0.38806853  1
  O  O24  1  0.51228744  0.61590988  0.37769269  1
  O  O25  1  0.01228744  0.38409012  0.12230731  1
  O  O26  1  0.48771256  0.38409012  0.62230731  1
  O  O27  1  0.98771256  0.61590988  0.87769269  1
  O  O28  1  0.73876901  0.69514352  0.53937166  1
  O  O29  1  0.23876901  0.30485648  0.96062834  1
  O  O30  1  0.26123099  0.30485648  0.46062834  1
  O  O31  1  0.76123099  0.69514352  0.03937166  1
  O  O32  1  0.56211279  0.88148551  0.43924839  1
  O  O33  1  0.06211279  0.11851449  0.06075161  1
  O  O34  1  0.43788721  0.11851449  0.56075161  1
  O  O35  1  0.93788721  0.88148551  0.93924839  1
  O  O36  1  0.80725586  0.74550708  0.32295446  1
  O  O37  1  0.30725586  0.25449292  0.17704554  1
  O  O38  1  0.19274414  0.25449292  0.67704554  1
  O  O39  1  0.69274414  0.74550708  0.82295446  1
  O  O40  1  0.62709572  0.34531433  0.88941285  1
  O  O41  1  0.12709572  0.65468567  0.61058715  1
  O  O42  1  0.37290428  0.65468567  0.11058715  1
  O  O43  1  0.87290428  0.34531433  0.38941285  1
  O  O44  1  0.83592655  0.14298415  0.81122351  1
  O  O45  1  0.33592655  0.85701585  0.68877649  1
  O  O46  1  0.16407345  0.85701585  0.18877649  1
  O  O47  1  0.66407345  0.14298415  0.31122351  1
  O  O48  1  0.50796002  0.09537453  0.81887912  1
  O  O49  1  0.00796002  0.90462547  0.68112088  1
  O  O50  1  0.49203998  0.90462547  0.18112088  1
  O  O51  1  0.99203998  0.09537453  0.31887912  1
  O  O52  1  0.67437926  0.12230792  0.01358090  1
  O  O53  1  0.17437926  0.87769208  0.48641910  1
  O  O54  1  0.32562074  0.87769208  0.98641910  1
  O  O55  1  0.82562074  0.12230792  0.51358090  1
  O  O56  1  0.15518152  0.56328055  0.34049498  1
  O  O57  1  0.65518152  0.43671945  0.15950502  1
  O  O58  1  0.84481848  0.43671945  0.65950502  1
  O  O59  1  0.34481848  0.56328055  0.84049498  1
