# generated using pymatgen
data_MoH12C2(N3O2)2
_symmetry_space_group_name_H-M   'P 1'
_cell_length_a   6.64883841
_cell_length_b   6.91018809
_cell_length_c   11.28784810
_cell_angle_alpha   90.00000000
_cell_angle_beta   98.02339605
_cell_angle_gamma   90.00000000
_symmetry_Int_Tables_number   1
_chemical_formula_structural   MoH12C2(N3O2)2
_chemical_formula_sum   'Mo2 H24 C4 N12 O8'
_cell_volume   513.54040406
_cell_formula_units_Z   2
loop_
 _symmetry_equiv_pos_site_id
 _symmetry_equiv_pos_as_xyz
  1  'x, y, z'
loop_
 _atom_site_type_symbol
 _atom_site_label
 _atom_site_symmetry_multiplicity
 _atom_site_fract_x
 _atom_site_fract_y
 _atom_site_fract_z
 _atom_site_occupancy
  Mo  Mo0  1  0.76100226  0.75000000  0.75099893  1
  Mo  Mo1  1  0.23899774  0.25000000  0.24900107  1
  H  H2  1  0.31226712  0.62408334  0.12965566  1
  H  H3  1  0.68773288  0.12408334  0.87034434  1
  H  H4  1  0.68773288  0.37591666  0.87034434  1
  H  H5  1  0.31226712  0.87591666  0.12965566  1
  H  H6  1  0.61385400  0.45576903  0.13588848  1
  H  H7  1  0.38614600  0.95576903  0.86411152  1
  H  H8  1  0.38614600  0.54423097  0.86411152  1
  H  H9  1  0.61385400  0.04423097  0.13588848  1
  H  H10  1  0.84394590  0.57149399  0.12809577  1
  H  H11  1  0.15605410  0.07149399  0.87190423  1
  H  H12  1  0.15605410  0.42850601  0.87190423  1
  H  H13  1  0.84394590  0.92850601  0.12809577  1
  H  H14  1  0.12317739  0.62464870  0.33436161  1
  H  H15  1  0.87682261  0.12464870  0.66563839  1
  H  H16  1  0.87682261  0.37535130  0.66563839  1
  H  H17  1  0.12317739  0.87535130  0.33436161  1
  H  H18  1  0.24182781  0.45441030  0.51010058  1
  H  H19  1  0.75817219  0.95441030  0.48989942  1
  H  H20  1  0.75817219  0.54558970  0.48989942  1
  H  H21  1  0.24182781  0.04558970  0.51010058  1
  H  H22  1  0.32847777  0.58863703  0.64146722  1
  H  H23  1  0.67152223  0.08863703  0.35853278  1
  H  H24  1  0.67152223  0.41136297  0.35853278  1
  H  H25  1  0.32847777  0.91136297  0.64146722  1
  C  C26  1  0.59108286  0.75000000  0.11944287  1
  C  C27  1  0.40891714  0.25000000  0.88055713  1
  C  C28  1  0.21368724  0.75000000  0.49908285  1
  C  C29  1  0.78631276  0.25000000  0.50091715  1
  N  N30  1  0.38956925  0.75000000  0.11906756  1
  N  N31  1  0.61043075  0.25000000  0.88093244  1
  N  N32  1  0.68850075  0.58017969  0.11699178  1
  N  N33  1  0.31149925  0.08017969  0.88300822  1
  N  N34  1  0.31149925  0.41982031  0.88300822  1
  N  N35  1  0.68850075  0.91982031  0.11699178  1
  N  N36  1  0.13631779  0.75000000  0.38301394  1
  N  N37  1  0.86368221  0.25000000  0.61698606  1
  N  N38  1  0.24823203  0.58213300  0.55775866  1
  N  N39  1  0.75176797  0.08213300  0.44224134  1
  N  N40  1  0.75176797  0.41786700  0.44224134  1
  N  N41  1  0.24823203  0.91786700  0.55775866  1
  O  O42  1  0.50111694  0.75000000  0.78351777  1
  O  O43  1  0.49888306  0.25000000  0.21648223  1
  O  O44  1  0.75444636  0.75000000  0.59165018  1
  O  O45  1  0.24555364  0.25000000  0.40834982  1
  O  O46  1  0.88511865  0.53355533  0.81177542  1
  O  O47  1  0.11488135  0.03355533  0.18822458  1
  O  O48  1  0.11488135  0.46644467  0.18822458  1
  O  O49  1  0.88511865  0.96644467  0.81177542  1
