# generated using pymatgen
data_CoAs2S4(O2F3)4
_symmetry_space_group_name_H-M   'P 1'
_cell_length_a   8.81908929
_cell_length_b   14.01171407
_cell_length_c   15.34401107
_cell_angle_alpha   90.00000000
_cell_angle_beta   98.75806916
_cell_angle_gamma   90.00000000
_symmetry_Int_Tables_number   1
_chemical_formula_structural   CoAs2S4(O2F3)4
_chemical_formula_sum   'Co4 As8 S16 O32 F48'
_cell_volume   1873.95999480
_cell_formula_units_Z   4
loop_
 _symmetry_equiv_pos_site_id
 _symmetry_equiv_pos_as_xyz
  1  'x, y, z'
loop_
 _atom_site_type_symbol
 _atom_site_label
 _atom_site_symmetry_multiplicity
 _atom_site_fract_x
 _atom_site_fract_y
 _atom_site_fract_z
 _atom_site_occupancy
  Co  Co0  1  0.77441221  0.18696096  0.25727225  1
  Co  Co1  1  0.22558779  0.68696096  0.24272775  1
  Co  Co2  1  0.22558779  0.81303904  0.74272775  1
  Co  Co3  1  0.77441221  0.31303904  0.75727225  1
  As  As4  1  0.58970011  0.38605473  0.36837797  1
  As  As5  1  0.41029989  0.88605473  0.13162203  1
  As  As6  1  0.41029989  0.61394527  0.63162203  1
  As  As7  1  0.58970011  0.11394527  0.86837797  1
  As  As8  1  0.96370777  0.35304812  0.10927218  1
  As  As9  1  0.03629223  0.85304812  0.39072782  1
  As  As10  1  0.03629223  0.64695188  0.89072782  1
  As  As11  1  0.96370777  0.14695188  0.60927218  1
  S  S12  1  0.42480610  0.20132749  0.11263119  1
  S  S13  1  0.57519390  0.70132749  0.38736881  1
  S  S14  1  0.57519390  0.79867251  0.88736881  1
  S  S15  1  0.42480610  0.29867251  0.61263119  1
  S  S16  1  0.62541848  0.02613874  0.39307173  1
  S  S17  1  0.37458152  0.52613874  0.10692827  1
  S  S18  1  0.37458152  0.97386126  0.60692827  1
  S  S19  1  0.62541848  0.47386126  0.89307173  1
  S  S20  1  0.15347761  0.17232644  0.34288876  1
  S  S21  1  0.84652239  0.67232644  0.15711124  1
  S  S22  1  0.84652239  0.82767356  0.65711124  1
  S  S23  1  0.15347761  0.32767356  0.84288876  1
  S  S24  1  0.90894978  0.03225158  0.10539023  1
  S  S25  1  0.09105022  0.53225158  0.39460977  1
  S  S26  1  0.09105022  0.96774842  0.89460977  1
  S  S27  1  0.90894978  0.46774842  0.60539023  1
  O  O28  1  0.55780517  0.18527202  0.18024771  1
  O  O29  1  0.44219483  0.68527202  0.31975229  1
  O  O30  1  0.44219483  0.81472798  0.81975229  1
  O  O31  1  0.55780517  0.31472798  0.68024771  1
  O  O32  1  0.41354154  0.29202944  0.06815396  1
  O  O33  1  0.58645846  0.79202944  0.43184604  1
  O  O34  1  0.58645846  0.70797056  0.93184604  1
  O  O35  1  0.41354154  0.20797056  0.56815396  1
  O  O36  1  0.71316784  0.07734534  0.33418987  1
  O  O37  1  0.28683216  0.57734534  0.16581013  1
  O  O38  1  0.28683216  0.92265466  0.66581013  1
  O  O39  1  0.71316784  0.42265466  0.83418987  1
  O  O40  1  0.48317393  0.06843254  0.40840029  1
  O  O41  1  0.51682607  0.56843254  0.09159971  1
  O  O42  1  0.51682607  0.93156746  0.59159971  1
  O  O43  1  0.48317393  0.43156746  0.90840029  1
  O  O44  1  0.98829843  0.18934493  0.33758333  1
  O  O45  1  0.01170157  0.68934493  0.16241667  1
  O  O46  1  0.01170157  0.81065507  0.66241667  1
  O  O47  1  0.98829843  0.31065507  0.83758333  1
  O  O48  1  0.20737071  0.14286480  0.26299643  1
  O  O49  1  0.79262929  0.64286480  0.23700357  1
  O  O50  1  0.79262929  0.85713520  0.73700357  1
  O  O51  1  0.20737071  0.35713520  0.76299643  1
  O  O52  1  0.84245699  0.07930996  0.17575475  1
  O  O53  1  0.15754301  0.57930996  0.32424525  1
  O  O54  1  0.15754301  0.92069004  0.82424525  1
  O  O55  1  0.84245699  0.42069004  0.67575475  1
  O  O56  1  0.87518629  0.93243056  0.09219467  1
  O  O57  1  0.12481371  0.43243056  0.40780533  1
  O  O58  1  0.12481371  0.06756944  0.90780533  1
  O  O59  1  0.87518629  0.56756944  0.59219467  1
  F  F60  1  0.71364061  0.28574540  0.34481977  1
  F  F61  1  0.28635939  0.78574540  0.15518023  1
  F  F62  1  0.28635939  0.71425460  0.65518023  1
  F  F63  1  0.71364061  0.21425460  0.84481977  1
  F  F64  1  0.63876493  0.35846806  0.48186699  1
  F  F65  1  0.36123507  0.85846806  0.01813301  1
  F  F66  1  0.36123507  0.64153194  0.51813301  1
  F  F67  1  0.63876493  0.14153194  0.98186699  1
  F  F68  1  0.47318389  0.48135023  0.39126466  1
  F  F69  1  0.52681611  0.98135023  0.10873534  1
  F  F70  1  0.52681611  0.51864977  0.60873534  1
  F  F71  1  0.47318389  0.01864977  0.89126466  1
  F  F72  1  0.43610370  0.30462146  0.36058389  1
  F  F73  1  0.56389630  0.80462146  0.13941611  1
  F  F74  1  0.56389630  0.69537854  0.63941611  1
  F  F75  1  0.43610370  0.19537854  0.86058389  1
  F  F76  1  0.75296642  0.46053094  0.37688815  1
  F  F77  1  0.24703358  0.96053094  0.12311185  1
  F  F78  1  0.24703358  0.53946906  0.62311185  1
  F  F79  1  0.75296642  0.03946906  0.87688815  1
  F  F80  1  0.55013598  0.40756280  0.25370325  1
  F  F81  1  0.44986402  0.90756280  0.24629675  1
  F  F82  1  0.44986402  0.59243720  0.74629675  1
  F  F83  1  0.55013598  0.09243720  0.75370325  1
  F  F84  1  0.79951362  0.35712319  0.02790755  1
  F  F85  1  0.20048638  0.85712319  0.47209245  1
  F  F86  1  0.20048638  0.64287681  0.97209245  1
  F  F87  1  0.79951362  0.14287681  0.52790755  1
  F  F88  1  0.84223617  0.29533528  0.18328352  1
  F  F89  1  0.15776383  0.79533528  0.31671648  1
  F  F90  1  0.15776383  0.70466472  0.81671648  1
  F  F91  1  0.84223617  0.20466472  0.68328352  1
  F  F92  1  0.11832168  0.34618136  0.19665984  1
  F  F93  1  0.88167832  0.84618136  0.30334016  1
  F  F94  1  0.88167832  0.65381864  0.80334016  1
  F  F95  1  0.11832168  0.15381864  0.69665984  1
  F  F96  1  0.07864078  0.40648182  0.03904706  1
  F  F97  1  0.92135922  0.90648182  0.46095294  1
  F  F98  1  0.92135922  0.59351818  0.96095294  1
  F  F99  1  0.07864078  0.09351818  0.53904706  1
  F  F100  1  0.00718843  0.23755731  0.07434932  1
  F  F101  1  0.99281157  0.73755731  0.42565068  1
  F  F102  1  0.99281157  0.76244269  0.92565068  1
  F  F103  1  0.00718843  0.26244269  0.57434932  1
  F  F104  1  0.91112606  0.46400499  0.15013096  1
  F  F105  1  0.08887394  0.96400499  0.34986904  1
  F  F106  1  0.08887394  0.53599501  0.84986904  1
  F  F107  1  0.91112606  0.03599501  0.65013096  1
