# generated using pymatgen
data_YH6C2SNO9
_symmetry_space_group_name_H-M   'P 1'
_cell_length_a   6.58861533
_cell_length_b   8.74014678
_cell_length_c   13.96619546
_cell_angle_alpha   90.00000000
_cell_angle_beta   93.94599328
_cell_angle_gamma   90.00000000
_symmetry_Int_Tables_number   1
_chemical_formula_structural   YH6C2SNO9
_chemical_formula_sum   'Y4 H24 C8 S4 N4 O36'
_cell_volume   802.34327291
_cell_formula_units_Z   4
loop_
 _symmetry_equiv_pos_site_id
 _symmetry_equiv_pos_as_xyz
  1  'x, y, z'
loop_
 _atom_site_type_symbol
 _atom_site_label
 _atom_site_symmetry_multiplicity
 _atom_site_fract_x
 _atom_site_fract_y
 _atom_site_fract_z
 _atom_site_occupancy
  Y  Y0  1  0.24744548  0.23574235  0.90831607  1
  Y  Y1  1  0.74744548  0.26425765  0.40831607  1
  Y  Y2  1  0.75255452  0.76425765  0.09168393  1
  Y  Y3  1  0.25255452  0.73574235  0.59168393  1
  H  H4  1  0.35707179  0.46926106  0.06933971  1
  H  H5  1  0.85707179  0.03073894  0.56933971  1
  H  H6  1  0.64292821  0.53073894  0.93066029  1
  H  H7  1  0.14292821  0.96926106  0.43066029  1
  H  H8  1  0.11968112  0.46145001  0.06535221  1
  H  H9  1  0.61968112  0.03854999  0.56535221  1
  H  H10  1  0.88031888  0.53854999  0.93464779  1
  H  H11  1  0.38031888  0.96145001  0.43464779  1
  H  H12  1  0.58371225  0.30573190  0.66351436  1
  H  H13  1  0.08371225  0.19426810  0.16351436  1
  H  H14  1  0.41628775  0.69426810  0.33648564  1
  H  H15  1  0.91628775  0.80573190  0.83648564  1
  H  H16  1  0.82430277  0.24511766  0.70554064  1
  H  H17  1  0.32430277  0.25488234  0.20554064  1
  H  H18  1  0.17569723  0.75488234  0.29445936  1
  H  H19  1  0.67569723  0.74511766  0.79445936  1
  H  H20  1  0.70663835  0.38369528  0.76123770  1
  H  H21  1  0.20663835  0.11630472  0.26123770  1
  H  H22  1  0.29336165  0.61630472  0.23876230  1
  H  H23  1  0.79336165  0.88369528  0.73876230  1
  H  H24  1  0.79029967  0.41855812  0.65271963  1
  H  H25  1  0.29029967  0.08144188  0.15271963  1
  H  H26  1  0.20970033  0.58144188  0.34728037  1
  H  H27  1  0.70970033  0.91855812  0.84728037  1
  C  C28  1  0.36638636  0.52907442  0.77918983  1
  C  C29  1  0.86638636  0.97092558  0.27918983  1
  C  C30  1  0.63361364  0.47092558  0.22081017  1
  C  C31  1  0.13361364  0.02907442  0.72081017  1
  C  C32  1  0.13324953  0.52299531  0.76752073  1
  C  C33  1  0.63324953  0.97700469  0.26752073  1
  C  C34  1  0.86675047  0.47700469  0.23247927  1
  C  C35  1  0.36675047  0.02299531  0.73247927  1
  S  S36  1  0.23551469  0.83502112  0.97803011  1
  S  S37  1  0.73551469  0.66497888  0.47803011  1
  S  S38  1  0.76448531  0.16497888  0.02196989  1
  S  S39  1  0.26448531  0.33502112  0.52196989  1
  N  N40  1  0.72676762  0.33707261  0.69485876  1
  N  N41  1  0.22676762  0.16292739  0.19485876  1
  N  N42  1  0.27323238  0.66292739  0.30514124  1
  N  N43  1  0.77323238  0.83707261  0.80514124  1
  O  O44  1  0.24756055  0.00507487  0.99167162  1
  O  O45  1  0.74756055  0.49492513  0.49167162  1
  O  O46  1  0.75243945  0.99492513  0.00832838  1
  O  O47  1  0.25243945  0.50507487  0.50832838  1
  O  O48  1  0.17891605  0.79842850  0.87620316  1
  O  O49  1  0.67891605  0.70157150  0.37620316  1
  O  O50  1  0.82108395  0.20157150  0.12379684  1
  O  O51  1  0.32108395  0.29842850  0.62379684  1
  O  O52  1  0.43620851  0.76520552  0.00702343  1
  O  O53  1  0.93620851  0.73479448  0.50702343  1
  O  O54  1  0.56379149  0.23479448  0.99297657  1
  O  O55  1  0.06379149  0.26520552  0.49297657  1
  O  O56  1  0.08153233  0.77152396  0.04051705  1
  O  O57  1  0.58153233  0.72847604  0.54051705  1
  O  O58  1  0.91846767  0.22847604  0.95948295  1
  O  O59  1  0.41846767  0.27152396  0.45948295  1
  O  O60  1  0.45354600  0.44096801  0.84216526  1
  O  O61  1  0.95354600  0.05903199  0.34216526  1
  O  O62  1  0.54645400  0.55903199  0.15783474  1
  O  O63  1  0.04645400  0.94096801  0.65783474  1
  O  O64  1  0.45542504  0.62027627  0.72551869  1
  O  O65  1  0.95542504  0.87972373  0.22551869  1
  O  O66  1  0.54457496  0.37972373  0.27448131  1
  O  O67  1  0.04457496  0.12027627  0.77448131  1
  O  O68  1  0.04662926  0.43933943  0.82720836  1
  O  O69  1  0.54662926  0.06066057  0.32720836  1
  O  O70  1  0.95337074  0.56066057  0.17279164  1
  O  O71  1  0.45337074  0.93933943  0.67279164  1
  O  O72  1  0.04691022  0.60027699  0.69992597  1
  O  O73  1  0.54691022  0.89972301  0.19992597  1
  O  O74  1  0.95308978  0.39972301  0.30007403  1
  O  O75  1  0.45308978  0.10027699  0.80007403  1
  O  O76  1  0.23872328  0.41231118  0.04024912  1
  O  O77  1  0.73872328  0.08768882  0.54024912  1
  O  O78  1  0.76127672  0.58768882  0.95975088  1
  O  O79  1  0.26127672  0.91231118  0.45975088  1
