# generated using pymatgen
data_Yb2B6Os
_symmetry_space_group_name_H-M   'P 1'
_cell_length_a   3.66681186
_cell_length_b   9.08505320
_cell_length_c   11.35591624
_cell_angle_alpha   90.00000000
_cell_angle_beta   90.00000000
_cell_angle_gamma   90.00000000
_symmetry_Int_Tables_number   1
_chemical_formula_structural   Yb2B6Os
_chemical_formula_sum   'Yb8 B24 Os4'
_cell_volume   378.30169111
_cell_formula_units_Z   4
loop_
 _symmetry_equiv_pos_site_id
 _symmetry_equiv_pos_as_xyz
  1  'x, y, z'
loop_
 _atom_site_type_symbol
 _atom_site_label
 _atom_site_symmetry_multiplicity
 _atom_site_fract_x
 _atom_site_fract_y
 _atom_site_fract_z
 _atom_site_occupancy
  Yb  Yb0  1  0.00000000  0.32732698  0.41275665  1
  Yb  Yb1  1  -0.00000000  0.67267302  0.58724335  1
  Yb  Yb2  1  0.00000000  0.82732698  0.08724335  1
  Yb  Yb3  1  -0.00000000  0.17267302  0.91275665  1
  Yb  Yb4  1  0.00000000  0.94466818  0.36932108  1
  Yb  Yb5  1  -0.00000000  0.05533182  0.63067892  1
  Yb  Yb6  1  0.00000000  0.44466818  0.13067892  1
  Yb  Yb7  1  -0.00000000  0.55533182  0.86932108  1
  B  B8  1  0.50000000  0.55427897  0.43292380  1
  B  B9  1  0.50000000  0.44572103  0.56707620  1
  B  B10  1  0.50000000  0.05427897  0.06707620  1
  B  B11  1  0.50000000  0.94572103  0.93292380  1
  B  B12  1  0.50000000  0.75124557  0.41857119  1
  B  B13  1  0.50000000  0.24875443  0.58142881  1
  B  B14  1  0.50000000  0.25124557  0.08142881  1
  B  B15  1  0.50000000  0.74875443  0.91857119  1
  B  B16  1  0.50000000  0.79534455  0.26437880  1
  B  B17  1  0.50000000  0.20465545  0.73562120  1
  B  B18  1  0.50000000  0.29534455  0.23562120  1
  B  B19  1  0.50000000  0.70465545  0.76437880  1
  B  B20  1  0.50000000  0.63347098  0.18522877  1
  B  B21  1  0.50000000  0.36652902  0.81477123  1
  B  B22  1  0.50000000  0.13347098  0.31477123  1
  B  B23  1  0.50000000  0.86652902  0.68522877  1
  B  B24  1  0.50000000  0.98446311  0.21200824  1
  B  B25  1  0.50000000  0.01553689  0.78799176  1
  B  B26  1  0.50000000  0.48446311  0.28799176  1
  B  B27  1  0.50000000  0.51553689  0.71200824  1
  B  B28  1  0.50000000  0.59676790  0.02625100  1
  B  B29  1  0.50000000  0.40323210  0.97374900  1
  B  B30  1  0.50000000  0.09676790  0.47374900  1
  B  B31  1  0.50000000  0.90323210  0.52625100  1
  Os  Os32  1  0.00000000  0.64251922  0.32046638  1
  Os  Os33  1  0.00000000  0.35748078  0.67953362  1
  Os  Os34  1  -0.00000000  0.14251922  0.17953362  1
  Os  Os35  1  0.00000000  0.85748078  0.82046638  1
