# generated using pymatgen
data_Pr6Fe13As
_symmetry_space_group_name_H-M   'P 1'
_cell_length_a   8.01626181
_cell_length_b   8.01626181
_cell_length_c   12.89300860
_cell_angle_alpha   108.11205109
_cell_angle_beta   108.11205109
_cell_angle_gamma   90.00000000
_symmetry_Int_Tables_number   1
_chemical_formula_structural   Pr6Fe13As
_chemical_formula_sum   'Pr12 Fe26 As2'
_cell_volume   744.14447435
_cell_formula_units_Z   2
loop_
 _symmetry_equiv_pos_site_id
 _symmetry_equiv_pos_as_xyz
  1  'x, y, z'
loop_
 _atom_site_type_symbol
 _atom_site_label
 _atom_site_symmetry_multiplicity
 _atom_site_fract_x
 _atom_site_fract_y
 _atom_site_fract_z
 _atom_site_occupancy
  Pr  Pr0  1  0.60693153  0.60693153  0.21386305  1
  Pr  Pr1  1  0.10693153  0.10693153  0.21386305  1
  Pr  Pr2  1  0.39306847  0.39306847  0.78613695  1
  Pr  Pr3  1  0.89306847  0.89306847  0.78613695  1
  Pr  Pr4  1  0.97702470  0.47702470  0.62414133  1
  Pr  Pr5  1  0.64711664  0.14711664  0.62414133  1
  Pr  Pr6  1  0.14711664  0.97702470  0.62414133  1
  Pr  Pr7  1  0.47702470  0.64711664  0.62414133  1
  Pr  Pr8  1  0.02297530  0.52297530  0.37585867  1
  Pr  Pr9  1  0.35288336  0.85288336  0.37585867  1
  Pr  Pr10  1  0.85288336  0.02297530  0.37585867  1
  Pr  Pr11  1  0.52297530  0.35288336  0.37585867  1
  Fe  Fe12  1  -0.00000000  0.50000000  -0.00000000  1
  Fe  Fe13  1  0.50000000  -0.00000000  -0.00000000  1
  Fe  Fe14  1  0.70932228  0.56627649  1.00000000  1
  Fe  Fe15  1  0.29067772  0.43372351  0.00000000  1
  Fe  Fe16  1  0.79067772  0.06627649  0.00000000  1
  Fe  Fe17  1  0.20932228  0.93372351  1.00000000  1
  Fe  Fe18  1  0.56627649  0.29067772  0.00000000  1
  Fe  Fe19  1  0.43372351  0.70932228  1.00000000  1
  Fe  Fe20  1  0.06627649  0.20932228  1.00000000  1
  Fe  Fe21  1  0.93372351  0.79067772  0.00000000  1
  Fe  Fe22  1  0.11990267  0.61990267  0.88174294  1
  Fe  Fe23  1  0.76184027  0.26184027  0.88174294  1
  Fe  Fe24  1  0.26184027  0.11990267  0.88174294  1
  Fe  Fe25  1  0.61990267  0.76184027  0.88174294  1
  Fe  Fe26  1  0.88009733  0.38009733  0.11825706  1
  Fe  Fe27  1  0.23815973  0.73815973  0.11825706  1
  Fe  Fe28  1  0.73815973  0.88009733  0.11825706  1
  Fe  Fe29  1  0.38009733  0.23815973  0.11825706  1
  Fe  Fe30  1  0.29271511  0.79271511  0.81133558  1
  Fe  Fe31  1  0.51862046  0.01862046  0.81133558  1
  Fe  Fe32  1  0.01862046  0.29271511  0.81133558  1
  Fe  Fe33  1  0.79271511  0.51862046  0.81133558  1
  Fe  Fe34  1  0.70728489  0.20728489  0.18866442  1
  Fe  Fe35  1  0.48137954  0.98137954  0.18866442  1
  Fe  Fe36  1  0.98137954  0.70728489  0.18866442  1
  Fe  Fe37  1  0.20728489  0.48137954  0.18866442  1
  As  As38  1  0.25000000  0.25000000  0.50000000  1
  As  As39  1  0.75000000  0.75000000  0.50000000  1
