# generated using pymatgen
data_Ce5(Sn5Rh2)2
_symmetry_space_group_name_H-M   'P 1'
_cell_length_a   4.62242208
_cell_length_b   14.11509197
_cell_length_c   14.11509197
_cell_angle_alpha   90.00000000
_cell_angle_beta   90.00000000
_cell_angle_gamma   90.00000000
_symmetry_Int_Tables_number   1
_chemical_formula_structural   Ce5(Sn5Rh2)2
_chemical_formula_sum   'Ce10 Sn20 Rh8'
_cell_volume   920.95205960
_cell_formula_units_Z   2
loop_
 _symmetry_equiv_pos_site_id
 _symmetry_equiv_pos_as_xyz
  1  'x, y, z'
loop_
 _atom_site_type_symbol
 _atom_site_label
 _atom_site_symmetry_multiplicity
 _atom_site_fract_x
 _atom_site_fract_y
 _atom_site_fract_z
 _atom_site_occupancy
  Ce  Ce0  1  -0.00000000  0.50000000  0.50000000  1
  Ce  Ce1  1  -0.00000000  -0.00000000  0.00000000  1
  Ce  Ce2  1  0.50000000  0.17635407  0.67635407  1
  Ce  Ce3  1  0.50000000  0.82364593  0.32364593  1
  Ce  Ce4  1  0.50000000  0.32364593  0.17635407  1
  Ce  Ce5  1  0.50000000  0.67635407  0.82364593  1
  Ce  Ce6  1  0.50000000  0.38928875  0.88928875  1
  Ce  Ce7  1  0.50000000  0.61071125  0.11071125  1
  Ce  Ce8  1  0.50000000  0.11071125  0.38928875  1
  Ce  Ce9  1  0.50000000  0.88928875  0.61071125  1
  Sn  Sn10  1  -0.00000000  0.06861372  0.56861372  1
  Sn  Sn11  1  0.00000000  0.93138628  0.43138628  1
  Sn  Sn12  1  0.00000000  0.43138628  0.06861372  1
  Sn  Sn13  1  -0.00000000  0.56861372  0.93138628  1
  Sn  Sn14  1  0.00000000  0.69951992  0.65433079  1
  Sn  Sn15  1  -0.00000000  0.30048008  0.34566921  1
  Sn  Sn16  1  -0.00000000  0.80048008  0.15433079  1
  Sn  Sn17  1  0.00000000  0.19951992  0.84566921  1
  Sn  Sn18  1  -0.00000000  0.65433079  0.30048008  1
  Sn  Sn19  1  0.00000000  0.34566921  0.69951992  1
  Sn  Sn20  1  -0.00000000  0.15433079  0.19951992  1
  Sn  Sn21  1  0.00000000  0.84566921  0.80048008  1
  Sn  Sn22  1  0.50000000  0.50403322  0.66116303  1
  Sn  Sn23  1  0.50000000  0.49596678  0.33883697  1
  Sn  Sn24  1  0.50000000  0.99596678  0.16116303  1
  Sn  Sn25  1  0.50000000  0.00403322  0.83883697  1
  Sn  Sn26  1  0.50000000  0.66116303  0.49596678  1
  Sn  Sn27  1  0.50000000  0.33883697  0.50403322  1
  Sn  Sn28  1  0.50000000  0.16116303  0.00403322  1
  Sn  Sn29  1  0.50000000  0.83883697  0.99596678  1
  Rh  Rh30  1  0.00000000  0.52915489  0.74665649  1
  Rh  Rh31  1  -0.00000000  0.47084511  0.25334351  1
  Rh  Rh32  1  -0.00000000  0.97084511  0.24665649  1
  Rh  Rh33  1  0.00000000  0.02915489  0.75334351  1
  Rh  Rh34  1  0.00000000  0.74665649  0.47084511  1
  Rh  Rh35  1  -0.00000000  0.25334351  0.52915489  1
  Rh  Rh36  1  0.00000000  0.24665649  0.02915489  1
  Rh  Rh37  1  -0.00000000  0.75334351  0.97084511  1
