# generated using pymatgen
data_GeSb2H16C4(S3N)2
_symmetry_space_group_name_H-M   'P 1'
_cell_length_a   11.35052531
_cell_length_b   11.35052531
_cell_length_c   13.97798127
_cell_angle_alpha   90.00000000
_cell_angle_beta   90.00000000
_cell_angle_gamma   90.00000000
_symmetry_Int_Tables_number   1
_chemical_formula_structural   GeSb2H16C4(S3N)2
_chemical_formula_sum   'Ge4 Sb8 H64 C16 S24 N8'
_cell_volume   1800.84517697
_cell_formula_units_Z   4
loop_
 _symmetry_equiv_pos_site_id
 _symmetry_equiv_pos_as_xyz
  1  'x, y, z'
loop_
 _atom_site_type_symbol
 _atom_site_label
 _atom_site_symmetry_multiplicity
 _atom_site_fract_x
 _atom_site_fract_y
 _atom_site_fract_z
 _atom_site_occupancy
  Ge  Ge0  1  0.76826775  0.23173225  0.75000000  1
  Ge  Ge1  1  0.23173225  0.76826775  0.25000000  1
  Ge  Ge2  1  0.73173225  0.73173225  0.50000000  1
  Ge  Ge3  1  0.26826775  0.26826775  -0.00000000  1
  Sb  Sb4  1  0.00903494  0.39685977  0.87420952  1
  Sb  Sb5  1  0.99096506  0.60314023  0.37420952  1
  Sb  Sb6  1  0.89685977  0.49096506  0.62420952  1
  Sb  Sb7  1  0.10314023  0.50903494  0.12420952  1
  Sb  Sb8  1  0.60314023  0.99096506  0.62579048  1
  Sb  Sb9  1  0.39685977  0.00903494  0.12579048  1
  Sb  Sb10  1  0.49096506  0.89685977  0.37579048  1
  Sb  Sb11  1  0.50903494  0.10314023  0.87579048  1
  H  H12  1  0.81410702  0.11814325  0.97838003  1
  H  H13  1  0.18589298  0.88185675  0.47838003  1
  H  H14  1  0.61814325  0.68589298  0.72838003  1
  H  H15  1  0.38185675  0.31410702  0.22838003  1
  H  H16  1  0.88185675  0.18589298  0.52161997  1
  H  H17  1  0.11814325  0.81410702  0.02161997  1
  H  H18  1  0.68589298  0.61814325  0.27161997  1
  H  H19  1  0.31410702  0.38185675  0.77161997  1
  H  H20  1  0.93170742  0.17866517  0.03636884  1
  H  H21  1  0.06829258  0.82133483  0.53636884  1
  H  H22  1  0.67866517  0.56829258  0.78636884  1
  H  H23  1  0.32133483  0.43170742  0.28636884  1
  H  H24  1  0.82133483  0.06829258  0.46363116  1
  H  H25  1  0.17866517  0.93170742  0.96363116  1
  H  H26  1  0.56829258  0.67866517  0.21363116  1
  H  H27  1  0.43170742  0.32133483  0.71363116  1
  H  H28  1  0.91990133  0.97205553  0.07249926  1
  H  H29  1  0.08009867  0.02794447  0.57249926  1
  H  H30  1  0.47205553  0.58009867  0.82249926  1
  H  H31  1  0.52794447  0.41990133  0.32249926  1
  H  H32  1  0.02794447  0.08009867  0.42750074  1
  H  H33  1  0.97205553  0.91990133  0.92750074  1
  H  H34  1  0.58009867  0.47205553  0.17750074  1
  H  H35  1  0.41990133  0.52794447  0.67750074  1
  H  H36  1  0.77472212  0.99623832  0.12022136  1
  H  H37  1  0.22527788  0.00376168  0.62022136  1
  H  H38  1  0.49623832  0.72527788  0.87022136  1
  H  H39  1  0.50376168  0.27472212  0.37022136  1
  H  H40  1  0.00376168  0.22527788  0.37977864  1
  H  H41  1  0.99623832  0.77472212  0.87977864  1
  H  H42  1  0.72527788  0.49623832  0.12977864  1
  H  H43  1  0.27472212  0.50376168  0.62977864  1
  H  H44  1  0.90175954  0.06112265  0.17592233  1
  H  H45  1  0.09824046  0.93887735  0.67592233  1
  H  H46  1  0.56112265  0.59824046  0.92592233  1
  H  H47  1  0.43887735  0.40175954  0.42592233  1
  H  H48  1  0.93887735  0.09824046  0.32407767  1
  H  H49  1  0.06112265  0.90175954  0.82407767  1
  H  H50  1  0.59824046  0.56112265  0.07407767  1
  H  H51  1  0.40175954  0.43887735  0.57407767  1
  H  H52  1  0.76795277  0.30824429  0.04132157  1
  H  H53  1  0.23204723  0.69175571  0.54132157  1
  H  H54  1  0.80824429  0.73204723  0.79132157  1
  H  H55  1  0.19175571  0.26795277  0.29132157  1
  H  H56  1  0.69175571  0.23204723  0.45867843  1
  H  H57  1  0.30824429  0.76795277  0.95867843  1
  H  H58  1  0.73204723  0.80824429  0.20867843  1
  H  H59  1  0.26795277  0.19175571  0.70867843  1
  H  H60  1  0.81049012  0.26052543  0.15904989  1
  H  H61  1  0.18950988  0.73947457  0.65904989  1
  H  H62  1  0.76052543  0.68950988  0.90904989  1
  H  H63  1  0.23947457  0.31049012  0.40904989  1
  H  H64  1  0.73947457  0.18950988  0.34095011  1
  H  H65  1  0.26052543  0.81049012  0.84095011  1
  H  H66  1  0.68950988  0.76052543  0.09095011  1
  H  H67  1  0.31049012  0.23947457  0.59095011  1
  H  H68  1  0.68333711  0.19691314  0.10161765  1
  H  H69  1  0.31666289  0.80308686  0.60161765  1
  H  H70  1  0.69691314  0.81666289  0.85161765  1
  H  H71  1  0.30308686  0.18333711  0.35161765  1
  H  H72  1  0.80308686  0.31666289  0.39838235  1
  H  H73  1  0.19691314  0.68333711  0.89838235  1
  H  H74  1  0.81666289  0.69691314  0.14838235  1
  H  H75  1  0.18333711  0.30308686  0.64838235  1
  C  C76  1  0.86157608  0.03536047  0.10794735  1
  C  C77  1  0.13842392  0.96463953  0.60794735  1
  C  C78  1  0.53536047  0.63842392  0.85794735  1
  C  C79  1  0.46463953  0.36157608  0.35794735  1
  C  C80  1  0.96463953  0.13842392  0.39205265  1
  C  C81  1  0.03536047  0.86157608  0.89205265  1
  C  C82  1  0.63842392  0.53536047  0.14205265  1
  C  C83  1  0.36157608  0.46463953  0.64205265  1
  C  C84  1  0.77160906  0.23321378  0.09077074  1
  C  C85  1  0.22839094  0.76678622  0.59077074  1
  C  C86  1  0.73321378  0.72839094  0.84077074  1
  C  C87  1  0.26678622  0.27160906  0.34077074  1
  C  C88  1  0.76678622  0.22839094  0.40922926  1
  C  C89  1  0.23321378  0.77160906  0.90922926  1
  C  C90  1  0.72839094  0.73321378  0.15922926  1
  C  C91  1  0.27160906  0.26678622  0.65922926  1
  S  S92  1  0.95400106  0.54488167  0.99762762  1
  S  S93  1  0.04599894  0.45511833  0.49762762  1
  S  S94  1  0.04488167  0.54599894  0.74762762  1
  S  S95  1  0.95511833  0.45400106  0.24762762  1
  S  S96  1  0.45511833  0.04599894  0.50237238  1
  S  S97  1  0.54488167  0.95400106  0.00237238  1
  S  S98  1  0.54599894  0.04488167  0.25237238  1
  S  S99  1  0.45400106  0.95511833  0.75237238  1
  S  S100  1  0.77039092  0.39410728  0.84149524  1
  S  S101  1  0.22960908  0.60589272  0.34149524  1
  S  S102  1  0.89410728  0.72960908  0.59149524  1
  S  S103  1  0.10589272  0.27039092  0.09149524  1
  S  S104  1  0.60589272  0.22960908  0.65850476  1
  S  S105  1  0.39410728  0.77039092  0.15850476  1
  S  S106  1  0.72960908  0.89410728  0.40850476  1
  S  S107  1  0.27039092  0.10589272  0.90850476  1
  S  S108  1  0.93209631  0.24587802  0.66122702  1
  S  S109  1  0.06790369  0.75412198  0.16122702  1
  S  S110  1  0.74587802  0.56790369  0.41122702  1
  S  S111  1  0.25412198  0.43209631  0.91122702  1
  S  S112  1  0.75412198  0.06790369  0.83877298  1
  S  S113  1  0.24587802  0.93209631  0.33877298  1
  S  S114  1  0.56790369  0.74587802  0.58877298  1
  S  S115  1  0.43209631  0.25412198  0.08877298  1
  N  N116  1  0.84839131  0.14169033  0.04689548  1
  N  N117  1  0.15160869  0.85830967  0.54689548  1
  N  N118  1  0.64169033  0.65160869  0.79689548  1
  N  N119  1  0.35830967  0.34839131  0.29689548  1
  N  N120  1  0.85830967  0.15160869  0.45310452  1
  N  N121  1  0.14169033  0.84839131  0.95310452  1
  N  N122  1  0.65160869  0.64169033  0.20310452  1
  N  N123  1  0.34839131  0.35830967  0.70310452  1
