# generated using pymatgen
data_PH9C2S(NO)4
_symmetry_space_group_name_H-M   'P 1'
_cell_length_a   4.71532172
_cell_length_b   8.29010630
_cell_length_c   12.42116514
_cell_angle_alpha   88.21450634
_cell_angle_beta   81.60695784
_cell_angle_gamma   85.89899976
_symmetry_Int_Tables_number   1
_chemical_formula_structural   PH9C2S(NO)4
_chemical_formula_sum   'P2 H18 C4 S2 N8 O8'
_cell_volume   479.01402825
_cell_formula_units_Z   2
loop_
 _symmetry_equiv_pos_site_id
 _symmetry_equiv_pos_as_xyz
  1  'x, y, z'
loop_
 _atom_site_type_symbol
 _atom_site_label
 _atom_site_symmetry_multiplicity
 _atom_site_fract_x
 _atom_site_fract_y
 _atom_site_fract_z
 _atom_site_occupancy
  P  P0  1  0.72728534  0.34572253  0.39071052  1
  P  P1  1  0.27271466  0.65427747  0.60928948  1
  H  H2  1  0.65137271  0.40422736  0.56578730  1
  H  H3  1  0.34862729  0.59577264  0.43421270  1
  H  H4  1  0.30082517  0.25242136  0.36384919  1
  H  H5  1  0.69917483  0.74757864  0.63615081  1
  H  H6  1  0.83465418  0.62510141  0.26905199  1
  H  H7  1  0.16534582  0.37489859  0.73094801  1
  H  H8  1  0.08286891  0.41505655  0.19702871  1
  H  H9  1  0.91713109  0.58494345  0.80297129  1
  H  H10  1  0.30634185  0.43103904  0.07105572  1
  H  H11  1  0.69365815  0.56896096  0.92894428  1
  H  H12  1  0.63814138  0.99761771  0.37221049  1
  H  H13  1  0.36185862  0.00238229  0.62778951  1
  H  H14  1  0.65924545  0.78630155  0.39523038  1
  H  H15  1  0.34075455  0.21369845  0.60476962  1
  H  H16  1  0.98094074  0.10271552  0.23365842  1
  H  H17  1  0.01905926  0.89728448  0.76634158  1
  H  H18  1  0.12991675  0.96593138  0.12571848  1
  H  H19  1  0.87008325  0.03406862  0.87428152  1
  C  C20  1  0.14652400  0.64757377  0.13350577  1
  C  C21  1  0.85347600  0.35242623  0.86649423  1
  C  C22  1  0.89437852  0.86497188  0.25461235  1
  C  C23  1  0.10562148  0.13502812  0.74538765  1
  S  S24  1  0.33422273  0.75996737  0.03603096  1
  S  S25  1  0.66577727  0.24003263  0.96396904  1
  N  N26  1  0.95651666  0.70888208  0.22101576  1
  N  N27  1  0.04348334  0.29111792  0.77898424  1
  N  N28  1  0.16567448  0.48604696  0.13168188  1
  N  N29  1  0.83432552  0.51395304  0.86831812  1
  N  N30  1  0.71853103  0.88415284  0.34824884  1
  N  N31  1  0.28146897  0.11584716  0.65175116  1
  N  N32  1  0.99812074  0.99111282  0.19788213  1
  N  N33  1  0.00187926  0.00888718  0.80211787  1
  O  O34  1  0.60544661  0.51188151  0.35600352  1
  O  O35  1  0.39455339  0.48811849  0.64399648  1
  O  O36  1  0.00082505  0.28250770  0.31856878  1
  O  O37  1  0.99917495  0.71749230  0.68143122  1
  O  O38  1  0.79935920  0.34174222  0.51117925  1
  O  O39  1  0.20064080  0.65825778  0.48882075  1
  O  O40  1  0.48944786  0.21652889  0.39187481  1
  O  O41  1  0.51055214  0.78347111  0.60812519  1
