# generated using pymatgen
data_ZnP2(H4O5)2
_symmetry_space_group_name_H-M   'P 1'
_cell_length_a   7.19194444
_cell_length_b   7.21504314
_cell_length_c   8.64364343
_cell_angle_alpha   100.93646467
_cell_angle_beta   106.82201551
_cell_angle_gamma   95.35756031
_symmetry_Int_Tables_number   1
_chemical_formula_structural   ZnP2(H4O5)2
_chemical_formula_sum   'Zn2 P4 H16 O20'
_cell_volume   416.25072686
_cell_formula_units_Z   2
loop_
 _symmetry_equiv_pos_site_id
 _symmetry_equiv_pos_as_xyz
  1  'x, y, z'
loop_
 _atom_site_type_symbol
 _atom_site_label
 _atom_site_symmetry_multiplicity
 _atom_site_fract_x
 _atom_site_fract_y
 _atom_site_fract_z
 _atom_site_occupancy
  Zn  Zn0  1  -0.00000000  -0.00000000  -0.00000000  1
  Zn  Zn1  1  -0.00000000  0.50000000  0.50000000  1
  P  P2  1  0.26123690  0.66829779  0.91834835  1
  P  P3  1  0.73876310  0.33170221  0.08165165  1
  P  P4  1  0.34863610  0.39717560  0.13247288  1
  P  P5  1  0.65136390  0.60282440  0.86752712  1
  H  H6  1  0.97523481  0.14213503  0.71940503  1
  H  H7  1  0.02476519  0.85786497  0.28059497  1
  H  H8  1  0.16040008  0.03065723  0.75428017  1
  H  H9  1  0.83959992  0.96934277  0.24571983  1
  H  H10  1  0.25807995  0.81739115  0.51681506  1
  H  H11  1  0.74192005  0.18260885  0.48318494  1
  H  H12  1  0.26804191  0.65843610  0.36697747  1
  H  H13  1  0.73195809  0.34156390  0.63302253  1
  H  H14  1  0.20282813  0.25690823  0.38265128  1
  H  H15  1  0.79717187  0.74309177  0.61734872  1
  H  H16  1  0.33737991  0.37154011  0.56606893  1
  H  H17  1  0.66262009  0.62845989  0.43393107  1
  H  H18  1  0.41672464  0.13193166  0.67142743  1
  H  H19  1  0.58327536  0.86806834  0.32857257  1
  H  H20  1  0.52004292  0.99800777  0.77466517  1
  H  H21  1  0.47995708  0.00199223  0.22533483  1
  O  O22  1  0.21856738  0.47281440  0.97780665  1
  O  O23  1  0.78143262  0.52718560  0.02219335  1
  O  O24  1  0.49542662  0.69571927  0.94803766  1
  O  O25  1  0.50457338  0.30428073  0.05196234  1
  O  O26  1  0.23150193  0.83688348  0.03578934  1
  O  O27  1  0.76849807  0.16311652  0.96421066  1
  O  O28  1  0.15095808  0.63267180  0.73882705  1
  O  O29  1  0.84904192  0.36732820  0.26117295  1
  O  O30  1  0.44483288  0.56313028  0.27881244  1
  O  O31  1  0.55516712  0.43686972  0.72118756  1
  O  O32  1  0.22236137  0.23629327  0.15834353  1
  O  O33  1  0.77763863  0.76370673  0.84165647  1
  O  O34  1  0.03497772  0.04535094  0.77636650  1
  O  O35  1  0.96502228  0.95464906  0.22363350  1
  O  O36  1  0.17452882  0.71744637  0.41871661  1
  O  O37  1  0.82547118  0.28255363  0.58128339  1
  O  O38  1  0.20249704  0.30755772  0.49694991  1
  O  O39  1  0.79750296  0.69244228  0.50305009  1
  O  O40  1  0.39600228  0.00322790  0.69090150  1
  O  O41  1  0.60399772  0.99677210  0.30909850  1
