# generated using pymatgen
data_Fe5(O4F)2
_symmetry_space_group_name_H-M   'P 1'
_cell_length_a   4.65205092
_cell_length_b   7.60503433
_cell_length_c   9.77847027
_cell_angle_alpha   109.92980178
_cell_angle_beta   91.44199568
_cell_angle_gamma   88.76710393
_symmetry_Int_Tables_number   1
_chemical_formula_structural   Fe5(O4F)2
_chemical_formula_sum   'Fe10 O16 F4'
_cell_volume   325.09998907
_cell_formula_units_Z   2
loop_
 _symmetry_equiv_pos_site_id
 _symmetry_equiv_pos_as_xyz
  1  'x, y, z'
loop_
 _atom_site_type_symbol
 _atom_site_label
 _atom_site_symmetry_multiplicity
 _atom_site_fract_x
 _atom_site_fract_y
 _atom_site_fract_z
 _atom_site_occupancy
  Fe  Fe0  1  0.49351823  0.30161643  0.89548912  1
  Fe  Fe1  1  0.50902093  0.10280352  0.31121086  1
  Fe  Fe2  1  0.46855405  0.89368670  0.70817898  1
  Fe  Fe3  1  0.53570633  0.69276226  0.09266166  1
  Fe  Fe4  1  0.52714844  0.50794399  0.49166819  1
  Fe  Fe5  1  0.99158102  0.60402097  0.80530556  1
  Fe  Fe6  1  0.99721765  0.20543279  0.60371960  1
  Fe  Fe7  1  0.00617271  0.80214661  0.39784600  1
  Fe  Fe8  1  0.99652548  0.38428119  0.19936451  1
  Fe  Fe9  1  0.97855816  0.00520672  0.99557413  1
  O  O10  1  0.81217210  0.76546966  0.97610665  1
  O  O11  1  0.82519941  0.56402351  0.37033452  1
  O  O12  1  0.81217855  0.36767376  0.77640246  1
  O  O13  1  0.80235440  0.14644630  0.17300145  1
  O  O14  1  0.67408094  0.06403278  0.87254906  1
  O  O15  1  0.69451909  0.66427728  0.67798636  1
  O  O16  1  0.69783915  0.45115479  0.07255568  1
  O  O17  1  0.69888931  0.85895143  0.27860568  1
  O  O18  1  0.70150329  0.26967690  0.48552934  1
  O  O19  1  0.29518520  0.13811842  0.72192251  1
  O  O20  1  0.30494038  0.74027056  0.52320723  1
  O  O21  1  0.31378694  0.34065201  0.32534465  1
  O  O22  1  0.30853832  0.53847885  0.91931851  1
  O  O23  1  0.18810942  0.03980378  0.42799597  1
  O  O24  1  0.17629080  0.83917756  0.83019674  1
  O  O25  1  0.18440439  0.22892121  0.02240363  1
  F  F26  1  0.79377853  0.96145696  0.58106396  1
  F  F27  1  0.30465359  0.93304896  0.12458359  1
  F  F28  1  0.19899092  0.44947479  0.62495735  1
  F  F29  1  0.20858326  0.63898830  0.21491705  1
