# generated using pymatgen
data_B10H16CSe
_symmetry_space_group_name_H-M   'P 1'
_cell_length_a   8.49486557
_cell_length_b   11.24297967
_cell_length_c   15.18839825
_cell_angle_alpha   90.00000000
_cell_angle_beta   102.94515576
_cell_angle_gamma   90.00000000
_symmetry_Int_Tables_number   1
_chemical_formula_structural   B10H16CSe
_chemical_formula_sum   'B40 H64 C4 Se4'
_cell_volume   1413.74020784
_cell_formula_units_Z   4
loop_
 _symmetry_equiv_pos_site_id
 _symmetry_equiv_pos_as_xyz
  1  'x, y, z'
loop_
 _atom_site_type_symbol
 _atom_site_label
 _atom_site_symmetry_multiplicity
 _atom_site_fract_x
 _atom_site_fract_y
 _atom_site_fract_z
 _atom_site_occupancy
  B  B0  1  0.28727372  0.32981312  0.75795107  1
  B  B1  1  0.71272628  0.82981312  0.74204893  1
  B  B2  1  0.71272628  0.67018688  0.24204893  1
  B  B3  1  0.28727372  0.17018688  0.25795107  1
  B  B4  1  0.12368902  0.39386898  0.68097862  1
  B  B5  1  0.87631098  0.89386898  0.81902138  1
  B  B6  1  0.87631098  0.60613102  0.31902138  1
  B  B7  1  0.12368902  0.10613102  0.18097862  1
  B  B8  1  0.28870543  0.33338003  0.64166046  1
  B  B9  1  0.71129457  0.83338003  0.85833954  1
  B  B10  1  0.71129457  0.66661997  0.35833954  1
  B  B11  1  0.28870543  0.16661997  0.14166046  1
  B  B12  1  0.38787777  0.28449823  0.21196738  1
  B  B13  1  0.61212223  0.78449823  0.28803262  1
  B  B14  1  0.61212223  0.71550177  0.78803262  1
  B  B15  1  0.38787777  0.21550177  0.71196738  1
  B  B16  1  0.09160560  0.29873689  0.76957547  1
  B  B17  1  0.90839440  0.79873689  0.73042453  1
  B  B18  1  0.90839440  0.70126311  0.23042453  1
  B  B19  1  0.09160560  0.20126311  0.26957547  1
  B  B20  1  0.94777473  0.30816321  0.66128134  1
  B  B21  1  0.05222527  0.80816321  0.83871866  1
  B  B22  1  0.05222527  0.69183679  0.33871866  1
  B  B23  1  0.94777473  0.19183679  0.16128134  1
  B  B24  1  0.09112034  0.31196950  0.57542728  1
  B  B25  1  0.90887966  0.81196950  0.92457272  1
  B  B26  1  0.90887966  0.68803050  0.42457272  1
  B  B27  1  0.09112034  0.18803050  0.07542728  1
  B  B28  1  0.26833110  0.18819411  0.60160783  1
  B  B29  1  0.73166890  0.68819411  0.89839217  1
  B  B30  1  0.73166890  0.81180589  0.39839217  1
  B  B31  1  0.26833110  0.31180589  0.10160783  1
  B  B32  1  0.27385277  0.41187472  0.19388606  1
  B  B33  1  0.72614723  0.91187472  0.30611394  1
  B  B34  1  0.72614723  0.58812528  0.80611394  1
  B  B35  1  0.27385277  0.08812528  0.69388606  1
  B  B36  1  0.25826165  0.31787142  0.28777501  1
  B  B37  1  0.74173835  0.81787142  0.21222499  1
  B  B38  1  0.74173835  0.68212858  0.71222499  1
  B  B39  1  0.25826165  0.18212858  0.78777501  1
  H  H40  1  0.68289179  0.28229492  0.91684493  1
  H  H41  1  0.31710821  0.78229492  0.58315507  1
  H  H42  1  0.31710821  0.71770508  0.08315507  1
  H  H43  1  0.68289179  0.21770508  0.41684493  1
  H  H44  1  0.76689417  0.14134659  0.96056335  1
  H  H45  1  0.23310583  0.64134659  0.53943665  1
  H  H46  1  0.23310583  0.85865341  0.03943665  1
  H  H47  1  0.76689417  0.35865341  0.46056335  1
  H  H48  1  0.62794870  0.21879310  0.01471366  1
  H  H49  1  0.37205130  0.71879310  0.48528634  1
  H  H50  1  0.37205130  0.78120690  0.98528634  1
  H  H51  1  0.62794870  0.28120690  0.51471366  1
  H  H52  1  0.36256119  0.39201083  0.81620795  1
  H  H53  1  0.63743881  0.89201083  0.68379205  1
  H  H54  1  0.63743881  0.60798917  0.18379205  1
  H  H55  1  0.36256119  0.10798917  0.31620795  1
  H  H56  1  0.89278469  0.50063278  0.31837576  1
  H  H57  1  0.10721531  0.00063278  0.18162424  1
  H  H58  1  0.10721531  0.49936722  0.68162424  1
  H  H59  1  0.89278469  0.99936722  0.81837576  1
  H  H60  1  0.36511565  0.39888003  0.60524823  1
  H  H61  1  0.63488435  0.89888003  0.89475177  1
  H  H62  1  0.63488435  0.60111997  0.39475177  1
  H  H63  1  0.36511565  0.10111997  0.10524823  1
  H  H64  1  0.53170876  0.29041528  0.23157891  1
  H  H65  1  0.46829124  0.79041528  0.26842109  1
  H  H66  1  0.46829124  0.70958472  0.76842109  1
  H  H67  1  0.53170876  0.20958472  0.73157891  1
  H  H68  1  0.04706581  0.33725165  0.83308627  1
  H  H69  1  0.95293419  0.83725165  0.66691373  1
  H  H70  1  0.95293419  0.66274835  0.16691373  1
  H  H71  1  0.04706581  0.16274835  0.33308627  1
  H  H72  1  0.82345856  0.35892347  0.65905883  1
  H  H73  1  0.17654144  0.85892347  0.84094117  1
  H  H74  1  0.17654144  0.64107653  0.34094117  1
  H  H75  1  0.82345856  0.14107653  0.15905883  1
  H  H76  1  0.06352101  0.36914954  0.50742100  1
  H  H77  1  0.93647899  0.86914954  0.99257900  1
  H  H78  1  0.93647899  0.63085046  0.49257900  1
  H  H79  1  0.06352101  0.13085046  0.00742100  1
  H  H80  1  0.31433191  0.34724420  0.03775939  1
  H  H81  1  0.68566809  0.84724420  0.46224061  1
  H  H82  1  0.68566809  0.65275580  0.96224061  1
  H  H83  1  0.31433191  0.15275580  0.53775939  1
  H  H84  1  0.68294528  0.48704563  0.80357332  1
  H  H85  1  0.31705472  0.98704563  0.69642668  1
  H  H86  1  0.31705472  0.51295437  0.19642668  1
  H  H87  1  0.68294528  0.01295437  0.30357332  1
  H  H88  1  0.30678990  0.35653808  0.36201359  1
  H  H89  1  0.69321010  0.85653808  0.13798641  1
  H  H90  1  0.69321010  0.64346192  0.63798641  1
  H  H91  1  0.30678990  0.14346192  0.86201359  1
  H  H92  1  0.98007605  0.27590007  0.22931574  1
  H  H93  1  0.01992395  0.77590007  0.27068426  1
  H  H94  1  0.01992395  0.72409993  0.77068426  1
  H  H95  1  0.98007605  0.22409993  0.72931574  1
  H  H96  1  0.16868840  0.39939353  0.11659134  1
  H  H97  1  0.83131160  0.89939353  0.38340866  1
  H  H98  1  0.83131160  0.60060647  0.88340866  1
  H  H99  1  0.16868840  0.10060647  0.61659134  1
  H  H100  1  0.16126848  0.40138075  0.24297076  1
  H  H101  1  0.83873152  0.90138075  0.25702924  1
  H  H102  1  0.83873152  0.59861925  0.75702924  1
  H  H103  1  0.16126848  0.09861925  0.74297076  1
  C  C104  1  0.72366374  0.22800466  0.97788748  1
  C  C105  1  0.27633626  0.72800466  0.52211252  1
  C  C106  1  0.27633626  0.77199534  0.02211252  1
  C  C107  1  0.72366374  0.27199534  0.47788748  1
  Se  Se108  1  0.90359380  0.31635482  0.05494986  1
  Se  Se109  1  0.09640620  0.81635482  0.44505014  1
  Se  Se110  1  0.09640620  0.68364518  0.94505014  1
  Se  Se111  1  0.90359380  0.18364518  0.55494986  1
