# generated using pymatgen
data_NaNbO3
_symmetry_space_group_name_H-M   'P 1'
_cell_length_a   7.90731957
_cell_length_b   7.95266339
_cell_length_c   15.94020107
_cell_angle_alpha   90.00000000
_cell_angle_beta   90.00000000
_cell_angle_gamma   90.00000000
_symmetry_Int_Tables_number   1
_chemical_formula_structural   NaNbO3
_chemical_formula_sum   'Na16 Nb16 O48'
_cell_volume   1002.38760280
_cell_formula_units_Z   16
loop_
 _symmetry_equiv_pos_site_id
 _symmetry_equiv_pos_as_xyz
  1  'x, y, z'
loop_
 _atom_site_type_symbol
 _atom_site_label
 _atom_site_symmetry_multiplicity
 _atom_site_fract_x
 _atom_site_fract_y
 _atom_site_fract_z
 _atom_site_occupancy
  Na  Na0  1  0.75000000  0.75000000  0.87648898  1
  Na  Na1  1  0.25000000  0.25000000  0.12351102  1
  Na  Na2  1  0.75000000  0.75000000  0.62697576  1
  Na  Na3  1  0.25000000  0.25000000  0.37302424  1
  Na  Na4  1  0.75000000  0.75000000  0.37918473  1
  Na  Na5  1  0.25000000  0.25000000  0.62081527  1
  Na  Na6  1  0.75000000  0.75000000  0.12640702  1
  Na  Na7  1  0.25000000  0.25000000  0.87359298  1
  Na  Na8  1  0.75000000  0.25000000  0.87036732  1
  Na  Na9  1  0.25000000  0.75000000  0.12963268  1
  Na  Na10  1  0.75000000  0.25000000  0.62289368  1
  Na  Na11  1  0.25000000  0.75000000  0.37710632  1
  Na  Na12  1  0.75000000  0.25000000  0.37414081  1
  Na  Na13  1  0.25000000  0.75000000  0.62585919  1
  Na  Na14  1  0.75000000  0.25000000  0.12233109  1
  Na  Na15  1  0.25000000  0.75000000  0.87766891  1
  Nb  Nb16  1  0.50000000  0.50000000  0.00000000  1
  Nb  Nb17  1  0.00000000  0.50000000  0.00000000  1
  Nb  Nb18  1  0.50000000  -0.00000000  0.00000000  1
  Nb  Nb19  1  0.00000000  0.00000000  0.00000000  1
  Nb  Nb20  1  0.49976429  0.49855822  0.75018954  1
  Nb  Nb21  1  0.00023571  0.49855822  0.75018954  1
  Nb  Nb22  1  0.49976429  0.00144178  0.75018954  1
  Nb  Nb23  1  0.00023571  0.00144178  0.75018954  1
  Nb  Nb24  1  0.50023571  0.50144178  0.24981046  1
  Nb  Nb25  1  0.99976429  0.50144178  0.24981046  1
  Nb  Nb26  1  0.50023571  0.99855822  0.24981046  1
  Nb  Nb27  1  0.99976429  0.99855822  0.24981046  1
  Nb  Nb28  1  0.50000000  0.50000000  0.50000000  1
  Nb  Nb29  1  0.00000000  0.50000000  0.50000000  1
  Nb  Nb30  1  0.50000000  -0.00000000  0.50000000  1
  Nb  Nb31  1  0.00000000  0.00000000  0.50000000  1
  O  O32  1  0.75000000  0.49837620  0.01756501  1
  O  O33  1  0.75000000  0.00162380  0.01756501  1
  O  O34  1  0.25000000  0.50162380  0.98243499  1
  O  O35  1  0.25000000  0.99837620  0.98243499  1
  O  O36  1  0.75000000  0.46200615  0.73594368  1
  O  O37  1  0.75000000  0.03799385  0.73594368  1
  O  O38  1  0.25000000  0.53799385  0.26405632  1
  O  O39  1  0.25000000  0.96200615  0.26405632  1
  O  O40  1  0.75000000  0.54242098  0.51395974  1
  O  O41  1  0.75000000  0.95757902  0.51395974  1
  O  O42  1  0.25000000  0.45757902  0.48604026  1
  O  O43  1  0.25000000  0.04242098  0.48604026  1
  O  O44  1  0.75000000  0.46073501  0.23440799  1
  O  O45  1  0.75000000  0.03926499  0.23440799  1
  O  O46  1  0.25000000  0.53926499  0.76559201  1
  O  O47  1  0.25000000  0.96073501  0.76559201  1
  O  O48  1  0.53376716  0.48472130  0.87511781  1
  O  O49  1  0.96623284  0.48472130  0.87511781  1
  O  O50  1  0.53376716  0.01527870  0.87511781  1
  O  O51  1  0.96623284  0.01527870  0.87511781  1
  O  O52  1  0.46623284  0.51527870  0.12488219  1
  O  O53  1  0.03376716  0.51527870  0.12488219  1
  O  O54  1  0.46623284  0.98472130  0.12488219  1
  O  O55  1  0.03376716  0.98472130  0.12488219  1
  O  O56  1  0.47155792  0.49952145  0.62511349  1
  O  O57  1  0.02844208  0.49952145  0.62511349  1
  O  O58  1  0.47155792  0.00047855  0.62511349  1
  O  O59  1  0.02844208  0.00047855  0.62511349  1
  O  O60  1  0.52844208  0.50047855  0.37488651  1
  O  O61  1  0.97155792  0.50047855  0.37488651  1
  O  O62  1  0.52844208  0.99952145  0.37488651  1
  O  O63  1  0.97155792  0.99952145  0.37488651  1
  O  O64  1  0.50442217  0.75000000  0.99062260  1
  O  O65  1  0.99557783  0.75000000  0.99062260  1
  O  O66  1  0.49557783  0.25000000  0.00937740  1
  O  O67  1  0.00442217  0.25000000  0.00937740  1
  O  O68  1  0.53682676  0.75000000  0.75064220  1
  O  O69  1  0.96317324  0.75000000  0.75064220  1
  O  O70  1  0.46317324  0.25000000  0.24935780  1
  O  O71  1  0.03682676  0.25000000  0.24935780  1
  O  O72  1  0.45684469  0.75000000  0.49873782  1
  O  O73  1  0.04315531  0.75000000  0.49873782  1
  O  O74  1  0.54315531  0.25000000  0.50126218  1
  O  O75  1  0.95684469  0.25000000  0.50126218  1
  O  O76  1  0.54304225  0.75000000  0.25154971  1
  O  O77  1  0.95695775  0.75000000  0.25154971  1
  O  O78  1  0.45695775  0.25000000  0.74845029  1
  O  O79  1  0.04304225  0.25000000  0.74845029  1
