# generated using pymatgen
data_Mn2H2SO5
_symmetry_space_group_name_H-M   'P 1'
_cell_length_a   5.81339986
_cell_length_b   7.62101110
_cell_length_c   10.42325416
_cell_angle_alpha   90.00000000
_cell_angle_beta   90.00000000
_cell_angle_gamma   90.00000000
_symmetry_Int_Tables_number   1
_chemical_formula_structural   Mn2H2SO5
_chemical_formula_sum   'Mn8 H8 S4 O20'
_cell_volume   461.79169452
_cell_formula_units_Z   4
loop_
 _symmetry_equiv_pos_site_id
 _symmetry_equiv_pos_as_xyz
  1  'x, y, z'
loop_
 _atom_site_type_symbol
 _atom_site_label
 _atom_site_symmetry_multiplicity
 _atom_site_fract_x
 _atom_site_fract_y
 _atom_site_fract_z
 _atom_site_occupancy
  Mn  Mn0  1  0.26044493  0.90260519  0.05510850  1
  Mn  Mn1  1  0.23955507  0.40260519  0.44489150  1
  Mn  Mn2  1  0.73955507  0.09739481  0.55510850  1
  Mn  Mn3  1  0.76044493  0.59739481  0.94489150  1
  Mn  Mn4  1  0.73955507  0.09739481  0.94489150  1
  Mn  Mn5  1  0.76044493  0.59739481  0.55510850  1
  Mn  Mn6  1  0.26044493  0.90260519  0.44489150  1
  Mn  Mn7  1  0.23955507  0.40260519  0.05510850  1
  H  H8  1  0.49636481  0.83097428  0.85236047  1
  H  H9  1  0.00363519  0.33097428  0.64763953  1
  H  H10  1  0.50363519  0.16902572  0.35236047  1
  H  H11  1  0.99636481  0.66902572  0.14763953  1
  H  H12  1  0.50363519  0.16902572  0.14763953  1
  H  H13  1  0.99636481  0.66902572  0.35236047  1
  H  H14  1  0.49636481  0.83097428  0.64763953  1
  H  H15  1  0.00363519  0.33097428  0.85236047  1
  S  S16  1  0.90249037  0.16186347  0.25000000  1
  S  S17  1  0.59750963  0.66186347  0.25000000  1
  S  S18  1  0.09750963  0.83813653  0.75000000  1
  S  S19  1  0.40249037  0.33813653  0.75000000  1
  O  O20  1  0.09177915  0.30677856  0.25000000  1
  O  O21  1  0.40822085  0.80677856  0.25000000  1
  O  O22  1  0.90822085  0.69322144  0.75000000  1
  O  O23  1  0.59177915  0.19322144  0.75000000  1
  O  O24  1  0.95447125  0.04587335  0.13145778  1
  O  O25  1  0.54552875  0.54587335  0.36854222  1
  O  O26  1  0.04552875  0.95412665  0.63145778  1
  O  O27  1  0.45447125  0.45412665  0.86854222  1
  O  O28  1  0.04552875  0.95412665  0.86854222  1
  O  O29  1  0.45447125  0.45412665  0.63145778  1
  O  O30  1  0.95447125  0.04587335  0.36854222  1
  O  O31  1  0.54552875  0.54587335  0.13145778  1
  O  O32  1  0.56176873  0.84067165  0.93862574  1
  O  O33  1  0.93823127  0.34067165  0.56137426  1
  O  O34  1  0.43823127  0.15932835  0.43862574  1
  O  O35  1  0.06176873  0.65932835  0.06137426  1
  O  O36  1  0.43823127  0.15932835  0.06137426  1
  O  O37  1  0.06176873  0.65932835  0.43862574  1
  O  O38  1  0.56176873  0.84067165  0.56137426  1
  O  O39  1  0.93823127  0.34067165  0.93862574  1
