# generated using pymatgen
data_Yb2Ni17
_symmetry_space_group_name_H-M   'P 1'
_cell_length_a   7.96488137
_cell_length_b   8.21713367
_cell_length_c   8.21713367
_cell_angle_alpha   119.97933090
_cell_angle_beta   90.00000000
_cell_angle_gamma   90.00000000
_symmetry_Int_Tables_number   1
_chemical_formula_structural   Yb2Ni17
_chemical_formula_sum   'Yb4 Ni34'
_cell_volume   465.84459665
_cell_formula_units_Z   2
loop_
 _symmetry_equiv_pos_site_id
 _symmetry_equiv_pos_as_xyz
  1  'x, y, z'
loop_
 _atom_site_type_symbol
 _atom_site_label
 _atom_site_symmetry_multiplicity
 _atom_site_fract_x
 _atom_site_fract_y
 _atom_site_fract_z
 _atom_site_occupancy
  Yb  Yb0  1  0.75000000  0.00018809  0.99981191  1
  Yb  Yb1  1  0.25000000  0.99981191  0.00018809  1
  Yb  Yb2  1  0.25000000  0.66673945  0.33326055  1
  Yb  Yb3  1  0.75000000  0.33326055  0.66673945  1
  Ni  Ni4  1  0.60174142  0.66664992  0.33335008  1
  Ni  Ni5  1  0.39825858  0.33335008  0.66664992  1
  Ni  Ni6  1  0.10174142  0.33335008  0.66664992  1
  Ni  Ni7  1  0.89825858  0.66664992  0.33335008  1
  Ni  Ni8  1  0.50000000  0.50000000  0.00000000  1
  Ni  Ni9  1  0.50000000  0.50000000  0.50000000  1
  Ni  Ni10  1  0.50000000  0.00000000  0.50000000  1
  Ni  Ni11  1  0.00000000  0.50000000  0.00000000  1
  Ni  Ni12  1  0.00000000  0.50000000  0.50000000  1
  Ni  Ni13  1  0.00000000  0.00000000  0.50000000  1
  Ni  Ni14  1  0.75000000  0.67272507  0.04136869  1
  Ni  Ni15  1  0.75000000  0.36866139  0.32734000  1
  Ni  Ni16  1  0.75000000  0.95870946  0.63123098  1
  Ni  Ni17  1  0.75000000  0.36876902  0.04129054  1
  Ni  Ni18  1  0.75000000  0.95863131  0.32727493  1
  Ni  Ni19  1  0.75000000  0.67266000  0.63133861  1
  Ni  Ni20  1  0.25000000  0.32727493  0.95863131  1
  Ni  Ni21  1  0.25000000  0.63133861  0.67266000  1
  Ni  Ni22  1  0.25000000  0.04129054  0.36876902  1
  Ni  Ni23  1  0.25000000  0.63123098  0.95870946  1
  Ni  Ni24  1  0.25000000  0.04136869  0.67272507  1
  Ni  Ni25  1  0.25000000  0.32734000  0.36866139  1
  Ni  Ni26  1  0.47962208  0.83397938  0.66790856  1
  Ni  Ni27  1  0.47955500  0.83391830  0.16608170  1
  Ni  Ni28  1  0.47962208  0.33209144  0.16602062  1
  Ni  Ni29  1  0.52037792  0.16602062  0.33209144  1
  Ni  Ni30  1  0.52044500  0.16608170  0.83391830  1
  Ni  Ni31  1  0.52037792  0.66790856  0.83397938  1
  Ni  Ni32  1  0.97962208  0.16602062  0.33209144  1
  Ni  Ni33  1  0.97955500  0.16608170  0.83391830  1
  Ni  Ni34  1  0.97962208  0.66790856  0.83397938  1
  Ni  Ni35  1  0.02037792  0.83397938  0.66790856  1
  Ni  Ni36  1  0.02044500  0.83391830  0.16608170  1
  Ni  Ni37  1  0.02037792  0.33209144  0.16602062  1
