# generated using pymatgen
data_YZn5
_symmetry_space_group_name_H-M   'P 1'
_cell_length_a   8.93456269
_cell_length_b   8.93456269
_cell_length_c   9.03325351
_cell_angle_alpha   90.00000000
_cell_angle_beta   90.00000000
_cell_angle_gamma   120.00884815
_symmetry_Int_Tables_number   1
_chemical_formula_structural   YZn5
_chemical_formula_sum   'Y6 Zn30'
_cell_volume   624.42847985
_cell_formula_units_Z   6
loop_
 _symmetry_equiv_pos_site_id
 _symmetry_equiv_pos_as_xyz
  1  'x, y, z'
loop_
 _atom_site_type_symbol
 _atom_site_label
 _atom_site_symmetry_multiplicity
 _atom_site_fract_x
 _atom_site_fract_y
 _atom_site_fract_z
 _atom_site_occupancy
  Y  Y0  1  0.80917774  0.61837174  0.75000000  1
  Y  Y1  1  0.80915229  0.19084771  0.75000000  1
  Y  Y2  1  0.38162826  0.19082226  0.75000000  1
  Y  Y3  1  0.19082226  0.38162826  0.25000000  1
  Y  Y4  1  0.19084771  0.80915229  0.25000000  1
  Y  Y5  1  0.61837174  0.80917774  0.25000000  1
  Zn  Zn6  1  0.00000000  0.00000000  0.50000000  1
  Zn  Zn7  1  0.00000000  0.00000000  0.00000000  1
  Zn  Zn8  1  0.66664997  0.33335003  0.51432063  1
  Zn  Zn9  1  0.33335003  0.66664997  0.48567937  1
  Zn  Zn10  1  0.33335003  0.66664997  0.01432063  1
  Zn  Zn11  1  0.66664997  0.33335003  0.98567937  1
  Zn  Zn12  1  0.50000000  0.00000000  0.50000000  1
  Zn  Zn13  1  0.50000000  0.50000000  0.50000000  1
  Zn  Zn14  1  0.00000000  0.50000000  0.50000000  1
  Zn  Zn15  1  0.50000000  0.00000000  0.00000000  1
  Zn  Zn16  1  0.50000000  0.50000000  0.00000000  1
  Zn  Zn17  1  0.00000000  0.50000000  0.00000000  1
  Zn  Zn18  1  0.43177037  0.86349866  0.75000000  1
  Zn  Zn19  1  0.43176012  0.56823988  0.75000000  1
  Zn  Zn20  1  0.13650134  0.56822963  0.75000000  1
  Zn  Zn21  1  0.56822963  0.13650134  0.25000000  1
  Zn  Zn22  1  0.56823988  0.43176012  0.25000000  1
  Zn  Zn23  1  0.86349866  0.43177037  0.25000000  1
  Zn  Zn24  1  0.16011108  0.32026556  0.59103778  1
  Zn  Zn25  1  0.16011861  0.83988139  0.59102491  1
  Zn  Zn26  1  0.67973444  0.83988892  0.59103778  1
  Zn  Zn27  1  0.83988892  0.67973444  0.40896222  1
  Zn  Zn28  1  0.83988139  0.16011861  0.40897509  1
  Zn  Zn29  1  0.32026556  0.16011108  0.40896222  1
  Zn  Zn30  1  0.83988892  0.67973444  0.09103778  1
  Zn  Zn31  1  0.83988139  0.16011861  0.09102491  1
  Zn  Zn32  1  0.32026556  0.16011108  0.09103778  1
  Zn  Zn33  1  0.16011108  0.32026556  0.90896222  1
  Zn  Zn34  1  0.16011861  0.83988139  0.90897509  1
  Zn  Zn35  1  0.67973444  0.83988892  0.90896222  1
