# generated using pymatgen
data_Li4Nb3V2Co3O16
_symmetry_space_group_name_H-M   'P 1'
_cell_length_a   6.02202992
_cell_length_b   6.08842773
_cell_length_c   9.81129976
_cell_angle_alpha   90.22402379
_cell_angle_beta   89.77773289
_cell_angle_gamma   120.27324314
_symmetry_Int_Tables_number   1
_chemical_formula_structural   Li4Nb3V2Co3O16
_chemical_formula_sum   'Li4 Nb3 V2 Co3 O16'
_cell_volume   310.66940564
_cell_formula_units_Z   1
loop_
 _symmetry_equiv_pos_site_id
 _symmetry_equiv_pos_as_xyz
  1  'x, y, z'
loop_
 _atom_site_type_symbol
 _atom_site_label
 _atom_site_symmetry_multiplicity
 _atom_site_fract_x
 _atom_site_fract_y
 _atom_site_fract_z
 _atom_site_occupancy
  Li  Li0  1  0.33953091  0.67067578  0.89984185  1
  Li  Li1  1  -0.00143089  -0.00114662  -0.00214216  1
  Li  Li2  1  0.05619385  0.02703874  0.48356040  1
  Li  Li3  1  0.67740933  0.33930987  0.39068590  1
  Nb  Nb4  1  0.63345193  0.81774508  0.23214820  1
  Nb  Nb5  1  0.81724255  0.65548767  0.71265037  1
  Nb  Nb6  1  0.82481492  0.16692344  0.71308798  1
  V  V7  1  0.29867573  0.65258881  0.48546844  1
  V  V8  1  0.64519528  0.32104339  0.00456505  1
  Co  Co9  1  0.15619777  0.81071142  0.20937228  1
  Co  Co10  1  0.15768601  0.34587396  0.20947720  1
  Co  Co11  1  0.37735667  0.18789926  0.71704213  1
  O  O12  1  0.14560725  0.81830610  0.60025325  1
  O  O13  1  0.03490228  0.51744575  0.34336612  1
  O  O14  1  0.35202850  0.67512005  0.09810445  1
  O  O15  1  0.99272119  -0.00254424  0.29363401  1
  O  O16  1  -0.00875484  -0.00578227  0.81195633  1
  O  O17  1  0.14471421  0.32239534  0.60062920  1
  O  O18  1  0.49304027  0.97258460  0.34649412  1
  O  O19  1  0.49521967  0.52673758  0.34891991  1
  O  O20  1  0.34731150  0.17413526  0.08694103  1
  O  O21  1  0.65057903  0.82432470  0.60671846  1
  O  O22  1  0.54284311  0.49107935  0.85682817  1
  O  O23  1  0.54287837  0.05276861  0.85760677  1
  O  O24  1  0.69384048  0.34549816  0.59038571  1
  O  O25  1  0.81149067  0.63822812  0.08812524  1
  O  O26  1  0.96735214  0.48309471  0.83366677  1
  O  O27  1  0.81190409  0.17275638  0.08845081  1
