# generated using pymatgen
data_CaIn2(PO4)3
_symmetry_space_group_name_H-M   'P 1'
_cell_length_a   6.67053144
_cell_length_b   6.70616329
_cell_length_c   20.66550655
_cell_angle_alpha   90.00000000
_cell_angle_beta   90.00000000
_cell_angle_gamma   91.59171483
_symmetry_Int_Tables_number   1
_chemical_formula_structural   CaIn2(PO4)3
_chemical_formula_sum   'Ca4 In8 P12 O48'
_cell_volume   924.08731050
_cell_formula_units_Z   4
loop_
 _symmetry_equiv_pos_site_id
 _symmetry_equiv_pos_as_xyz
  1  'x, y, z'
loop_
 _atom_site_type_symbol
 _atom_site_label
 _atom_site_symmetry_multiplicity
 _atom_site_fract_x
 _atom_site_fract_y
 _atom_site_fract_z
 _atom_site_occupancy
  Ca  Ca0  1  0.63548397  0.92358582  0.07450172  1
  Ca  Ca1  1  0.13548397  0.42358582  0.42549828  1
  Ca  Ca2  1  0.36451603  0.07641418  0.92549828  1
  Ca  Ca3  1  0.86451603  0.57641418  0.57450172  1
  In  In4  1  0.59787643  0.78190303  0.40323210  1
  In  In5  1  0.09787643  0.28190303  0.09676790  1
  In  In6  1  0.40212357  0.21809697  0.59676790  1
  In  In7  1  0.90212357  0.71809697  0.90323210  1
  In  In8  1  0.55784959  0.39572819  0.28720775  1
  In  In9  1  0.05784959  0.89572819  0.21279225  1
  In  In10  1  0.44215041  0.60427181  0.71279225  1
  In  In11  1  0.94215041  0.10427181  0.78720775  1
  P  P12  1  0.62135603  0.29138938  0.44790038  1
  P  P13  1  0.12135603  0.79138938  0.05209962  1
  P  P14  1  0.37864397  0.70861062  0.55209962  1
  P  P15  1  0.87864397  0.20861062  0.94790038  1
  P  P16  1  0.55523210  0.89642329  0.24396077  1
  P  P17  1  0.05523210  0.39642329  0.25603923  1
  P  P18  1  0.44476790  0.10357671  0.75603923  1
  P  P19  1  0.94476790  0.60357671  0.74396077  1
  P  P20  1  0.08234988  0.88774698  0.38439507  1
  P  P21  1  0.58234988  0.38774698  0.11560493  1
  P  P22  1  0.91765012  0.11225302  0.61560493  1
  P  P23  1  0.41765012  0.61225302  0.88439507  1
  O  O24  1  0.54546302  0.44140454  0.39331790  1
  O  O25  1  0.04546302  0.94140454  0.10668210  1
  O  O26  1  0.45453698  0.55859546  0.60668210  1
  O  O27  1  0.95453698  0.05859546  0.89331790  1
  O  O28  1  0.81270350  0.38116715  0.47814396  1
  O  O29  1  0.31270350  0.88116715  0.02185604  1
  O  O30  1  0.18729650  0.61883285  0.52185604  1
  O  O31  1  0.68729650  0.11883285  0.97814396  1
  O  O32  1  0.65671953  0.09038517  0.41567726  1
  O  O33  1  0.15671953  0.59038517  0.08432274  1
  O  O34  1  0.34328047  0.90961483  0.58432274  1
  O  O35  1  0.84328047  0.40961483  0.91567726  1
  O  O36  1  0.43886868  0.27757404  0.49486752  1
  O  O37  1  0.93886868  0.77757404  0.00513248  1
  O  O38  1  0.56113132  0.72242596  0.50513248  1
  O  O39  1  0.06113132  0.22242596  0.99486752  1
  O  O40  1  0.59226947  0.72708502  0.29567612  1
  O  O41  1  0.09226947  0.22708502  0.20432388  1
  O  O42  1  0.40773053  0.27291498  0.70432388  1
  O  O43  1  0.90773053  0.77291498  0.79567612  1
  O  O44  1  0.52044258  0.08274598  0.28467498  1
  O  O45  1  0.02044258  0.58274598  0.21532502  1
  O  O46  1  0.47955742  0.91725402  0.71532502  1
  O  O47  1  0.97955742  0.41725402  0.78467498  1
  O  O48  1  0.73581793  0.91493805  0.19673612  1
  O  O49  1  0.23581793  0.41493805  0.30326388  1
  O  O50  1  0.26418207  0.08506195  0.80326388  1
  O  O51  1  0.76418207  0.58506195  0.69673612  1
  O  O52  1  0.37250601  0.84884168  0.20024163  1
  O  O53  1  0.87250601  0.34884168  0.29975837  1
  O  O54  1  0.62749399  0.15115832  0.79975837  1
  O  O55  1  0.12749399  0.65115832  0.70024163  1
  O  O56  1  0.91463138  0.73235810  0.40381065  1
  O  O57  1  0.41463138  0.23235810  0.09618935  1
  O  O58  1  0.08536862  0.26764190  0.59618935  1
  O  O59  1  0.58536862  0.76764190  0.90381065  1
  O  O60  1  0.27640847  0.76734255  0.39253744  1
  O  O61  1  0.77640847  0.26734255  0.10746256  1
  O  O62  1  0.72359153  0.23265745  0.60746256  1
  O  O63  1  0.22359153  0.73265745  0.89253744  1
  O  O64  1  0.05008366  0.95493977  0.31398755  1
  O  O65  1  0.55008366  0.45493977  0.18601245  1
  O  O66  1  0.94991634  0.04506023  0.68601245  1
  O  O67  1  0.44991634  0.54506023  0.81398755  1
  O  O68  1  0.09380972  0.07762162  0.42515785  1
  O  O69  1  0.59380972  0.57762162  0.07484215  1
  O  O70  1  0.90619028  0.92237838  0.57484215  1
  O  O71  1  0.40619028  0.42237838  0.92515785  1
