# generated using pymatgen
data_Sr2(FeO2)3
_symmetry_space_group_name_H-M   'P 1'
_cell_length_a   5.64193767
_cell_length_b   5.64193767
_cell_length_c   19.43262623
_cell_angle_alpha   90.00000000
_cell_angle_beta   90.00000000
_cell_angle_gamma   90.00000000
_symmetry_Int_Tables_number   1
_chemical_formula_structural   Sr2(FeO2)3
_chemical_formula_sum   'Sr8 Fe12 O24'
_cell_volume   618.56887760
_cell_formula_units_Z   4
loop_
 _symmetry_equiv_pos_site_id
 _symmetry_equiv_pos_as_xyz
  1  'x, y, z'
loop_
 _atom_site_type_symbol
 _atom_site_label
 _atom_site_symmetry_multiplicity
 _atom_site_fract_x
 _atom_site_fract_y
 _atom_site_fract_z
 _atom_site_occupancy
  Sr  Sr0  1  0.73803428  0.73803428  0.41157650  1
  Sr  Sr1  1  0.26196572  0.26196572  0.41157650  1
  Sr  Sr2  1  0.76196572  0.23803428  0.91157650  1
  Sr  Sr3  1  0.23803428  0.76196572  0.91157650  1
  Sr  Sr4  1  0.26196572  0.26196572  0.58842350  1
  Sr  Sr5  1  0.73803428  0.73803428  0.58842350  1
  Sr  Sr6  1  0.23803428  0.76196572  0.08842350  1
  Sr  Sr7  1  0.76196572  0.23803428  0.08842350  1
  Fe  Fe8  1  0.24634392  0.75365608  0.50000000  1
  Fe  Fe9  1  0.75365608  0.24634392  0.50000000  1
  Fe  Fe10  1  0.25365608  0.25365608  -0.00000000  1
  Fe  Fe11  1  0.74634392  0.74634392  -0.00000000  1
  Fe  Fe12  1  0.17611898  0.82388102  0.29514056  1
  Fe  Fe13  1  0.82388102  0.17611898  0.29514056  1
  Fe  Fe14  1  0.32388102  0.32388102  0.79514056  1
  Fe  Fe15  1  0.67611898  0.67611898  0.79514056  1
  Fe  Fe16  1  0.82388102  0.17611898  0.70485944  1
  Fe  Fe17  1  0.17611898  0.82388102  0.70485944  1
  Fe  Fe18  1  0.67611898  0.67611898  0.20485944  1
  Fe  Fe19  1  0.32388102  0.32388102  0.20485944  1
  O  O20  1  0.00000000  -0.00000000  0.50000000  1
  O  O21  1  0.50000000  0.50000000  -0.00000000  1
  O  O22  1  0.00000000  0.50000000  0.50000000  1
  O  O23  1  0.50000000  -0.00000000  -0.00000000  1
  O  O24  1  0.50000000  -0.00000000  0.50000000  1
  O  O25  1  0.00000000  0.50000000  -0.00000000  1
  O  O26  1  0.50000000  0.50000000  0.50000000  1
  O  O27  1  0.00000000  -0.00000000  -0.00000000  1
  O  O28  1  0.25645224  0.74354776  0.38709437  1
  O  O29  1  0.74354776  0.25645224  0.38709437  1
  O  O30  1  0.24354776  0.24354776  0.88709437  1
  O  O31  1  0.75645224  0.75645224  0.88709437  1
  O  O32  1  0.74354776  0.25645224  0.61290563  1
  O  O33  1  0.25645224  0.74354776  0.61290563  1
  O  O34  1  0.75645224  0.75645224  0.11290563  1
  O  O35  1  0.24354776  0.24354776  0.11290563  1
  O  O36  1  0.81893740  0.81893740  0.28600595  1
  O  O37  1  0.18106260  0.18106260  0.28600595  1
  O  O38  1  0.68106260  0.31893740  0.78600595  1
  O  O39  1  0.31893740  0.68106260  0.78600595  1
  O  O40  1  0.18106260  0.18106260  0.71399405  1
  O  O41  1  0.81893740  0.81893740  0.71399405  1
  O  O42  1  0.31893740  0.68106260  0.21399405  1
  O  O43  1  0.68106260  0.31893740  0.21399405  1
