# generated using pymatgen
data_CuGeO3
_symmetry_space_group_name_H-M   'P 1'
_cell_length_a   8.69434040
_cell_length_b   9.83650079
_cell_length_c   11.94105959
_cell_angle_alpha   90.00000000
_cell_angle_beta   90.00000000
_cell_angle_gamma   90.00000000
_symmetry_Int_Tables_number   1
_chemical_formula_structural   CuGeO3
_chemical_formula_sum   'Cu16 Ge16 O48'
_cell_volume   1021.22193952
_cell_formula_units_Z   16
loop_
 _symmetry_equiv_pos_site_id
 _symmetry_equiv_pos_as_xyz
  1  'x, y, z'
loop_
 _atom_site_type_symbol
 _atom_site_label
 _atom_site_symmetry_multiplicity
 _atom_site_fract_x
 _atom_site_fract_y
 _atom_site_fract_z
 _atom_site_occupancy
  Cu  Cu0  1  0.50000000  0.50000000  -0.00000000  1
  Cu  Cu1  1  -0.00000000  0.00000000  -0.00000000  1
  Cu  Cu2  1  0.50000000  0.50000000  0.74787885  1
  Cu  Cu3  1  -0.00000000  0.00000000  0.25212115  1
  Cu  Cu4  1  0.50000000  0.50000000  0.25212115  1
  Cu  Cu5  1  -0.00000000  0.00000000  0.74787885  1
  Cu  Cu6  1  0.50000000  0.50000000  0.50000000  1
  Cu  Cu7  1  -0.00000000  0.00000000  0.50000000  1
  Cu  Cu8  1  -0.00000000  0.50000000  -0.00000000  1
  Cu  Cu9  1  0.50000000  0.00000000  -0.00000000  1
  Cu  Cu10  1  -0.00000000  0.50000000  0.75062838  1
  Cu  Cu11  1  0.50000000  0.00000000  0.24937162  1
  Cu  Cu12  1  -0.00000000  0.50000000  0.24937162  1
  Cu  Cu13  1  0.50000000  0.00000000  0.75062838  1
  Cu  Cu14  1  -0.00000000  0.50000000  0.50000000  1
  Cu  Cu15  1  0.50000000  0.00000000  0.50000000  1
  Ge  Ge16  1  0.74984295  0.20628429  0.87457669  1
  Ge  Ge17  1  0.25015705  0.79371571  0.87457669  1
  Ge  Ge18  1  0.75015705  0.70628429  0.12542331  1
  Ge  Ge19  1  0.24984295  0.29371571  0.12542331  1
  Ge  Ge20  1  0.25015705  0.79371571  0.12542331  1
  Ge  Ge21  1  0.74984295  0.20628429  0.12542331  1
  Ge  Ge22  1  0.24984295  0.29371571  0.87457669  1
  Ge  Ge23  1  0.75015705  0.70628429  0.87457669  1
  Ge  Ge24  1  0.75271184  0.20652897  0.62503473  1
  Ge  Ge25  1  0.24728816  0.79347103  0.62503473  1
  Ge  Ge26  1  0.74728816  0.70652897  0.37496527  1
  Ge  Ge27  1  0.25271184  0.29347103  0.37496527  1
  Ge  Ge28  1  0.24728816  0.79347103  0.37496527  1
  Ge  Ge29  1  0.75271184  0.20652897  0.37496527  1
  Ge  Ge30  1  0.25271184  0.29347103  0.62503473  1
  Ge  Ge31  1  0.74728816  0.70652897  0.62503473  1
  O  O32  1  0.74960713  0.30806837  -0.00000000  1
  O  O33  1  0.25039287  0.69193163  -0.00000000  1
  O  O34  1  0.75039287  0.80806837  -0.00000000  1
  O  O35  1  0.24960713  0.19193163  -0.00000000  1
  O  O36  1  0.74835773  0.30961413  0.74986491  1
  O  O37  1  0.25164227  0.69038587  0.74986491  1
  O  O38  1  0.75164227  0.80961413  0.25013509  1
  O  O39  1  0.24835773  0.19038587  0.25013509  1
  O  O40  1  0.25164227  0.69038587  0.25013509  1
  O  O41  1  0.74835773  0.30961413  0.25013509  1
  O  O42  1  0.24835773  0.19038587  0.74986491  1
  O  O43  1  0.75164227  0.80961413  0.74986491  1
  O  O44  1  0.74765138  0.30875026  0.50000000  1
  O  O45  1  0.25234862  0.69124974  0.50000000  1
  O  O46  1  0.75234862  0.80875026  0.50000000  1
  O  O47  1  0.24765138  0.19124974  0.50000000  1
  O  O48  1  0.58122818  0.10489227  0.87496839  1
  O  O49  1  0.41877182  0.89510773  0.87496839  1
  O  O50  1  0.91877182  0.60489227  0.12503161  1
  O  O51  1  0.08122818  0.39510773  0.12503161  1
  O  O52  1  0.41877182  0.89510773  0.12503161  1
  O  O53  1  0.58122818  0.10489227  0.12503161  1
  O  O54  1  0.08122818  0.39510773  0.87496839  1
  O  O55  1  0.91877182  0.60489227  0.87496839  1
  O  O56  1  0.59166873  0.09661667  0.62551220  1
  O  O57  1  0.40833127  0.90338333  0.62551220  1
  O  O58  1  0.90833127  0.59661667  0.37448780  1
  O  O59  1  0.09166873  0.40338333  0.37448780  1
  O  O60  1  0.40833127  0.90338333  0.37448780  1
  O  O61  1  0.59166873  0.09661667  0.37448780  1
  O  O62  1  0.09166873  0.40338333  0.62551220  1
  O  O63  1  0.90833127  0.59661667  0.62551220  1
  O  O64  1  0.91730228  0.10333748  0.87367301  1
  O  O65  1  0.08269772  0.89666252  0.87367301  1
  O  O66  1  0.58269772  0.60333748  0.12632699  1
  O  O67  1  0.41730228  0.39666252  0.12632699  1
  O  O68  1  0.08269772  0.89666252  0.12632699  1
  O  O69  1  0.91730228  0.10333748  0.12632699  1
  O  O70  1  0.41730228  0.39666252  0.87367301  1
  O  O71  1  0.58269772  0.60333748  0.87367301  1
  O  O72  1  0.92727177  0.11221349  0.62422828  1
  O  O73  1  0.07272823  0.88778651  0.62422828  1
  O  O74  1  0.57272823  0.61221349  0.37577172  1
  O  O75  1  0.42727177  0.38778651  0.37577172  1
  O  O76  1  0.07272823  0.88778651  0.37577172  1
  O  O77  1  0.92727177  0.11221349  0.37577172  1
  O  O78  1  0.42727177  0.38778651  0.62422828  1
  O  O79  1  0.57272823  0.61221349  0.62422828  1
