# generated using pymatgen
data_CeV2IO9
_symmetry_space_group_name_H-M   'P 1'
_cell_length_a   7.05093154
_cell_length_b   7.31311134
_cell_length_c   14.56359419
_cell_angle_alpha   90.00000000
_cell_angle_beta   90.00000000
_cell_angle_gamma   90.00000000
_symmetry_Int_Tables_number   1
_chemical_formula_structural   CeV2IO9
_chemical_formula_sum   'Ce4 V8 I4 O36'
_cell_volume   750.96077389
_cell_formula_units_Z   4
loop_
 _symmetry_equiv_pos_site_id
 _symmetry_equiv_pos_as_xyz
  1  'x, y, z'
loop_
 _atom_site_type_symbol
 _atom_site_label
 _atom_site_symmetry_multiplicity
 _atom_site_fract_x
 _atom_site_fract_y
 _atom_site_fract_z
 _atom_site_occupancy
  Ce  Ce0  1  0.15694781  0.25000000  0.55137182  1
  Ce  Ce1  1  0.84305219  0.75000000  0.44862818  1
  Ce  Ce2  1  0.15694781  0.75000000  0.94862818  1
  Ce  Ce3  1  0.84305219  0.25000000  0.05137182  1
  V  V4  1  0.53731394  0.50000000  0.25000000  1
  V  V5  1  0.46268606  0.00000000  0.75000000  1
  V  V6  1  0.46268606  0.50000000  0.75000000  1
  V  V7  1  0.53731394  -0.00000000  0.25000000  1
  V  V8  1  0.18160798  0.25000000  0.27081001  1
  V  V9  1  0.81839202  0.75000000  0.72918999  1
  V  V10  1  0.18160798  0.75000000  0.22918999  1
  V  V11  1  0.81839202  0.25000000  0.77081001  1
  I  I12  1  0.70381245  0.25000000  0.44113440  1
  I  I13  1  0.29618755  0.75000000  0.55886560  1
  I  I14  1  0.70381245  0.75000000  0.05886560  1
  I  I15  1  0.29618755  0.25000000  0.94113440  1
  O  O16  1  0.82824953  0.42982741  0.50873591  1
  O  O17  1  0.17175047  0.92982741  0.49126409  1
  O  O18  1  0.82824953  0.57017259  0.99126409  1
  O  O19  1  0.17175047  0.07017259  0.00873591  1
  O  O20  1  0.17175047  0.57017259  0.49126409  1
  O  O21  1  0.82824953  0.07017259  0.50873591  1
  O  O22  1  0.17175047  0.42982741  0.00873591  1
  O  O23  1  0.82824953  0.92982741  0.99126409  1
  O  O24  1  0.47287340  0.25000000  0.49762071  1
  O  O25  1  0.52712660  0.75000000  0.50237929  1
  O  O26  1  0.47287340  0.75000000  0.00237929  1
  O  O27  1  0.52712660  0.25000000  0.99762071  1
  O  O28  1  0.67097093  0.54695086  0.34717704  1
  O  O29  1  0.32902907  0.04695086  0.65282296  1
  O  O30  1  0.67097093  0.45304914  0.15282296  1
  O  O31  1  0.32902907  0.95304914  0.84717704  1
  O  O32  1  0.32902907  0.45304914  0.65282296  1
  O  O33  1  0.67097093  0.95304914  0.34717704  1
  O  O34  1  0.32902907  0.54695086  0.84717704  1
  O  O35  1  0.67097093  0.04695086  0.15282296  1
  O  O36  1  0.46591904  0.75000000  0.22029423  1
  O  O37  1  0.53408096  0.25000000  0.77970577  1
  O  O38  1  0.46591904  0.25000000  0.27970577  1
  O  O39  1  0.53408096  0.75000000  0.72029423  1
  O  O40  1  0.25766527  0.50000000  0.25000000  1
  O  O41  1  0.74233473  -0.00000000  0.75000000  1
  O  O42  1  0.74233473  0.50000000  0.75000000  1
  O  O43  1  0.25766527  0.00000000  0.25000000  1
  O  O44  1  0.00951020  0.25000000  0.18902397  1
  O  O45  1  0.99048980  0.75000000  0.81097603  1
  O  O46  1  0.00951020  0.75000000  0.31097603  1
  O  O47  1  0.99048980  0.25000000  0.68902397  1
  O  O48  1  0.08353408  0.25000000  0.37655871  1
  O  O49  1  0.91646592  0.75000000  0.62344129  1
  O  O50  1  0.08353408  0.75000000  0.12344129  1
  O  O51  1  0.91646592  0.25000000  0.87655871  1
