# generated using pymatgen
data_Na5Fe3F14
_symmetry_space_group_name_H-M   'P 1'
_cell_length_a   7.72379960
_cell_length_b   7.72379960
_cell_length_c   10.28810657
_cell_angle_alpha   90.00000000
_cell_angle_beta   90.00000000
_cell_angle_gamma   90.00000000
_symmetry_Int_Tables_number   1
_chemical_formula_structural   Na5Fe3F14
_chemical_formula_sum   'Na10 Fe6 F28'
_cell_volume   613.75839938
_cell_formula_units_Z   2
loop_
 _symmetry_equiv_pos_site_id
 _symmetry_equiv_pos_as_xyz
  1  'x, y, z'
loop_
 _atom_site_type_symbol
 _atom_site_label
 _atom_site_symmetry_multiplicity
 _atom_site_fract_x
 _atom_site_fract_y
 _atom_site_fract_z
 _atom_site_occupancy
  Na  Na0  1  0.77314171  0.76307847  0.76040915  1
  Na  Na1  1  0.22685829  0.23692153  0.76040915  1
  Na  Na2  1  0.27314171  0.73692153  0.73959085  1
  Na  Na3  1  0.72685829  0.26307847  0.73959085  1
  Na  Na4  1  0.76307847  0.77314171  0.23959085  1
  Na  Na5  1  0.23692153  0.22685829  0.23959085  1
  Na  Na6  1  0.73692153  0.27314171  0.26040915  1
  Na  Na7  1  0.26307847  0.72685829  0.26040915  1
  Na  Na8  1  0.50000000  0.50000000  -0.00000000  1
  Na  Na9  1  -0.00000000  0.00000000  0.50000000  1
  Fe  Fe10  1  -0.00000000  0.50000000  0.99746810  1
  Fe  Fe11  1  0.50000000  0.00000000  0.50253190  1
  Fe  Fe12  1  0.50000000  0.00000000  0.00253190  1
  Fe  Fe13  1  0.00000000  0.50000000  0.49746810  1
  Fe  Fe14  1  0.50000000  0.50000000  0.50000000  1
  Fe  Fe15  1  0.00000000  0.00000000  -0.00000000  1
  F  F16  1  0.19068378  0.50196719  0.87056475  1
  F  F17  1  0.80931622  0.49803281  0.87056475  1
  F  F18  1  0.69068378  0.99803281  0.62943525  1
  F  F19  1  0.30931622  0.00196719  0.62943525  1
  F  F20  1  0.50196719  0.19068378  0.12943525  1
  F  F21  1  0.49803281  0.80931622  0.12943525  1
  F  F22  1  0.99803281  0.69068378  0.37056475  1
  F  F23  1  0.00196719  0.30931622  0.37056475  1
  F  F24  1  0.50500375  0.81586766  0.87209273  1
  F  F25  1  0.49499625  0.18413234  0.87209273  1
  F  F26  1  0.00500375  0.68413234  0.62790727  1
  F  F27  1  0.99499625  0.31586766  0.62790727  1
  F  F28  1  0.81586766  0.50500375  0.12790727  1
  F  F29  1  0.18413234  0.49499625  0.12790727  1
  F  F30  1  0.68413234  0.00500375  0.37209273  1
  F  F31  1  0.31586766  0.99499625  0.37209273  1
  F  F32  1  0.99725047  0.75069375  0.99040457  1
  F  F33  1  0.00274953  0.24930625  0.99040457  1
  F  F34  1  0.49725047  0.74930625  0.50959543  1
  F  F35  1  0.50274953  0.25069375  0.50959543  1
  F  F36  1  0.75069375  0.99725047  0.00959543  1
  F  F37  1  0.24930625  0.00274953  0.00959543  1
  F  F38  1  0.74930625  0.49725047  0.49040457  1
  F  F39  1  0.25069375  0.50274953  0.49040457  1
  F  F40  1  0.50000000  0.50000000  0.68663604  1
  F  F41  1  0.00000000  0.00000000  0.81336396  1
  F  F42  1  0.50000000  0.50000000  0.31336396  1
  F  F43  1  0.00000000  0.00000000  0.18663604  1
