# generated using pymatgen
data_ReH30Ru2(NCl)10
_symmetry_space_group_name_H-M   'P 1'
_cell_length_a   7.25890256
_cell_length_b   7.25890256
_cell_length_c   13.64080956
_cell_angle_alpha   82.48957655
_cell_angle_beta   82.48957655
_cell_angle_gamma   70.51429349
_symmetry_Int_Tables_number   1
_chemical_formula_structural   ReH30Ru2(NCl)10
_chemical_formula_sum   'Re1 H30 Ru2 N10 Cl10'
_cell_volume   668.85315155
_cell_formula_units_Z   1
loop_
 _symmetry_equiv_pos_site_id
 _symmetry_equiv_pos_as_xyz
  1  'x, y, z'
loop_
 _atom_site_type_symbol
 _atom_site_label
 _atom_site_symmetry_multiplicity
 _atom_site_fract_x
 _atom_site_fract_y
 _atom_site_fract_z
 _atom_site_occupancy
  Re  Re0  1  -0.00000000  -0.00000000  0.50000000  1
  H  H1  1  0.25144612  0.68058893  0.87205689  1
  H  H2  1  0.68058893  0.25144612  0.87205689  1
  H  H3  1  0.74855388  0.31941107  0.12794311  1
  H  H4  1  0.31941107  0.74855388  0.12794311  1
  H  H5  1  0.22816942  0.51767377  0.96501727  1
  H  H6  1  0.51767377  0.22816942  0.96501727  1
  H  H7  1  0.77183058  0.48232623  0.03498273  1
  H  H8  1  0.48232623  0.77183058  0.03498273  1
  H  H9  1  0.04960389  0.61723750  0.89120248  1
  H  H10  1  0.61723750  0.04960389  0.89120248  1
  H  H11  1  0.95039611  0.38276250  0.10879752  1
  H  H12  1  0.38276250  0.95039611  0.10879752  1
  H  H13  1  0.10843438  0.54706424  0.65323131  1
  H  H14  1  0.54706424  0.10843438  0.65323131  1
  H  H15  1  0.89156562  0.45293576  0.34676869  1
  H  H16  1  0.45293576  0.89156562  0.34676869  1
  H  H17  1  0.96201889  0.52421409  0.75457330  1
  H  H18  1  0.52421409  0.96201889  0.75457330  1
  H  H19  1  0.03798111  0.47578591  0.24542670  1
  H  H20  1  0.47578591  0.03798111  0.24542670  1
  H  H21  1  0.05705077  0.34164374  0.68266818  1
  H  H22  1  0.34164374  0.05705077  0.68266818  1
  H  H23  1  0.94294923  0.65835626  0.31733182  1
  H  H24  1  0.65835626  0.94294923  0.31733182  1
  H  H25  1  0.55197549  0.55197549  0.75997409  1
  H  H26  1  0.44802451  0.44802451  0.24002591  1
  H  H27  1  0.40638052  0.60151026  0.66810698  1
  H  H28  1  0.60151026  0.40638052  0.66810698  1
  H  H29  1  0.59361948  0.39848974  0.33189302  1
  H  H30  1  0.39848974  0.59361948  0.33189302  1
  Ru  Ru31  1  0.32542151  0.32542151  0.80201310  1
  Ru  Ru32  1  0.67457849  0.67457849  0.19798690  1
  N  N33  1  0.19982998  0.56407270  0.89231656  1
  N  N34  1  0.56407270  0.19982998  0.89231656  1
  N  N35  1  0.80017002  0.43592730  0.10768344  1
  N  N36  1  0.43592730  0.80017002  0.10768344  1
  N  N37  1  0.08716526  0.45047380  0.71218560  1
  N  N38  1  0.45047380  0.08716526  0.71218560  1
  N  N39  1  0.91283474  0.54952620  0.28781440  1
  N  N40  1  0.54952620  0.91283474  0.28781440  1
  N  N41  1  0.48963765  0.48963765  0.71414431  1
  N  N42  1  0.51036235  0.51036235  0.28585569  1
  Cl  Cl43  1  0.00353036  0.00353036  0.32446443  1
  Cl  Cl44  1  0.99646964  0.99646964  0.67553557  1
  Cl  Cl45  1  0.71584685  0.28415315  0.50000000  1
  Cl  Cl46  1  0.28415315  0.71584685  0.50000000  1
  Cl  Cl47  1  0.79863161  0.79863161  0.52082870  1
  Cl  Cl48  1  0.20136839  0.20136839  0.47917130  1
  Cl  Cl49  1  0.14572762  0.14572762  0.90053453  1
  Cl  Cl50  1  0.85427238  0.85427238  0.09946547  1
  Cl  Cl51  1  0.67166429  0.67166429  0.87132212  1
  Cl  Cl52  1  0.32833571  0.32833571  0.12867788  1
