# generated using pymatgen
data_Na2H16SO12
_symmetry_space_group_name_H-M   'P 1'
_cell_length_a   8.06825090
_cell_length_b   8.25676103
_cell_length_c   8.39666014
_cell_angle_alpha   85.66168531
_cell_angle_beta   86.06508409
_cell_angle_gamma   88.25733381
_symmetry_Int_Tables_number   1
_chemical_formula_structural   Na2H16SO12
_chemical_formula_sum   'Na4 H32 S2 O24'
_cell_volume   556.26910909
_cell_formula_units_Z   2
loop_
 _symmetry_equiv_pos_site_id
 _symmetry_equiv_pos_as_xyz
  1  'x, y, z'
loop_
 _atom_site_type_symbol
 _atom_site_label
 _atom_site_symmetry_multiplicity
 _atom_site_fract_x
 _atom_site_fract_y
 _atom_site_fract_z
 _atom_site_occupancy
  Na  Na0  1  -0.00000000  0.00000000  -0.00000000  1
  Na  Na1  1  0.50000000  0.00000000  0.50000000  1
  Na  Na2  1  0.63705599  0.59382137  0.32122277  1
  Na  Na3  1  0.36294401  0.40617863  0.67877723  1
  H  H4  1  0.66180703  0.92388180  0.19139311  1
  H  H5  1  0.33819297  0.07611820  0.80860689  1
  H  H6  1  0.62254720  0.25809089  0.22348617  1
  H  H7  1  0.37745280  0.74190911  0.77651383  1
  H  H8  1  0.55397014  0.66617818  0.00887846  1
  H  H9  1  0.44602986  0.33382182  0.99112154  1
  H  H10  1  0.96949625  0.90551431  0.67477961  1
  H  H11  1  0.03050375  0.09448569  0.32522039  1
  H  H12  1  0.80505996  0.30961674  0.15390602  1
  H  H13  1  0.19494004  0.69038326  0.84609398  1
  H  H14  1  0.90900888  0.08637862  0.65268324  1
  H  H15  1  0.09099112  0.91362138  0.34731676  1
  H  H16  1  0.79674941  0.91916152  0.31569545  1
  H  H17  1  0.20325059  0.08083848  0.68430455  1
  H  H18  1  0.39063694  0.59369549  0.09578207  1
  H  H19  1  0.60936306  0.40630451  0.90421793  1
  H  H20  1  0.67162591  0.94298260  0.88913294  1
  H  H21  1  0.32837409  0.05701740  0.11086706  1
  H  H22  1  0.91925508  0.66207595  0.94950883  1
  H  H23  1  0.08074492  0.33792405  0.05049117  1
  H  H24  1  0.64399728  0.11653087  0.94933004  1
  H  H25  1  0.35600272  0.88346913  0.05066996  1
  H  H26  1  0.01510627  0.66718183  0.10430694  1
  H  H27  1  0.98489373  0.33281817  0.89569306  1
  H  H28  1  -0.00178113  0.48582534  0.33495135  1
  H  H29  1  0.00178113  0.51417466  0.66504865  1
  H  H30  1  0.25039756  0.76081830  0.55770392  1
  H  H31  1  0.74960244  0.23918170  0.44229608  1
  H  H32  1  0.94287115  0.64646751  0.41558542  1
  H  H33  1  0.05712885  0.35353249  0.58441458  1
  H  H34  1  0.29361320  0.69777412  0.39095415  1
  H  H35  1  0.70638680  0.30222588  0.60904585  1
  S  S36  1  0.70969333  0.66684652  0.70650783  1
  S  S37  1  0.29030667  0.33315348  0.29349217  1
  O  O38  1  0.69938960  0.00946817  0.97539381  1
  O  O39  1  0.30061040  0.99053183  0.02460619  1
  O  O40  1  0.01816115  0.70834491  0.99060780  1
  O  O41  1  0.98183885  0.29165509  0.00939220  1
  O  O42  1  0.99575631  0.01554441  0.70217093  1
  O  O43  1  0.00424369  0.98445559  0.29782907  1
  O  O44  1  0.68088420  0.88642741  0.30345108  1
  O  O45  1  0.31911580  0.11357259  0.69654892  1
  O  O46  1  0.60598284  0.81866314  0.71438445  1
  O  O47  1  0.39401716  0.18133686  0.28561555  1
  O  O48  1  0.26627092  0.79879083  0.44268738  1
  O  O49  1  0.73372908  0.20120917  0.55731262  1
  O  O50  1  0.63223199  0.54874168  0.61028629  1
  O  O51  1  0.36776801  0.45125832  0.38971371  1
  O  O52  1  0.71922612  0.32111923  0.24333173  1
  O  O53  1  0.28077388  0.67888077  0.75666827  1
  O  O54  1  0.46494637  0.68748698  0.09221861  1
  O  O55  1  0.53505363  0.31251302  0.90778139  1
  O  O56  1  0.94381710  0.59365053  0.31414495  1
  O  O57  1  0.05618290  0.40634947  0.68585505  1
  O  O58  1  0.88128048  0.70420055  0.63492004  1
  O  O59  1  0.11871952  0.29579945  0.36507996  1
  O  O60  1  0.72386700  0.59246853  0.87564072  1
  O  O61  1  0.27613300  0.40753147  0.12435928  1
