# generated using pymatgen
data_BaZnRu5O11
_symmetry_space_group_name_H-M   'P 1'
_cell_length_a   11.86981316
_cell_length_b   11.86882592
_cell_length_c   13.94522276
_cell_angle_alpha   90.00000000
_cell_angle_beta   90.00000000
_cell_angle_gamma   119.99342357
_symmetry_Int_Tables_number   1
_chemical_formula_structural   BaZnRu5O11
_chemical_formula_sum   'Ba8 Zn8 Ru40 O88'
_cell_volume   1701.51783997
_cell_formula_units_Z   8
loop_
 _symmetry_equiv_pos_site_id
 _symmetry_equiv_pos_as_xyz
  1  'x, y, z'
loop_
 _atom_site_type_symbol
 _atom_site_label
 _atom_site_symmetry_multiplicity
 _atom_site_fract_x
 _atom_site_fract_y
 _atom_site_fract_z
 _atom_site_occupancy
  Ba  Ba0  1  0.33343824  0.66671754  0.75000000  1
  Ba  Ba1  1  0.66656176  0.33328246  0.25000000  1
  Ba  Ba2  1  0.82911615  0.66940653  0.75000000  1
  Ba  Ba3  1  0.33049759  0.15964238  0.75000000  1
  Ba  Ba4  1  0.84027688  0.17080391  0.75000000  1
  Ba  Ba5  1  0.17088385  0.33059347  0.25000000  1
  Ba  Ba6  1  0.66950241  0.84035762  0.25000000  1
  Ba  Ba7  1  0.15972312  0.82919609  0.25000000  1
  Zn  Zn8  1  0.66666624  0.33333004  0.75000000  1
  Zn  Zn9  1  0.33333376  0.66666996  0.25000000  1
  Zn  Zn10  1  0.15820097  0.82703280  0.75000000  1
  Zn  Zn11  1  0.17305601  0.33111401  0.75000000  1
  Zn  Zn12  1  0.66886415  0.84183370  0.75000000  1
  Zn  Zn13  1  0.84179903  0.17296720  0.25000000  1
  Zn  Zn14  1  0.82694399  0.66888599  0.25000000  1
  Zn  Zn15  1  0.33113585  0.15816630  0.25000000  1
  Ru  Ru16  1  -0.00001141  0.99990924  0.64870735  1
  Ru  Ru17  1  0.00001141  0.00009076  0.14870735  1
  Ru  Ru18  1  0.00001141  0.00009076  0.35129265  1
  Ru  Ru19  1  -0.00001141  0.99990924  0.85129265  1
  Ru  Ru20  1  0.97232948  0.73237434  0.50122095  1
  Ru  Ru21  1  0.26735589  0.24000569  0.50115079  1
  Ru  Ru22  1  0.76017490  0.02750672  0.50125680  1
  Ru  Ru23  1  0.02767052  0.26762566  0.00122095  1
  Ru  Ru24  1  0.73264411  0.75999431  0.00115079  1
  Ru  Ru25  1  0.23982510  0.97249328  0.00125680  1
  Ru  Ru26  1  0.02767052  0.26762566  0.49877905  1
  Ru  Ru27  1  0.73264411  0.75999431  0.49884921  1
  Ru  Ru28  1  0.23982510  0.97249328  0.49874320  1
  Ru  Ru29  1  0.97232948  0.73237434  0.99877905  1
  Ru  Ru30  1  0.26735589  0.24000569  0.99884921  1
  Ru  Ru31  1  0.76017490  0.02750672  0.99874320  1
  Ru  Ru32  1  0.50442937  0.50528994  0.65124732  1
  Ru  Ru33  1  0.49476289  0.99913033  0.65121088  1
  Ru  Ru34  1  0.00099695  0.49555254  0.65122237  1
  Ru  Ru35  1  0.49557063  0.49471006  0.15124732  1
  Ru  Ru36  1  0.50523711  0.00086967  0.15121088  1
  Ru  Ru37  1  0.99900305  0.50444746  0.15122237  1
  Ru  Ru38  1  0.49557063  0.49471006  0.34875268  1
  Ru  Ru39  1  0.50523711  0.00086967  0.34878912  1
  Ru  Ru40  1  0.99900305  0.50444746  0.34877763  1
  Ru  Ru41  1  0.50442937  0.50528994  0.84875268  1
  Ru  Ru42  1  0.49476289  0.99913033  0.84878912  1
  Ru  Ru43  1  0.00099695  0.49555254  0.84877763  1
  Ru  Ru44  1  0.75452476  0.50964053  0.49920423  1
  Ru  Ru45  1  0.49041616  0.24494898  0.49926192  1
  Ru  Ru46  1  0.75502586  0.24547479  0.49927800  1
  Ru  Ru47  1  0.24547524  0.49035947  0.99920423  1
  Ru  Ru48  1  0.50958384  0.75505102  0.99926192  1
  Ru  Ru49  1  0.24497414  0.75452521  0.99927800  1
  Ru  Ru50  1  0.24547524  0.49035947  0.50079577  1
  Ru  Ru51  1  0.50958384  0.75505102  0.50073808  1
  Ru  Ru52  1  0.24497414  0.75452521  0.50072200  1
  Ru  Ru53  1  0.75452476  0.50964053  0.00079577  1
  Ru  Ru54  1  0.49041616  0.24494898  0.00073808  1
  Ru  Ru55  1  0.75502586  0.24547479  0.00072200  1
  O  O56  1  0.89724175  0.82858487  0.57710962  1
  O  O57  1  0.17164575  0.06867929  0.57731748  1
  O  O58  1  0.93127607  0.10287134  0.57730755  1
  O  O59  1  0.10275825  0.17141513  0.07710962  1
  O  O60  1  0.82835425  0.93132071  0.07731748  1
  O  O61  1  0.06872393  0.89712866  0.07730755  1
  O  O62  1  0.10275825  0.17141513  0.42289038  1
  O  O63  1  0.82835425  0.93132071  0.42268252  1
  O  O64  1  0.06872393  0.89712866  0.42269245  1
  O  O65  1  0.89724175  0.82858487  0.92289038  1
  O  O66  1  0.17164575  0.06867929  0.92268252  1
  O  O67  1  0.93127607  0.10287134  0.92269245  1
  O  O68  1  0.41627451  0.82995215  0.57648227  1
  O  O69  1  0.17003024  0.58627487  0.57649759  1
  O  O70  1  0.41366890  0.58381959  0.57651367  1
  O  O71  1  0.58372549  0.17004785  0.07648227  1
  O  O72  1  0.82996976  0.41372513  0.07649759  1
  O  O73  1  0.58633110  0.41618041  0.07651367  1
  O  O74  1  0.58372549  0.17004785  0.42351773  1
  O  O75  1  0.82996976  0.41372513  0.42350241  1
  O  O76  1  0.58633110  0.41618041  0.42348633  1
  O  O77  1  0.41627451  0.82995215  0.92351773  1
  O  O78  1  0.17003024  0.58627487  0.92350241  1
  O  O79  1  0.41366890  0.58381959  0.92348633  1
  O  O80  1  0.42349017  0.33133942  0.58906297  1
  O  O81  1  0.66846728  0.09195553  0.58902018  1
  O  O82  1  0.90793508  0.57648241  0.58910098  1
  O  O83  1  0.57650983  0.66866058  0.08906297  1
  O  O84  1  0.33153272  0.90804447  0.08902018  1
  O  O85  1  0.09206492  0.42351759  0.08910098  1
  O  O86  1  0.57650983  0.66866058  0.41093703  1
  O  O87  1  0.33153272  0.90804447  0.41097982  1
  O  O88  1  0.09206492  0.42351759  0.41089902  1
  O  O89  1  0.42349017  0.33133942  0.91093703  1
  O  O90  1  0.66846728  0.09195553  0.91097982  1
  O  O91  1  0.90793508  0.57648241  0.91089902  1
  O  O92  1  0.92640638  0.33481732  0.57239435  1
  O  O93  1  0.66519825  0.59164271  0.57236313  1
  O  O94  1  0.40828698  0.07356019  0.57262052  1
  O  O95  1  0.07359362  0.66518268  0.07239435  1
  O  O96  1  0.33480175  0.40835729  0.07236313  1
  O  O97  1  0.59171302  0.92643981  0.07262052  1
  O  O98  1  0.07359362  0.66518268  0.42760565  1
  O  O99  1  0.33480175  0.40835729  0.42763687  1
  O  O100  1  0.59171302  0.92643981  0.42737948  1
  O  O101  1  0.92640638  0.33481732  0.92760565  1
  O  O102  1  0.66519825  0.59164271  0.92763687  1
  O  O103  1  0.40828698  0.07356019  0.92737948  1
  O  O104  1  0.06044656  0.91607495  0.75000000  1
  O  O105  1  0.08386190  0.14429276  0.75000000  1
  O  O106  1  0.85573897  0.93961272  0.75000000  1
  O  O107  1  0.93955344  0.08392505  0.25000000  1
  O  O108  1  0.91613810  0.85570724  0.25000000  1
  O  O109  1  0.14426103  0.06038728  0.25000000  1
  O  O110  1  0.58677501  0.43976910  0.75000000  1
  O  O111  1  0.56022988  0.14704622  0.75000000  1
  O  O112  1  0.85311149  0.41331958  0.75000000  1
  O  O113  1  0.41322499  0.56023090  0.25000000  1
  O  O114  1  0.43977012  0.85295378  0.25000000  1
  O  O115  1  0.14688851  0.58668042  0.25000000  1
  O  O116  1  0.57017445  0.92922829  0.75000000  1
  O  O117  1  0.07046777  0.64073552  0.75000000  1
  O  O118  1  0.35920965  0.42988152  0.75000000  1
  O  O119  1  0.42982555  0.07077171  0.25000000  1
  O  O120  1  0.92953223  0.35926448  0.25000000  1
  O  O121  1  0.64079035  0.57011848  0.25000000  1
  O  O122  1  0.34437174  0.91944980  0.75000000  1
  O  O123  1  0.08052740  0.42490701  0.75000000  1
  O  O124  1  0.57509089  0.65560102  0.75000000  1
  O  O125  1  0.65562826  0.08055020  0.25000000  1
  O  O126  1  0.91947260  0.57509299  0.25000000  1
  O  O127  1  0.42490911  0.34439898  0.25000000  1
  O  O128  1  0.66657477  0.33327423  0.92833621  1
  O  O129  1  0.33342523  0.66672577  0.42833621  1
  O  O130  1  0.33342523  0.66672577  0.07166379  1
  O  O131  1  0.66657477  0.33327423  0.57166379  1
  O  O132  1  0.14050075  0.81232170  0.91726451  1
  O  O133  1  0.18769134  0.32816191  0.91723847  1
  O  O134  1  0.67185156  0.85952832  0.91716123  1
  O  O135  1  0.85949925  0.18767830  0.41726451  1
  O  O136  1  0.81230866  0.67183809  0.41723847  1
  O  O137  1  0.32814844  0.14047168  0.41716123  1
  O  O138  1  0.85949925  0.18767830  0.08273549  1
  O  O139  1  0.81230866  0.67183809  0.08276153  1
  O  O140  1  0.32814844  0.14047168  0.08283877  1
  O  O141  1  0.14050075  0.81232170  0.58273549  1
  O  O142  1  0.18769134  0.32816191  0.58276153  1
  O  O143  1  0.67185156  0.85952832  0.58283877  1
