# generated using pymatgen
data_Yb3Zn17
_symmetry_space_group_name_H-M   'P 1'
_cell_length_a   12.23080426
_cell_length_b   12.23080426
_cell_length_c   12.23080426
_cell_angle_alpha   109.47122063
_cell_angle_beta   109.47122063
_cell_angle_gamma   109.47122063
_symmetry_Int_Tables_number   1
_chemical_formula_structural   Yb3Zn17
_chemical_formula_sum   'Yb12 Zn68'
_cell_volume   1408.45558552
_cell_formula_units_Z   4
loop_
 _symmetry_equiv_pos_site_id
 _symmetry_equiv_pos_as_xyz
  1  'x, y, z'
loop_
 _atom_site_type_symbol
 _atom_site_label
 _atom_site_symmetry_multiplicity
 _atom_site_fract_x
 _atom_site_fract_y
 _atom_site_fract_z
 _atom_site_occupancy
  Yb  Yb0  1  0.30196189  0.11790540  0.81594351  1
  Yb  Yb1  1  0.69803811  0.88209460  0.18405649  1
  Yb  Yb2  1  0.69803811  0.51398162  0.81594351  1
  Yb  Yb3  1  0.30196189  0.48601838  0.18405649  1
  Yb  Yb4  1  0.11790540  0.81594351  0.30196189  1
  Yb  Yb5  1  0.88209460  0.18405649  0.69803811  1
  Yb  Yb6  1  0.51398162  0.81594351  0.69803811  1
  Yb  Yb7  1  0.48601838  0.18405649  0.30196189  1
  Yb  Yb8  1  0.81594351  0.30196189  0.11790540  1
  Yb  Yb9  1  0.18405649  0.69803811  0.88209460  1
  Yb  Yb10  1  0.81594351  0.69803811  0.51398162  1
  Yb  Yb11  1  0.18405649  0.30196189  0.48601838  1
  Zn  Zn12  1  0.59108221  0.00000000  0.59108221  1
  Zn  Zn13  1  0.40891779  0.00000000  0.40891779  1
  Zn  Zn14  1  0.00000000  0.59108221  0.59108221  1
  Zn  Zn15  1  0.00000000  0.40891779  0.40891779  1
  Zn  Zn16  1  0.59108221  0.59108221  -0.00000000  1
  Zn  Zn17  1  0.40891779  0.40891779  -0.00000000  1
  Zn  Zn18  1  0.30619012  0.50000000  0.80619012  1
  Zn  Zn19  1  0.69380988  0.50000000  0.19380988  1
  Zn  Zn20  1  0.50000000  0.80619012  0.30619012  1
  Zn  Zn21  1  0.50000000  0.19380988  0.69380988  1
  Zn  Zn22  1  0.80619012  0.30619012  0.50000000  1
  Zn  Zn23  1  0.19380988  0.69380988  0.50000000  1
  Zn  Zn24  1  -0.00000000  -0.00000000  0.67428480  1
  Zn  Zn25  1  0.67428480  0.00000000  0.00000000  1
  Zn  Zn26  1  0.00000000  0.67428480  0.00000000  1
  Zn  Zn27  1  0.32571520  0.32571520  0.32571520  1
  Zn  Zn28  1  0.00000000  0.00000000  0.32571520  1
  Zn  Zn29  1  0.32571520  -0.00000000  -0.00000000  1
  Zn  Zn30  1  -0.00000000  0.32571520  -0.00000000  1
  Zn  Zn31  1  0.67428480  0.67428480  0.67428480  1
  Zn  Zn32  1  0.09208578  0.85790358  0.76581781  1
  Zn  Zn33  1  0.90791422  0.14209642  0.23418219  1
  Zn  Zn34  1  0.90791422  0.67373203  0.76581781  1
  Zn  Zn35  1  0.09208578  0.32626797  0.23418219  1
  Zn  Zn36  1  0.85790358  0.76581781  0.09208578  1
  Zn  Zn37  1  0.14209642  0.23418219  0.90791422  1
  Zn  Zn38  1  0.67373203  0.76581781  0.90791422  1
  Zn  Zn39  1  0.32626797  0.23418219  0.09208578  1
  Zn  Zn40  1  0.76581781  0.09208578  0.85790358  1
  Zn  Zn41  1  0.23418219  0.90791422  0.14209642  1
  Zn  Zn42  1  0.76581781  0.90791422  0.67373203  1
  Zn  Zn43  1  0.23418219  0.09208578  0.32626797  1
  Zn  Zn44  1  0.34857638  0.94494221  0.59636583  1
  Zn  Zn45  1  0.65142362  0.05505779  0.40363417  1
  Zn  Zn46  1  0.65142362  0.24778944  0.59636583  1
  Zn  Zn47  1  0.34857638  0.75221056  0.40363417  1
  Zn  Zn48  1  0.94494221  0.59636583  0.34857638  1
  Zn  Zn49  1  0.05505779  0.40363417  0.65142362  1
  Zn  Zn50  1  0.24778944  0.59636583  0.65142362  1
  Zn  Zn51  1  0.75221056  0.40363417  0.34857638  1
  Zn  Zn52  1  0.59636583  0.34857638  0.94494221  1
  Zn  Zn53  1  0.40363417  0.65142362  0.05505779  1
  Zn  Zn54  1  0.59636583  0.65142362  0.24778944  1
  Zn  Zn55  1  0.40363417  0.34857638  0.75221056  1
  Zn  Zn56  1  0.13871261  0.22808258  0.68398019  1
  Zn  Zn57  1  0.45589761  0.77191742  0.91063003  1
  Zn  Zn58  1  0.86128739  0.54526758  0.08936997  1
  Zn  Zn59  1  0.54410239  0.45473242  0.31601981  1
  Zn  Zn60  1  0.22808258  0.68398019  0.13871261  1
  Zn  Zn61  1  0.77191742  0.91063003  0.45589761  1
  Zn  Zn62  1  0.54526758  0.08936997  0.86128739  1
  Zn  Zn63  1  0.45473242  0.31601981  0.54410239  1
  Zn  Zn64  1  0.68398019  0.13871261  0.22808258  1
  Zn  Zn65  1  0.91063003  0.45589761  0.77191742  1
  Zn  Zn66  1  0.08936997  0.86128739  0.54526758  1
  Zn  Zn67  1  0.31601981  0.54410239  0.45473242  1
  Zn  Zn68  1  0.86128739  0.77191742  0.31601981  1
  Zn  Zn69  1  0.54410239  0.22808258  0.08936997  1
  Zn  Zn70  1  0.13871261  0.45473242  0.91063003  1
  Zn  Zn71  1  0.45589761  0.54526758  0.68398019  1
  Zn  Zn72  1  0.77191742  0.31601981  0.86128739  1
  Zn  Zn73  1  0.22808258  0.08936997  0.54410239  1
  Zn  Zn74  1  0.45473242  0.91063003  0.13871261  1
  Zn  Zn75  1  0.54526758  0.68398019  0.45589761  1
  Zn  Zn76  1  0.31601981  0.86128739  0.77191742  1
  Zn  Zn77  1  0.08936997  0.54410239  0.22808258  1
  Zn  Zn78  1  0.91063003  0.13871261  0.45473242  1
  Zn  Zn79  1  0.68398019  0.45589761  0.54526758  1
