# generated using pymatgen
data_Li4Fe5Sb(PO4)6
_symmetry_space_group_name_H-M   'P 1'
_cell_length_a   8.37422032
_cell_length_b   9.10042053
_cell_length_c   9.10907915
_cell_angle_alpha   60.10033496
_cell_angle_beta   58.24185055
_cell_angle_gamma   58.06545751
_symmetry_Int_Tables_number   1
_chemical_formula_structural   Li4Fe5Sb(PO4)6
_chemical_formula_sum   'Li4 Fe5 Sb1 P6 O24'
_cell_volume   477.05691218
_cell_formula_units_Z   1
loop_
 _symmetry_equiv_pos_site_id
 _symmetry_equiv_pos_as_xyz
  1  'x, y, z'
loop_
 _atom_site_type_symbol
 _atom_site_label
 _atom_site_symmetry_multiplicity
 _atom_site_fract_x
 _atom_site_fract_y
 _atom_site_fract_z
 _atom_site_occupancy
  Li  Li0  1  0.24031012  0.86106601  0.64736668  1
  Li  Li1  1  0.76414037  0.16136761  0.35421938  1
  Li  Li2  1  0.75892737  0.72127836  0.15902498  1
  Li  Li3  1  0.76631769  0.35910545  0.71549461  1
  Fe  Fe4  1  0.00973820  0.99859724  0.00222419  1
  Fe  Fe5  1  0.05091308  0.64676704  0.65158394  1
  Fe  Fe6  1  0.49681273  0.49593815  0.49923832  1
  Fe  Fe7  1  0.44226715  0.85034422  0.85152001  1
  Fe  Fe8  1  0.97403446  0.34196895  0.33973241  1
  Sb  Sb9  1  0.52069809  0.16431417  0.15787739  1
  P  P10  1  0.25517428  0.25245919  0.56833806  1
  P  P11  1  0.25266030  0.92516874  0.25113399  1
  P  P12  1  0.25270564  0.56696019  0.92721775  1
  P  P13  1  0.73934368  0.45620115  0.05301174  1
  P  P14  1  0.75321288  0.05065956  0.75011926  1
  P  P15  1  0.72846340  0.75512101  0.45462503  1
  O  O16  1  0.08034235  0.09345899  0.31087308  1
  O  O17  1  0.07796738  0.51536007  0.09293945  1
  O  O18  1  0.07887921  0.31565859  0.51172921  1
  O  O19  1  0.22199588  0.09865996  0.74982464  1
  O  O20  1  0.46650183  0.18990082  0.42358398  1
  O  O21  1  0.25917145  0.41164565  0.58807797  1
  O  O22  1  0.21449050  0.91649680  0.10822632  1
  O  O23  1  0.25819321  0.74777654  0.41816017  1
  O  O24  1  0.54676001  0.60071017  0.02456906  1
  O  O25  1  0.26318764  0.58832911  0.74003337  1
  O  O26  1  0.76985432  0.25464212  0.07758157  1
  O  O27  1  0.57403844  0.00481249  0.81741570  1
  O  O28  1  0.46545488  0.92716009  0.18177969  1
  O  O29  1  0.21634269  0.76071837  0.90927896  1
  O  O30  1  0.73277856  0.43215237  0.24039654  1
  O  O31  1  0.46435047  0.42389024  0.92841749  1
  O  O32  1  0.73464763  0.23896394  0.59508357  1
  O  O33  1  0.77271328  0.08204747  0.89982528  1
  O  O34  1  0.72973646  0.59430171  0.42998445  1
  O  O35  1  0.52341401  0.82748073  0.59197250  1
  O  O36  1  0.76820250  0.90022978  0.25617899  1
  O  O37  1  0.89768625  0.69532227  0.51715686  1
  O  O38  1  0.92418437  0.49852956  0.89388480  1
  O  O39  1  0.95338525  0.89743512  0.68729962  1
