# generated using pymatgen
data_YbTa5Ag2O15
_symmetry_space_group_name_H-M   'P 1'
_cell_length_a   3.93361626
_cell_length_b   12.59706051
_cell_length_c   12.59706051
_cell_angle_alpha   90.00000000
_cell_angle_beta   90.00000000
_cell_angle_gamma   90.00000000
_symmetry_Int_Tables_number   1
_chemical_formula_structural   YbTa5Ag2O15
_chemical_formula_sum   'Yb2 Ta10 Ag4 O30'
_cell_volume   624.20956822
_cell_formula_units_Z   2
loop_
 _symmetry_equiv_pos_site_id
 _symmetry_equiv_pos_as_xyz
  1  'x, y, z'
loop_
 _atom_site_type_symbol
 _atom_site_label
 _atom_site_symmetry_multiplicity
 _atom_site_fract_x
 _atom_site_fract_y
 _atom_site_fract_z
 _atom_site_occupancy
  Yb  Yb0  1  0.50000000  0.00000000  0.00000000  1
  Yb  Yb1  1  0.50000000  0.50000000  0.50000000  1
  Ta  Ta2  1  0.00000000  0.00000000  0.50000000  1
  Ta  Ta3  1  0.00000000  0.50000000  0.00000000  1
  Ta  Ta4  1  -0.00000000  0.07910514  0.20917958  1
  Ta  Ta5  1  0.00000000  0.92089486  0.79082042  1
  Ta  Ta6  1  -0.00000000  0.79082042  0.07910514  1
  Ta  Ta7  1  -0.00000000  0.42089486  0.70917958  1
  Ta  Ta8  1  0.00000000  0.20917958  0.92089486  1
  Ta  Ta9  1  0.00000000  0.57910514  0.29082042  1
  Ta  Ta10  1  0.00000000  0.70917958  0.57910514  1
  Ta  Ta11  1  -0.00000000  0.29082042  0.42089486  1
  Ag  Ag12  1  0.50000000  0.17298055  0.67298055  1
  Ag  Ag13  1  0.50000000  0.82701945  0.32701945  1
  Ag  Ag14  1  0.50000000  0.32701945  0.17298055  1
  Ag  Ag15  1  0.50000000  0.67298055  0.82701945  1
  O  O16  1  0.50000000  0.07987564  0.19179408  1
  O  O17  1  0.50000000  0.92012436  0.80820592  1
  O  O18  1  0.50000000  0.80820592  0.07987564  1
  O  O19  1  0.50000000  0.42012436  0.69179408  1
  O  O20  1  0.50000000  0.19179408  0.92012436  1
  O  O21  1  0.50000000  0.57987564  0.30820592  1
  O  O22  1  0.50000000  0.69179408  0.57987564  1
  O  O23  1  0.50000000  0.30820592  0.42012436  1
  O  O24  1  0.00000000  0.72532788  0.22532788  1
  O  O25  1  -0.00000000  0.27467212  0.77467212  1
  O  O26  1  0.00000000  0.77467212  0.72532788  1
  O  O27  1  -0.00000000  0.22532788  0.27467212  1
  O  O28  1  0.50000000  0.00000000  0.50000000  1
  O  O29  1  0.50000000  0.50000000  -0.00000000  1
  O  O30  1  -0.00000000  0.13296244  0.05851656  1
  O  O31  1  0.00000000  0.86703756  0.94148344  1
  O  O32  1  -0.00000000  0.94148344  0.13296244  1
  O  O33  1  -0.00000000  0.36703756  0.55851656  1
  O  O34  1  0.00000000  0.05851656  0.86703756  1
  O  O35  1  0.00000000  0.63296244  0.44148344  1
  O  O36  1  0.00000000  0.55851656  0.63296244  1
  O  O37  1  -0.00000000  0.44148344  0.36703756  1
  O  O38  1  0.00000000  0.00064303  0.34157955  1
  O  O39  1  -0.00000000  0.99935697  0.65842045  1
  O  O40  1  0.00000000  0.65842045  0.00064303  1
  O  O41  1  0.00000000  0.49935697  0.84157955  1
  O  O42  1  -0.00000000  0.34157955  0.99935697  1
  O  O43  1  -0.00000000  0.50064303  0.15842045  1
  O  O44  1  -0.00000000  0.84157955  0.50064303  1
  O  O45  1  0.00000000  0.15842045  0.49935697  1
