# generated using pymatgen
data_La2Si(IO2)2
_symmetry_space_group_name_H-M   'P 1'
_cell_length_a   8.56450881
_cell_length_b   8.61479842
_cell_length_c   22.67199805
_cell_angle_alpha   90.00000000
_cell_angle_beta   92.65561053
_cell_angle_gamma   90.00000000
_symmetry_Int_Tables_number   1
_chemical_formula_structural   La2Si(IO2)2
_chemical_formula_sum   'La16 Si8 I16 O32'
_cell_volume   1670.97796752
_cell_formula_units_Z   8
loop_
 _symmetry_equiv_pos_site_id
 _symmetry_equiv_pos_as_xyz
  1  'x, y, z'
loop_
 _atom_site_type_symbol
 _atom_site_label
 _atom_site_symmetry_multiplicity
 _atom_site_fract_x
 _atom_site_fract_y
 _atom_site_fract_z
 _atom_site_occupancy
  La  La0  1  0.37558733  0.56300703  0.65456613  1
  La  La1  1  0.62441267  0.06300703  0.84543387  1
  La  La2  1  0.62441267  0.43699297  0.34543387  1
  La  La3  1  0.37558733  0.93699297  0.15456613  1
  La  La4  1  0.87502855  0.70320021  0.65499246  1
  La  La5  1  0.12497145  0.20320021  0.84500754  1
  La  La6  1  0.12497145  0.29679979  0.34500754  1
  La  La7  1  0.87502855  0.79679979  0.15499246  1
  La  La8  1  0.24260575  0.69397169  0.81265554  1
  La  La9  1  0.75739425  0.19397169  0.68734446  1
  La  La10  1  0.75739425  0.30602831  0.18734446  1
  La  La11  1  0.24260575  0.80602831  0.31265554  1
  La  La12  1  0.74142483  0.57314778  0.81226572  1
  La  La13  1  0.25857517  0.07314778  0.68773428  1
  La  La14  1  0.25857517  0.42685222  0.18773428  1
  La  La15  1  0.74142483  0.92685222  0.31226572  1
  Si  Si16  1  0.03738100  0.43678503  0.73745312  1
  Si  Si17  1  0.96261900  0.93678503  0.76254688  1
  Si  Si18  1  0.96261900  0.56321497  0.26254688  1
  Si  Si19  1  0.03738100  0.06321497  0.23745312  1
  Si  Si20  1  0.46378788  0.32904664  0.76278982  1
  Si  Si21  1  0.53621212  0.82904664  0.73721018  1
  Si  Si22  1  0.53621212  0.67095336  0.23721018  1
  Si  Si23  1  0.46378788  0.17095336  0.26278982  1
  I  I24  1  0.66725582  0.45117256  0.57188885  1
  I  I25  1  0.33274418  0.95117256  0.92811115  1
  I  I26  1  0.33274418  0.54882744  0.42811115  1
  I  I27  1  0.66725582  0.04882744  0.07188885  1
  I  I28  1  0.16496022  0.81507310  0.57192703  1
  I  I29  1  0.83503978  0.31507310  0.92807297  1
  I  I30  1  0.83503978  0.18492690  0.42807297  1
  I  I31  1  0.16496022  0.68492690  0.07192703  1
  I  I32  1  0.63608773  0.95582272  0.58047846  1
  I  I33  1  0.36391227  0.45582272  0.91952154  1
  I  I34  1  0.36391227  0.04417728  0.41952154  1
  I  I35  1  0.63608773  0.54417728  0.08047846  1
  I  I36  1  0.13984749  0.30667477  0.57978387  1
  I  I37  1  0.86015251  0.80667477  0.92021613  1
  I  I38  1  0.86015251  0.69332523  0.42021613  1
  I  I39  1  0.13984749  0.19332523  0.07978387  1
  O  O40  1  0.36813201  0.30810579  0.29566704  1
  O  O41  1  0.63186799  0.80810579  0.20433296  1
  O  O42  1  0.63186799  0.69189421  0.70433296  1
  O  O43  1  0.36813201  0.19189421  0.79566704  1
  O  O44  1  0.41384477  0.51019153  0.76950748  1
  O  O45  1  0.58615523  0.01019153  0.73049252  1
  O  O46  1  0.58615523  0.48980847  0.23049252  1
  O  O47  1  0.41384477  0.98980847  0.26950748  1
  O  O48  1  0.08274238  0.25418608  0.73120258  1
  O  O49  1  0.91725762  0.75418608  0.76879742  1
  O  O50  1  0.91725762  0.74581392  0.26879742  1
  O  O51  1  0.08274238  0.24581392  0.23120258  1
  O  O52  1  0.05449974  0.47198009  0.80946728  1
  O  O53  1  0.94550026  0.97198009  0.69053272  1
  O  O54  1  0.94550026  0.52801991  0.19053272  1
  O  O55  1  0.05449974  0.02801991  0.30946728  1
  O  O56  1  0.85262914  0.45831851  0.71526353  1
  O  O57  1  0.14737086  0.95831851  0.78473647  1
  O  O58  1  0.14737086  0.54168149  0.28473647  1
  O  O59  1  0.85262914  0.04168149  0.21526353  1
  O  O60  1  0.86708135  0.43042500  0.29772557  1
  O  O61  1  0.13291865  0.93042500  0.20227443  1
  O  O62  1  0.13291865  0.56957500  0.70227443  1
  O  O63  1  0.86708135  0.06957500  0.79772557  1
  O  O64  1  0.64747195  0.30820210  0.78636624  1
  O  O65  1  0.35252805  0.80820210  0.71363376  1
  O  O66  1  0.35252805  0.69179790  0.21363376  1
  O  O67  1  0.64747195  0.19179790  0.28636624  1
  O  O68  1  0.45152676  0.29557303  0.69052310  1
  O  O69  1  0.54847324  0.79557303  0.80947690  1
  O  O70  1  0.54847324  0.70442697  0.30947690  1
  O  O71  1  0.45152676  0.20442697  0.19052310  1
