# generated using pymatgen
data_UFeSi2
_symmetry_space_group_name_H-M   'P 1'
_cell_length_a   3.82358926
_cell_length_b   3.90954871
_cell_length_c   8.60901649
_cell_angle_alpha   90.00000000
_cell_angle_beta   102.83058047
_cell_angle_gamma   90.00000000
_symmetry_Int_Tables_number   1
_chemical_formula_structural   UFeSi2
_chemical_formula_sum   'U2 Fe2 Si4'
_cell_volume   125.47864223
_cell_formula_units_Z   2
loop_
 _symmetry_equiv_pos_site_id
 _symmetry_equiv_pos_as_xyz
  1  'x, y, z'
loop_
 _atom_site_type_symbol
 _atom_site_label
 _atom_site_symmetry_multiplicity
 _atom_site_fract_x
 _atom_site_fract_y
 _atom_site_fract_z
 _atom_site_occupancy
  U  U0  1  0.61038959  0.25000000  0.22077917  1
  U  U1  1  0.38961041  0.75000000  0.77922083  1
  Fe  Fe2  1  0.82968753  0.25000000  0.65937505  1
  Fe  Fe3  1  0.17031247  0.75000000  0.34062495  1
  Si  Si4  1  0.96267018  0.25000000  0.92534036  1
  Si  Si5  1  0.03732982  0.75000000  0.07465964  1
  Si  Si6  1  0.24976189  0.25000000  0.49952378  1
  Si  Si7  1  0.75023811  0.75000000  0.50047622  1
