# generated using pymatgen
data_In2Sb2H16C4S7N2
_symmetry_space_group_name_H-M   'P 1'
_cell_length_a   7.10396403
_cell_length_b   10.70171869
_cell_length_c   14.99733498
_cell_angle_alpha   84.01734392
_cell_angle_beta   76.29983875
_cell_angle_gamma   70.61539856
_symmetry_Int_Tables_number   1
_chemical_formula_structural   In2Sb2H16C4S7N2
_chemical_formula_sum   'In4 Sb4 H32 C8 S14 N4'
_cell_volume   1044.52397764
_cell_formula_units_Z   2
loop_
 _symmetry_equiv_pos_site_id
 _symmetry_equiv_pos_as_xyz
  1  'x, y, z'
loop_
 _atom_site_type_symbol
 _atom_site_label
 _atom_site_symmetry_multiplicity
 _atom_site_fract_x
 _atom_site_fract_y
 _atom_site_fract_z
 _atom_site_occupancy
  In  In0  1  0.27069479  0.80972012  0.11050260  1
  In  In1  1  0.19091751  0.69027988  0.38949740  1
  In  In2  1  0.72930521  0.19027988  0.88949740  1
  In  In3  1  0.80908249  0.30972012  0.61050260  1
  Sb  Sb4  1  0.23070469  0.11353302  0.95391860  1
  Sb  Sb5  1  0.29815631  0.38646698  0.54608140  1
  Sb  Sb6  1  0.76929531  0.88646698  0.04608140  1
  Sb  Sb7  1  0.70184369  0.61353302  0.45391860  1
  H  H8  1  0.30901586  0.43124892  0.83221827  1
  H  H9  1  0.57248304  0.06875108  0.66778173  1
  H  H10  1  0.69098414  0.56875108  0.16778173  1
  H  H11  1  0.42751696  0.93124892  0.33221827  1
  H  H12  1  0.15411434  0.53121114  0.91731652  1
  H  H13  1  0.60264200  0.96878886  0.58268348  1
  H  H14  1  0.84588566  0.46878886  0.08268348  1
  H  H15  1  0.39735800  0.03121114  0.41731652  1
  H  H16  1  0.99337097  0.54561925  0.78882536  1
  H  H17  1  0.32781557  0.95438075  0.71117464  1
  H  H18  1  0.00662903  0.45438075  0.21117464  1
  H  H19  1  0.67218443  0.04561925  0.28882536  1
  H  H20  1  0.01787877  0.70087513  0.81192241  1
  H  H21  1  0.53067632  0.79912487  0.68807759  1
  H  H22  1  0.98212123  0.29912487  0.18807759  1
  H  H23  1  0.46932368  0.20087513  0.31192241  1
  H  H24  1  0.19345427  0.60229644  0.71825897  1
  H  H25  1  0.51400968  0.89770356  0.78174103  1
  H  H26  1  0.80654573  0.39770356  0.28174103  1
  H  H27  1  0.48599032  0.10229644  0.21825897  1
  H  H28  1  0.49120129  0.53448113  0.89930644  1
  H  H29  1  0.92498885  0.96551887  0.60069356  1
  H  H30  1  0.50879871  0.46551887  0.10069356  1
  H  H31  1  0.07501115  0.03448113  0.39930644  1
  H  H32  1  0.49735830  0.58056951  0.77979084  1
  H  H33  1  0.85771865  0.91943049  0.72020916  1
  H  H34  1  0.50264170  0.41943049  0.22020916  1
  H  H35  1  0.14228135  0.08056951  0.27979084  1
  H  H36  1  0.32864297  0.69260508  0.86923445  1
  H  H37  1  0.89048250  0.80739492  0.63076555  1
  H  H38  1  0.67135703  0.30739492  0.13076555  1
  H  H39  1  0.10951750  0.19260508  0.36923445  1
  C  C40  1  0.10010478  0.59992240  0.78772972  1
  C  C41  1  0.48775691  0.90007760  0.71227028  1
  C  C42  1  0.89989522  0.40007760  0.21227028  1
  C  C43  1  0.51224309  0.09992240  0.28772972  1
  C  C44  1  0.40121472  0.58917366  0.84942959  1
  C  C45  1  0.83981797  0.91082634  0.65057041  1
  C  C46  1  0.59878528  0.41082634  0.15057041  1
  C  C47  1  0.16018203  0.08917366  0.34942959  1
  S  S48  1  0.41802356  0.75000000  0.25000000  1
  S  S49  1  0.58197644  0.25000000  0.75000000  1
  S  S50  1  0.06575676  0.04967706  0.10891067  1
  S  S51  1  0.22434449  0.45032294  0.39108933  1
  S  S52  1  0.93424324  0.95032294  0.89108933  1
  S  S53  1  0.77565551  0.54967706  0.60891067  1
  S  S54  1  0.94438964  0.31262471  0.92718470  1
  S  S55  1  0.18419905  0.18737529  0.57281530  1
  S  S56  1  0.05561036  0.68737529  0.07281530  1
  S  S57  1  0.81580095  0.81262471  0.42718470  1
  S  S58  1  0.40862730  0.24190261  0.01162171  1
  S  S59  1  0.66215162  0.25809739  0.48837829  1
  S  S60  1  0.59137270  0.75809739  0.98837829  1
  S  S61  1  0.33784838  0.74190261  0.51162171  1
  N  N62  1  0.23834802  0.53007528  0.85064673  1
  N  N63  1  0.61907004  0.96992472  0.64935327  1
  N  N64  1  0.76165198  0.46992472  0.14935327  1
  N  N65  1  0.38092996  0.03007528  0.35064673  1
