# generated using pymatgen
data_La11Hg45
_symmetry_space_group_name_H-M   'P 1'
_cell_length_a   15.94553172
_cell_length_b   15.94553172
_cell_length_c   15.94553172
_cell_angle_alpha   60.00000000
_cell_angle_beta   60.00000000
_cell_angle_gamma   60.00000000
_symmetry_Int_Tables_number   1
_chemical_formula_structural   La11Hg45
_chemical_formula_sum   'La22 Hg90'
_cell_volume   2866.83052304
_cell_formula_units_Z   2
loop_
 _symmetry_equiv_pos_site_id
 _symmetry_equiv_pos_as_xyz
  1  'x, y, z'
loop_
 _atom_site_type_symbol
 _atom_site_label
 _atom_site_symmetry_multiplicity
 _atom_site_fract_x
 _atom_site_fract_y
 _atom_site_fract_z
 _atom_site_occupancy
  La  La0  1  -0.00000000  -0.00000000  0.00000000  1
  La  La1  1  0.36010582  0.66986970  0.98501224  1
  La  La2  1  0.36010582  0.98501224  0.98501224  1
  La  La3  1  0.36010582  0.98501224  0.66986970  1
  La  La4  1  0.66986970  0.36010582  0.98501224  1
  La  La5  1  0.98501224  0.36010582  0.66986970  1
  La  La6  1  0.98501224  0.36010582  0.98501224  1
  La  La7  1  0.98501224  0.98501224  0.36010582  1
  La  La8  1  0.98501224  0.66986970  0.36010582  1
  La  La9  1  0.66986970  0.98501224  0.36010582  1
  La  La10  1  0.98501224  0.98501224  0.66986970  1
  La  La11  1  0.66986970  0.98501224  0.98501224  1
  La  La12  1  0.98501224  0.66986970  0.98501224  1
  La  La13  1  0.75000000  0.75000000  0.75000000  1
  La  La14  1  0.21847377  0.59384208  0.59384208  1
  La  La15  1  0.59384208  0.21847377  0.59384208  1
  La  La16  1  0.59384208  0.59384208  0.21847377  1
  La  La17  1  0.59384208  0.59384208  0.59384208  1
  La  La18  1  0.98492038  0.33835987  0.33835987  1
  La  La19  1  0.33835987  0.98492038  0.33835987  1
  La  La20  1  0.33835987  0.33835987  0.98492038  1
  La  La21  1  0.33835987  0.33835987  0.33835987  1
  Hg  Hg22  1  0.24927929  0.91690690  0.91690690  1
  Hg  Hg23  1  0.91690690  0.24927929  0.91690690  1
  Hg  Hg24  1  0.91690690  0.91690690  0.24927929  1
  Hg  Hg25  1  0.91690690  0.91690690  0.91690690  1
  Hg  Hg26  1  0.74356630  0.08547790  0.08547790  1
  Hg  Hg27  1  0.08547790  0.74356630  0.08547790  1
  Hg  Hg28  1  0.08547790  0.08547790  0.74356630  1
  Hg  Hg29  1  0.08547790  0.08547790  0.08547790  1
  Hg  Hg30  1  0.15461203  0.84538797  0.84538797  1
  Hg  Hg31  1  0.15461203  0.84538797  0.15461203  1
  Hg  Hg32  1  0.15461203  0.15461203  0.84538797  1
  Hg  Hg33  1  0.84538797  0.15461203  0.15461203  1
  Hg  Hg34  1  0.84538797  0.15461203  0.84538797  1
  Hg  Hg35  1  0.84538797  0.84538797  0.15461203  1
  Hg  Hg36  1  0.98322026  0.80034011  0.60821982  1
  Hg  Hg37  1  0.98322026  0.60821982  0.60821982  1
  Hg  Hg38  1  0.98322026  0.60821982  0.80034011  1
  Hg  Hg39  1  0.80034011  0.98322026  0.60821982  1
  Hg  Hg40  1  0.60821982  0.98322026  0.80034011  1
  Hg  Hg41  1  0.60821982  0.98322026  0.60821982  1
  Hg  Hg42  1  0.60821982  0.60821982  0.98322026  1
  Hg  Hg43  1  0.60821982  0.80034011  0.98322026  1
  Hg  Hg44  1  0.80034011  0.60821982  0.98322026  1
  Hg  Hg45  1  0.60821982  0.60821982  0.80034011  1
  Hg  Hg46  1  0.80034011  0.60821982  0.60821982  1
  Hg  Hg47  1  0.60821982  0.80034011  0.60821982  1
  Hg  Hg48  1  0.48801554  0.83732815  0.83732815  1
  Hg  Hg49  1  0.83732815  0.48801554  0.83732815  1
  Hg  Hg50  1  0.83732815  0.83732815  0.48801554  1
  Hg  Hg51  1  0.83732815  0.83732815  0.83732815  1
  Hg  Hg52  1  0.13388274  0.38447925  0.74081901  1
  Hg  Hg53  1  0.13388274  0.74081901  0.74081901  1
  Hg  Hg54  1  0.13388274  0.74081901  0.38447925  1
  Hg  Hg55  1  0.38447925  0.13388274  0.74081901  1
  Hg  Hg56  1  0.74081901  0.13388274  0.38447925  1
  Hg  Hg57  1  0.74081901  0.13388274  0.74081901  1
  Hg  Hg58  1  0.74081901  0.74081901  0.13388274  1
  Hg  Hg59  1  0.74081901  0.38447925  0.13388274  1
  Hg  Hg60  1  0.38447925  0.74081901  0.13388274  1
  Hg  Hg61  1  0.74081901  0.74081901  0.38447925  1
  Hg  Hg62  1  0.38447925  0.74081901  0.74081901  1
  Hg  Hg63  1  0.74081901  0.38447925  0.74081901  1
  Hg  Hg64  1  0.50000000  0.50000000  0.50000000  1
  Hg  Hg65  1  0.73348059  0.54993180  0.35829380  1
  Hg  Hg66  1  0.73348059  0.35829380  0.35829380  1
  Hg  Hg67  1  0.73348059  0.35829380  0.54993180  1
  Hg  Hg68  1  0.54993180  0.73348059  0.35829380  1
  Hg  Hg69  1  0.35829380  0.73348059  0.54993180  1
  Hg  Hg70  1  0.35829380  0.73348059  0.35829380  1
  Hg  Hg71  1  0.35829380  0.35829380  0.73348059  1
  Hg  Hg72  1  0.35829380  0.54993180  0.73348059  1
  Hg  Hg73  1  0.54993180  0.35829380  0.73348059  1
  Hg  Hg74  1  0.35829380  0.35829380  0.54993180  1
  Hg  Hg75  1  0.54993180  0.35829380  0.35829380  1
  Hg  Hg76  1  0.35829380  0.54993180  0.35829380  1
  Hg  Hg77  1  0.86002852  0.16304866  0.48846141  1
  Hg  Hg78  1  0.86002852  0.48846141  0.48846141  1
  Hg  Hg79  1  0.86002852  0.48846141  0.16304866  1
  Hg  Hg80  1  0.16304866  0.86002852  0.48846141  1
  Hg  Hg81  1  0.48846141  0.86002852  0.16304866  1
  Hg  Hg82  1  0.48846141  0.86002852  0.48846141  1
  Hg  Hg83  1  0.48846141  0.48846141  0.86002852  1
  Hg  Hg84  1  0.48846141  0.16304866  0.86002852  1
  Hg  Hg85  1  0.16304866  0.48846141  0.86002852  1
  Hg  Hg86  1  0.48846141  0.48846141  0.16304866  1
  Hg  Hg87  1  0.16304866  0.48846141  0.48846141  1
  Hg  Hg88  1  0.48846141  0.16304866  0.48846141  1
  Hg  Hg89  1  0.25000000  0.25000000  0.25000000  1
  Hg  Hg90  1  0.48490471  0.17169843  0.17169843  1
  Hg  Hg91  1  0.17169843  0.48490471  0.17169843  1
  Hg  Hg92  1  0.17169843  0.17169843  0.48490471  1
  Hg  Hg93  1  0.17169843  0.17169843  0.17169843  1
  Hg  Hg94  1  0.41138568  0.08861432  0.08861432  1
  Hg  Hg95  1  0.41138568  0.08861432  0.41138568  1
  Hg  Hg96  1  0.41138568  0.41138568  0.08861432  1
  Hg  Hg97  1  0.08861432  0.41138568  0.41138568  1
  Hg  Hg98  1  0.08861432  0.41138568  0.08861432  1
  Hg  Hg99  1  0.08861432  0.08861432  0.41138568  1
  Hg  Hg100  1  0.59525846  0.93262116  0.23606019  1
  Hg  Hg101  1  0.59525846  0.23606019  0.23606019  1
  Hg  Hg102  1  0.59525846  0.23606019  0.93262116  1
  Hg  Hg103  1  0.93262116  0.59525846  0.23606019  1
  Hg  Hg104  1  0.23606019  0.59525846  0.93262116  1
  Hg  Hg105  1  0.23606019  0.59525846  0.23606019  1
  Hg  Hg106  1  0.23606019  0.23606019  0.59525846  1
  Hg  Hg107  1  0.23606019  0.93262116  0.59525846  1
  Hg  Hg108  1  0.93262116  0.23606019  0.59525846  1
  Hg  Hg109  1  0.23606019  0.23606019  0.93262116  1
  Hg  Hg110  1  0.93262116  0.23606019  0.23606019  1
  Hg  Hg111  1  0.23606019  0.93262116  0.23606019  1
