# generated using pymatgen
data_Zr3(UGe2)2
_symmetry_space_group_name_H-M   'P 1'
_cell_length_a   7.23268019
_cell_length_b   7.43211705
_cell_length_c   7.41370734
_cell_angle_alpha   90.00000000
_cell_angle_beta   109.48075067
_cell_angle_gamma   90.00000000
_symmetry_Int_Tables_number   1
_chemical_formula_structural   Zr3(UGe2)2
_chemical_formula_sum   'Zr6 U4 Ge8'
_cell_volume   375.70366657
_cell_formula_units_Z   2
loop_
 _symmetry_equiv_pos_site_id
 _symmetry_equiv_pos_as_xyz
  1  'x, y, z'
loop_
 _atom_site_type_symbol
 _atom_site_label
 _atom_site_symmetry_multiplicity
 _atom_site_fract_x
 _atom_site_fract_y
 _atom_site_fract_z
 _atom_site_occupancy
  Zr  Zr0  1  0.74953510  0.67089150  0.74797230  1
  Zr  Zr1  1  0.25046490  0.32910850  0.25202770  1
  Zr  Zr2  1  0.75046490  0.17089150  0.25202770  1
  Zr  Zr3  1  0.24953510  0.82910850  0.74797230  1
  Zr  Zr4  1  -0.00000000  0.00000000  0.00000000  1
  Zr  Zr5  1  0.50000000  0.50000000  0.00000000  1
  U  U6  1  0.93822421  0.66908960  0.31694922  1
  U  U7  1  0.06177579  0.33091040  0.68305078  1
  U  U8  1  0.56177579  0.16908960  0.68305078  1
  U  U9  1  0.43822421  0.83091040  0.31694922  1
  Ge  Ge10  1  0.85583523  0.96278359  0.58470132  1
  Ge  Ge11  1  0.14416477  0.03721641  0.41529868  1
  Ge  Ge12  1  0.64416477  0.46278359  0.41529868  1
  Ge  Ge13  1  0.35583523  0.53721641  0.58470132  1
  Ge  Ge14  1  0.63630724  0.86610782  0.01049732  1
  Ge  Ge15  1  0.36369276  0.13389218  0.98950268  1
  Ge  Ge16  1  0.86369276  0.36610782  0.98950268  1
  Ge  Ge17  1  0.13630724  0.63389218  0.01049732  1
