# generated using pymatgen
data_Mn7(AsO4)6
_symmetry_space_group_name_H-M   'P 1'
_cell_length_a   6.57091377
_cell_length_b   8.45321257
_cell_length_c   9.95358829
_cell_angle_alpha   106.35802525
_cell_angle_beta   107.89025541
_cell_angle_gamma   100.29635951
_symmetry_Int_Tables_number   1
_chemical_formula_structural   Mn7(AsO4)6
_chemical_formula_sum   'Mn7 As6 O24'
_cell_volume   483.07350268
_cell_formula_units_Z   1
loop_
 _symmetry_equiv_pos_site_id
 _symmetry_equiv_pos_as_xyz
  1  'x, y, z'
loop_
 _atom_site_type_symbol
 _atom_site_label
 _atom_site_symmetry_multiplicity
 _atom_site_fract_x
 _atom_site_fract_y
 _atom_site_fract_z
 _atom_site_occupancy
  Mn  Mn0  1  -0.00000000  0.50000000  -0.00000000  1
  Mn  Mn1  1  0.61479600  0.04423317  0.88368367  1
  Mn  Mn2  1  0.38520400  0.95576683  0.11631633  1
  Mn  Mn3  1  0.27671540  0.31641803  0.28427013  1
  Mn  Mn4  1  0.72328460  0.68358197  0.71572987  1
  Mn  Mn5  1  0.05641668  0.21954943  0.52340864  1
  Mn  Mn6  1  0.94358332  0.78045057  0.47659136  1
  As  As7  1  0.77480616  0.36972662  0.22727710  1
  As  As8  1  0.22519384  0.63027338  0.77272290  1
  As  As9  1  0.91277772  0.92107835  0.17249526  1
  As  As10  1  0.08722228  0.07892165  0.82750474  1
  As  As11  1  0.60932485  0.26630435  0.63030292  1
  As  As12  1  0.39067515  0.73369565  0.36969708  1
  O  O13  1  0.67919683  0.97675878  0.08214646  1
  O  O14  1  0.32080317  0.02324122  0.91785354  1
  O  O15  1  0.89326284  0.71669595  0.08375138  1
  O  O16  1  0.10673716  0.28330405  0.91624862  1
  O  O17  1  0.00027472  0.32037050  0.33737314  1
  O  O18  1  0.99972528  0.67962950  0.66262686  1
  O  O19  1  0.36232702  0.27687163  0.50229098  1
  O  O20  1  0.63767298  0.72312837  0.49770902  1
  O  O21  1  0.85879750  0.94569525  0.83674682  1
  O  O22  1  0.14120250  0.05430475  0.16325318  1
  O  O23  1  0.77301222  0.31410726  0.04657562  1
  O  O24  1  0.22698778  0.68589274  0.95342438  1
  O  O25  1  0.53942691  0.11986401  0.70538330  1
  O  O26  1  0.46057309  0.88013599  0.29461670  1
  O  O27  1  0.95057206  0.97590925  0.36178417  1
  O  O28  1  0.04942794  0.02409075  0.63821583  1
  O  O29  1  0.46843618  0.74440592  0.77016399  1
  O  O30  1  0.53156382  0.25559408  0.22983601  1
  O  O31  1  0.74221379  0.46959082  0.77182833  1
  O  O32  1  0.25778621  0.53040918  0.22817167  1
  O  O33  1  0.75797545  0.21828975  0.51839350  1
  O  O34  1  0.24202455  0.78171025  0.48160650  1
  O  O35  1  0.19857307  0.41588893  0.70746635  1
  O  O36  1  0.80142693  0.58411107  0.29253365  1
