# generated using pymatgen
data_ScAs2H4NO7
_symmetry_space_group_name_H-M   'P 1'
_cell_length_a   8.04392987
_cell_length_b   8.99291734
_cell_length_c   10.85691341
_cell_angle_alpha   90.00000000
_cell_angle_beta   90.00000000
_cell_angle_gamma   106.80865469
_symmetry_Int_Tables_number   1
_chemical_formula_structural   ScAs2H4NO7
_chemical_formula_sum   'Sc4 As8 H16 N4 O28'
_cell_volume   751.81735009
_cell_formula_units_Z   4
loop_
 _symmetry_equiv_pos_site_id
 _symmetry_equiv_pos_as_xyz
  1  'x, y, z'
loop_
 _atom_site_type_symbol
 _atom_site_label
 _atom_site_symmetry_multiplicity
 _atom_site_fract_x
 _atom_site_fract_y
 _atom_site_fract_z
 _atom_site_occupancy
  Sc  Sc0  1  0.23859466  0.75936145  0.60163645  1
  Sc  Sc1  1  0.76140534  0.74063855  0.10163645  1
  Sc  Sc2  1  0.76140534  0.24063855  0.39836355  1
  Sc  Sc3  1  0.23859466  0.25936145  0.89836355  1
  As  As4  1  0.13363732  0.83137644  0.90574235  1
  As  As5  1  0.86636268  0.66862356  0.40574235  1
  As  As6  1  0.86636268  0.16862356  0.09425765  1
  As  As7  1  0.13363732  0.33137644  0.59425765  1
  As  As8  1  0.43651153  0.18640054  0.63305960  1
  As  As9  1  0.56348847  0.31359946  0.13305960  1
  As  As10  1  0.56348847  0.81359946  0.36694040  1
  As  As11  1  0.43651153  0.68640054  0.86694040  1
  H  H12  1  0.89234081  0.87756675  0.63031304  1
  H  H13  1  0.10765919  0.62243325  0.13031304  1
  H  H14  1  0.10765919  0.12243325  0.36968696  1
  H  H15  1  0.89234081  0.37756675  0.86968696  1
  H  H16  1  0.89743940  0.01332467  0.73936453  1
  H  H17  1  0.10256060  0.48667533  0.23936453  1
  H  H18  1  0.10256060  0.98667533  0.26063547  1
  H  H19  1  0.89743940  0.51332467  0.76063547  1
  H  H20  1  0.77918885  0.00672493  0.61236152  1
  H  H21  1  0.22081115  0.49327507  0.11236152  1
  H  H22  1  0.22081115  0.99327507  0.38763848  1
  H  H23  1  0.77918885  0.50672493  0.88763848  1
  H  H24  1  0.71031120  0.86369876  0.71580320  1
  H  H25  1  0.28968880  0.63630124  0.21580320  1
  H  H26  1  0.28968880  0.13630124  0.28419680  1
  H  H27  1  0.71031120  0.36369876  0.78419680  1
  N  N28  1  0.81972538  0.93983724  0.67611762  1
  N  N29  1  0.18027462  0.56016276  0.17611762  1
  N  N30  1  0.18027462  0.06016276  0.32388238  1
  N  N31  1  0.81972538  0.43983724  0.82388238  1
  O  O32  1  0.15196920  0.52222977  0.59236058  1
  O  O33  1  0.84803080  0.97777023  0.09236058  1
  O  O34  1  0.84803080  0.47777023  0.40763942  1
  O  O35  1  0.15196920  0.02222977  0.90763942  1
  O  O36  1  0.31133563  0.00252356  0.60821221  1
  O  O37  1  0.68866437  0.49747644  0.10821221  1
  O  O38  1  0.68866437  0.99747644  0.39178779  1
  O  O39  1  0.31133563  0.50252356  0.89178779  1
  O  O40  1  0.00665337  0.77347337  0.51293220  1
  O  O41  1  0.99334663  0.72652663  0.01293220  1
  O  O42  1  0.99334663  0.22652663  0.48706780  1
  O  O43  1  0.00665337  0.27347337  0.98706780  1
  O  O44  1  0.08566947  0.74943534  0.76401697  1
  O  O45  1  0.91433053  0.75056466  0.26401697  1
  O  O46  1  0.91433053  0.25056466  0.23598303  1
  O  O47  1  0.08566947  0.24943534  0.73598303  1
  O  O48  1  0.36193663  0.77492500  0.42858079  1
  O  O49  1  0.63806337  0.72507500  0.92858079  1
  O  O50  1  0.63806337  0.22507500  0.57141921  1
  O  O51  1  0.36193663  0.27492500  0.07141921  1
  O  O52  1  0.45280599  0.74940773  0.71794428  1
  O  O53  1  0.54719401  0.75059227  0.21794428  1
  O  O54  1  0.54719401  0.25059227  0.28205572  1
  O  O55  1  0.45280599  0.24940773  0.78205572  1
  O  O56  1  0.33939104  0.31053213  0.54642331  1
  O  O57  1  0.66060896  0.18946787  0.04642331  1
  O  O58  1  0.66060896  0.68946787  0.45357669  1
  O  O59  1  0.33939104  0.81053213  0.95357669  1
