# generated using pymatgen
data_UH6C2O9
_symmetry_space_group_name_H-M   'P 1'
_cell_length_a   5.76219640
_cell_length_b   9.47732836
_cell_length_c   17.23119880
_cell_angle_alpha   90.00000000
_cell_angle_beta   90.00000000
_cell_angle_gamma   98.85636917
_symmetry_Int_Tables_number   1
_chemical_formula_structural   UH6C2O9
_chemical_formula_sum   'U4 H24 C8 O36'
_cell_volume   929.78051383
_cell_formula_units_Z   4
loop_
 _symmetry_equiv_pos_site_id
 _symmetry_equiv_pos_as_xyz
  1  'x, y, z'
loop_
 _atom_site_type_symbol
 _atom_site_label
 _atom_site_symmetry_multiplicity
 _atom_site_fract_x
 _atom_site_fract_y
 _atom_site_fract_z
 _atom_site_occupancy
  U  U0  1  0.72892549  0.74044160  0.43133250  1
  U  U1  1  0.27107451  0.25955840  0.56866750  1
  U  U2  1  0.27107451  0.75955840  0.93133250  1
  U  U3  1  0.72892549  0.24044160  0.06866750  1
  H  H4  1  0.85873222  0.81866041  0.71187417  1
  H  H5  1  0.14126778  0.18133959  0.28812583  1
  H  H6  1  0.14126778  0.68133959  0.21187417  1
  H  H7  1  0.85873222  0.31866041  0.78812583  1
  H  H8  1  0.77571674  0.55234359  0.74229576  1
  H  H9  1  0.22428326  0.44765641  0.25770424  1
  H  H10  1  0.22428326  0.94765641  0.24229576  1
  H  H11  1  0.77571674  0.05234359  0.75770424  1
  H  H12  1  0.80723355  0.72807510  0.25782531  1
  H  H13  1  0.19276645  0.27192490  0.74217469  1
  H  H14  1  0.19276645  0.77192490  0.75782531  1
  H  H15  1  0.80723355  0.22807510  0.24217469  1
  H  H16  1  0.95568203  0.71716627  0.65100693  1
  H  H17  1  0.04431797  0.28283373  0.34899307  1
  H  H18  1  0.04431797  0.78283373  0.15100693  1
  H  H19  1  0.95568203  0.21716627  0.84899307  1
  H  H20  1  0.45877520  0.86191384  0.77419787  1
  H  H21  1  0.54122480  0.13808616  0.22580213  1
  H  H22  1  0.54122480  0.63808616  0.27419787  1
  H  H23  1  0.45877520  0.36191384  0.72580213  1
  H  H24  1  0.62434707  0.50100608  0.81546132  1
  H  H25  1  0.37565293  0.49899392  0.18453868  1
  H  H26  1  0.37565293  0.99899392  0.31546132  1
  H  H27  1  0.62434707  0.00100608  0.68453868  1
  C  C28  1  0.00858598  0.53557897  0.53989163  1
  C  C29  1  0.99141402  0.46442103  0.46010837  1
  C  C30  1  0.99141402  0.96442103  0.03989163  1
  C  C31  1  0.00858598  0.03557897  0.96010837  1
  C  C32  1  0.53107748  0.97729937  0.54081026  1
  C  C33  1  0.46892252  0.02270063  0.45918974  1
  C  C34  1  0.46892252  0.52270063  0.04081026  1
  C  C35  1  0.53107748  0.47729937  0.95918974  1
  O  O36  1  0.94626570  0.73643796  0.70721628  1
  O  O37  1  0.05373430  0.26356204  0.29278372  1
  O  O38  1  0.05373430  0.76356204  0.20721628  1
  O  O39  1  0.94626570  0.23643796  0.79278372  1
  O  O40  1  0.68830711  0.96584088  0.73293840  1
  O  O41  1  0.31169289  0.03415912  0.26706160  1
  O  O42  1  0.31169289  0.53415912  0.23293840  1
  O  O43  1  0.68830711  0.46584088  0.76706160  1
  O  O44  1  0.32691410  0.79110375  0.79622860  1
  O  O45  1  0.67308590  0.20889625  0.20377140  1
  O  O46  1  0.67308590  0.70889625  0.29622860  1
  O  O47  1  0.32691410  0.29110375  0.70377140  1
  O  O48  1  0.92186222  0.65042497  0.54619289  1
  O  O49  1  0.07813778  0.34957503  0.45380711  1
  O  O50  1  0.07813778  0.84957503  0.04619289  1
  O  O51  1  0.92186222  0.15042497  0.95380711  1
  O  O52  1  0.00626668  0.84976423  0.41214984  1
  O  O53  1  0.99373332  0.15023577  0.58785016  1
  O  O54  1  0.99373332  0.65023577  0.91214984  1
  O  O55  1  0.00626668  0.34976423  0.08785016  1
  O  O56  1  0.10797976  0.97495678  0.90706105  1
  O  O57  1  0.89202024  0.02504322  0.09293895  1
  O  O58  1  0.89202024  0.52504322  0.40706105  1
  O  O59  1  0.10797976  0.47495678  0.59293895  1
  O  O60  1  0.55423952  0.86661221  0.94603507  1
  O  O61  1  0.44576048  0.13338779  0.05396493  1
  O  O62  1  0.44576048  0.63338779  0.44603507  1
  O  O63  1  0.55423952  0.36661221  0.55396493  1
  O  O64  1  0.46535926  0.54967265  0.90332077  1
  O  O65  1  0.53464074  0.45032735  0.09667923  1
  O  O66  1  0.53464074  0.95032735  0.40332077  1
  O  O67  1  0.46535926  0.04967265  0.59667923  1
  O  O68  1  0.64082233  0.87260725  0.54596902  1
  O  O69  1  0.35917767  0.12739275  0.45403098  1
  O  O70  1  0.35917767  0.62739275  0.04596902  1
  O  O71  1  0.64082233  0.37260725  0.95403098  1
