# generated using pymatgen
data_Fe2O2F3
_symmetry_space_group_name_H-M   'P 1'
_cell_length_a   5.12380515
_cell_length_b   5.66382633
_cell_length_c   7.61016105
_cell_angle_alpha   80.53485153
_cell_angle_beta   109.79952998
_cell_angle_gamma   63.27338998
_symmetry_Int_Tables_number   1
_chemical_formula_structural   Fe2O2F3
_chemical_formula_sum   'Fe4 O4 F6'
_cell_volume   171.90190406
_cell_formula_units_Z   2
loop_
 _symmetry_equiv_pos_site_id
 _symmetry_equiv_pos_as_xyz
  1  'x, y, z'
loop_
 _atom_site_type_symbol
 _atom_site_label
 _atom_site_symmetry_multiplicity
 _atom_site_fract_x
 _atom_site_fract_y
 _atom_site_fract_z
 _atom_site_occupancy
  Fe  Fe0  1  0.18877132  0.00884928  0.87818660  1
  Fe  Fe1  1  0.32191225  0.48616194  0.62114922  1
  Fe  Fe2  1  0.67966574  0.50991788  0.37825654  1
  Fe  Fe3  1  0.81465402  0.98599549  0.12089637  1
  O  O4  1  0.40804687  0.21053964  0.85855384  1
  O  O5  1  0.24089660  0.71414138  0.35958307  1
  O  O6  1  0.76127117  0.28162197  0.63987076  1
  O  O7  1  0.59666075  0.78312048  0.14082360  1
  F  F8  1  0.03199595  0.78032370  0.96444355  1
  F  F9  1  0.14964004  0.28386189  0.46242644  1
  F  F10  1  0.37557164  0.74441828  0.75251535  1
  F  F11  1  0.63123188  0.24692122  0.24967269  1
  F  F12  1  0.85206431  0.71232346  0.53814131  1
  F  F13  1  0.97371545  0.21308740  0.03565466  1
