# generated using pymatgen
data_Tm3Fe5O12
_symmetry_space_group_name_H-M   'P 1'
_cell_length_a   10.78449739
_cell_length_b   10.78449739
_cell_length_c   10.78449739
_cell_angle_alpha   109.47122063
_cell_angle_beta   109.47122063
_cell_angle_gamma   109.47122063
_symmetry_Int_Tables_number   1
_chemical_formula_structural   Tm3Fe5O12
_chemical_formula_sum   'Tm12 Fe20 O48'
_cell_volume   965.55682509
_cell_formula_units_Z   4
loop_
 _symmetry_equiv_pos_site_id
 _symmetry_equiv_pos_as_xyz
  1  'x, y, z'
loop_
 _atom_site_type_symbol
 _atom_site_label
 _atom_site_symmetry_multiplicity
 _atom_site_fract_x
 _atom_site_fract_y
 _atom_site_fract_z
 _atom_site_occupancy
  Tm  Tm0  1  0.87500000  0.62500000  0.75000000  1
  Tm  Tm1  1  0.12500000  0.37500000  0.25000000  1
  Tm  Tm2  1  0.62500000  0.87500000  0.25000000  1
  Tm  Tm3  1  0.62500000  0.75000000  0.87500000  1
  Tm  Tm4  1  0.87500000  0.25000000  0.62500000  1
  Tm  Tm5  1  0.37500000  0.12500000  0.75000000  1
  Tm  Tm6  1  0.37500000  0.25000000  0.12500000  1
  Tm  Tm7  1  0.12500000  0.75000000  0.37500000  1
  Tm  Tm8  1  0.75000000  0.87500000  0.62500000  1
  Tm  Tm9  1  0.25000000  0.12500000  0.37500000  1
  Tm  Tm10  1  0.25000000  0.62500000  0.87500000  1
  Tm  Tm11  1  0.75000000  0.37500000  0.12500000  1
  Fe  Fe12  1  0.62500000  0.37500000  0.75000000  1
  Fe  Fe13  1  0.37500000  0.62500000  0.25000000  1
  Fe  Fe14  1  0.87500000  0.12500000  0.25000000  1
  Fe  Fe15  1  0.37500000  0.75000000  0.62500000  1
  Fe  Fe16  1  0.62500000  0.25000000  0.37500000  1
  Fe  Fe17  1  0.12500000  0.87500000  0.75000000  1
  Fe  Fe18  1  0.12500000  0.25000000  0.87500000  1
  Fe  Fe19  1  0.87500000  0.75000000  0.12500000  1
  Fe  Fe20  1  0.75000000  0.62500000  0.37500000  1
  Fe  Fe21  1  0.25000000  0.37500000  0.62500000  1
  Fe  Fe22  1  0.25000000  0.87500000  0.12500000  1
  Fe  Fe23  1  0.75000000  0.12500000  0.87500000  1
  Fe  Fe24  1  0.00000000  -0.00000000  0.00000000  1
  Fe  Fe25  1  0.50000000  -0.00000000  0.50000000  1
  Fe  Fe26  1  0.50000000  0.50000000  -0.00000000  1
  Fe  Fe27  1  0.00000000  -0.00000000  0.50000000  1
  Fe  Fe28  1  0.00000000  0.50000000  0.50000000  1
  Fe  Fe29  1  0.50000000  0.50000000  0.50000000  1
  Fe  Fe30  1  0.50000000  -0.00000000  0.00000000  1
  Fe  Fe31  1  0.00000000  0.50000000  -0.00000000  1
  O  O32  1  0.71058589  0.62708113  0.53402234  1
  O  O33  1  0.28941411  0.37291887  0.46597766  1
  O  O34  1  0.78941411  0.82343644  0.41649524  1
  O  O35  1  0.40694121  0.87291887  0.08350476  1
  O  O36  1  0.62708113  0.53402234  0.71058589  1
  O  O37  1  0.71058589  0.08350476  0.67656356  1
  O  O38  1  0.21058589  0.17656356  0.58350476  1
  O  O39  1  0.59305879  0.12708113  0.91649524  1
  O  O40  1  0.37291887  0.46597766  0.28941411  1
  O  O41  1  0.28941411  0.91649524  0.32343644  1
  O  O42  1  0.09305879  0.67656356  0.96597766  1
  O  O43  1  0.82343644  0.41649524  0.78941411  1
  O  O44  1  0.78941411  0.96597766  0.87291887  1
  O  O45  1  0.90694121  0.32343644  0.03402234  1
  O  O46  1  0.17656356  0.58350476  0.21058589  1
  O  O47  1  0.21058589  0.03402234  0.12708113  1
  O  O48  1  0.87291887  0.08350476  0.40694121  1
  O  O49  1  0.40694121  0.53402234  0.82343644  1
  O  O50  1  0.12708113  0.91649524  0.59305879  1
  O  O51  1  0.59305879  0.46597766  0.17656356  1
  O  O52  1  0.67656356  0.96597766  0.09305879  1
  O  O53  1  0.09305879  0.41649524  0.62708113  1
  O  O54  1  0.32343644  0.03402234  0.90694121  1
  O  O55  1  0.90694121  0.58350476  0.37291887  1
  O  O56  1  0.53402234  0.71058589  0.62708113  1
  O  O57  1  0.62708113  0.09305879  0.41649524  1
  O  O58  1  0.46597766  0.28941411  0.37291887  1
  O  O59  1  0.37291887  0.90694121  0.58350476  1
  O  O60  1  0.08350476  0.40694121  0.87291887  1
  O  O61  1  0.87291887  0.78941411  0.96597766  1
  O  O62  1  0.91649524  0.59305879  0.12708113  1
  O  O63  1  0.12708113  0.21058589  0.03402234  1
  O  O64  1  0.96597766  0.09305879  0.67656356  1
  O  O65  1  0.67656356  0.71058589  0.08350476  1
  O  O66  1  0.03402234  0.90694121  0.32343644  1
  O  O67  1  0.32343644  0.28941411  0.91649524  1
  O  O68  1  0.41649524  0.78941411  0.82343644  1
  O  O69  1  0.82343644  0.40694121  0.53402234  1
  O  O70  1  0.58350476  0.21058589  0.17656356  1
  O  O71  1  0.17656356  0.59305879  0.46597766  1
  O  O72  1  0.08350476  0.67656356  0.71058589  1
  O  O73  1  0.91649524  0.32343644  0.28941411  1
  O  O74  1  0.96597766  0.87291887  0.78941411  1
  O  O75  1  0.03402234  0.12708113  0.21058589  1
  O  O76  1  0.41649524  0.62708113  0.09305879  1
  O  O77  1  0.58350476  0.37291887  0.90694121  1
  O  O78  1  0.53402234  0.82343644  0.40694121  1
  O  O79  1  0.46597766  0.17656356  0.59305879  1
