# generated using pymatgen
data_Sr(TlHg)2
_symmetry_space_group_name_H-M   'P 1'
_cell_length_a   5.03129323
_cell_length_b   10.94689231
_cell_length_c   10.94689231
_cell_angle_alpha   90.00000000
_cell_angle_beta   90.00000000
_cell_angle_gamma   90.00000000
_symmetry_Int_Tables_number   1
_chemical_formula_structural   Sr(TlHg)2
_chemical_formula_sum   'Sr4 Tl8 Hg8'
_cell_volume   602.92226328
_cell_formula_units_Z   4
loop_
 _symmetry_equiv_pos_site_id
 _symmetry_equiv_pos_as_xyz
  1  'x, y, z'
loop_
 _atom_site_type_symbol
 _atom_site_label
 _atom_site_symmetry_multiplicity
 _atom_site_fract_x
 _atom_site_fract_y
 _atom_site_fract_z
 _atom_site_occupancy
  Sr  Sr0  1  -0.00000000  0.35350729  0.35350729  1
  Sr  Sr1  1  -0.00000000  0.64649271  0.64649271  1
  Sr  Sr2  1  0.50000000  0.14649271  0.85350729  1
  Sr  Sr3  1  0.50000000  0.85350729  0.14649271  1
  Tl  Tl4  1  0.00000000  0.02808400  0.64331438  1
  Tl  Tl5  1  -0.00000000  0.97191600  0.35668562  1
  Tl  Tl6  1  0.50000000  0.85668562  0.52808400  1
  Tl  Tl7  1  0.50000000  0.47191600  0.14331438  1
  Tl  Tl8  1  0.50000000  0.14331438  0.47191600  1
  Tl  Tl9  1  0.50000000  0.52808400  0.85668562  1
  Tl  Tl10  1  -0.00000000  0.64331438  0.02808400  1
  Tl  Tl11  1  0.00000000  0.35668562  0.97191600  1
  Hg  Hg12  1  -0.00000000  0.31104981  0.68895019  1
  Hg  Hg13  1  0.00000000  0.68895019  0.31104981  1
  Hg  Hg14  1  0.50000000  0.81104981  0.81104981  1
  Hg  Hg15  1  0.50000000  0.18895019  0.18895019  1
  Hg  Hg16  1  0.00000000  0.09431326  0.09431326  1
  Hg  Hg17  1  -0.00000000  0.90568674  0.90568674  1
  Hg  Hg18  1  0.50000000  0.40568674  0.59431326  1
  Hg  Hg19  1  0.50000000  0.59431326  0.40568674  1
