# generated using pymatgen
data_ZnH16C6(N4O)3
_symmetry_space_group_name_H-M   'P 1'
_cell_length_a   7.08783766
_cell_length_b   17.96137815
_cell_length_c   11.40886728
_cell_angle_alpha   90.00000000
_cell_angle_beta   90.00000000
_cell_angle_gamma   90.00000000
_symmetry_Int_Tables_number   1
_chemical_formula_structural   ZnH16C6(N4O)3
_chemical_formula_sum   'Zn4 H64 C24 N48 O12'
_cell_volume   1452.43246000
_cell_formula_units_Z   4
loop_
 _symmetry_equiv_pos_site_id
 _symmetry_equiv_pos_as_xyz
  1  'x, y, z'
loop_
 _atom_site_type_symbol
 _atom_site_label
 _atom_site_symmetry_multiplicity
 _atom_site_fract_x
 _atom_site_fract_y
 _atom_site_fract_z
 _atom_site_occupancy
  Zn  Zn0  1  0.52985232  0.95174833  0.38963277  1
  Zn  Zn1  1  0.47014768  0.04825167  0.88963277  1
  Zn  Zn2  1  0.97014768  0.45174833  0.38963277  1
  Zn  Zn3  1  0.02985232  0.54825167  0.88963277  1
  H  H4  1  0.36364918  0.90579157  0.57661706  1
  H  H5  1  0.63635082  0.09420843  0.07661706  1
  H  H6  1  0.13635082  0.40579157  0.57661706  1
  H  H7  1  0.86364918  0.59420843  0.07661706  1
  H  H8  1  0.20827473  0.96995729  0.81341548  1
  H  H9  1  0.79172527  0.03004271  0.31341548  1
  H  H10  1  0.29172527  0.46995729  0.81341548  1
  H  H11  1  0.70827473  0.53004271  0.31341548  1
  H  H12  1  0.58568973  0.78719478  0.55434225  1
  H  H13  1  0.41431027  0.21280522  0.05434225  1
  H  H14  1  0.91431027  0.28719478  0.55434225  1
  H  H15  1  0.08568973  0.71280522  0.05434225  1
  H  H16  1  0.71598672  0.84981758  0.30377290  1
  H  H17  1  0.28401328  0.15018242  0.80377290  1
  H  H18  1  0.78401328  0.34981758  0.30377290  1
  H  H19  1  0.21598672  0.65018242  0.80377290  1
  H  H20  1  0.86582906  0.92773152  0.43595970  1
  H  H21  1  0.13417094  0.07226848  0.93595970  1
  H  H22  1  0.63417094  0.42773152  0.43595970  1
  H  H23  1  0.36582906  0.57226848  0.93595970  1
  H  H24  1  0.73661309  0.69135849  0.93830477  1
  H  H25  1  0.26338691  0.30864151  0.43830477  1
  H  H26  1  0.76338691  0.19135849  0.93830477  1
  H  H27  1  0.23661309  0.80864151  0.43830477  1
  H  H28  1  0.52514046  0.67904297  0.86189572  1
  H  H29  1  0.47485954  0.32095703  0.36189572  1
  H  H30  1  0.97485954  0.17904297  0.86189572  1
  H  H31  1  0.02514046  0.82095703  0.36189572  1
  H  H32  1  0.85881222  0.97595104  0.61696693  1
  H  H33  1  0.14118778  0.02404896  0.11696693  1
  H  H34  1  0.64118778  0.47595104  0.61696693  1
  H  H35  1  0.35881222  0.52404896  0.11696693  1
  H  H36  1  0.28124468  0.49350340  0.49912660  1
  H  H37  1  0.71875532  0.50649660  0.99912660  1
  H  H38  1  0.21875532  0.99350340  0.49912660  1
  H  H39  1  0.78124468  0.00649660  0.99912660  1
  H  H40  1  0.63239704  0.96107223  0.66006059  1
  H  H41  1  0.36760296  0.03892777  0.16006059  1
  H  H42  1  0.86760296  0.46107223  0.66006059  1
  H  H43  1  0.13239704  0.53892777  0.16006059  1
  H  H44  1  0.95953422  0.80793871  0.60941552  1
  H  H45  1  0.04046578  0.19206129  0.10941552  1
  H  H46  1  0.54046578  0.30793871  0.60941552  1
  H  H47  1  0.45953422  0.69206129  0.10941552  1
  H  H48  1  0.45645021  0.70706069  0.52112967  1
  H  H49  1  0.54354979  0.29293931  0.02112967  1
  H  H50  1  0.04354979  0.20706069  0.52112967  1
  H  H51  1  0.95645021  0.79293931  0.02112967  1
  H  H52  1  0.67300906  0.75529119  0.26973827  1
  H  H53  1  0.32699094  0.24470881  0.76973827  1
  H  H54  1  0.82699094  0.25529119  0.26973827  1
  H  H55  1  0.17300906  0.74470881  0.76973827  1
  H  H56  1  0.42782400  0.57068901  0.53532785  1
  H  H57  1  0.57217600  0.42931099  0.03532785  1
  H  H58  1  0.07217600  0.07068901  0.53532785  1
  H  H59  1  0.92782400  0.92931099  0.03532785  1
  H  H60  1  0.86397268  0.86430736  0.68661352  1
  H  H61  1  0.13602732  0.13569264  0.18661352  1
  H  H62  1  0.63602732  0.36430736  0.68661352  1
  H  H63  1  0.36397268  0.63569264  0.18661352  1
  H  H64  1  0.15733139  0.88193974  0.74998768  1
  H  H65  1  0.84266861  0.11806026  0.24998768  1
  H  H66  1  0.34266861  0.38193974  0.74998768  1
  H  H67  1  0.65733139  0.61806026  0.24998768  1
  C  C68  1  0.68227161  0.90527299  0.94631093  1
  C  C69  1  0.31772839  0.09472701  0.44631093  1
  C  C70  1  0.81772839  0.40527299  0.94631093  1
  C  C71  1  0.18227161  0.59472701  0.44631093  1
  C  C72  1  0.70224574  0.68585052  0.60734438  1
  C  C73  1  0.29775426  0.31414948  0.10734438  1
  C  C74  1  0.79775426  0.18585052  0.60734438  1
  C  C75  1  0.20224574  0.81414948  0.10734438  1
  C  C76  1  0.78081389  0.56890505  0.66711275  1
  C  C77  1  0.21918611  0.43109495  0.16711275  1
  C  C78  1  0.71918611  0.06890505  0.66711275  1
  C  C79  1  0.28081389  0.93109495  0.16711275  1
  C  C80  1  0.59017157  0.78811118  0.89446225  1
  C  C81  1  0.40982843  0.21188882  0.39446225  1
  C  C82  1  0.90982843  0.28811118  0.89446225  1
  C  C83  1  0.09017157  0.71188882  0.39446225  1
  C  C84  1  0.40240185  0.88649031  0.84602769  1
  C  C85  1  0.59759815  0.11350969  0.34602769  1
  C  C86  1  0.09759815  0.38649031  0.84602769  1
  C  C87  1  0.90240185  0.61350969  0.34602769  1
  C  C88  1  0.97279283  0.66755989  0.71381540  1
  C  C89  1  0.02720717  0.33244011  0.21381540  1
  C  C90  1  0.52720717  0.16755989  0.71381540  1
  C  C91  1  0.47279283  0.83244011  0.21381540  1
  N  N92  1  0.72253166  0.83227275  0.94424817  1
  N  N93  1  0.27746834  0.16772725  0.44424817  1
  N  N94  1  0.77746834  0.33227275  0.94424817  1
  N  N95  1  0.22253166  0.66772725  0.44424817  1
  N  N96  1  0.86555327  0.71462583  0.65029779  1
  N  N97  1  0.13444673  0.28537417  0.15029779  1
  N  N98  1  0.63444673  0.21462583  0.65029779  1
  N  N99  1  0.36555327  0.78537417  0.15029779  1
  N  N100  1  0.92932829  0.59382226  0.73024983  1
  N  N101  1  0.07067171  0.40617774  0.23024983  1
  N  N102  1  0.57067171  0.09382226  0.73024983  1
  N  N103  1  0.42932829  0.90617774  0.23024983  1
  N  N104  1  0.62034995  0.71417587  0.89856700  1
  N  N105  1  0.37965005  0.28582413  0.39856700  1
  N  N106  1  0.87965005  0.21417587  0.89856700  1
  N  N107  1  0.12034995  0.78582413  0.39856700  1
  N  N108  1  0.52296341  0.93582963  0.89929813  1
  N  N109  1  0.47703659  0.06417037  0.39929813  1
  N  N110  1  0.97703659  0.43582963  0.89929813  1
  N  N111  1  0.02296341  0.56417037  0.39929813  1
  N  N112  1  0.57615435  0.73043304  0.55639138  1
  N  N113  1  0.42384565  0.26956696  0.05639138  1
  N  N114  1  0.92384565  0.23043304  0.55639138  1
  N  N115  1  0.07615435  0.76956696  0.05639138  1
  N  N116  1  0.74884375  0.99399563  0.66625847  1
  N  N117  1  0.25115625  0.00600437  0.16625847  1
  N  N118  1  0.75115625  0.49399563  0.66625847  1
  N  N119  1  0.24884375  0.50600437  0.16625847  1
  N  N120  1  0.24996140  0.91575791  0.79328996  1
  N  N121  1  0.75003860  0.08424209  0.29328996  1
  N  N122  1  0.25003860  0.41575791  0.79328996  1
  N  N123  1  0.74996140  0.58424209  0.29328996  1
  N  N124  1  0.66002518  0.61178142  0.60875176  1
  N  N125  1  0.33997482  0.38821858  0.10875176  1
  N  N126  1  0.83997482  0.11178142  0.60875176  1
  N  N127  1  0.16002518  0.88821858  0.10875176  1
  N  N128  1  0.80746602  0.95097232  0.99734257  1
  N  N129  1  0.19253398  0.04902768  0.49734257  1
  N  N130  1  0.69253398  0.45097232  0.99734257  1
  N  N131  1  0.30746602  0.54902768  0.49734257  1
  N  N132  1  0.43060061  0.81261690  0.84186324  1
  N  N133  1  0.56939939  0.18738310  0.34186324  1
  N  N134  1  0.06939939  0.31261690  0.84186324  1
  N  N135  1  0.93060061  0.68738310  0.34186324  1
  N  N136  1  0.63107751  0.80930849  0.26566997  1
  N  N137  1  0.36892249  0.19069151  0.76566997  1
  N  N138  1  0.86892249  0.30930849  0.26566997  1
  N  N139  1  0.13107751  0.69069151  0.76566997  1
  O  O140  1  0.43500708  0.88579815  0.51088663  1
  O  O141  1  0.56499292  0.11420185  0.01088663  1
  O  O142  1  0.06499292  0.38579815  0.51088663  1
  O  O143  1  0.93500708  0.61420185  0.01088663  1
  O  O144  1  0.80243632  0.93538861  0.36118091  1
  O  O145  1  0.19756368  0.06461139  0.86118091  1
  O  O146  1  0.69756368  0.43538861  0.36118091  1
  O  O147  1  0.30243632  0.56461139  0.86118091  1
  O  O148  1  0.96497421  0.86212485  0.62872352  1
  O  O149  1  0.03502579  0.13787515  0.12872352  1
  O  O150  1  0.53502579  0.36212485  0.62872352  1
  O  O151  1  0.46497421  0.63787515  0.12872352  1
