# generated using pymatgen
data_Sr3V3(BiO7)2
_symmetry_space_group_name_H-M   'P 1'
_cell_length_a   7.30849544
_cell_length_b   7.12185019
_cell_length_c   14.29994517
_cell_angle_alpha   96.83614303
_cell_angle_beta   99.11882681
_cell_angle_gamma   109.85482551
_symmetry_Int_Tables_number   1
_chemical_formula_structural   Sr3V3(BiO7)2
_chemical_formula_sum   'Sr6 V6 Bi4 O28'
_cell_volume   679.14041389
_cell_formula_units_Z   2
loop_
 _symmetry_equiv_pos_site_id
 _symmetry_equiv_pos_as_xyz
  1  'x, y, z'
loop_
 _atom_site_type_symbol
 _atom_site_label
 _atom_site_symmetry_multiplicity
 _atom_site_fract_x
 _atom_site_fract_y
 _atom_site_fract_z
 _atom_site_occupancy
  Sr  Sr0  1  0.68462913  0.25474322  0.16900732  1
  Sr  Sr1  1  0.31537087  0.74525678  0.83099268  1
  Sr  Sr2  1  0.16737359  0.22708746  0.94191255  1
  Sr  Sr3  1  0.83262641  0.77291254  0.05808745  1
  Sr  Sr4  1  0.08867461  0.25837849  0.44236129  1
  Sr  Sr5  1  0.91132539  0.74162151  0.55763871  1
  V  V6  1  0.60949355  0.26247197  0.43191202  1
  V  V7  1  0.39050645  0.73752803  0.56808798  1
  V  V8  1  0.16622341  0.27301048  0.20520614  1
  V  V9  1  0.83377659  0.72698952  0.79479386  1
  V  V10  1  0.34666782  0.79223983  0.08320600  1
  V  V11  1  0.65333218  0.20776017  0.91679400  1
  Bi  Bi12  1  0.12017021  0.77112769  0.31462224  1
  Bi  Bi13  1  0.87982979  0.22887231  0.68537776  1
  Bi  Bi14  1  0.36781954  0.27030598  0.69807741  1
  Bi  Bi15  1  0.63218046  0.72969402  0.30192259  1
  O  O16  1  0.18589855  0.66370846  0.46890550  1
  O  O17  1  0.81410145  0.33629154  0.53109450  1
  O  O18  1  0.07071430  0.12342610  0.60251268  1
  O  O19  1  0.92928570  0.87657390  0.39748732  1
  O  O20  1  0.16083914  0.70528552  0.14766005  1
  O  O21  1  0.83916086  0.29471448  0.85233995  1
  O  O22  1  0.34380392  0.01755472  0.05286834  1
  O  O23  1  0.65619608  0.98244528  0.94713166  1
  O  O24  1  0.67063679  0.12923434  0.33951882  1
  O  O25  1  0.32936321  0.87076566  0.66048118  1
  O  O26  1  0.17804074  0.36602802  0.77517517  1
  O  O27  1  0.82195926  0.63397198  0.22482483  1
  O  O28  1  0.41184889  0.41477513  0.20005106  1
  O  O29  1  0.58815111  0.58522487  0.79994894  1
  O  O30  1  0.06995082  0.41103886  0.28122330  1
  O  O31  1  0.93004918  0.58896114  0.71877670  1
  O  O32  1  0.68207655  0.39054432  0.01513508  1
  O  O33  1  0.31792345  0.60945568  0.98486492  1
  O  O34  1  0.38690963  0.50111643  0.59399552  1
  O  O35  1  0.61309037  0.49888357  0.40600448  1
  O  O36  1  0.41049131  0.14068249  0.84222848  1
  O  O37  1  0.58950869  0.85931751  0.15777152  1
  O  O38  1  0.38208073  0.12268259  0.45434254  1
  O  O39  1  0.61791927  0.87731741  0.54565746  1
  O  O40  1  0.14938844  0.06500815  0.25968962  1
  O  O41  1  0.85061156  0.93499185  0.74031038  1
  O  O42  1  0.00625699  0.18389993  0.09391621  1
  O  O43  1  0.99374301  0.81610007  0.90608379  1
