# generated using pymatgen
data_Sr2EuTa(CuO4)2
_symmetry_space_group_name_H-M   'P 1'
_cell_length_a   3.94372236
_cell_length_b   3.94372236
_cell_length_c   11.78166073
_cell_angle_alpha   90.00000000
_cell_angle_beta   90.00000000
_cell_angle_gamma   90.00000000
_symmetry_Int_Tables_number   1
_chemical_formula_structural   Sr2EuTa(CuO4)2
_chemical_formula_sum   'Sr2 Eu1 Ta1 Cu2 O8'
_cell_volume   183.23953375
_cell_formula_units_Z   1
loop_
 _symmetry_equiv_pos_site_id
 _symmetry_equiv_pos_as_xyz
  1  'x, y, z'
loop_
 _atom_site_type_symbol
 _atom_site_label
 _atom_site_symmetry_multiplicity
 _atom_site_fract_x
 _atom_site_fract_y
 _atom_site_fract_z
 _atom_site_occupancy
  Sr  Sr0  1  0.50000000  0.50000000  0.20023150  1
  Sr  Sr1  1  0.50000000  0.50000000  0.79976850  1
  Eu  Eu2  1  0.50000000  0.50000000  0.50000000  1
  Ta  Ta3  1  0.00000000  0.00000000  -0.00000000  1
  Cu  Cu4  1  0.00000000  -0.00000000  0.35571089  1
  Cu  Cu5  1  -0.00000000  0.00000000  0.64428911  1
  O  O6  1  0.00000000  -0.00000000  0.16836885  1
  O  O7  1  -0.00000000  0.00000000  0.83163115  1
  O  O8  1  0.00000000  0.50000000  -0.00000000  1
  O  O9  1  0.50000000  0.00000000  -0.00000000  1
  O  O10  1  0.00000000  0.50000000  0.36741090  1
  O  O11  1  -0.00000000  0.50000000  0.63258910  1
  O  O12  1  0.50000000  -0.00000000  0.36741090  1
  O  O13  1  0.50000000  0.00000000  0.63258910  1
