# generated using pymatgen
data_Tm4Al2O9
_symmetry_space_group_name_H-M   'P 1'
_cell_length_a   7.30259147
_cell_length_b   10.42406504
_cell_length_c   11.06105641
_cell_angle_alpha   90.00000000
_cell_angle_beta   108.42806864
_cell_angle_gamma   90.00000000
_symmetry_Int_Tables_number   1
_chemical_formula_structural   Tm4Al2O9
_chemical_formula_sum   'Tm16 Al8 O36'
_cell_volume   798.82079100
_cell_formula_units_Z   4
loop_
 _symmetry_equiv_pos_site_id
 _symmetry_equiv_pos_as_xyz
  1  'x, y, z'
loop_
 _atom_site_type_symbol
 _atom_site_label
 _atom_site_symmetry_multiplicity
 _atom_site_fract_x
 _atom_site_fract_y
 _atom_site_fract_z
 _atom_site_occupancy
  Tm  Tm0  1  0.52223854  0.40617022  0.30528547  1
  Tm  Tm1  1  0.47776146  0.59382978  0.69471453  1
  Tm  Tm2  1  0.47776146  0.90617022  0.19471453  1
  Tm  Tm3  1  0.52223854  0.09382978  0.80528547  1
  Tm  Tm4  1  0.02304290  0.39277742  0.28331551  1
  Tm  Tm5  1  0.97695710  0.60722258  0.71668449  1
  Tm  Tm6  1  0.97695710  0.89277742  0.21668449  1
  Tm  Tm7  1  0.02304290  0.10722258  0.78331551  1
  Tm  Tm8  1  0.16265623  0.62381163  0.06445747  1
  Tm  Tm9  1  0.83734377  0.37618837  0.93554253  1
  Tm  Tm10  1  0.83734377  0.12381163  0.43554253  1
  Tm  Tm11  1  0.16265623  0.87618837  0.56445747  1
  Tm  Tm12  1  0.33637800  0.12155051  0.41259696  1
  Tm  Tm13  1  0.66362200  0.87844949  0.58740304  1
  Tm  Tm14  1  0.66362200  0.62155051  0.08740304  1
  Tm  Tm15  1  0.33637800  0.37844949  0.91259696  1
  Al  Al16  1  0.15480834  0.18164986  0.11300916  1
  Al  Al17  1  0.84519166  0.81835014  0.88699084  1
  Al  Al18  1  0.84519166  0.68164986  0.38699084  1
  Al  Al19  1  0.15480834  0.31835014  0.61300916  1
  Al  Al20  1  0.71562962  0.18459382  0.12839327  1
  Al  Al21  1  0.28437038  0.81540618  0.87160673  1
  Al  Al22  1  0.28437038  0.68459382  0.37160673  1
  Al  Al23  1  0.71562962  0.31540618  0.62839327  1
  O  O24  1  0.56861195  0.26632541  0.47840531  1
  O  O25  1  0.43138805  0.73367459  0.52159469  1
  O  O26  1  0.43138805  0.76632541  0.02159469  1
  O  O27  1  0.56861195  0.23367459  0.97840531  1
  O  O28  1  0.13888928  0.27087719  0.45826880  1
  O  O29  1  0.86111072  0.72912281  0.54173120  1
  O  O30  1  0.86111072  0.77087719  0.04173120  1
  O  O31  1  0.13888928  0.22912281  0.95826880  1
  O  O32  1  0.19888754  0.02215494  0.16689884  1
  O  O33  1  0.80111246  0.97784506  0.83310116  1
  O  O34  1  0.80111246  0.52215494  0.33310116  1
  O  O35  1  0.19888754  0.47784506  0.66689884  1
  O  O36  1  0.42305690  0.49347228  0.10647352  1
  O  O37  1  0.57694310  0.50652772  0.89352648  1
  O  O38  1  0.57694310  0.99347228  0.39352648  1
  O  O39  1  0.42305690  0.00652772  0.60647352  1
  O  O40  1  0.28967020  0.26851685  0.24798764  1
  O  O41  1  0.71032980  0.73148315  0.75201236  1
  O  O42  1  0.71032980  0.76851685  0.25201236  1
  O  O43  1  0.28967020  0.23148315  0.74798764  1
  O  O44  1  0.73297672  0.26644130  0.27179029  1
  O  O45  1  0.26702328  0.73355870  0.72820971  1
  O  O46  1  0.26702328  0.76644130  0.22820971  1
  O  O47  1  0.73297672  0.23355870  0.77179029  1
  O  O48  1  0.06805353  0.74700341  0.38626483  1
  O  O49  1  0.93194647  0.25299659  0.61373517  1
  O  O50  1  0.93194647  0.24700341  0.11373517  1
  O  O51  1  0.06805353  0.75299659  0.88626483  1
  O  O52  1  0.28516016  0.52062534  0.33972657  1
  O  O53  1  0.71483984  0.47937466  0.66027343  1
  O  O54  1  0.71483984  0.02062534  0.16027343  1
  O  O55  1  0.28516016  0.97937466  0.83972657  1
  O  O56  1  0.06545581  0.00932069  0.39383062  1
  O  O57  1  0.93454419  0.99067931  0.60616938  1
  O  O58  1  0.93454419  0.50932069  0.10616938  1
  O  O59  1  0.06545581  0.49067931  0.89383062  1
