# generated using pymatgen
data_Tb2CoPtO6
_symmetry_space_group_name_H-M   'P 1'
_cell_length_a   5.34765233
_cell_length_b   5.78203257
_cell_length_c   7.72129117
_cell_angle_alpha   90.00000000
_cell_angle_beta   89.81904456
_cell_angle_gamma   90.00000000
_symmetry_Int_Tables_number   1
_chemical_formula_structural   Tb2CoPtO6
_chemical_formula_sum   'Tb4 Co2 Pt2 O12'
_cell_volume   238.74344812
_cell_formula_units_Z   2
loop_
 _symmetry_equiv_pos_site_id
 _symmetry_equiv_pos_as_xyz
  1  'x, y, z'
loop_
 _atom_site_type_symbol
 _atom_site_label
 _atom_site_symmetry_multiplicity
 _atom_site_fract_x
 _atom_site_fract_y
 _atom_site_fract_z
 _atom_site_occupancy
  Tb  Tb0  1  0.02568686  0.42553721  0.25141160  1
  Tb  Tb1  1  0.97431314  0.57446279  0.74858840  1
  Tb  Tb2  1  0.47431314  0.92553721  0.24858840  1
  Tb  Tb3  1  0.52568686  0.07446279  0.75141160  1
  Co  Co4  1  -0.00000000  -0.00000000  0.50000000  1
  Co  Co5  1  0.50000000  0.50000000  -0.00000000  1
  Pt  Pt6  1  -0.00000000  0.00000000  -0.00000000  1
  Pt  Pt7  1  0.50000000  0.50000000  0.50000000  1
  O  O8  1  0.87596316  0.04862157  0.24929606  1
  O  O9  1  0.12403684  0.95137843  0.75070394  1
  O  O10  1  0.62403684  0.54862157  0.25070394  1
  O  O11  1  0.37596316  0.45137843  0.74929606  1
  O  O12  1  0.18482940  0.69905381  0.06486245  1
  O  O13  1  0.81517060  0.30094619  0.93513755  1
  O  O14  1  0.31517060  0.19905381  0.43513755  1
  O  O15  1  0.68482940  0.80094619  0.56486245  1
  O  O16  1  0.31408977  0.19053987  0.05723407  1
  O  O17  1  0.68591023  0.80946013  0.94276593  1
  O  O18  1  0.18591023  0.69053987  0.44276593  1
  O  O19  1  0.81408977  0.30946013  0.55723407  1
