# generated using pymatgen
data_Lu3Ni11Ge4
_symmetry_space_group_name_H-M   'P 1'
_cell_length_a   8.23849567
_cell_length_b   8.23849567
_cell_length_c   8.48700625
_cell_angle_alpha   90.00000000
_cell_angle_beta   90.00000000
_cell_angle_gamma   119.99999944
_symmetry_Int_Tables_number   1
_chemical_formula_structural   Lu3Ni11Ge4
_chemical_formula_sum   'Lu6 Ni22 Ge8'
_cell_volume   498.86265274
_cell_formula_units_Z   2
loop_
 _symmetry_equiv_pos_site_id
 _symmetry_equiv_pos_as_xyz
  1  'x, y, z'
loop_
 _atom_site_type_symbol
 _atom_site_label
 _atom_site_symmetry_multiplicity
 _atom_site_fract_x
 _atom_site_fract_y
 _atom_site_fract_z
 _atom_site_occupancy
  Lu  Lu0  1  0.80455470  0.19544530  0.75000000  1
  Lu  Lu1  1  0.19544530  0.80455470  0.25000000  1
  Lu  Lu2  1  0.39089060  0.19544530  0.75000000  1
  Lu  Lu3  1  0.60910940  0.80455470  0.25000000  1
  Lu  Lu4  1  0.80455470  0.60910940  0.75000000  1
  Lu  Lu5  1  0.19544530  0.39089060  0.25000000  1
  Ni  Ni6  1  0.84169336  0.15830664  0.40870159  1
  Ni  Ni7  1  0.15830664  0.84169336  0.59129841  1
  Ni  Ni8  1  0.31661329  0.15830664  0.40870159  1
  Ni  Ni9  1  0.15830664  0.84169336  0.90870159  1
  Ni  Ni10  1  0.68338671  0.84169336  0.59129841  1
  Ni  Ni11  1  0.84169336  0.15830664  0.09129841  1
  Ni  Ni12  1  0.84169336  0.68338671  0.40870159  1
  Ni  Ni13  1  0.68338671  0.84169336  0.90870159  1
  Ni  Ni14  1  0.15830664  0.31661329  0.59129841  1
  Ni  Ni15  1  0.31661329  0.15830664  0.09129841  1
  Ni  Ni16  1  0.15830664  0.31661329  0.90870159  1
  Ni  Ni17  1  0.84169336  0.68338671  0.09129841  1
  Ni  Ni18  1  0.43522855  0.56477145  0.75000000  1
  Ni  Ni19  1  0.56477145  0.43522855  0.25000000  1
  Ni  Ni20  1  0.12954290  0.56477145  0.75000000  1
  Ni  Ni21  1  0.87045710  0.43522855  0.25000000  1
  Ni  Ni22  1  0.43522855  0.87045710  0.75000000  1
  Ni  Ni23  1  0.56477145  0.12954290  0.25000000  1
  Ni  Ni24  1  0.66666700  0.33333300  0.99725699  1
  Ni  Ni25  1  0.33333300  0.66666700  0.00274301  1
  Ni  Ni26  1  0.33333300  0.66666700  0.49725699  1
  Ni  Ni27  1  0.66666700  0.33333300  0.50274301  1
  Ge  Ge28  1  0.50000000  0.50000000  0.00000000  1
  Ge  Ge29  1  0.00000000  0.50000000  0.00000000  1
  Ge  Ge30  1  0.50000000  0.50000000  0.50000000  1
  Ge  Ge31  1  0.50000000  0.00000000  0.00000000  1
  Ge  Ge32  1  0.00000000  0.50000000  0.50000000  1
  Ge  Ge33  1  0.50000000  0.00000000  0.50000000  1
  Ge  Ge34  1  0.00000000  0.00000000  0.75000000  1
  Ge  Ge35  1  0.00000000  0.00000000  0.25000000  1
