# generated using pymatgen
data_Nd7V2BO17
_symmetry_space_group_name_H-M   'P 1'
_cell_length_a   6.99028690
_cell_length_b   12.64312766
_cell_length_c   18.12551815
_cell_angle_alpha   90.00000000
_cell_angle_beta   90.00000000
_cell_angle_gamma   97.03295368
_symmetry_Int_Tables_number   1
_chemical_formula_structural   Nd7V2BO17
_chemical_formula_sum   'Nd28 V8 B4 O68'
_cell_volume   1589.86380365
_cell_formula_units_Z   4
loop_
 _symmetry_equiv_pos_site_id
 _symmetry_equiv_pos_as_xyz
  1  'x, y, z'
loop_
 _atom_site_type_symbol
 _atom_site_label
 _atom_site_symmetry_multiplicity
 _atom_site_fract_x
 _atom_site_fract_y
 _atom_site_fract_z
 _atom_site_occupancy
  Nd  Nd0  1  0.02358517  0.82075510  0.27781327  1
  Nd  Nd1  1  0.97641483  0.17924490  0.72218673  1
  Nd  Nd2  1  0.47641483  0.67924490  0.77781327  1
  Nd  Nd3  1  0.52358517  0.32075510  0.22218673  1
  Nd  Nd4  1  0.78538389  0.56289419  0.13308222  1
  Nd  Nd5  1  0.21461611  0.43710581  0.86691778  1
  Nd  Nd6  1  0.71461611  0.93710581  0.63308222  1
  Nd  Nd7  1  0.28538389  0.06289419  0.36691778  1
  Nd  Nd8  1  0.49256230  0.80237972  0.39316307  1
  Nd  Nd9  1  0.50743770  0.19762028  0.60683693  1
  Nd  Nd10  1  0.00743770  0.69762028  0.89316307  1
  Nd  Nd11  1  0.99256230  0.30237972  0.10683693  1
  Nd  Nd12  1  0.18909417  0.90291257  0.72626954  1
  Nd  Nd13  1  0.81090583  0.09708743  0.27373046  1
  Nd  Nd14  1  0.31090583  0.59708743  0.22626954  1
  Nd  Nd15  1  0.68909417  0.40291257  0.77373046  1
  Nd  Nd16  1  0.77671086  0.48512835  0.55241802  1
  Nd  Nd17  1  0.22328914  0.51487165  0.44758198  1
  Nd  Nd18  1  0.72328914  0.01487165  0.05241802  1
  Nd  Nd19  1  0.27671086  0.98512835  0.94758198  1
  Nd  Nd20  1  0.98939565  0.79102055  0.47934343  1
  Nd  Nd21  1  0.01060435  0.20897945  0.52065657  1
  Nd  Nd22  1  0.51060435  0.70897945  0.97934343  1
  Nd  Nd23  1  0.48939565  0.29102055  0.02065657  1
  Nd  Nd24  1  0.75819006  0.57594989  0.34575576  1
  Nd  Nd25  1  0.24180994  0.42405011  0.65424424  1
  Nd  Nd26  1  0.74180994  0.92405011  0.84575576  1
  Nd  Nd27  1  0.25819006  0.07594989  0.15424424  1
  V  V28  1  0.54736077  0.83678949  0.19748245  1
  V  V29  1  0.45263923  0.16321051  0.80251755  1
  V  V30  1  0.95263923  0.66321051  0.69748245  1
  V  V31  1  0.04736077  0.33678949  0.30251755  1
  V  V32  1  0.03894119  0.81672876  0.06376951  1
  V  V33  1  0.96105881  0.18327124  0.93623049  1
  V  V34  1  0.46105881  0.68327124  0.56376951  1
  V  V35  1  0.53894119  0.31672876  0.43623049  1
  B  B36  1  0.25177898  0.99954752  0.56906201  1
  B  B37  1  0.74822102  0.00045248  0.43093799  1
  B  B38  1  0.24822102  0.50045248  0.06906201  1
  B  B39  1  0.75177898  0.49954752  0.93093799  1
  O  O40  1  0.47107468  0.91209047  0.12626889  1
  O  O41  1  0.52892532  0.08790953  0.87373111  1
  O  O42  1  0.02892532  0.58790953  0.62626889  1
  O  O43  1  0.97107468  0.41209047  0.37373111  1
  O  O44  1  0.40149149  0.00012229  0.62212097  1
  O  O45  1  0.59850851  -0.00012229  0.37787903  1
  O  O46  1  0.09850851  0.49987771  0.12212097  1
  O  O47  1  0.90149149  0.50012229  0.87787903  1
  O  O48  1  0.60762287  0.50740455  0.23378122  1
  O  O49  1  0.39237713  0.49259545  0.76621878  1
  O  O50  1  0.89237713  0.99259545  0.73378122  1
  O  O51  1  0.10762287  0.00740455  0.26621878  1
  O  O52  1  0.80568123  0.76015233  0.36799010  1
  O  O53  1  0.19431877  0.23984767  0.63200990  1
  O  O54  1  0.69431877  0.73984767  0.86799010  1
  O  O55  1  0.30568123  0.26015233  0.13200990  1
  O  O56  1  0.08652603  0.95653820  0.06362962  1
  O  O57  1  0.91347397  0.04346180  0.93637038  1
  O  O58  1  0.41347397  0.54346180  0.56362962  1
  O  O59  1  0.58652603  0.45653820  0.43637038  1
  O  O60  1  0.05057844  0.75544618  0.14683504  1
  O  O61  1  0.94942156  0.24455382  0.85316496  1
  O  O62  1  0.44942156  0.74455382  0.64683504  1
  O  O63  1  0.55057844  0.25544618  0.35316496  1
  O  O64  1  0.08279850  0.87965510  0.85514651  1
  O  O65  1  0.91720150  0.12034490  0.14485349  1
  O  O66  1  0.41720150  0.62034490  0.35514651  1
  O  O67  1  0.58279850  0.37965510  0.64485349  1
  O  O68  1  0.36480147  0.79883566  0.26262248  1
  O  O69  1  0.63519853  0.20116434  0.73737752  1
  O  O70  1  0.13519853  0.70116434  0.76262248  1
  O  O71  1  0.86480147  0.29883566  0.23737752  1
  O  O72  1  0.96082991  0.59952257  0.45785382  1
  O  O73  1  0.03917009  0.40047743  0.54214618  1
  O  O74  1  0.53917009  0.90047743  0.95785382  1
  O  O75  1  0.46082991  0.09952257  0.04214618  1
  O  O76  1  0.19157629  0.77259116  0.99609114  1
  O  O77  1  0.80842371  0.22740884  0.00390886  1
  O  O78  1  0.30842371  0.72740884  0.49609114  1
  O  O79  1  0.69157629  0.27259116  0.50390886  1
  O  O80  1  0.89032312  0.78395973  0.66972265  1
  O  O81  1  0.10967688  0.21604027  0.33027735  1
  O  O82  1  0.60967688  0.71604027  0.16972265  1
  O  O83  1  0.39032312  0.28395973  0.83027735  1
  O  O84  1  0.19398614  0.87764503  0.38978547  1
  O  O85  1  0.80601386  0.12235497  0.61021453  1
  O  O86  1  0.30601386  0.62235497  0.88978547  1
  O  O87  1  0.69398614  0.37764503  0.11021453  1
  O  O88  1  0.80901455  0.79598887  0.03032333  1
  O  O89  1  0.19098545  0.20401113  0.96967667  1
  O  O90  1  0.69098545  0.70401113  0.53032333  1
  O  O91  1  0.30901455  0.29598887  0.46967667  1
  O  O92  1  0.09147400  0.92572776  0.57910575  1
  O  O93  1  0.90852600  0.07427224  0.42089425  1
  O  O94  1  0.40852600  0.57427224  0.07910575  1
  O  O95  1  0.59147400  0.42572776  0.92089425  1
  O  O96  1  0.72575960  0.92061230  0.48448105  1
  O  O97  1  0.27424040  0.07938770  0.51551895  1
  O  O98  1  0.77424040  0.57938770  0.98448105  1
  O  O99  1  0.22575960  0.42061230  0.01551895  1
  O  O100  1  0.99797158  0.62371992  0.26023746  1
  O  O101  1  0.00202842  0.37628008  0.73976254  1
  O  O102  1  0.50202842  0.87628008  0.76023746  1
  O  O103  1  0.49797158  0.12371992  0.23976254  1
  O  O104  1  0.75457084  0.59149766  0.73923884  1
  O  O105  1  0.24542916  0.40850234  0.26076116  1
  O  O106  1  0.74542916  0.90850234  0.23923884  1
  O  O107  1  0.25457084  0.09149766  0.76076116  1
