# generated using pymatgen
data_La3Re(ClO2)3
_symmetry_space_group_name_H-M   'P 1'
_cell_length_a   5.46035216
_cell_length_b   9.47946416
_cell_length_c   9.47946416
_cell_angle_alpha   119.99999839
_cell_angle_beta   90.00000000
_cell_angle_gamma   90.00000000
_symmetry_Int_Tables_number   1
_chemical_formula_structural   La3Re(ClO2)3
_chemical_formula_sum   'La6 Re2 Cl6 O12'
_cell_volume   424.93144442
_cell_formula_units_Z   2
loop_
 _symmetry_equiv_pos_site_id
 _symmetry_equiv_pos_as_xyz
  1  'x, y, z'
loop_
 _atom_site_type_symbol
 _atom_site_label
 _atom_site_symmetry_multiplicity
 _atom_site_fract_x
 _atom_site_fract_y
 _atom_site_fract_z
 _atom_site_occupancy
  La  La0  1  0.75000000  0.59498540  0.68636255  1
  La  La1  1  0.25000000  0.40501460  0.31363745  1
  La  La2  1  0.75000000  0.09137715  0.40501460  1
  La  La3  1  0.25000000  0.90862285  0.59498540  1
  La  La4  1  0.75000000  0.31363745  0.90862285  1
  La  La5  1  0.25000000  0.68636255  0.09137715  1
  Re  Re6  1  0.75000000  0.66666700  0.33333300  1
  Re  Re7  1  0.25000000  0.33333300  0.66666700  1
  Cl  Cl8  1  0.75000000  0.80726802  0.04777447  1
  Cl  Cl9  1  0.25000000  0.19273198  0.95222553  1
  Cl  Cl10  1  0.75000000  0.24050645  0.19273198  1
  Cl  Cl11  1  0.25000000  0.75949355  0.80726802  1
  Cl  Cl12  1  0.75000000  0.95222553  0.75949355  1
  Cl  Cl13  1  0.25000000  0.04777447  0.24050645  1
  O  O14  1  0.97863685  0.83735642  0.36372420  1
  O  O15  1  0.02136315  0.16264358  0.63627580  1
  O  O16  1  0.97863685  0.52636778  0.16264358  1
  O  O17  1  0.47863685  0.16264358  0.63627580  1
  O  O18  1  0.02136315  0.47363222  0.83735642  1
  O  O19  1  0.52136315  0.83735642  0.36372420  1
  O  O20  1  0.97863685  0.63627580  0.47363222  1
  O  O21  1  0.47863685  0.47363222  0.83735642  1
  O  O22  1  0.02136315  0.36372420  0.52636778  1
  O  O23  1  0.52136315  0.52636778  0.16264358  1
  O  O24  1  0.47863685  0.36372420  0.52636778  1
  O  O25  1  0.52136315  0.63627580  0.47363222  1
