# generated using pymatgen
data_Mn3(SiSe3)2
_symmetry_space_group_name_H-M   'P 1'
_cell_length_a   6.51580455
_cell_length_b   6.51580455
_cell_length_c   13.74025128
_cell_angle_alpha   90.00000000
_cell_angle_beta   90.00000000
_cell_angle_gamma   119.99999640
_symmetry_Int_Tables_number   1
_chemical_formula_structural   Mn3(SiSe3)2
_chemical_formula_sum   'Mn6 Si4 Se12'
_cell_volume   505.19776338
_cell_formula_units_Z   2
loop_
 _symmetry_equiv_pos_site_id
 _symmetry_equiv_pos_as_xyz
  1  'x, y, z'
loop_
 _atom_site_type_symbol
 _atom_site_label
 _atom_site_symmetry_multiplicity
 _atom_site_fract_x
 _atom_site_fract_y
 _atom_site_fract_z
 _atom_site_occupancy
  Mn  Mn0  1  0.66666700  0.33333300  0.99950008  1
  Mn  Mn1  1  0.33333300  0.66666700  0.00049992  1
  Mn  Mn2  1  0.66666700  0.33333300  0.50049992  1
  Mn  Mn3  1  0.33333300  0.66666700  0.49950008  1
  Mn  Mn4  1  0.66666700  0.33333300  0.75000000  1
  Mn  Mn5  1  0.33333300  0.66666700  0.25000000  1
  Si  Si6  1  0.00000000  -0.00000000  0.91550485  1
  Si  Si7  1  0.00000000  -0.00000000  0.08449515  1
  Si  Si8  1  0.00000000  -0.00000000  0.58449515  1
  Si  Si9  1  0.00000000  -0.00000000  0.41550485  1
  Se  Se10  1  0.65686023  0.65753107  0.87333522  1
  Se  Se11  1  0.34313977  0.34246893  0.12666478  1
  Se  Se12  1  0.00067084  0.34313977  0.87333522  1
  Se  Se13  1  0.00067084  0.65753107  0.62666478  1
  Se  Se14  1  0.99932916  0.65686023  0.12666478  1
  Se  Se15  1  0.99932916  0.34246893  0.37333522  1
  Se  Se16  1  0.34246893  0.99932916  0.87333522  1
  Se  Se17  1  0.34246893  0.34313977  0.62666478  1
  Se  Se18  1  0.65753107  0.00067084  0.12666478  1
  Se  Se19  1  0.65753107  0.65686023  0.37333522  1
  Se  Se20  1  0.65686023  0.99932916  0.62666478  1
  Se  Se21  1  0.34313977  0.00067084  0.37333522  1
