# generated using pymatgen
data_Sc3V2Si3
_symmetry_space_group_name_H-M   'P 1'
_cell_length_a   5.17555450
_cell_length_b   7.64984261
_cell_length_c   7.64984261
_cell_angle_alpha   119.99999453
_cell_angle_beta   90.00000000
_cell_angle_gamma   90.00000000
_symmetry_Int_Tables_number   1
_chemical_formula_structural   Sc3V2Si3
_chemical_formula_sum   'Sc6 V4 Si6'
_cell_volume   262.29652770
_cell_formula_units_Z   2
loop_
 _symmetry_equiv_pos_site_id
 _symmetry_equiv_pos_as_xyz
  1  'x, y, z'
loop_
 _atom_site_type_symbol
 _atom_site_label
 _atom_site_symmetry_multiplicity
 _atom_site_fract_x
 _atom_site_fract_y
 _atom_site_fract_z
 _atom_site_occupancy
  Sc  Sc0  1  0.75000000  0.75390189  0.75390189  1
  Sc  Sc1  1  0.25000000  0.24609811  0.24609811  1
  Sc  Sc2  1  0.75000000  1.00000000  0.24609811  1
  Sc  Sc3  1  0.25000000  0.00000000  0.75390189  1
  Sc  Sc4  1  0.75000000  0.24609811  1.00000000  1
  Sc  Sc5  1  0.25000000  0.75390189  0.00000000  1
  V  V6  1  0.00000000  0.66666700  0.33333300  1
  V  V7  1  0.00000000  0.33333300  0.66666700  1
  V  V8  1  0.50000000  0.33333300  0.66666700  1
  V  V9  1  0.50000000  0.66666700  0.33333300  1
  Si  Si10  1  0.75000000  0.40536815  0.40536815  1
  Si  Si11  1  0.25000000  0.59463185  0.59463185  1
  Si  Si12  1  0.75000000  0.00000000  0.59463185  1
  Si  Si13  1  0.25000000  1.00000000  0.40536815  1
  Si  Si14  1  0.75000000  0.59463185  0.00000000  1
  Si  Si15  1  0.25000000  0.40536815  1.00000000  1
