# generated using pymatgen
data_NaLuTiO4
_symmetry_space_group_name_H-M   'P 1'
_cell_length_a   5.40383780
_cell_length_b   12.30041107
_cell_length_c   5.26407190
_cell_angle_alpha   90.00000000
_cell_angle_beta   90.00000000
_cell_angle_gamma   90.00000000
_symmetry_Int_Tables_number   1
_chemical_formula_structural   NaLuTiO4
_chemical_formula_sum   'Na4 Lu4 Ti4 O16'
_cell_volume   349.89983917
_cell_formula_units_Z   4
loop_
 _symmetry_equiv_pos_site_id
 _symmetry_equiv_pos_as_xyz
  1  'x, y, z'
loop_
 _atom_site_type_symbol
 _atom_site_label
 _atom_site_symmetry_multiplicity
 _atom_site_fract_x
 _atom_site_fract_y
 _atom_site_fract_z
 _atom_site_occupancy
  Na  Na0  1  0.00050812  0.41328390  0.75000000  1
  Na  Na1  1  -0.00050812  0.58671610  0.25000000  1
  Na  Na2  1  0.50050812  0.58671610  0.75000000  1
  Na  Na3  1  0.49949188  0.41328390  0.25000000  1
  Lu  Lu4  1  0.53008094  0.89594741  0.75000000  1
  Lu  Lu5  1  0.46991906  0.10405259  0.25000000  1
  Lu  Lu6  1  0.03008094  0.10405259  0.75000000  1
  Lu  Lu7  1  0.96991906  0.89594741  0.25000000  1
  Ti  Ti8  1  0.00872627  0.74253298  0.75000000  1
  Ti  Ti9  1  0.99127373  0.25746702  0.25000000  1
  Ti  Ti10  1  0.50872627  0.25746702  0.75000000  1
  Ti  Ti11  1  0.49127373  0.74253298  0.25000000  1
  O  O12  1  0.91799871  0.94043693  0.75000000  1
  O  O13  1  0.08200129  0.05956307  0.25000000  1
  O  O14  1  0.41799871  0.05956307  0.75000000  1
  O  O15  1  0.58200129  0.94043693  0.25000000  1
  O  O16  1  0.75000000  0.76301386  0.00000000  1
  O  O17  1  0.25000000  0.23698614  0.00000000  1
  O  O18  1  0.25000000  0.23698614  0.50000000  1
  O  O19  1  0.75000000  0.76301386  0.50000000  1
  O  O20  1  0.54097593  0.40013919  0.75000000  1
  O  O21  1  0.45902407  0.59986081  0.25000000  1
  O  O22  1  0.04097593  0.59986081  0.75000000  1
  O  O23  1  0.95902407  0.40013919  0.25000000  1
  O  O24  1  0.75000000  0.20359482  0.00000000  1
  O  O25  1  0.25000000  0.79640518  -0.00000000  1
  O  O26  1  0.25000000  0.79640518  0.50000000  1
  O  O27  1  0.75000000  0.20359482  0.50000000  1
