# generated using pymatgen
data_Mn23Si5C4
_symmetry_space_group_name_H-M   'P 1'
_cell_length_a   6.36033358
_cell_length_b   6.38063770
_cell_length_c   9.79324384
_cell_angle_alpha   85.13713410
_cell_angle_beta   79.84642292
_cell_angle_gamma   60.13603342
_symmetry_Int_Tables_number   1
_chemical_formula_structural   Mn23Si5C4
_chemical_formula_sum   'Mn23 Si5 C4'
_cell_volume   339.26319908
_cell_formula_units_Z   1
loop_
 _symmetry_equiv_pos_site_id
 _symmetry_equiv_pos_as_xyz
  1  'x, y, z'
loop_
 _atom_site_type_symbol
 _atom_site_label
 _atom_site_symmetry_multiplicity
 _atom_site_fract_x
 _atom_site_fract_y
 _atom_site_fract_z
 _atom_site_occupancy
  Mn  Mn0  1  0.18205425  0.20325363  0.11402887  1
  Mn  Mn1  1  0.75363178  0.56053750  0.23369258  1
  Mn  Mn2  1  0.03919708  0.71801115  0.80917397  1
  Mn  Mn3  1  0.03930699  0.11264081  0.33586155  1
  Mn  Mn4  1  0.43247853  0.64194755  0.89124831  1
  Mn  Mn5  1  0.25301789  0.16964759  0.53132649  1
  Mn  Mn6  1  0.64577358  0.89567785  0.02281076  1
  Mn  Mn7  1  0.32242363  0.29505946  0.88865375  1
  Mn  Mn8  1  0.54073788  0.30708153  0.10228376  1
  Mn  Mn9  1  0.33398878  0.75589096  0.16097551  1
  Mn  Mn10  1  0.09272414  0.60132715  0.56288044  1
  Mn  Mn11  1  0.57755828  0.28613029  0.37522670  1
  Mn  Mn12  1  0.14657396  0.48458878  0.31612087  1
  Mn  Mn13  1  0.85224281  0.44714343  0.96385116  1
  Mn  Mn14  1  0.00416841  -0.00038496  0.01105810  1
  Mn  Mn15  1  0.68797977  0.84890569  0.48099803  1
  Mn  Mn16  1  0.86377077  0.90741992  0.23656228  1
  Mn  Mn17  1  0.60836447  0.91609581  0.75001364  1
  Mn  Mn18  1  0.93200733  0.03309017  0.59425852  1
  Mn  Mn19  1  0.49780139  0.35351590  0.64443882  1
  Mn  Mn20  1  0.81340347  0.48103498  0.70688442  1
  Mn  Mn21  1  0.37259279  0.72127423  0.41815233  1
  Mn  Mn22  1  0.14667125  0.08983326  0.78947417  1
  Si  Si23  1  0.37551622  0.76708315  0.64788479  1
  Si  Si24  1  0.09315423  0.60126952  0.06244721  1
  Si  Si25  1  0.81002860  0.43541717  0.47778083  1
  Si  Si26  1  0.73327456  0.18188365  0.84579448  1
  Si  Si27  1  0.45268951  0.02098371  0.27930482  1
  C  C28  1  0.33509309  0.97806381  0.95049152  1
  C  C29  1  0.02345815  0.82543600  0.40565366  1
  C  C30  1  0.16171903  0.37720228  0.71997397  1
  C  C31  1  0.85149737  0.22423802  0.17469367  1
