# generated using pymatgen
data_Li3NbHO2F7
_symmetry_space_group_name_H-M   'P 1'
_cell_length_a   6.56382034
_cell_length_b   14.25184531
_cell_length_c   13.00190049
_cell_angle_alpha   90.00000000
_cell_angle_beta   90.00000000
_cell_angle_gamma   90.00000000
_symmetry_Int_Tables_number   1
_chemical_formula_structural   Li3NbHO2F7
_chemical_formula_sum   'Li24 Nb8 H8 O16 F56'
_cell_volume   1216.28296195
_cell_formula_units_Z   8
loop_
 _symmetry_equiv_pos_site_id
 _symmetry_equiv_pos_as_xyz
  1  'x, y, z'
loop_
 _atom_site_type_symbol
 _atom_site_label
 _atom_site_symmetry_multiplicity
 _atom_site_fract_x
 _atom_site_fract_y
 _atom_site_fract_z
 _atom_site_occupancy
  Li  Li0  1  0.20277895  0.26691491  0.34536445  1
  Li  Li1  1  0.20277895  0.73308509  0.84536445  1
  Li  Li2  1  0.23131511  0.99588139  0.36654329  1
  Li  Li3  1  0.23131511  0.00411861  0.86654329  1
  Li  Li4  1  0.23084396  0.11917639  0.56269759  1
  Li  Li5  1  0.23084396  0.88082361  0.06269759  1
  Li  Li6  1  0.26915604  0.38082361  0.06269759  1
  Li  Li7  1  0.26915604  0.61917639  0.56269759  1
  Li  Li8  1  0.26868489  0.49588139  0.36654329  1
  Li  Li9  1  0.26868489  0.50411861  0.86654329  1
  Li  Li10  1  0.29722105  0.23308509  0.84536445  1
  Li  Li11  1  0.29722105  0.76691491  0.34536445  1
  Li  Li12  1  0.70277895  0.23308509  0.65463555  1
  Li  Li13  1  0.70277895  0.76691491  0.15463555  1
  Li  Li14  1  0.73131511  0.49588139  0.13345671  1
  Li  Li15  1  0.73131511  0.50411861  0.63345671  1
  Li  Li16  1  0.73084396  0.38082361  0.43730241  1
  Li  Li17  1  0.73084396  0.61917639  0.93730241  1
  Li  Li18  1  0.76915604  0.88082361  0.43730241  1
  Li  Li19  1  0.76915604  0.11917639  0.93730241  1
  Li  Li20  1  0.76868489  0.99588139  0.13345671  1
  Li  Li21  1  0.76868489  0.00411861  0.63345671  1
  Li  Li22  1  0.79722105  0.26691491  0.15463555  1
  Li  Li23  1  0.79722105  0.73308509  0.65463555  1
  Nb  Nb24  1  0.24177321  0.36845754  0.60881343  1
  Nb  Nb25  1  0.24177321  0.63154246  0.10881343  1
  Nb  Nb26  1  0.25822679  0.13154246  0.10881343  1
  Nb  Nb27  1  0.25822679  0.86845754  0.60881343  1
  Nb  Nb28  1  0.74177321  0.13154246  0.39118657  1
  Nb  Nb29  1  0.74177321  0.86845754  0.89118657  1
  Nb  Nb30  1  0.75822679  0.36845754  0.89118657  1
  Nb  Nb31  1  0.75822679  0.63154246  0.39118657  1
  H  H32  1  0.00000000  0.40136047  0.25000000  1
  H  H33  1  0.00000000  0.11646977  0.75000000  1
  H  H34  1  0.00000000  0.88353023  0.25000000  1
  H  H35  1  0.00000000  0.59863953  0.75000000  1
  H  H36  1  0.50000000  0.61646977  0.75000000  1
  H  H37  1  0.50000000  0.09863953  0.75000000  1
  H  H38  1  0.50000000  0.90136047  0.25000000  1
  H  H39  1  0.50000000  0.38353023  0.25000000  1
  O  O40  1  0.02903760  0.67678436  0.35327142  1
  O  O41  1  0.02903760  0.32321564  0.85327142  1
  O  O42  1  0.04366406  0.59883365  0.42615304  1
  O  O43  1  0.04366406  0.40116635  0.92615304  1
  O  O44  1  0.45633594  0.09883365  0.42615304  1
  O  O45  1  0.45633594  0.90116635  0.92615304  1
  O  O46  1  0.47096240  0.17678436  0.35327142  1
  O  O47  1  0.47096240  0.82321564  0.85327142  1
  O  O48  1  0.52903760  0.17678436  0.14672858  1
  O  O49  1  0.52903760  0.82321564  0.64672858  1
  O  O50  1  0.54366406  0.09883365  0.07384696  1
  O  O51  1  0.54366406  0.90116635  0.57384696  1
  O  O52  1  0.95633594  0.40116635  0.57384696  1
  O  O53  1  0.95633594  0.59883365  0.07384696  1
  O  O54  1  0.97096240  0.32321564  0.64672858  1
  O  O55  1  0.97096240  0.67678436  0.14672858  1
  F  F56  1  0.03934350  0.39979989  0.33681004  1
  F  F57  1  0.03934350  0.60020011  0.83681004  1
  F  F58  1  0.02183419  0.11562331  0.83828769  1
  F  F59  1  0.02183419  0.88437669  0.33828769  1
  F  F60  1  0.05156319  0.13229012  0.40751322  1
  F  F61  1  0.05156319  0.86770988  0.90751322  1
  F  F62  1  0.18213958  0.24214407  0.19800296  1
  F  F63  1  0.18213958  0.75785593  0.69800296  1
  F  F64  1  0.21323114  0.01743052  0.01770584  1
  F  F65  1  0.21323114  0.98256948  0.51770584  1
  F  F66  1  0.22229250  0.04628578  0.22517338  1
  F  F67  1  0.22229250  0.95371422  0.72517338  1
  F  F68  1  0.24708710  0.22250331  0.99380652  1
  F  F69  1  0.24708710  0.77749669  0.49380652  1
  F  F70  1  0.25291290  0.27749669  0.49380652  1
  F  F71  1  0.25291290  0.72250331  0.99380652  1
  F  F72  1  0.27770750  0.45371422  0.72517338  1
  F  F73  1  0.27770750  0.54628578  0.22517338  1
  F  F74  1  0.28676886  0.51743052  0.01770584  1
  F  F75  1  0.28676886  0.48256948  0.51770584  1
  F  F76  1  0.31786042  0.25785593  0.69800296  1
  F  F77  1  0.31786042  0.74214407  0.19800296  1
  F  F78  1  0.44843681  0.63229012  0.40751322  1
  F  F79  1  0.44843681  0.36770988  0.90751322  1
  F  F80  1  0.47816581  0.61562331  0.83828769  1
  F  F81  1  0.47816581  0.38437669  0.33828769  1
  F  F82  1  0.46065650  0.10020011  0.83681004  1
  F  F83  1  0.46065650  0.89979989  0.33681004  1
  F  F84  1  0.53934350  0.10020011  0.66318996  1
  F  F85  1  0.53934350  0.89979989  0.16318996  1
  F  F86  1  0.52183419  0.61562331  0.66171231  1
  F  F87  1  0.52183419  0.38437669  0.16171231  1
  F  F88  1  0.55156319  0.63229012  0.09248678  1
  F  F89  1  0.55156319  0.36770988  0.59248678  1
  F  F90  1  0.68213958  0.25785593  0.80199704  1
  F  F91  1  0.68213958  0.74214407  0.30199704  1
  F  F92  1  0.71323114  0.48256948  0.98229416  1
  F  F93  1  0.71323114  0.51743052  0.48229416  1
  F  F94  1  0.72229250  0.45371422  0.77482662  1
  F  F95  1  0.72229250  0.54628578  0.27482662  1
  F  F96  1  0.74708710  0.72250331  0.50619348  1
  F  F97  1  0.74708710  0.27749669  0.00619348  1
  F  F98  1  0.75291290  0.22250331  0.50619348  1
  F  F99  1  0.75291290  0.77749669  0.00619348  1
  F  F100  1  0.77770750  0.04628578  0.27482662  1
  F  F101  1  0.77770750  0.95371422  0.77482662  1
  F  F102  1  0.78676886  0.01743052  0.48229416  1
  F  F103  1  0.78676886  0.98256948  0.98229416  1
  F  F104  1  0.81786042  0.24214407  0.30199704  1
  F  F105  1  0.81786042  0.75785593  0.80199704  1
  F  F106  1  0.94843681  0.13229012  0.09248678  1
  F  F107  1  0.94843681  0.86770988  0.59248678  1
  F  F108  1  0.97816581  0.11562331  0.66171231  1
  F  F109  1  0.97816581  0.88437669  0.16171231  1
  F  F110  1  0.96065650  0.39979989  0.16318996  1
  F  F111  1  0.96065650  0.60020011  0.66318996  1
