# generated using pymatgen
data_PH18C6N3O
_symmetry_space_group_name_H-M   'P 1'
_cell_length_a   6.62527758
_cell_length_b   12.95889112
_cell_length_c   6.63766195
_cell_angle_alpha   90.00000000
_cell_angle_beta   104.77695678
_cell_angle_gamma   90.00000000
_symmetry_Int_Tables_number   1
_chemical_formula_structural   PH18C6N3O
_chemical_formula_sum   'P2 H36 C12 N6 O2'
_cell_volume   551.03642603
_cell_formula_units_Z   2
loop_
 _symmetry_equiv_pos_site_id
 _symmetry_equiv_pos_as_xyz
  1  'x, y, z'
loop_
 _atom_site_type_symbol
 _atom_site_label
 _atom_site_symmetry_multiplicity
 _atom_site_fract_x
 _atom_site_fract_y
 _atom_site_fract_z
 _atom_site_occupancy
  P  P0  1  0.12991932  0.25000000  0.48241905  1
  P  P1  1  0.87008068  0.75000000  0.51758095  1
  H  H2  1  0.09366654  0.50938735  0.72355091  1
  H  H3  1  0.09366654  0.99061265  0.72355091  1
  H  H4  1  0.20763901  0.62109864  0.86590303  1
  H  H5  1  0.20763901  0.87890136  0.86590303  1
  H  H6  1  0.19250339  0.61116165  0.59328121  1
  H  H7  1  0.19250339  0.88883835  0.59328121  1
  H  H8  1  0.12275949  0.15247610  0.02520106  1
  H  H9  1  0.12275949  0.34752390  0.02520106  1
  H  H10  1  0.23151192  0.03951468  0.16594787  1
  H  H11  1  0.23151192  0.46048532  0.16594787  1
  H  H12  1  0.47047769  0.15407433  0.85069063  1
  H  H13  1  0.47047769  0.34592567  0.85069063  1
  H  H14  1  0.41964480  0.08721083  0.60748766  1
  H  H15  1  0.41964480  0.41278917  0.60748766  1
  H  H16  1  0.34384803  0.83960805  0.30301435  1
  H  H17  1  0.34384803  0.66039195  0.30301435  1
  H  H18  1  0.36214979  0.16028242  0.22461535  1
  H  H19  1  0.36214979  0.33971758  0.22461535  1
  H  H20  1  0.63785021  0.83971758  0.77538465  1
  H  H21  1  0.63785021  0.66028242  0.77538465  1
  H  H22  1  0.65615197  0.16039195  0.69698565  1
  H  H23  1  0.65615197  0.33960805  0.69698565  1
  H  H24  1  0.58035520  0.58721083  0.39251234  1
  H  H25  1  0.58035520  0.91278917  0.39251234  1
  H  H26  1  0.52952231  0.84592567  0.14930937  1
  H  H27  1  0.52952231  0.65407433  0.14930937  1
  H  H28  1  0.76848808  0.53951468  0.83405213  1
  H  H29  1  0.76848808  0.96048532  0.83405213  1
  H  H30  1  0.87724051  0.65247610  0.97479894  1
  H  H31  1  0.87724051  0.84752390  0.97479894  1
  H  H32  1  0.80749661  0.11116165  0.40671879  1
  H  H33  1  0.80749661  0.38883835  0.40671879  1
  H  H34  1  0.79236099  0.12109864  0.13409697  1
  H  H35  1  0.79236099  0.37890136  0.13409697  1
  H  H36  1  0.90633346  0.49061265  0.27644909  1
  H  H37  1  0.90633346  0.00938735  0.27644909  1
  C  C38  1  0.11137567  0.59364770  0.71374592  1
  C  C39  1  0.11137567  0.90635230  0.71374592  1
  C  C40  1  0.20843350  0.12322345  0.17981325  1
  C  C41  1  0.20843350  0.37677655  0.17981325  1
  C  C42  1  0.48836828  0.15721270  0.68956011  1
  C  C43  1  0.48836828  0.34278730  0.68956011  1
  C  C44  1  0.51163172  0.65721270  0.31043989  1
  C  C45  1  0.51163172  0.84278730  0.31043989  1
  C  C46  1  0.79156650  0.62322345  0.82018675  1
  C  C47  1  0.79156650  0.87677655  0.82018675  1
  C  C48  1  0.88862433  0.09364770  0.28625408  1
  C  C49  1  0.88862433  0.40635230  0.28625408  1
  N  N50  1  0.09472055  0.14180971  0.33829596  1
  N  N51  1  0.09472055  0.35819029  0.33829596  1
  N  N52  1  0.38935178  0.25000000  0.58174044  1
  N  N53  1  0.61064822  0.75000000  0.41825956  1
  N  N54  1  0.90527945  0.64180971  0.66170404  1
  N  N55  1  0.90527945  0.85819029  0.66170404  1
  O  O56  1  0.00997773  0.75000000  0.37332218  1
  O  O57  1  0.99002227  0.25000000  0.62667782  1
