# generated using pymatgen
data_K2SrNb5O15
_symmetry_space_group_name_H-M   'P 1'
_cell_length_a   4.05748501
_cell_length_b   12.77567499
_cell_length_c   12.77567499
_cell_angle_alpha   90.00000000
_cell_angle_beta   90.00000000
_cell_angle_gamma   90.00000000
_symmetry_Int_Tables_number   1
_chemical_formula_structural   K2SrNb5O15
_chemical_formula_sum   'K4 Sr2 Nb10 O30'
_cell_volume   662.25406677
_cell_formula_units_Z   2
loop_
 _symmetry_equiv_pos_site_id
 _symmetry_equiv_pos_as_xyz
  1  'x, y, z'
loop_
 _atom_site_type_symbol
 _atom_site_label
 _atom_site_symmetry_multiplicity
 _atom_site_fract_x
 _atom_site_fract_y
 _atom_site_fract_z
 _atom_site_occupancy
  K  K0  1  0.03274969  0.67051882  0.17051882  1
  K  K1  1  0.03274969  0.32948118  0.82948118  1
  K  K2  1  0.03274969  0.82948118  0.67051882  1
  K  K3  1  0.03274969  0.17051882  0.32948118  1
  Sr  Sr4  1  0.03154662  0.00000000  0.00000000  1
  Sr  Sr5  1  0.03154662  0.50000000  0.50000000  1
  Nb  Nb6  1  0.54147419  0.50000000  -0.00000000  1
  Nb  Nb7  1  0.54147419  0.00000000  0.50000000  1
  Nb  Nb8  1  0.53445042  0.21262857  0.07577145  1
  Nb  Nb9  1  0.53445042  0.78737143  0.92422855  1
  Nb  Nb10  1  0.53445042  0.92422855  0.21262857  1
  Nb  Nb11  1  0.53445042  0.71262857  0.42422855  1
  Nb  Nb12  1  0.53445042  0.07577145  0.78737143  1
  Nb  Nb13  1  0.53445042  0.28737143  0.57577145  1
  Nb  Nb14  1  0.53445042  0.42422855  0.28737143  1
  Nb  Nb15  1  0.53445042  0.57577145  0.71262857  1
  O  O16  1  0.00013180  0.19934516  0.07121227  1
  O  O17  1  0.00013180  0.80065484  0.92878773  1
  O  O18  1  0.00013180  0.92878773  0.19934516  1
  O  O19  1  0.00013180  0.69934516  0.42878773  1
  O  O20  1  0.00013180  0.07121227  0.80065484  1
  O  O21  1  0.00013180  0.30065484  0.57121227  1
  O  O22  1  0.00013180  0.42878773  0.30065484  1
  O  O23  1  0.00013180  0.57121227  0.69934516  1
  O  O24  1  0.49096613  0.00117264  0.34420116  1
  O  O25  1  0.49096613  0.99882736  0.65579884  1
  O  O26  1  0.49096613  0.65579884  0.00117264  1
  O  O27  1  0.49096613  0.50117264  0.15579884  1
  O  O28  1  0.49096613  0.34420116  0.99882736  1
  O  O29  1  0.49096613  0.49882736  0.84420116  1
  O  O30  1  0.49096613  0.15579884  0.49882736  1
  O  O31  1  0.49096613  0.84420116  0.50117264  1
  O  O32  1  -0.00066838  0.50000000  0.00000000  1
  O  O33  1  -0.00066838  0.00000000  0.50000000  1
  O  O34  1  0.50495053  0.21324499  0.71324499  1
  O  O35  1  0.50495053  0.78675501  0.28675501  1
  O  O36  1  0.50495053  0.28675501  0.21324499  1
  O  O37  1  0.50495053  0.71324499  0.78675501  1
  O  O38  1  0.49446343  0.06704920  0.13643106  1
  O  O39  1  0.49446343  0.93295080  0.86356894  1
  O  O40  1  0.49446343  0.86356894  0.06704920  1
  O  O41  1  0.49446343  0.56704920  0.36356894  1
  O  O42  1  0.49446343  0.13643106  0.93295080  1
  O  O43  1  0.49446343  0.43295080  0.63643106  1
  O  O44  1  0.49446343  0.36356894  0.43295080  1
  O  O45  1  0.49446343  0.63643106  0.56704920  1
