# generated using pymatgen
data_EuHo2O4
_symmetry_space_group_name_H-M   'P 1'
_cell_length_a   3.40132408
_cell_length_b   10.01944947
_cell_length_c   11.91330445
_cell_angle_alpha   90.00000000
_cell_angle_beta   90.00000000
_cell_angle_gamma   90.00000000
_symmetry_Int_Tables_number   1
_chemical_formula_structural   EuHo2O4
_chemical_formula_sum   'Eu4 Ho8 O16'
_cell_volume   405.99820514
_cell_formula_units_Z   4
loop_
 _symmetry_equiv_pos_site_id
 _symmetry_equiv_pos_as_xyz
  1  'x, y, z'
loop_
 _atom_site_type_symbol
 _atom_site_label
 _atom_site_symmetry_multiplicity
 _atom_site_fract_x
 _atom_site_fract_y
 _atom_site_fract_z
 _atom_site_occupancy
  Eu  Eu0  1  0.75000000  0.75101008  0.35107368  1
  Eu  Eu1  1  0.25000000  0.24898992  0.64892632  1
  Eu  Eu2  1  0.25000000  0.74898992  0.85107368  1
  Eu  Eu3  1  0.75000000  0.25101008  0.14892632  1
  Ho  Ho4  1  0.75000000  0.92408674  0.61106474  1
  Ho  Ho5  1  0.25000000  0.07591326  0.38893526  1
  Ho  Ho6  1  0.25000000  0.57591326  0.11106474  1
  Ho  Ho7  1  0.75000000  0.42408674  0.88893526  1
  Ho  Ho8  1  0.75000000  0.42132213  0.38806608  1
  Ho  Ho9  1  0.25000000  0.57867787  0.61193392  1
  Ho  Ho10  1  0.25000000  0.07867787  0.88806608  1
  Ho  Ho11  1  0.75000000  0.92132213  0.11193392  1
  O  O12  1  0.75000000  0.71229542  0.67594267  1
  O  O13  1  0.25000000  0.28770458  0.32405733  1
  O  O14  1  0.25000000  0.78770458  0.17594267  1
  O  O15  1  0.75000000  0.21229542  0.82405733  1
  O  O16  1  0.75000000  0.51413685  0.21667716  1
  O  O17  1  0.25000000  0.48586315  0.78332284  1
  O  O18  1  0.25000000  0.98586315  0.71667716  1
  O  O19  1  0.75000000  0.01413685  0.28332284  1
  O  O20  1  0.75000000  0.92411927  0.92194204  1
  O  O21  1  0.25000000  0.07588073  0.07805796  1
  O  O22  1  0.25000000  0.57588073  0.42194204  1
  O  O23  1  0.75000000  0.42411927  0.57805796  1
  O  O24  1  0.75000000  0.62721066  0.98009522  1
  O  O25  1  0.25000000  0.37278934  0.01990478  1
  O  O26  1  0.25000000  0.87278934  0.48009522  1
  O  O27  1  0.75000000  0.12721066  0.51990478  1
