# generated using pymatgen
data_In3Ni7
_symmetry_space_group_name_H-M   'P 1'
_cell_length_a   6.54707177
_cell_length_b   8.94152510
_cell_length_c   9.81127010
_cell_angle_alpha   106.83305643
_cell_angle_beta   96.98001812
_cell_angle_gamma   90.28801838
_symmetry_Int_Tables_number   1
_chemical_formula_structural   In3Ni7
_chemical_formula_sum   'In12 Ni28'
_cell_volume   545.18627079
_cell_formula_units_Z   4
loop_
 _symmetry_equiv_pos_site_id
 _symmetry_equiv_pos_as_xyz
  1  'x, y, z'
loop_
 _atom_site_type_symbol
 _atom_site_label
 _atom_site_symmetry_multiplicity
 _atom_site_fract_x
 _atom_site_fract_y
 _atom_site_fract_z
 _atom_site_occupancy
  In  In0  1  0.32431155  0.83686827  0.39551619  1
  In  In1  1  0.67568845  0.16313173  0.60448381  1
  In  In2  1  0.06454338  0.71222682  0.01483790  1
  In  In3  1  0.93545662  0.28777318  0.98516210  1
  In  In4  1  0.78961244  0.52854595  0.55445929  1
  In  In5  1  0.21038756  0.47145405  0.44554071  1
  In  In6  1  0.47296283  0.36493623  0.12441061  1
  In  In7  1  0.52703717  0.63506377  0.87558939  1
  In  In8  1  0.62010392  0.99677382  0.86585992  1
  In  In9  1  0.37989608  0.00322618  0.13414008  1
  In  In10  1  0.84744417  0.73274843  0.31355996  1
  In  In11  1  0.15255583  0.26725157  0.68644004  1
  Ni  Ni12  1  0.85969232  0.76403345  0.78399098  1
  Ni  Ni13  1  0.14030768  0.23596655  0.21600902  1
  Ni  Ni14  1  0.02785706  0.98344716  0.25033126  1
  Ni  Ni15  1  0.97214294  0.01655284  0.74966874  1
  Ni  Ni16  1  0.75759389  0.54208931  0.06244256  1
  Ni  Ni17  1  0.24240611  0.45791069  0.93755744  1
  Ni  Ni18  1  0.52414395  0.58560763  0.36366162  1
  Ni  Ni19  1  0.47585605  0.41439237  0.63633838  1
  Ni  Ni20  1  0.44388618  0.71099643  0.63615328  1
  Ni  Ni21  1  0.55611382  0.28900357  0.36384672  1
  Ni  Ni22  1  0.84563659  0.42313150  0.27361650  1
  Ni  Ni23  1  0.15436341  0.57686850  0.72638350  1
  Ni  Ni24  1  0.66893892  0.00171459  0.33736816  1
  Ni  Ni25  1  0.33106108  0.99828541  0.66263184  1
  Ni  Ni26  1  0.72603184  0.85418095  0.08142448  1
  Ni  Ni27  1  0.27396816  0.14581905  0.91857552  1
  Ni  Ni28  1  -0.00000000  0.00000000  0.50000000  1
  Ni  Ni29  1  0.14896613  0.54432221  0.20050837  1
  Ni  Ni30  1  0.85103387  0.45567779  0.79949163  1
  Ni  Ni31  1  0.92860737  0.23388087  0.41640571  1
  Ni  Ni32  1  0.07139263  0.76611913  0.58359429  1
  Ni  Ni33  1  0.45304295  0.69936854  0.15136806  1
  Ni  Ni34  1  0.54695705  0.30063146  0.84863194  1
  Ni  Ni35  1  0.75775839  0.14385751  0.16447133  1
  Ni  Ni36  1  0.24224161  0.85614249  0.83552867  1
  Ni  Ni37  1  -0.00000000  0.00000000  0.00000000  1
  Ni  Ni38  1  0.70115445  0.85564804  0.56261087  1
  Ni  Ni39  1  0.29884555  0.14435196  0.43738913  1
