# generated using pymatgen
data_La2Nb3(SO4)2
_symmetry_space_group_name_H-M   'P 1'
_cell_length_a   7.72014259
_cell_length_b   9.99772783
_cell_length_c   11.96251602
_cell_angle_alpha   90.00000000
_cell_angle_beta   90.00000000
_cell_angle_gamma   90.00000000
_symmetry_Int_Tables_number   1
_chemical_formula_structural   La2Nb3(SO4)2
_chemical_formula_sum   'La8 Nb12 S8 O32'
_cell_volume   923.31345390
_cell_formula_units_Z   4
loop_
 _symmetry_equiv_pos_site_id
 _symmetry_equiv_pos_as_xyz
  1  'x, y, z'
loop_
 _atom_site_type_symbol
 _atom_site_label
 _atom_site_symmetry_multiplicity
 _atom_site_fract_x
 _atom_site_fract_y
 _atom_site_fract_z
 _atom_site_occupancy
  La  La0  1  -0.00000000  0.23129982  0.34948762  1
  La  La1  1  -0.00000000  0.76870018  0.65051238  1
  La  La2  1  0.50000000  0.26870018  0.84948762  1
  La  La3  1  0.50000000  0.73129982  0.15051238  1
  La  La4  1  -0.00000000  0.70750760  0.15991765  1
  La  La5  1  -0.00000000  0.29249240  0.84008235  1
  La  La6  1  0.50000000  0.79249240  0.65991765  1
  La  La7  1  0.50000000  0.20750760  0.34008235  1
  Nb  Nb8  1  0.25015717  0.36484371  0.08514502  1
  Nb  Nb9  1  0.74984283  0.63515629  0.91485498  1
  Nb  Nb10  1  0.25015717  0.63515629  0.91485498  1
  Nb  Nb11  1  0.24984283  0.13515629  0.58514502  1
  Nb  Nb12  1  0.74984283  0.36484371  0.08514502  1
  Nb  Nb13  1  0.75015717  0.86484371  0.41485498  1
  Nb  Nb14  1  0.24984283  0.86484371  0.41485498  1
  Nb  Nb15  1  0.75015717  0.13515629  0.58514502  1
  Nb  Nb16  1  0.21279030  -0.00000000  -0.00000000  1
  Nb  Nb17  1  0.78720970  -0.00000000  -0.00000000  1
  Nb  Nb18  1  0.28720970  0.50000000  0.50000000  1
  Nb  Nb19  1  0.71279030  0.50000000  0.50000000  1
  S  S20  1  -0.00000000  0.01696238  0.15362893  1
  S  S21  1  -0.00000000  0.98303762  0.84637107  1
  S  S22  1  0.50000000  0.48303762  0.65362893  1
  S  S23  1  0.50000000  0.51696238  0.34637107  1
  S  S24  1  -0.00000000  0.51954594  0.36554919  1
  S  S25  1  -0.00000000  0.48045406  0.63445081  1
  S  S26  1  0.50000000  0.98045406  0.86554919  1
  S  S27  1  0.50000000  0.01954594  0.13445081  1
  O  O28  1  -0.00000000  0.36679786  0.05133176  1
  O  O29  1  -0.00000000  0.63320214  0.94866824  1
  O  O30  1  0.50000000  0.13320214  0.55133176  1
  O  O31  1  0.50000000  0.86679786  0.44866824  1
  O  O32  1  0.24850810  0.28629548  0.22589984  1
  O  O33  1  0.75149190  0.71370452  0.77410016  1
  O  O34  1  0.24850810  0.71370452  0.77410016  1
  O  O35  1  0.25149190  0.21370452  0.72589984  1
  O  O36  1  0.75149190  0.28629548  0.22589984  1
  O  O37  1  0.74850810  0.78629548  0.27410016  1
  O  O38  1  0.25149190  0.78629548  0.27410016  1
  O  O39  1  0.74850810  0.21370452  0.72589984  1
  O  O40  1  -0.00000000  0.14864629  0.55012531  1
  O  O41  1  -0.00000000  0.85135371  0.44987469  1
  O  O42  1  0.50000000  0.35135371  0.05012531  1
  O  O43  1  0.50000000  0.64864629  0.94987469  1
  O  O44  1  0.26337641  0.30218928  0.47495585  1
  O  O45  1  0.73662359  0.69781072  0.52504415  1
  O  O46  1  0.26337641  0.69781072  0.52504415  1
  O  O47  1  0.23662359  0.19781072  0.97495585  1
  O  O48  1  0.73662359  0.30218928  0.47495585  1
  O  O49  1  0.76337641  0.80218928  0.02504415  1
  O  O50  1  0.23662359  0.80218928  0.02504415  1
  O  O51  1  0.76337641  0.19781072  0.97495585  1
  O  O52  1  0.24435485  0.05628499  0.39478735  1
  O  O53  1  0.75564515  0.94371501  0.60521265  1
  O  O54  1  0.24435485  0.94371501  0.60521265  1
  O  O55  1  0.25564515  0.44371501  0.89478735  1
  O  O56  1  0.75564515  0.05628499  0.39478735  1
  O  O57  1  0.74435485  0.55628499  0.10521265  1
  O  O58  1  0.25564515  0.55628499  0.10521265  1
  O  O59  1  0.74435485  0.44371501  0.89478735  1
