# generated using pymatgen
data_DyNiSn4
_symmetry_space_group_name_H-M   'P 1'
_cell_length_a   4.40140879
_cell_length_b   4.54930346
_cell_length_c   14.33938308
_cell_angle_alpha   90.00000000
_cell_angle_beta   98.82823285
_cell_angle_gamma   90.00000000
_symmetry_Int_Tables_number   1
_chemical_formula_structural   DyNiSn4
_chemical_formula_sum   'Dy2 Ni2 Sn8'
_cell_volume   283.72082903
_cell_formula_units_Z   2
loop_
 _symmetry_equiv_pos_site_id
 _symmetry_equiv_pos_as_xyz
  1  'x, y, z'
loop_
 _atom_site_type_symbol
 _atom_site_label
 _atom_site_symmetry_multiplicity
 _atom_site_fract_x
 _atom_site_fract_y
 _atom_site_fract_z
 _atom_site_occupancy
  Dy  Dy0  1  0.80608075  0.50000000  0.61216149  1
  Dy  Dy1  1  0.19391925  0.50000000  0.38783851  1
  Ni  Ni2  1  0.55104074  0.00000000  0.10208148  1
  Ni  Ni3  1  0.44895926  0.00000000  0.89791852  1
  Sn  Sn4  1  0.60839644  0.50000000  0.21679289  1
  Sn  Sn5  1  0.39160356  0.50000000  0.78320711  1
  Sn  Sn6  1  0.71436231  0.00000000  0.42872463  1
  Sn  Sn7  1  0.28563769  -0.00000000  0.57127537  1
  Sn  Sn8  1  0.89052327  -0.00000000  0.78104653  1
  Sn  Sn9  1  0.10947673  0.00000000  0.21895347  1
  Sn  Sn10  1  -0.00000000  -0.00000000  -0.00000000  1
  Sn  Sn11  1  0.50000000  0.50000000  -0.00000000  1
