# generated using pymatgen
data_H16PdC4(N5O)2
_symmetry_space_group_name_H-M   'P 1'
_cell_length_a   7.29844650
_cell_length_b   7.30290161
_cell_length_c   22.83758405
_cell_angle_alpha   90.00000000
_cell_angle_beta   90.00000000
_cell_angle_gamma   90.00000000
_symmetry_Int_Tables_number   1
_chemical_formula_structural   H16PdC4(N5O)2
_chemical_formula_sum   'H64 Pd4 C16 N40 O8'
_cell_volume   1217.23950038
_cell_formula_units_Z   4
loop_
 _symmetry_equiv_pos_site_id
 _symmetry_equiv_pos_as_xyz
  1  'x, y, z'
loop_
 _atom_site_type_symbol
 _atom_site_label
 _atom_site_symmetry_multiplicity
 _atom_site_fract_x
 _atom_site_fract_y
 _atom_site_fract_z
 _atom_site_occupancy
  H  H0  1  0.14358671  0.18811883  0.08756871  1
  H  H1  1  0.85641329  0.81188117  0.91243129  1
  H  H2  1  0.35641329  0.81188117  0.58756871  1
  H  H3  1  0.85641329  0.68811883  0.41243129  1
  H  H4  1  0.64358671  0.18811883  0.41243129  1
  H  H5  1  0.14358671  0.31188117  0.58756871  1
  H  H6  1  0.64358671  0.31188117  0.91243129  1
  H  H7  1  0.35641329  0.68811883  0.08756871  1
  H  H8  1  0.12599132  0.16110086  0.49675785  1
  H  H9  1  0.87400868  0.83889914  0.50324215  1
  H  H10  1  0.37400868  0.83889914  0.99675785  1
  H  H11  1  0.87400868  0.66110086  0.00324215  1
  H  H12  1  0.62599132  0.16110086  0.00324215  1
  H  H13  1  0.12599132  0.33889914  0.99675785  1
  H  H14  1  0.62599132  0.33889914  0.50324215  1
  H  H15  1  0.37400868  0.66110086  0.49675785  1
  H  H16  1  0.36872721  0.45314830  0.21626005  1
  H  H17  1  0.63127279  0.54685170  0.78373995  1
  H  H18  1  0.13127279  0.54685170  0.71626005  1
  H  H19  1  0.63127279  0.95314830  0.28373995  1
  H  H20  1  0.86872721  0.45314830  0.28373995  1
  H  H21  1  0.36872721  0.04685170  0.71626005  1
  H  H22  1  0.86872721  0.04685170  0.78373995  1
  H  H23  1  0.13127279  0.95314830  0.21626005  1
  H  H24  1  0.19804479  0.28111400  0.30858254  1
  H  H25  1  0.80195521  0.71888600  0.69141746  1
  H  H26  1  0.30195521  0.71888600  0.80858254  1
  H  H27  1  0.80195521  0.78111400  0.19141746  1
  H  H28  1  0.69804479  0.28111400  0.19141746  1
  H  H29  1  0.19804479  0.21888600  0.80858254  1
  H  H30  1  0.69804479  0.21888600  0.69141746  1
  H  H31  1  0.30195521  0.78111400  0.30858254  1
  H  H32  1  0.34650245  0.43809666  0.43250413  1
  H  H33  1  0.65349755  0.56190334  0.56749587  1
  H  H34  1  0.15349755  0.56190334  0.93250413  1
  H  H35  1  0.65349755  0.93809666  0.06749587  1
  H  H36  1  0.84650245  0.43809666  0.06749587  1
  H  H37  1  0.34650245  0.06190334  0.93250413  1
  H  H38  1  0.84650245  0.06190334  0.56749587  1
  H  H39  1  0.15349755  0.93809666  0.43250413  1
  H  H40  1  0.41306042  0.47268298  0.36092208  1
  H  H41  1  0.58693958  0.52731702  0.63907792  1
  H  H42  1  0.08693958  0.52731702  0.86092208  1
  H  H43  1  0.58693958  0.97268298  0.13907792  1
  H  H44  1  0.91306042  0.47268298  0.13907792  1
  H  H45  1  0.41306042  0.02731702  0.86092208  1
  H  H46  1  0.91306042  0.02731702  0.63907792  1
  H  H47  1  0.08693958  0.97268298  0.36092208  1
  H  H48  1  0.39647600  0.20110168  0.29562038  1
  H  H49  1  0.60352400  0.79889832  0.70437962  1
  H  H50  1  0.10352400  0.79889832  0.79562038  1
  H  H51  1  0.60352400  0.70110168  0.20437962  1
  H  H52  1  0.89647600  0.20110168  0.20437962  1
  H  H53  1  0.39647600  0.29889832  0.79562038  1
  H  H54  1  0.89647600  0.29889832  0.70437962  1
  H  H55  1  0.10352400  0.70110168  0.29562038  1
  H  H56  1  0.20610209  0.14589755  0.18078756  1
  H  H57  1  0.79389791  0.85410245  0.81921244  1
  H  H58  1  0.29389791  0.85410245  0.68078756  1
  H  H59  1  0.79389791  0.64589755  0.31921244  1
  H  H60  1  0.70610209  0.14589755  0.31921244  1
  H  H61  1  0.20610209  0.35410245  0.68078756  1
  H  H62  1  0.70610209  0.35410245  0.81921244  1
  H  H63  1  0.29389791  0.64589755  0.18078756  1
  Pd  Pd64  1  -0.00000000  -0.00000000  0.00000000  1
  Pd  Pd65  1  0.50000000  0.00000000  0.50000000  1
  Pd  Pd66  1  -0.00000000  0.50000000  0.50000000  1
  Pd  Pd67  1  0.50000000  0.50000000  0.00000000  1
  C  C68  1  0.04716391  0.19169179  0.41464807  1
  C  C69  1  0.95283609  0.80830821  0.58535193  1
  C  C70  1  0.45283609  0.80830821  0.91464807  1
  C  C71  1  0.95283609  0.69169179  0.08535193  1
  C  C72  1  0.54716391  0.19169179  0.08535193  1
  C  C73  1  0.04716391  0.30830821  0.91464807  1
  C  C74  1  0.54716391  0.30830821  0.58535193  1
  C  C75  1  0.45283609  0.69169179  0.41464807  1
  C  C76  1  0.42909233  0.46265818  0.12874446  1
  C  C77  1  0.57090767  0.53734182  0.87125554  1
  C  C78  1  0.07090767  0.53734182  0.62874446  1
  C  C79  1  0.57090767  0.96265818  0.37125554  1
  C  C80  1  0.92909233  0.46265818  0.37125554  1
  C  C81  1  0.42909233  0.03734182  0.62874446  1
  C  C82  1  0.92909233  0.03734182  0.87125554  1
  C  C83  1  0.07090767  0.96265818  0.12874446  1
  N  N84  1  0.48982307  0.28810083  0.13289767  1
  N  N85  1  0.51017693  0.71189917  0.86710233  1
  N  N86  1  0.01017693  0.71189917  0.63289767  1
  N  N87  1  0.51017693  0.78810083  0.36710233  1
  N  N88  1  0.98982307  0.28810083  0.36710233  1
  N  N89  1  0.48982307  0.21189917  0.63289767  1
  N  N90  1  0.98982307  0.21189917  0.86710233  1
  N  N91  1  0.01017693  0.78810083  0.13289767  1
  N  N92  1  0.07296752  0.00886990  0.40387217  1
  N  N93  1  0.92703248  0.99113010  0.59612783  1
  N  N94  1  0.42703248  0.99113010  0.90387217  1
  N  N95  1  0.92703248  0.50886990  0.09612783  1
  N  N96  1  0.57296752  0.00886990  0.09612783  1
  N  N97  1  0.07296752  0.49113010  0.90387217  1
  N  N98  1  0.57296752  0.49113010  0.59612783  1
  N  N99  1  0.42703248  0.50886990  0.40387217  1
  N  N100  1  0.11075780  0.04390083  0.18237187  1
  N  N101  1  0.88924220  0.95609917  0.81762813  1
  N  N102  1  0.38924220  0.95609917  0.68237187  1
  N  N103  1  0.88924220  0.54390083  0.31762813  1
  N  N104  1  0.61075780  0.04390083  0.31762813  1
  N  N105  1  0.11075780  0.45609917  0.68237187  1
  N  N106  1  0.61075780  0.45609917  0.81762813  1
  N  N107  1  0.38924220  0.54390083  0.18237187  1
  N  N108  1  0.09211034  0.06002483  0.08047750  1
  N  N109  1  0.90788966  0.93997517  0.91952250  1
  N  N110  1  0.40788966  0.93997517  0.58047750  1
  N  N111  1  0.90788966  0.56002483  0.41952250  1
  N  N112  1  0.59211034  0.06002483  0.41952250  1
  N  N113  1  0.09211034  0.43997517  0.58047750  1
  N  N114  1  0.59211034  0.43997517  0.91952250  1
  N  N115  1  0.40788966  0.56002483  0.08047750  1
  N  N116  1  0.07850741  0.25706198  0.46785183  1
  N  N117  1  0.92149259  0.74293802  0.53214817  1
  N  N118  1  0.42149259  0.74293802  0.96785183  1
  N  N119  1  0.92149259  0.75706198  0.03214817  1
  N  N120  1  0.57850741  0.25706198  0.03214817  1
  N  N121  1  0.07850741  0.24293802  0.96785183  1
  N  N122  1  0.57850741  0.24293802  0.53214817  1
  N  N123  1  0.42149259  0.75706198  0.46785183  1
  O  O124  1  0.31543725  0.30740243  0.28855459  1
  O  O125  1  0.68456275  0.69259757  0.71144541  1
  O  O126  1  0.18456275  0.69259757  0.78855459  1
  O  O127  1  0.68456275  0.80740243  0.21144541  1
  O  O128  1  0.81543725  0.30740243  0.21144541  1
  O  O129  1  0.31543725  0.19259757  0.78855459  1
  O  O130  1  0.81543725  0.19259757  0.71144541  1
  O  O131  1  0.18456275  0.80740243  0.28855459  1
