# generated using pymatgen
data_Sc7(Mn3Ge4)2
_symmetry_space_group_name_H-M   'P 1'
_cell_length_a   9.97117003
_cell_length_b   9.97117003
_cell_length_c   9.96583130
_cell_angle_alpha   120.01772249
_cell_angle_beta   120.01772249
_cell_angle_gamma   90.00000000
_symmetry_Int_Tables_number   1
_chemical_formula_structural   Sc7(Mn3Ge4)2
_chemical_formula_sum   'Sc14 Mn12 Ge16'
_cell_volume   700.25777159
_cell_formula_units_Z   2
loop_
 _symmetry_equiv_pos_site_id
 _symmetry_equiv_pos_as_xyz
  1  'x, y, z'
loop_
 _atom_site_type_symbol
 _atom_site_label
 _atom_site_symmetry_multiplicity
 _atom_site_fract_x
 _atom_site_fract_y
 _atom_site_fract_z
 _atom_site_occupancy
  Sc  Sc0  1  0.30904772  0.56152451  0.61809543  1
  Sc  Sc1  1  0.69095228  0.43847549  0.38190457  1
  Sc  Sc2  1  0.30904772  0.05657093  0.61809543  1
  Sc  Sc3  1  0.05657093  0.30904772  0.61809543  1
  Sc  Sc4  1  0.69095228  0.94342907  0.38190457  1
  Sc  Sc5  1  0.94342907  0.69095228  0.38190457  1
  Sc  Sc6  1  0.56152451  0.30904772  0.61809543  1
  Sc  Sc7  1  0.43847549  0.69095228  0.38190457  1
  Sc  Sc8  1  0.15826600  0.15826600  0.31653200  1
  Sc  Sc9  1  0.84173400  0.84173400  0.68346800  1
  Sc  Sc10  1  0.32210867  0.32210867  -0.00000000  1
  Sc  Sc11  1  0.67789133  0.67789133  -0.00000000  1
  Sc  Sc12  1  0.67789133  0.32210867  -0.00000000  1
  Sc  Sc13  1  0.32210867  0.67789133  -0.00000000  1
  Mn  Mn14  1  0.09426954  0.41414121  0.18853908  1
  Mn  Mn15  1  0.90573046  0.58585879  0.81146092  1
  Mn  Mn16  1  0.09426954  0.77439788  0.18853908  1
  Mn  Mn17  1  0.77439788  0.09426954  0.18853908  1
  Mn  Mn18  1  0.90573046  0.22560212  0.81146092  1
  Mn  Mn19  1  0.22560212  0.90573046  0.81146092  1
  Mn  Mn20  1  0.41414121  0.09426954  0.18853908  1
  Mn  Mn21  1  0.58585879  0.90573046  0.81146092  1
  Mn  Mn22  1  0.12489142  0.12489142  -0.00000000  1
  Mn  Mn23  1  0.87510858  0.87510858  -0.00000000  1
  Mn  Mn24  1  0.87510858  0.12489142  -0.00000000  1
  Mn  Mn25  1  0.12489142  0.87510858  -0.00000000  1
  Ge  Ge26  1  0.38892205  0.38892205  0.77784410  1
  Ge  Ge27  1  0.61107795  0.61107795  0.22215590  1
  Ge  Ge28  1  0.25000000  0.75000000  0.50000000  1
  Ge  Ge29  1  0.75000000  0.25000000  0.50000000  1
  Ge  Ge30  1  0.12541532  0.50000000  -0.00000000  1
  Ge  Ge31  1  0.87458468  0.50000000  -0.00000000  1
  Ge  Ge32  1  0.50000000  0.12541532  -0.00000000  1
  Ge  Ge33  1  0.50000000  0.87458468  -0.00000000  1
  Ge  Ge34  1  0.36800524  0.36800524  0.32866629  1
  Ge  Ge35  1  0.63199476  0.63199476  0.67133371  1
  Ge  Ge36  1  0.96066105  0.96066105  0.32866629  1
  Ge  Ge37  1  0.96066105  0.36800524  0.32866629  1
  Ge  Ge38  1  0.63199476  0.03933895  0.67133371  1
  Ge  Ge39  1  0.03933895  0.03933895  0.67133371  1
  Ge  Ge40  1  0.03933895  0.63199476  0.67133371  1
  Ge  Ge41  1  0.36800524  0.96066105  0.32866629  1
