# generated using pymatgen
data_KH6F12
_symmetry_space_group_name_H-M   'P 1'
_cell_length_a   9.70699241
_cell_length_b   10.21458821
_cell_length_c   11.63239037
_cell_angle_alpha   88.27591308
_cell_angle_beta   93.63036660
_cell_angle_gamma   118.36933309
_symmetry_Int_Tables_number   1
_chemical_formula_structural   KH6F12
_chemical_formula_sum   'K2 H12 F24'
_cell_volume   1012.83093837
_cell_formula_units_Z   2
loop_
 _symmetry_equiv_pos_site_id
 _symmetry_equiv_pos_as_xyz
  1  'x, y, z'
loop_
 _atom_site_type_symbol
 _atom_site_label
 _atom_site_symmetry_multiplicity
 _atom_site_fract_x
 _atom_site_fract_y
 _atom_site_fract_z
 _atom_site_occupancy
  K  K0  1  0.00000000  0.00000000  0.00000000  1
  K  K1  1  0.50000000  0.00000000  0.50000000  1
  H  H2  1  0.85505508  0.81937071  0.75916339  1
  H  H3  1  0.14494492  0.18062929  0.24083661  1
  H  H4  1  0.61945322  0.92229313  0.99336453  1
  H  H5  1  0.46431562  0.81937071  0.74083661  1
  H  H6  1  0.38054678  0.07770687  0.00663547  1
  H  H7  1  0.53568438  0.18062929  0.25916339  1
  H  H8  1  0.99729984  0.25293870  0.76489767  1
  H  H9  1  0.80283991  0.92229313  0.50663547  1
  H  H10  1  0.00270016  0.74706130  0.23510233  1
  H  H11  1  0.19716009  0.07770687  0.49336453  1
  H  H12  1  0.75563886  0.25293870  0.73510233  1
  H  H13  1  0.24436114  0.74706130  0.26489767  1
  F  F14  1  0.79295849  0.69942005  0.73726227  1
  F  F15  1  0.20704151  0.30057995  0.26273773  1
  F  F16  1  0.72725210  0.98642862  0.00783811  1
  F  F17  1  0.40646155  0.69942004  0.76273773  1
  F  F18  1  0.27274790  0.01357138  0.99216189  1
  F  F19  1  0.59353845  0.30057996  0.23726227  1
  F  F20  1  0.99482865  0.25265842  0.68382095  1
  F  F21  1  0.75917652  0.98642862  0.49216189  1
  F  F22  1  0.00517135  0.74734158  0.31617905  1
  F  F23  1  0.24082348  0.01357138  0.50783811  1
  F  F24  1  0.75782977  0.25265842  0.81617905  1
  F  F25  1  0.24217023  0.74734158  0.18382095  1
  F  F26  1  0.92939562  0.94664733  0.78344408  1
  F  F27  1  0.07060438  0.05335267  0.21655592  1
  F  F28  1  0.71834896  0.66154801  0.00263044  1
  F  F29  1  0.51725172  0.94664733  0.71655592  1
  F  F30  1  0.28165104  0.33845199  0.99736956  1
  F  F31  1  0.48274828  0.05335267  0.28344408  1
  F  F32  1  0.13833693  0.34591544  0.99111930  1
  F  F33  1  0.44319905  0.66154801  0.49736956  1
  F  F34  1  0.86166307  0.65408456  0.00888070  1
  F  F35  1  0.55680095  0.33845199  0.50263044  1
  F  F36  1  0.70757851  0.34591544  0.50888070  1
  F  F37  1  0.29242149  0.65408456  0.49111930  1
