# generated using pymatgen
data_Cs2MgZr(PO4)3
_symmetry_space_group_name_H-M   'P 1'
_cell_length_a   10.44449217
_cell_length_b   10.44449217
_cell_length_c   10.44449217
_cell_angle_alpha   90.00000000
_cell_angle_beta   90.00000000
_cell_angle_gamma   90.00000000
_symmetry_Int_Tables_number   1
_chemical_formula_structural   Cs2MgZr(PO4)3
_chemical_formula_sum   'Cs8 Mg4 Zr4 P12 O48'
_cell_volume   1139.36266946
_cell_formula_units_Z   4
loop_
 _symmetry_equiv_pos_site_id
 _symmetry_equiv_pos_as_xyz
  1  'x, y, z'
loop_
 _atom_site_type_symbol
 _atom_site_label
 _atom_site_symmetry_multiplicity
 _atom_site_fract_x
 _atom_site_fract_y
 _atom_site_fract_z
 _atom_site_occupancy
  Cs  Cs0  1  0.81631690  0.81631690  0.81631690  1
  Cs  Cs1  1  0.68368310  0.18368310  0.31631690  1
  Cs  Cs2  1  0.18368310  0.31631690  0.68368310  1
  Cs  Cs3  1  0.31631690  0.68368310  0.18368310  1
  Cs  Cs4  1  0.04141774  0.04141774  0.04141774  1
  Cs  Cs5  1  0.45858226  0.95858226  0.54141774  1
  Cs  Cs6  1  0.95858226  0.54141774  0.45858226  1
  Cs  Cs7  1  0.54141774  0.45858226  0.95858226  1
  Mg  Mg8  1  0.60777088  0.60777088  0.60777088  1
  Mg  Mg9  1  0.89222912  0.39222912  0.10777088  1
  Mg  Mg10  1  0.39222912  0.10777088  0.89222912  1
  Mg  Mg11  1  0.10777088  0.89222912  0.39222912  1
  Zr  Zr12  1  0.33629200  0.33629200  0.33629200  1
  Zr  Zr13  1  0.16370800  0.66370800  0.83629200  1
  Zr  Zr14  1  0.66370800  0.83629200  0.16370800  1
  Zr  Zr15  1  0.83629200  0.16370800  0.66370800  1
  P  P16  1  0.02102555  0.20584096  0.37250887  1
  P  P17  1  0.47897445  0.79415904  0.87250887  1
  P  P18  1  0.97897445  0.70584096  0.12749113  1
  P  P19  1  0.37250887  0.02102555  0.20584096  1
  P  P20  1  0.52102555  0.29415904  0.62749113  1
  P  P21  1  0.87250887  0.47897445  0.79415904  1
  P  P22  1  0.12749113  0.97897445  0.70584096  1
  P  P23  1  0.62749113  0.52102555  0.29415904  1
  P  P24  1  0.20584096  0.37250887  0.02102555  1
  P  P25  1  0.70584096  0.12749113  0.97897445  1
  P  P26  1  0.29415904  0.62749113  0.52102555  1
  P  P27  1  0.79415904  0.87250887  0.47897445  1
  O  O28  1  0.16118882  0.25764363  0.39241956  1
  O  O29  1  0.33881118  0.74235637  0.89241956  1
  O  O30  1  0.83881118  0.75764363  0.10758044  1
  O  O31  1  0.39241956  0.16118882  0.25764363  1
  O  O32  1  0.66118882  0.24235637  0.60758044  1
  O  O33  1  0.89241956  0.33881118  0.74235637  1
  O  O34  1  0.10758044  0.83881118  0.75764363  1
  O  O35  1  0.60758044  0.66118882  0.24235637  1
  O  O36  1  0.25764363  0.39241956  0.16118882  1
  O  O37  1  0.75764363  0.10758044  0.83881118  1
  O  O38  1  0.24235637  0.60758044  0.66118882  1
  O  O39  1  0.74235637  0.89241956  0.33881118  1
  O  O40  1  0.02150337  0.06433896  0.33530148  1
  O  O41  1  0.47849663  0.93566104  0.83530148  1
  O  O42  1  0.97849663  0.56433896  0.16469852  1
  O  O43  1  0.33530148  0.02150337  0.06433896  1
  O  O44  1  0.52150337  0.43566104  0.66469852  1
  O  O45  1  0.83530148  0.47849663  0.93566104  1
  O  O46  1  0.16469852  0.97849663  0.56433896  1
  O  O47  1  0.66469852  0.52150337  0.43566104  1
  O  O48  1  0.06433896  0.33530148  0.02150337  1
  O  O49  1  0.56433896  0.16469852  0.97849663  1
  O  O50  1  0.43566104  0.66469852  0.52150337  1
  O  O51  1  0.93566104  0.83530148  0.47849663  1
  O  O52  1  0.27654692  0.49611133  0.44969443  1
  O  O53  1  0.22345308  0.50388867  0.94969443  1
  O  O54  1  0.72345308  0.99611133  0.05030557  1
  O  O55  1  0.44969443  0.27654692  0.49611133  1
  O  O56  1  0.77654692  0.00388867  0.55030557  1
  O  O57  1  0.94969443  0.22345308  0.50388867  1
  O  O58  1  0.05030557  0.72345308  0.99611133  1
  O  O59  1  0.55030557  0.77654692  0.00388867  1
  O  O60  1  0.49611133  0.44969443  0.27654692  1
  O  O61  1  0.99611133  0.05030557  0.72345308  1
  O  O62  1  0.00388867  0.55030557  0.77654692  1
  O  O63  1  0.50388867  0.94969443  0.22345308  1
  O  O64  1  0.04700377  0.78846416  0.22778727  1
  O  O65  1  0.45299623  0.21153584  0.72778727  1
  O  O66  1  0.95299623  0.28846416  0.27221273  1
  O  O67  1  0.22778727  0.04700377  0.78846416  1
  O  O68  1  0.54700377  0.71153584  0.77221273  1
  O  O69  1  0.72778727  0.45299623  0.21153584  1
  O  O70  1  0.27221273  0.95299623  0.28846416  1
  O  O71  1  0.77221273  0.54700377  0.71153584  1
  O  O72  1  0.78846416  0.22778727  0.04700377  1
  O  O73  1  0.28846416  0.27221273  0.95299623  1
  O  O74  1  0.71153584  0.77221273  0.54700377  1
  O  O75  1  0.21153584  0.72778727  0.45299623  1
