# generated using pymatgen
data_CsEr(MoO4)2
_symmetry_space_group_name_H-M   'P 1'
_cell_length_a   5.06291101
_cell_length_b   9.72369808
_cell_length_c   8.25193537
_cell_angle_alpha   92.05729558
_cell_angle_beta   90.00000000
_cell_angle_gamma   90.00000000
_symmetry_Int_Tables_number   1
_chemical_formula_structural   CsEr(MoO4)2
_chemical_formula_sum   'Cs2 Er2 Mo4 O16'
_cell_volume   405.98272374
_cell_formula_units_Z   2
loop_
 _symmetry_equiv_pos_site_id
 _symmetry_equiv_pos_as_xyz
  1  'x, y, z'
loop_
 _atom_site_type_symbol
 _atom_site_label
 _atom_site_symmetry_multiplicity
 _atom_site_fract_x
 _atom_site_fract_y
 _atom_site_fract_z
 _atom_site_occupancy
  Cs  Cs0  1  0.46801778  0.50000000  0.75000000  1
  Cs  Cs1  1  0.53198222  0.50000000  0.25000000  1
  Er  Er2  1  0.50045804  -0.00000000  0.75000000  1
  Er  Er3  1  0.49954196  0.00000000  0.25000000  1
  Mo  Mo4  1  0.97509121  0.80944516  0.49211862  1
  Mo  Mo5  1  0.02490879  0.19055484  0.50788138  1
  Mo  Mo6  1  0.97509121  0.19055484  0.00788138  1
  Mo  Mo7  1  0.02490879  0.80944516  0.99211862  1
  O  O8  1  0.88767696  0.64385824  0.98229383  1
  O  O9  1  0.11232304  0.35614176  0.01770617  1
  O  O10  1  0.88767696  0.35614176  0.51770617  1
  O  O11  1  0.11232304  0.64385824  0.48229383  1
  O  O12  1  0.75874132  0.82161666  0.31933194  1
  O  O13  1  0.24125868  0.17838334  0.68066806  1
  O  O14  1  0.75874132  0.17838334  0.18066806  1
  O  O15  1  0.24125868  0.82161666  0.81933194  1
  O  O16  1  0.74639181  0.93385641  0.99756961  1
  O  O17  1  0.25360819  0.06614359  0.00243039  1
  O  O18  1  0.74639181  0.06614359  0.50243039  1
  O  O19  1  0.25360819  0.93385641  0.49756961  1
  O  O20  1  0.75804996  0.81995541  0.66568663  1
  O  O21  1  0.24195004  0.18004459  0.33431337  1
  O  O22  1  0.75804996  0.18004459  0.83431337  1
  O  O23  1  0.24195004  0.81995541  0.16568663  1
