# generated using pymatgen
data_AgSb3Pb2S7
_symmetry_space_group_name_H-M   'P 1'
_cell_length_a   4.01651663
_cell_length_b   23.37202638
_cell_length_c   27.95947325
_cell_angle_alpha   90.00000000
_cell_angle_beta   90.00000000
_cell_angle_gamma   90.90602868
_symmetry_Int_Tables_number   1
_chemical_formula_structural   AgSb3Pb2S7
_chemical_formula_sum   'Ag8 Sb24 Pb16 S56'
_cell_volume   2624.34314783
_cell_formula_units_Z   8
loop_
 _symmetry_equiv_pos_site_id
 _symmetry_equiv_pos_as_xyz
  1  'x, y, z'
loop_
 _atom_site_type_symbol
 _atom_site_label
 _atom_site_symmetry_multiplicity
 _atom_site_fract_x
 _atom_site_fract_y
 _atom_site_fract_z
 _atom_site_occupancy
  Ag  Ag0  1  0.73661880  0.83392530  0.34527208  1
  Ag  Ag1  1  0.26338120  0.16607470  0.65472792  1
  Ag  Ag2  1  0.26338120  0.66607470  0.84527208  1
  Ag  Ag3  1  0.73661880  0.33392530  0.15472792  1
  Ag  Ag4  1  0.75028559  0.94034370  0.83273290  1
  Ag  Ag5  1  0.24971441  0.05965630  0.16726710  1
  Ag  Ag6  1  0.24971441  0.55965630  0.33273290  1
  Ag  Ag7  1  0.75028559  0.44034370  0.66726710  1
  Sb  Sb8  1  0.73375093  0.92364840  0.96032322  1
  Sb  Sb9  1  0.26624907  0.07635160  0.03967678  1
  Sb  Sb10  1  0.26624907  0.57635160  0.46032322  1
  Sb  Sb11  1  0.73375093  0.42364840  0.53967678  1
  Sb  Sb12  1  0.75621715  0.63292612  0.99641969  1
  Sb  Sb13  1  0.24378285  0.36707388  0.00358031  1
  Sb  Sb14  1  0.24378285  0.86707388  0.49641969  1
  Sb  Sb15  1  0.75621715  0.13292612  0.50358031  1
  Sb  Sb16  1  0.27614205  0.82986312  0.77106318  1
  Sb  Sb17  1  0.72385795  0.17013688  0.22893682  1
  Sb  Sb18  1  0.72385795  0.67013688  0.27106318  1
  Sb  Sb19  1  0.27614205  0.32986312  0.72893682  1
  Sb  Sb20  1  0.79772837  0.71036669  0.39554665  1
  Sb  Sb21  1  0.20227163  0.28963331  0.60445335  1
  Sb  Sb22  1  0.20227163  0.78963331  0.89554665  1
  Sb  Sb23  1  0.79772837  0.21036669  0.10445335  1
  Sb  Sb24  1  0.75734519  0.98620170  0.41919549  1
  Sb  Sb25  1  0.24265481  0.01379830  0.58080451  1
  Sb  Sb26  1  0.24265481  0.51379830  0.91919549  1
  Sb  Sb27  1  0.75734519  0.48620170  0.08080451  1
  Sb  Sb28  1  0.73802082  0.43603307  0.39291506  1
  Sb  Sb29  1  0.26197918  0.56396693  0.60708494  1
  Sb  Sb30  1  0.26197918  0.06396693  0.89291506  1
  Sb  Sb31  1  0.73802082  0.93603307  0.10708494  1
  Pb  Pb32  1  0.77884545  0.67848995  0.70407715  1
  Pb  Pb33  1  0.22115455  0.32151005  0.29592285  1
  Pb  Pb34  1  0.22115455  0.82151005  0.20407715  1
  Pb  Pb35  1  0.77884545  0.17848995  0.79592285  1
  Pb  Pb36  1  0.77453823  0.71484957  0.54257462  1
  Pb  Pb37  1  0.22546177  0.28515043  0.45742538  1
  Pb  Pb38  1  0.22546177  0.78515043  0.04257462  1
  Pb  Pb39  1  0.77453823  0.21484957  0.95742538  1
  Pb  Pb40  1  0.76962880  0.86878912  0.63381372  1
  Pb  Pb41  1  0.23037120  0.13121088  0.36618628  1
  Pb  Pb42  1  0.23037120  0.63121088  0.13381372  1
  Pb  Pb43  1  0.76962880  0.36878912  0.86618628  1
  Pb  Pb44  1  0.77022210  0.53599865  0.78929684  1
  Pb  Pb45  1  0.22977790  0.46400135  0.21070316  1
  Pb  Pb46  1  0.22977790  0.96400135  0.28929684  1
  Pb  Pb47  1  0.77022210  0.03599865  0.71070316  1
  S  S48  1  0.79558464  0.93852471  0.54495556  1
  S  S49  1  0.20441536  0.06147529  0.45504444  1
  S  S50  1  0.20441536  0.56147529  0.04495556  1
  S  S51  1  0.79558464  0.43852471  0.95504444  1
  S  S52  1  0.24445980  0.90413966  0.88529078  1
  S  S53  1  0.75554020  0.09586034  0.11470922  1
  S  S54  1  0.75554020  0.59586034  0.38529078  1
  S  S55  1  0.24445980  0.40413966  0.61470922  1
  S  S56  1  0.75779615  0.55030539  0.66597471  1
  S  S57  1  0.24220385  0.44969461  0.33402529  1
  S  S58  1  0.24220385  0.94969461  0.16597471  1
  S  S59  1  0.75779615  0.05030539  0.83402529  1
  S  S60  1  0.27543796  0.95723365  0.65577864  1
  S  S61  1  0.72456204  0.04276635  0.34422136  1
  S  S62  1  0.72456204  0.54276635  0.15577864  1
  S  S63  1  0.27543796  0.45723365  0.84422136  1
  S  S64  1  0.76764448  0.80678873  0.45932447  1
  S  S65  1  0.23235552  0.19321127  0.54067553  1
  S  S66  1  0.23235552  0.69321127  0.95932447  1
  S  S67  1  0.76764448  0.30678873  0.04067553  1
  S  S68  1  0.72310424  0.88150223  0.26370446  1
  S  S69  1  0.27689576  0.11849777  0.73629554  1
  S  S70  1  0.27689576  0.61849777  0.76370446  1
  S  S71  1  0.72310424  0.38150223  0.23629554  1
  S  S72  1  0.77197672  0.89669431  0.74944237  1
  S  S73  1  0.22802328  0.10330569  0.25055763  1
  S  S74  1  0.22802328  0.60330569  0.24944237  1
  S  S75  1  0.77197672  0.39669431  0.75055763  1
  S  S76  1  0.73557927  0.81652170  0.96539130  1
  S  S77  1  0.26442073  0.18347830  0.03460870  1
  S  S78  1  0.26442073  0.68347830  0.46539130  1
  S  S79  1  0.73557927  0.31652170  0.53460870  1
  S  S80  1  0.75619011  0.57270752  0.52367063  1
  S  S81  1  0.24380989  0.42729248  0.47632937  1
  S  S82  1  0.24380989  0.92729248  0.02367063  1
  S  S83  1  0.75619011  0.07270752  0.97632937  1
  S  S84  1  0.26659204  0.66763650  0.61803998  1
  S  S85  1  0.73340796  0.33236350  0.38196002  1
  S  S86  1  0.73340796  0.83236350  0.11803998  1
  S  S87  1  0.26659204  0.16763650  0.88196002  1
  S  S88  1  0.27825675  0.77913368  0.69559099  1
  S  S89  1  0.72174325  0.22086632  0.30440901  1
  S  S90  1  0.72174325  0.72086632  0.19559099  1
  S  S91  1  0.27825675  0.27913368  0.80440901  1
  S  S92  1  0.80651798  0.58269218  0.88202817  1
  S  S93  1  0.19348202  0.41730782  0.11797183  1
  S  S94  1  0.19348202  0.91730782  0.38202817  1
  S  S95  1  0.80651798  0.08269218  0.61797183  1
  S  S96  1  0.26934067  0.80575453  0.56921265  1
  S  S97  1  0.73065933  0.19424547  0.43078735  1
  S  S98  1  0.73065933  0.69424547  0.06921265  1
  S  S99  1  0.26934067  0.30575453  0.93078735  1
  S  S100  1  0.73547061  0.75189818  0.83669540  1
  S  S101  1  0.26452939  0.24810182  0.16330460  1
  S  S102  1  0.26452939  0.74810182  0.33669540  1
  S  S103  1  0.73547061  0.25189818  0.66330460  1
