# generated using pymatgen
data_Dy4In20Ni11
_symmetry_space_group_name_H-M   'P 1'
_cell_length_a   4.27861111
_cell_length_b   11.33117633
_cell_length_c   13.86744508
_cell_angle_alpha   80.77844948
_cell_angle_beta   81.12564240
_cell_angle_gamma   79.11734165
_symmetry_Int_Tables_number   1
_chemical_formula_structural   Dy4In20Ni11
_chemical_formula_sum   'Dy4 In20 Ni11'
_cell_volume   646.33806746
_cell_formula_units_Z   1
loop_
 _symmetry_equiv_pos_site_id
 _symmetry_equiv_pos_as_xyz
  1  'x, y, z'
loop_
 _atom_site_type_symbol
 _atom_site_label
 _atom_site_symmetry_multiplicity
 _atom_site_fract_x
 _atom_site_fract_y
 _atom_site_fract_z
 _atom_site_occupancy
  Dy  Dy0  1  0.22911105  0.36804166  0.17373624  1
  Dy  Dy1  1  0.77088895  0.63195834  0.82626376  1
  Dy  Dy2  1  0.88078277  0.90774848  0.33068598  1
  Dy  Dy3  1  0.11921723  0.09225152  0.66931402  1
  In  In4  1  0.61181232  0.46785089  0.30852447  1
  In  In5  1  0.38818768  0.53214911  0.69147553  1
  In  In6  1  0.79793844  0.40165345  0.00246967  1
  In  In7  1  0.20206156  0.59834655  0.99753033  1
  In  In8  1  0.88432183  0.67964511  0.55171123  1
  In  In9  1  0.11567817  0.32035489  0.44828877  1
  In  In10  1  0.45895532  0.70472545  0.37736391  1
  In  In11  1  0.54104468  0.29527455  0.62263609  1
  In  In12  1  0.93670471  0.33638543  0.79020515  1
  In  In13  1  0.06329529  0.66361457  0.20979485  1
  In  In14  1  0.70285444  0.09642362  0.49786750  1
  In  In15  1  0.29714556  0.90357638  0.50213250  1
  In  In16  1  0.37173755  0.06101731  0.19550758  1
  In  In17  1  0.62826245  0.93898269  0.80449242  1
  In  In18  1  0.98950183  0.92607306  0.09492328  1
  In  In19  1  0.01049817  0.07392694  0.90507672  1
  In  In20  1  0.60149417  0.78802920  0.00898247  1
  In  In21  1  0.39850583  0.21197080  0.99101753  1
  In  In22  1  0.75282406  0.20326238  0.29108949  1
  In  In23  1  0.24717594  0.79673762  0.70891051  1
  Ni  Ni24  1  0.86329589  0.17072671  0.10268151  1
  Ni  Ni25  1  0.13670411  0.82927329  0.89731849  1
  Ni  Ni26  1  0.74557298  0.89113212  0.61772192  1
  Ni  Ni27  1  0.25442702  0.10886788  0.38227808  1
  Ni  Ni28  1  0.49291775  0.81893013  0.19523438  1
  Ni  Ni29  1  0.50708225  0.18106987  0.80476562  1
  Ni  Ni30  1  0.65269142  0.57313739  0.12147977  1
  Ni  Ni31  1  0.34730858  0.42686261  0.87852023  1
  Ni  Ni32  1  0.50000000  0.50000000  0.50000000  1
  Ni  Ni33  1  0.97741028  0.44516716  0.60001227  1
  Ni  Ni34  1  0.02258972  0.55483284  0.39998773  1
