# generated using pymatgen
data_ZrTi(PbO3)2
_symmetry_space_group_name_H-M   'P 1'
_cell_length_a   4.19376385
_cell_length_b   5.77536898
_cell_length_c   5.85453629
_cell_angle_alpha   88.52136380
_cell_angle_beta   88.90629460
_cell_angle_gamma   89.29799467
_symmetry_Int_Tables_number   1
_chemical_formula_structural   ZrTi(PbO3)2
_chemical_formula_sum   'Zr1 Ti1 Pb2 O6'
_cell_volume   141.71714098
_cell_formula_units_Z   1
loop_
 _symmetry_equiv_pos_site_id
 _symmetry_equiv_pos_as_xyz
  1  'x, y, z'
loop_
 _atom_site_type_symbol
 _atom_site_label
 _atom_site_symmetry_multiplicity
 _atom_site_fract_x
 _atom_site_fract_y
 _atom_site_fract_z
 _atom_site_occupancy
  Zr  Zr0  1  0.77185258  0.64295469  0.91859623  1
  Ti  Ti1  1  0.74488533  0.13767176  0.41118632  1
  Pb  Pb2  1  0.22410892  0.62221155  0.38493431  1
  Pb  Pb3  1  0.22942907  0.13573316  0.86202651  1
  O  O4  1  0.81109646  0.39176605  0.68537419  1
  O  O5  1  0.79959627  0.90562878  0.20295325  1
  O  O6  1  0.28326667  0.65888396  0.96023743  1
  O  O7  1  0.30971023  0.15657342  0.44550496  1
  O  O8  1  0.80618654  0.40438446  0.20949733  1
  O  O9  1  0.80986792  0.92119218  0.68668947  1
