# generated using pymatgen
data_BaNa3(PO4)2
_symmetry_space_group_name_H-M   'P 1'
_cell_length_a   5.62273906
_cell_length_b   5.62273906
_cell_length_c   7.13822331
_cell_angle_alpha   90.00000000
_cell_angle_beta   90.00000000
_cell_angle_gamma   119.99999932
_symmetry_Int_Tables_number   1
_chemical_formula_structural   BaNa3(PO4)2
_chemical_formula_sum   'Ba1 Na3 P2 O8'
_cell_volume   195.44142643
_cell_formula_units_Z   1
loop_
 _symmetry_equiv_pos_site_id
 _symmetry_equiv_pos_as_xyz
  1  'x, y, z'
loop_
 _atom_site_type_symbol
 _atom_site_label
 _atom_site_symmetry_multiplicity
 _atom_site_fract_x
 _atom_site_fract_y
 _atom_site_fract_z
 _atom_site_occupancy
  Ba  Ba0  1  0.00000000  0.00000000  -0.00000000  1
  Na  Na1  1  0.66666700  0.33333300  0.33112871  1
  Na  Na2  1  0.33333300  0.66666700  0.66887129  1
  Na  Na3  1  0.00000000  0.00000000  0.50000000  1
  P  P4  1  0.66666700  0.33333300  0.77928127  1
  P  P5  1  0.33333300  0.66666700  0.22071873  1
  O  O6  1  0.66666700  0.33333300  0.99645269  1
  O  O7  1  0.33333300  0.66666700  0.00354731  1
  O  O8  1  0.81594377  0.63188755  0.70216551  1
  O  O9  1  0.18405623  0.36811245  0.29783449  1
  O  O10  1  0.81594377  0.18405623  0.70216551  1
  O  O11  1  0.18405623  0.81594377  0.29783449  1
  O  O12  1  0.36811245  0.18405623  0.70216551  1
  O  O13  1  0.63188755  0.81594377  0.29783449  1
