# generated using pymatgen
data_ZrTiCr4
_symmetry_space_group_name_H-M   'P 1'
_cell_length_a   5.00102099
_cell_length_b   5.00102099
_cell_length_c   7.95203185
_cell_angle_alpha   90.01383117
_cell_angle_beta   89.98616883
_cell_angle_gamma   120.00635560
_symmetry_Int_Tables_number   1
_chemical_formula_structural   ZrTiCr4
_chemical_formula_sum   'Zr2 Ti2 Cr8'
_cell_volume   172.22582076
_cell_formula_units_Z   2
loop_
 _symmetry_equiv_pos_site_id
 _symmetry_equiv_pos_as_xyz
  1  'x, y, z'
loop_
 _atom_site_type_symbol
 _atom_site_label
 _atom_site_symmetry_multiplicity
 _atom_site_fract_x
 _atom_site_fract_y
 _atom_site_fract_z
 _atom_site_occupancy
  Zr  Zr0  1  0.33331406  0.66668594  0.06488543  1
  Zr  Zr1  1  0.66668594  0.33331406  0.93511457  1
  Ti  Ti2  1  0.66662900  0.33337100  0.55598339  1
  Ti  Ti3  1  0.33337100  0.66662900  0.44401661  1
  Cr  Cr4  1  0.00000000  -0.00000000  0.50000000  1
  Cr  Cr5  1  0.00000000  -0.00000000  0.00000000  1
  Cr  Cr6  1  0.16913744  0.33825192  0.74061627  1
  Cr  Cr7  1  0.16912347  0.83087653  0.74057815  1
  Cr  Cr8  1  0.66174808  0.83086256  0.74061627  1
  Cr  Cr9  1  0.83086256  0.66174808  0.25938373  1
  Cr  Cr10  1  0.83087653  0.16912347  0.25942185  1
  Cr  Cr11  1  0.33825192  0.16913744  0.25938373  1
