# generated using pymatgen
data_Cr3Sb5O16
_symmetry_space_group_name_H-M   'P 1'
_cell_length_a   6.15206674
_cell_length_b   6.16470206
_cell_length_c   9.90460595
_cell_angle_alpha   90.00083247
_cell_angle_beta   90.14903516
_cell_angle_gamma   120.06875259
_symmetry_Int_Tables_number   1
_chemical_formula_structural   Cr3Sb5O16
_chemical_formula_sum   'Cr3 Sb5 O16'
_cell_volume   325.08557266
_cell_formula_units_Z   1
loop_
 _symmetry_equiv_pos_site_id
 _symmetry_equiv_pos_as_xyz
  1  'x, y, z'
loop_
 _atom_site_type_symbol
 _atom_site_label
 _atom_site_symmetry_multiplicity
 _atom_site_fract_x
 _atom_site_fract_y
 _atom_site_fract_z
 _atom_site_occupancy
  Cr  Cr0  1  0.17417455  0.83147474  0.19594111  1
  Cr  Cr1  1  0.17415446  0.34268959  0.19593354  1
  Cr  Cr2  1  0.33248425  0.16625136  0.72583114  1
  Sb  Sb3  1  0.30606745  0.65309733  0.46286109  1
  Sb  Sb4  1  0.65295516  0.32647694  0.99609156  1
  Sb  Sb5  1  0.66546236  0.83273050  0.20011889  1
  Sb  Sb6  1  0.83887749  0.67252962  0.72706944  1
  Sb  Sb7  1  0.83887139  0.16632587  0.72706949  1
  O  O8  1  0.15279305  0.83966381  0.62566205  1
  O  O9  1  0.04080153  0.52046487  0.30910466  1
  O  O10  1  0.34308629  0.67155098  0.09561599  1
  O  O11  1  -0.00000799  0.00000945  0.28631617  1
  O  O12  1  0.00501635  0.00250575  0.83399320  1
  O  O13  1  0.15279723  0.31313558  0.62566388  1
  O  O14  1  0.48212957  0.96020196  0.31723904  1
  O  O15  1  0.48213538  0.52198815  0.31726941  1
  O  O16  1  0.33382570  0.16694964  0.09085050  1
  O  O17  1  0.67355415  0.83675928  0.62928257  1
  O  O18  1  0.53035582  0.48009180  0.84796307  1
  O  O19  1  0.53034361  0.05024224  0.84795600  1
  O  O20  1  0.67429602  0.33713475  0.62293467  1
  O  O21  1  0.82835090  0.66179882  0.09036014  1
  O  O22  1  0.95911241  0.47955665  0.85422692  1
  O  O23  1  0.82836287  0.16656935  0.09036446  1
