# generated using pymatgen
data_Ba2Zr2(SiO4)3
_symmetry_space_group_name_H-M   'P 1'
_cell_length_a   10.46486524
_cell_length_b   10.46486524
_cell_length_c   10.46486524
_cell_angle_alpha   90.00000000
_cell_angle_beta   90.00000000
_cell_angle_gamma   90.00000000
_symmetry_Int_Tables_number   1
_chemical_formula_structural   Ba2Zr2(SiO4)3
_chemical_formula_sum   'Ba8 Zr8 Si12 O48'
_cell_volume   1146.04301998
_cell_formula_units_Z   4
loop_
 _symmetry_equiv_pos_site_id
 _symmetry_equiv_pos_as_xyz
  1  'x, y, z'
loop_
 _atom_site_type_symbol
 _atom_site_label
 _atom_site_symmetry_multiplicity
 _atom_site_fract_x
 _atom_site_fract_y
 _atom_site_fract_z
 _atom_site_occupancy
  Ba  Ba0  1  0.05200527  0.05200527  0.05200527  1
  Ba  Ba1  1  0.44799473  0.94799473  0.55200527  1
  Ba  Ba2  1  0.94799473  0.55200527  0.44799473  1
  Ba  Ba3  1  0.55200527  0.44799473  0.94799473  1
  Ba  Ba4  1  0.81564376  0.81564376  0.81564376  1
  Ba  Ba5  1  0.68435624  0.18435624  0.31564376  1
  Ba  Ba6  1  0.18435624  0.31564376  0.68435624  1
  Ba  Ba7  1  0.31564376  0.68435624  0.18435624  1
  Zr  Zr8  1  0.33487051  0.33487051  0.33487051  1
  Zr  Zr9  1  0.16512949  0.66512949  0.83487051  1
  Zr  Zr10  1  0.66512949  0.83487051  0.16512949  1
  Zr  Zr11  1  0.83487051  0.16512949  0.66512949  1
  Zr  Zr12  1  0.60067495  0.60067495  0.60067495  1
  Zr  Zr13  1  0.89932505  0.39932505  0.10067495  1
  Zr  Zr14  1  0.39932505  0.10067495  0.89932505  1
  Zr  Zr15  1  0.10067495  0.89932505  0.39932505  1
  Si  Si16  1  0.01988558  0.21402183  0.37602007  1
  Si  Si17  1  0.48011442  0.78597817  0.87602007  1
  Si  Si18  1  0.98011442  0.71402183  0.12397993  1
  Si  Si19  1  0.37602007  0.01988558  0.21402183  1
  Si  Si20  1  0.51988558  0.28597817  0.62397993  1
  Si  Si21  1  0.87602007  0.48011442  0.78597817  1
  Si  Si22  1  0.12397993  0.98011442  0.71402183  1
  Si  Si23  1  0.62397993  0.51988558  0.28597817  1
  Si  Si24  1  0.21402183  0.37602007  0.01988558  1
  Si  Si25  1  0.71402183  0.12397993  0.98011442  1
  Si  Si26  1  0.28597817  0.62397993  0.51988558  1
  Si  Si27  1  0.78597817  0.87602007  0.48011442  1
  O  O28  1  0.01275447  0.06669761  0.32128923  1
  O  O29  1  0.48724553  0.93330239  0.82128923  1
  O  O30  1  0.98724553  0.56669761  0.17871077  1
  O  O31  1  0.32128923  0.01275447  0.06669761  1
  O  O32  1  0.51275447  0.43330239  0.67871077  1
  O  O33  1  0.82128923  0.48724553  0.93330239  1
  O  O34  1  0.17871077  0.98724553  0.56669761  1
  O  O35  1  0.67871077  0.51275447  0.43330239  1
  O  O36  1  0.06669761  0.32128923  0.01275447  1
  O  O37  1  0.56669761  0.17871077  0.98724553  1
  O  O38  1  0.43330239  0.67871077  0.51275447  1
  O  O39  1  0.93330239  0.82128923  0.48724553  1
  O  O40  1  0.26477912  0.49361686  0.43700822  1
  O  O41  1  0.23522088  0.50638314  0.93700822  1
  O  O42  1  0.73522088  0.99361686  0.06299178  1
  O  O43  1  0.43700822  0.26477912  0.49361686  1
  O  O44  1  0.76477912  0.00638314  0.56299178  1
  O  O45  1  0.93700822  0.23522088  0.50638314  1
  O  O46  1  0.06299178  0.73522088  0.99361686  1
  O  O47  1  0.56299178  0.76477912  0.00638314  1
  O  O48  1  0.49361686  0.43700822  0.26477912  1
  O  O49  1  0.99361686  0.06299178  0.73522088  1
  O  O50  1  0.00638314  0.56299178  0.76477912  1
  O  O51  1  0.50638314  0.93700822  0.23522088  1
  O  O52  1  0.05111897  0.80833740  0.22835705  1
  O  O53  1  0.44888103  0.19166260  0.72835705  1
  O  O54  1  0.94888103  0.30833740  0.27164295  1
  O  O55  1  0.22835705  0.05111897  0.80833740  1
  O  O56  1  0.55111897  0.69166260  0.77164295  1
  O  O57  1  0.72835705  0.44888103  0.19166260  1
  O  O58  1  0.27164295  0.94888103  0.30833740  1
  O  O59  1  0.77164295  0.55111897  0.69166260  1
  O  O60  1  0.80833740  0.22835705  0.05111897  1
  O  O61  1  0.30833740  0.27164295  0.94888103  1
  O  O62  1  0.69166260  0.77164295  0.55111897  1
  O  O63  1  0.19166260  0.72835705  0.44888103  1
  O  O64  1  0.16603148  0.25659143  0.40696818  1
  O  O65  1  0.33396852  0.74340857  0.90696818  1
  O  O66  1  0.83396852  0.75659143  0.09303182  1
  O  O67  1  0.40696818  0.16603148  0.25659143  1
  O  O68  1  0.66603148  0.24340857  0.59303182  1
  O  O69  1  0.90696818  0.33396852  0.74340857  1
  O  O70  1  0.09303182  0.83396852  0.75659143  1
  O  O71  1  0.59303182  0.66603148  0.24340857  1
  O  O72  1  0.25659143  0.40696818  0.16603148  1
  O  O73  1  0.75659143  0.09303182  0.83396852  1
  O  O74  1  0.24340857  0.59303182  0.66603148  1
  O  O75  1  0.74340857  0.90696818  0.33396852  1
