# generated using pymatgen
data_AlAgF4
_symmetry_space_group_name_H-M   'P 1'
_cell_length_a   5.96808296
_cell_length_b   7.20985249
_cell_length_c   7.19039838
_cell_angle_alpha   90.00000000
_cell_angle_beta   90.00000000
_cell_angle_gamma   90.00000000
_symmetry_Int_Tables_number   1
_chemical_formula_structural   AlAgF4
_chemical_formula_sum   'Al4 Ag4 F16'
_cell_volume   309.39563600
_cell_formula_units_Z   4
loop_
 _symmetry_equiv_pos_site_id
 _symmetry_equiv_pos_as_xyz
  1  'x, y, z'
loop_
 _atom_site_type_symbol
 _atom_site_label
 _atom_site_symmetry_multiplicity
 _atom_site_fract_x
 _atom_site_fract_y
 _atom_site_fract_z
 _atom_site_occupancy
  Al  Al0  1  0.00029679  0.24148510  0.25709921  1
  Al  Al1  1  0.00029679  0.75851490  0.74290079  1
  Al  Al2  1  0.99970321  0.25851490  0.75709921  1
  Al  Al3  1  0.99970321  0.74148510  0.24290079  1
  Ag  Ag4  1  0.49127420  0.00000000  0.50000000  1
  Ag  Ag5  1  0.50872580  0.50000000  -0.00000000  1
  Ag  Ag6  1  0.49077600  0.00000000  -0.00000000  1
  Ag  Ag7  1  0.50922400  0.50000000  0.50000000  1
  F  F8  1  0.07186359  0.99069928  0.25925071  1
  F  F9  1  0.07186359  0.00930072  0.74074929  1
  F  F10  1  0.92813641  0.50930072  0.75925071  1
  F  F11  1  0.92813641  0.49069928  0.24074929  1
  F  F12  1  0.28912396  0.28252899  0.30709893  1
  F  F13  1  0.28912396  0.71747101  0.69290107  1
  F  F14  1  0.71087604  0.21747101  0.80709893  1
  F  F15  1  0.71087604  0.78252899  0.19290107  1
  F  F16  1  0.06822404  0.25114913  0.00740147  1
  F  F17  1  0.06822404  0.74885087  0.99259853  1
  F  F18  1  0.93177596  0.24885087  0.50740147  1
  F  F19  1  0.93177596  0.75114913  0.49259853  1
  F  F20  1  0.28698082  0.68647417  0.28170584  1
  F  F21  1  0.28698082  0.31352583  0.71829416  1
  F  F22  1  0.71301918  0.81352583  0.78170584  1
  F  F23  1  0.71301918  0.18647417  0.21829416  1
