# generated using pymatgen
data_ZnRe2(MoS4)2
_symmetry_space_group_name_H-M   'P 1'
_cell_length_a   6.88941309
_cell_length_b   6.88941309
_cell_length_c   6.88941309
_cell_angle_alpha   90.02896296
_cell_angle_beta   60.21685574
_cell_angle_gamma   120.25085355
_symmetry_Int_Tables_number   1
_chemical_formula_structural   ZnRe2(MoS4)2
_chemical_formula_sum   'Zn1 Re2 Mo2 S8'
_cell_volume   231.15908615
_cell_formula_units_Z   1
loop_
 _symmetry_equiv_pos_site_id
 _symmetry_equiv_pos_as_xyz
  1  'x, y, z'
loop_
 _atom_site_type_symbol
 _atom_site_label
 _atom_site_symmetry_multiplicity
 _atom_site_fract_x
 _atom_site_fract_y
 _atom_site_fract_z
 _atom_site_occupancy
  Zn  Zn0  1  0.00000000  0.00175894  0.99824106  1
  Re  Re1  1  0.79345143  0.18956870  0.60388273  1
  Re  Re2  1  0.20654857  0.60266584  0.60388273  1
  Mo  Mo3  1  0.20468381  0.60178608  0.19353011  1
  Mo  Mo4  1  0.79531619  0.60178608  0.60289772  1
  S  S5  1  0.72225633  0.86437588  0.41336779  1
  S  S6  1  0.27774367  0.86437588  0.85788045  1
  S  S7  1  0.27210395  0.41138497  0.86071898  1
  S  S8  1  0.72789605  0.86717707  0.86071898  1
  S  S9  1  0.73374808  0.36461537  0.90163655  1
  S  S10  1  0.26625192  0.36461537  0.36913271  1
  S  S11  1  0.27001982  0.90296473  0.36705509  1
  S  S12  1  0.72998018  0.36292509  0.36705509  1
