# generated using pymatgen
data_Fe6O7F5
_symmetry_space_group_name_H-M   'P 1'
_cell_length_a   7.36776593
_cell_length_b   5.57865152
_cell_length_c   5.58422599
_cell_angle_alpha   71.67573095
_cell_angle_beta   72.02207905
_cell_angle_gamma   72.10460008
_symmetry_Int_Tables_number   1
_chemical_formula_structural   Fe6O7F5
_chemical_formula_sum   'Fe6 O7 F5'
_cell_volume   201.55099664
_cell_formula_units_Z   1
loop_
 _symmetry_equiv_pos_site_id
 _symmetry_equiv_pos_as_xyz
  1  'x, y, z'
loop_
 _atom_site_type_symbol
 _atom_site_label
 _atom_site_symmetry_multiplicity
 _atom_site_fract_x
 _atom_site_fract_y
 _atom_site_fract_z
 _atom_site_occupancy
  Fe  Fe0  1  0.84200664  0.67674768  0.69810313  1
  Fe  Fe1  1  0.66726044  0.32693882  0.34502001  1
  Fe  Fe2  1  0.31368655  0.66840656  0.63272761  1
  Fe  Fe3  1  0.16356891  0.30481565  0.35268290  1
  Fe  Fe4  1  0.50533817  0.97780996  0.99860818  1
  Fe  Fe5  1  0.00055260  0.02340071  0.98835005  1
  O  O6  1  0.66716442  0.03011956  0.64185200  1
  O  O7  1  0.95660442  0.22965248  0.23297475  1
  O  O8  1  0.03683519  0.79176677  0.77471545  1
  O  O9  1  0.37879964  0.41878331  0.42781669  1
  O  O10  1  0.33254633  0.96681088  0.34373297  1
  O  O11  1  0.66809926  0.62721605  0.04522031  1
  O  O12  1  0.00177750  0.32272204  0.69532159  1
  F  F13  1  0.33256590  0.36532832  0.96059408  1
  F  F14  1  0.30714595  0.89420278  0.88419595  1
  F  F15  1  0.62668345  0.57133918  0.57523411  1
  F  F16  1  0.69521430  0.09989596  0.10305254  1
  F  F17  1  0.00415035  0.70404229  0.29979667  1
