# generated using pymatgen
data_ZnCuP2O7
_symmetry_space_group_name_H-M   'P 1'
_cell_length_a   4.61465234
_cell_length_b   5.38204009
_cell_length_c   5.38204009
_cell_angle_alpha   100.46270367
_cell_angle_beta   101.66748784
_cell_angle_gamma   101.66748784
_symmetry_Int_Tables_number   1
_chemical_formula_structural   ZnCuP2O7
_chemical_formula_sum   'Zn1 Cu1 P2 O7'
_cell_volume   124.70556957
_cell_formula_units_Z   1
loop_
 _symmetry_equiv_pos_site_id
 _symmetry_equiv_pos_as_xyz
  1  'x, y, z'
loop_
 _atom_site_type_symbol
 _atom_site_label
 _atom_site_symmetry_multiplicity
 _atom_site_fract_x
 _atom_site_fract_y
 _atom_site_fract_z
 _atom_site_occupancy
  Zn  Zn0  1  0.50000000  0.30940529  0.69059471  1
  Cu  Cu1  1  0.50000000  0.68959639  0.31040361  1
  P  P2  1  0.90844739  0.21038262  0.19621043  1
  P  P3  1  0.09155261  0.80378957  0.78961738  1
  O  O4  1  0.73560940  0.04746714  0.34924688  1
  O  O5  1  0.71987444  0.37400469  0.06413224  1
  O  O6  1  0.28012556  0.93586776  0.62599531  1
  O  O7  1  0.26439060  0.65075312  0.95253286  1
  O  O8  1  0.21871224  0.38014267  0.37625430  1
  O  O9  1  0.78128776  0.62374570  0.61985733  1
  O  O10  1  0.00000000  0.03164506  0.96835494  1
