# generated using pymatgen
data_Zr4Ti(PbO3)5
_symmetry_space_group_name_H-M   'P 1'
_cell_length_a   4.21169274
_cell_length_b   20.78339963
_cell_length_c   4.25960902
_cell_angle_alpha   90.85074342
_cell_angle_beta   91.06606681
_cell_angle_gamma   89.56117850
_symmetry_Int_Tables_number   1
_chemical_formula_structural   Zr4Ti(PbO3)5
_chemical_formula_sum   'Zr4 Ti1 Pb5 O15'
_cell_volume   372.74180864
_cell_formula_units_Z   1
loop_
 _symmetry_equiv_pos_site_id
 _symmetry_equiv_pos_as_xyz
  1  'x, y, z'
loop_
 _atom_site_type_symbol
 _atom_site_label
 _atom_site_symmetry_multiplicity
 _atom_site_fract_x
 _atom_site_fract_y
 _atom_site_fract_z
 _atom_site_occupancy
  Zr  Zr0  1  0.53010407  0.10949051  0.46053428  1
  Zr  Zr1  1  0.53087327  0.50191272  0.45862500  1
  Zr  Zr2  1  0.52826149  0.70489663  0.46139124  1
  Zr  Zr3  1  0.52803325  0.90678616  0.46178178  1
  Ti  Ti4  1  0.50578540  0.30598822  0.48218926  1
  Pb  Pb5  1  0.97985927  0.99819707  0.01875779  1
  Pb  Pb6  1  0.97888401  0.20312653  0.02428115  1
  Pb  Pb7  1  0.98317051  0.39046015  0.02055429  1
  Pb  Pb8  1  0.97964550  0.59457404  0.01876546  1
  Pb  Pb9  1  0.97988669  0.79635083  0.01861666  1
  O  O10  1  0.04395473  0.11681401  0.40823250  1
  O  O11  1  0.06745389  0.31052249  0.41365347  1
  O  O12  1  0.04502100  0.51041529  0.40803198  1
  O  O13  1  0.04333621  0.71245232  0.40801833  1
  O  O14  1  0.04292397  0.91382084  0.40818998  1
  O  O15  1  0.56494140  0.01098838  0.40994473  1
  O  O16  1  0.56696743  0.21661079  0.40700994  1
  O  O17  1  0.56941676  0.40187034  0.40195089  1
  O  O18  1  0.56570212  0.60637764  0.40853603  1
  O  O19  1  0.56631647  0.80859307  0.40755043  1
  O  O20  1  0.56659874  0.11701485  0.93698225  1
  O  O21  1  0.56181007  0.31088301  0.90571738  1
  O  O22  1  0.56649008  0.51088829  0.93486395  1
  O  O23  1  0.56744047  0.71275235  0.93757903  1
  O  O24  1  0.56712321  0.91421347  0.93824220  1
