# generated using pymatgen
data_ZrTi2(PbO3)3
_symmetry_space_group_name_H-M   'P 1'
_cell_length_a   5.73814439
_cell_length_b   5.83028660
_cell_length_c   7.05404625
_cell_angle_alpha   89.37279462
_cell_angle_beta   90.00000001
_cell_angle_gamma   119.47856392
_symmetry_Int_Tables_number   1
_chemical_formula_structural   ZrTi2(PbO3)3
_chemical_formula_sum   'Zr1 Ti2 Pb3 O9'
_cell_volume   205.42533588
_cell_formula_units_Z   1
loop_
 _symmetry_equiv_pos_site_id
 _symmetry_equiv_pos_as_xyz
  1  'x, y, z'
loop_
 _atom_site_type_symbol
 _atom_site_label
 _atom_site_symmetry_multiplicity
 _atom_site_fract_x
 _atom_site_fract_y
 _atom_site_fract_z
 _atom_site_occupancy
  Zr  Zr0  1  0.98221621  0.96443343  0.49052283  1
  Ti  Ti1  1  0.65275125  0.30550250  0.82589747  1
  Ti  Ti2  1  0.31748314  0.63496528  0.15882677  1
  Pb  Pb3  1  0.33957659  0.67915417  0.68271083  1
  Pb  Pb4  1  0.00989275  0.01978550  0.99669413  1
  Pb  Pb5  1  0.67046083  0.34092066  0.32935767  1
  O  O6  1  0.78995066  0.57990032  0.64528868  1
  O  O7  1  0.45653152  0.91306403  0.98135090  1
  O  O8  1  0.13365806  0.26731612  0.29728974  1
  O  O9  1  0.95902738  0.41671949  0.97864997  1
  O  O10  1  0.62257907  0.74552619  0.30981514  1
  O  O11  1  0.30947316  0.08923330  0.65856538  1
  O  O12  1  0.45769311  0.41671949  0.97864997  1
  O  O13  1  0.12294612  0.74552619  0.30981514  1
  O  O14  1  0.77976014  0.08923330  0.65856538  1
