# generated using pymatgen
data_Zn2Cd(BO3)2
_symmetry_space_group_name_H-M   'P 1'
_cell_length_a   6.32457146
_cell_length_b   6.42773894
_cell_length_c   6.56637296
_cell_angle_alpha   80.25868797
_cell_angle_beta   81.58853704
_cell_angle_gamma   82.93062767
_symmetry_Int_Tables_number   1
_chemical_formula_structural   Zn2Cd(BO3)2
_chemical_formula_sum   'Zn4 Cd2 B4 O12'
_cell_volume   258.93513742
_cell_formula_units_Z   2
loop_
 _symmetry_equiv_pos_site_id
 _symmetry_equiv_pos_as_xyz
  1  'x, y, z'
loop_
 _atom_site_type_symbol
 _atom_site_label
 _atom_site_symmetry_multiplicity
 _atom_site_fract_x
 _atom_site_fract_y
 _atom_site_fract_z
 _atom_site_occupancy
  Zn  Zn0  1  0.04652456  0.33583946  0.72537373  1
  Zn  Zn1  1  0.22219395  0.84066128  0.54457774  1
  Zn  Zn2  1  0.83837507  0.54539685  0.22373215  1
  Zn  Zn3  1  0.54023801  0.22987717  0.83829575  1
  Cd  Cd4  1  0.34573008  0.72623227  0.04046970  1
  Cd  Cd5  1  0.70837291  0.04703770  0.33868466  1
  B  B6  1  0.40854257  0.41605594  0.43392009  1
  B  B7  1  0.90648782  0.91623012  0.90233931  1
  B  B8  1  0.16301518  0.16979951  0.16013162  1
  B  B9  1  0.66844092  0.64331871  0.64905186  1
  O  O10  1  0.52481725  0.48515963  0.24281494  1
  O  O11  1  0.48288987  0.22601181  0.54745072  1
  O  O12  1  0.21974084  0.52703542  0.50939378  1
  O  O13  1  0.01212745  0.01857271  0.71852286  1
  O  O14  1  0.99780876  0.72371385  0.99631954  1
  O  O15  1  0.71291257  0.00434938  0.99594386  1
  O  O16  1  0.27182420  0.98207614  0.24951238  1
  O  O17  1  0.97735216  0.25536320  0.26697275  1
  O  O18  1  0.23736061  0.26733790  0.96133647  1
  O  O19  1  0.47650251  0.75773929  0.71073909  1
  O  O20  1  0.78660696  0.71304721  0.46034531  1
  O  O21  1  0.74233573  0.45934443  0.77407169  1
