# generated using pymatgen
data_ZrAlIr
_symmetry_space_group_name_H-M   'P 1'
_cell_length_a   5.34863851
_cell_length_b   5.39308022
_cell_length_c   8.29006789
_cell_angle_alpha   90.00000000
_cell_angle_beta   90.00000000
_cell_angle_gamma   120.27537773
_symmetry_Int_Tables_number   1
_chemical_formula_structural   ZrAlIr
_chemical_formula_sum   'Zr4 Al4 Ir4'
_cell_volume   206.51757990
_cell_formula_units_Z   4
loop_
 _symmetry_equiv_pos_site_id
 _symmetry_equiv_pos_as_xyz
  1  'x, y, z'
loop_
 _atom_site_type_symbol
 _atom_site_label
 _atom_site_symmetry_multiplicity
 _atom_site_fract_x
 _atom_site_fract_y
 _atom_site_fract_z
 _atom_site_occupancy
  Zr  Zr0  1  0.66920744  0.33457090  0.54181344  1
  Zr  Zr1  1  0.34039684  0.67019698  0.42749878  1
  Zr  Zr2  1  0.34039684  0.67019698  0.07250122  1
  Zr  Zr3  1  0.66920744  0.33457090  0.95818656  1
  Al  Al4  1  0.98877665  0.99438578  0.49528360  1
  Al  Al5  1  0.98877665  0.99438578  0.00471640  1
  Al  Al6  1  0.17351248  0.34471574  0.75000000  1
  Al  Al7  1  0.17348772  0.82878430  0.75000000  1
  Ir  Ir8  1  0.66090454  0.83045934  0.75000000  1
  Ir  Ir9  1  0.83148425  0.66195715  0.25000000  1
  Ir  Ir10  1  0.83151250  0.16957973  0.25000000  1
  Ir  Ir11  1  0.33233665  0.16619644  0.25000000  1
