# generated using pymatgen
data_Zn2TeSe
_symmetry_space_group_name_H-M   'P 1'
_cell_length_a   4.22539080
_cell_length_b   4.22539081
_cell_length_c   7.30093579
_cell_angle_alpha   73.17956866
_cell_angle_beta   90.00000000
_cell_angle_gamma   119.99999994
_symmetry_Int_Tables_number   1
_chemical_formula_structural   Zn2TeSe
_chemical_formula_sum   'Zn2 Te1 Se1'
_cell_volume   106.39842558
_cell_formula_units_Z   1
loop_
 _symmetry_equiv_pos_site_id
 _symmetry_equiv_pos_as_xyz
  1  'x, y, z'
loop_
 _atom_site_type_symbol
 _atom_site_label
 _atom_site_symmetry_multiplicity
 _atom_site_fract_x
 _atom_site_fract_y
 _atom_site_fract_z
 _atom_site_occupancy
  Zn  Zn0  1  0.99505232  0.99010464  0.01484304  1
  Zn  Zn1  1  0.50478066  0.00956132  0.48565802  1
  Te  Te2  1  0.37530614  0.75061228  0.87408158  1
  Se  Se3  1  0.87486088  0.74972176  0.37541736  1
