# generated using pymatgen
data_Zr2Cr3Fe
_symmetry_space_group_name_H-M   'P 1'
_cell_length_a   5.03213350
_cell_length_b   5.03305661
_cell_length_c   8.14199305
_cell_angle_alpha   90.00000000
_cell_angle_beta   90.00000000
_cell_angle_gamma   60.72829631
_symmetry_Int_Tables_number   1
_chemical_formula_structural   Zr2Cr3Fe
_chemical_formula_sum   'Zr4 Cr6 Fe2'
_cell_volume   179.88128175
_cell_formula_units_Z   2
loop_
 _symmetry_equiv_pos_site_id
 _symmetry_equiv_pos_as_xyz
  1  'x, y, z'
loop_
 _atom_site_type_symbol
 _atom_site_label
 _atom_site_symmetry_multiplicity
 _atom_site_fract_x
 _atom_site_fract_y
 _atom_site_fract_z
 _atom_site_occupancy
  Zr  Zr0  1  0.33406922  0.33407270  0.93624531  1
  Zr  Zr1  1  0.66679972  0.66683315  0.05824108  1
  Zr  Zr2  1  0.66679972  0.66683315  0.44175892  1
  Zr  Zr3  1  0.33406922  0.33407270  0.56375469  1
  Cr  Cr4  1  0.82974794  0.82961748  0.75000000  1
  Cr  Cr5  1  0.16791179  0.66239190  0.25000000  1
  Cr  Cr6  1  0.66236087  0.16788711  0.25000000  1
  Cr  Cr7  1  0.16785786  0.16794127  0.25000000  1
  Cr  Cr8  1  0.00020435  0.00023093  0.50293607  1
  Cr  Cr9  1  0.00020435  0.00023093  0.99706393  1
  Fe  Fe10  1  0.83273357  0.33723878  0.75000000  1
  Fe  Fe11  1  0.33724139  0.83264992  0.75000000  1
