# generated using pymatgen
data_VCr3As4
_symmetry_space_group_name_H-M   'P 1'
_cell_length_a   3.53457540
_cell_length_b   5.64176912
_cell_length_c   6.27291421
_cell_angle_alpha   89.87712028
_cell_angle_beta   90.00000000
_cell_angle_gamma   90.00000000
_symmetry_Int_Tables_number   1
_chemical_formula_structural   VCr3As4
_chemical_formula_sum   'V1 Cr3 As4'
_cell_volume   125.08951521
_cell_formula_units_Z   1
loop_
 _symmetry_equiv_pos_site_id
 _symmetry_equiv_pos_as_xyz
  1  'x, y, z'
loop_
 _atom_site_type_symbol
 _atom_site_label
 _atom_site_symmetry_multiplicity
 _atom_site_fract_x
 _atom_site_fract_y
 _atom_site_fract_z
 _atom_site_occupancy
  V  V0  1  0.75000000  0.49407100  0.70557866  1
  Cr  Cr1  1  0.75000000  0.99451872  0.78544477  1
  Cr  Cr2  1  0.25000000  0.50507072  0.30349822  1
  Cr  Cr3  1  0.25000000  0.00674214  0.20877007  1
  As  As4  1  0.75000000  0.29802635  0.07981813  1
  As  As5  1  0.75000000  0.79241955  0.41474435  1
  As  As6  1  0.25000000  0.70747400  0.92493209  1
  As  As7  1  0.25000000  0.20167750  0.57721370  1
