# generated using pymatgen
data_Y2Ga3Ni
_symmetry_space_group_name_H-M   'P 1'
_cell_length_a   4.27725689
_cell_length_b   4.27725689
_cell_length_c   7.54461758
_cell_angle_alpha   90.00379504
_cell_angle_beta   89.99620496
_cell_angle_gamma   119.99980120
_symmetry_Int_Tables_number   1
_chemical_formula_structural   Y2Ga3Ni
_chemical_formula_sum   'Y2 Ga3 Ni1'
_cell_volume   119.53618758
_cell_formula_units_Z   1
loop_
 _symmetry_equiv_pos_site_id
 _symmetry_equiv_pos_as_xyz
  1  'x, y, z'
loop_
 _atom_site_type_symbol
 _atom_site_label
 _atom_site_symmetry_multiplicity
 _atom_site_fract_x
 _atom_site_fract_y
 _atom_site_fract_z
 _atom_site_occupancy
  Y  Y0  1  0.00000755  0.99999245  0.77140265  1
  Y  Y1  1  0.00007771  0.99992229  0.23736459  1
  Ga  Ga2  1  0.33325939  0.66674061  0.01303432  1
  Ga  Ga3  1  0.33334812  0.66665188  0.46133117  1
  Ga  Ga4  1  0.66663205  0.33336795  0.54361613  1
  Ni  Ni5  1  0.66667518  0.33332482  0.97325114  1
