# generated using pymatgen
data_Zr2Ti(PbO3)3
_symmetry_space_group_name_H-M   'P 1'
_cell_length_a   4.21468872
_cell_length_b   12.38816099
_cell_length_c   4.21468922
_cell_angle_alpha   90.71089463
_cell_angle_beta   91.05328677
_cell_angle_gamma   89.28910144
_symmetry_Int_Tables_number   1
_chemical_formula_structural   Zr2Ti(PbO3)3
_chemical_formula_sum   'Zr2 Ti1 Pb3 O9'
_cell_volume   219.98793124
_cell_formula_units_Z   1
loop_
 _symmetry_equiv_pos_site_id
 _symmetry_equiv_pos_as_xyz
  1  'x, y, z'
loop_
 _atom_site_type_symbol
 _atom_site_label
 _atom_site_symmetry_multiplicity
 _atom_site_fract_x
 _atom_site_fract_y
 _atom_site_fract_z
 _atom_site_occupancy
  Zr  Zr0  1  0.02738651  0.00539915  0.97261349  1
  Zr  Zr1  1  0.02628671  0.34754115  0.97371329  1
  Ti  Ti2  1  0.05056647  0.67542627  0.94943353  1
  Pb  Pb3  1  0.57809982  0.19176274  0.42190018  1
  Pb  Pb4  1  0.57686911  0.53434320  0.42313089  1
  Pb  Pb5  1  0.58114731  0.84801842  0.41885269  1
  O  O6  1  0.51058481  0.33151338  0.01302620  1
  O  O7  1  0.48600599  0.66655453  0.00882017  1
  O  O8  1  0.51183621  0.99077530  0.01315123  1
  O  O9  1  0.98857575  0.17042598  0.01142425  1
  O  O10  1  0.98157750  0.51433117  0.01842250  1
  O  O11  1  0.98540142  0.82484549  0.01459858  1
  O  O12  1  0.98697380  0.33151338  0.48941519  1
  O  O13  1  0.99117983  0.66655453  0.51399401  1
  O  O14  1  0.98684877  0.99077530  0.48816379  1
