# generated using pymatgen
data_Zn2Fe3Cu10(SnSe4)5
_symmetry_space_group_name_H-M   'P 1'
_cell_length_a   5.76043195
_cell_length_b   11.41002809
_cell_length_c   15.78931118
_cell_angle_alpha   68.81863779
_cell_angle_beta   100.51049081
_cell_angle_gamma   90.00000000
_symmetry_Int_Tables_number   1
_chemical_formula_structural   Zn2Fe3Cu10(SnSe4)5
_chemical_formula_sum   'Zn2 Fe3 Cu10 Sn5 Se20'
_cell_volume   948.97031848
_cell_formula_units_Z   1
loop_
 _symmetry_equiv_pos_site_id
 _symmetry_equiv_pos_as_xyz
  1  'x, y, z'
loop_
 _atom_site_type_symbol
 _atom_site_label
 _atom_site_symmetry_multiplicity
 _atom_site_fract_x
 _atom_site_fract_y
 _atom_site_fract_z
 _atom_site_occupancy
  Zn  Zn0  1  0.00000193  0.99999807  0.00000386  1
  Zn  Zn1  1  0.59999807  0.40000193  0.19999614  1
  Fe  Fe2  1  0.20010922  0.79989078  0.40021844  1
  Fe  Fe3  1  0.80000000  0.20000000  0.60000000  1
  Fe  Fe4  1  0.39989078  0.60010922  0.79978156  1
  Cu  Cu5  1  0.50075855  0.25052250  0.99974324  1
  Cu  Cu6  1  0.30000000  0.45021824  0.60000000  1
  Cu  Cu7  1  0.90118869  0.84967700  0.79984692  1
  Cu  Cu8  1  0.09924145  0.65026574  0.20025676  1
  Cu  Cu9  1  0.69881131  0.04952391  0.40015308  1
  Cu  Cu10  1  0.89865823  0.35047609  0.79984692  1
  Cu  Cu11  1  0.70134177  0.55032300  0.40015308  1
  Cu  Cu12  1  0.30000000  0.94978176  0.60000000  1
  Cu  Cu13  1  0.49898469  0.74973426  0.99974324  1
  Cu  Cu14  1  0.10101531  0.14947750  0.20025676  1
  Sn  Sn15  1  0.39966746  0.10033254  0.79933491  1
  Sn  Sn16  1  0.20033254  0.29966746  0.40066509  1
  Sn  Sn17  1  0.80000000  0.70000000  0.60000000  1
  Sn  Sn18  1  0.99978170  0.50021830  0.99956340  1
  Sn  Sn19  1  0.60021830  0.89978170  0.20043660  1
  Se  Se20  1  0.61464953  0.28660405  0.69269012  1
  Se  Se21  1  0.21426786  0.68611250  0.89280071  1
  Se  Se22  1  0.80923056  0.08820095  0.09535461  1
  Se  Se23  1  0.40949604  0.48806999  0.29566593  1
  Se  Se24  1  0.01507718  0.88683920  0.49269236  1
  Se  Se25  1  0.19050396  0.18373592  0.90433407  1
  Se  Se26  1  0.79076944  0.58355556  0.10464539  1
  Se  Se27  1  0.38573214  0.97891321  0.30719929  1
  Se  Se28  1  0.98535047  0.37929416  0.50730988  1
  Se  Se29  1  0.58492282  0.77953157  0.70730764  1
  Se  Se30  1  0.67853285  0.42108679  0.89280071  1
  Se  Se31  1  0.28612405  0.81644444  0.09535461  1
  Se  Se32  1  0.88616989  0.21626408  0.29566593  1
  Se  Se33  1  0.47761518  0.62046843  0.49269236  1
  Se  Se34  1  0.07804059  0.02070584  0.69269012  1
  Se  Se35  1  0.31387595  0.31179905  0.10464539  1
  Se  Se36  1  0.92146715  0.71388750  0.30719929  1
  Se  Se37  1  0.52195941  0.11339595  0.50730988  1
  Se  Se38  1  0.12238482  0.51316080  0.70730764  1
  Se  Se39  1  0.71383011  0.91193001  0.90433407  1
