# generated using pymatgen
data_VFeAs2
_symmetry_space_group_name_H-M   'P 1'
_cell_length_a   3.34988118
_cell_length_b   5.59832539
_cell_length_c   6.19221559
_cell_angle_alpha   90.00000000
_cell_angle_beta   90.00000000
_cell_angle_gamma   90.00000000
_symmetry_Int_Tables_number   1
_chemical_formula_structural   VFeAs2
_chemical_formula_sum   'V2 Fe2 As4'
_cell_volume   116.12710747
_cell_formula_units_Z   2
loop_
 _symmetry_equiv_pos_site_id
 _symmetry_equiv_pos_as_xyz
  1  'x, y, z'
loop_
 _atom_site_type_symbol
 _atom_site_label
 _atom_site_symmetry_multiplicity
 _atom_site_fract_x
 _atom_site_fract_y
 _atom_site_fract_z
 _atom_site_occupancy
  V  V0  1  0.25000000  0.50330645  0.29945477  1
  V  V1  1  0.25000000  0.00330645  0.20054523  1
  Fe  Fe2  1  0.75000000  0.49308161  0.68754898  1
  Fe  Fe3  1  0.75000000  0.99308161  0.81245102  1
  As  As4  1  0.75000000  0.30689276  0.06261692  1
  As  As5  1  0.75000000  0.80689276  0.43738308  1
  As  As6  1  0.25000000  0.69671918  0.91376653  1
  As  As7  1  0.25000000  0.19671918  0.58623347  1
