# generated using pymatgen
data_UAl7Fe5
_symmetry_space_group_name_H-M   'P 1'
_cell_length_a   4.93954115
_cell_length_b   6.57012616
_cell_length_c   6.57012616
_cell_angle_alpha   97.92352156
_cell_angle_beta   112.08052025
_cell_angle_gamma   67.91947975
_symmetry_Int_Tables_number   1
_chemical_formula_structural   UAl7Fe5
_chemical_formula_sum   'U1 Al7 Fe5'
_cell_volume   183.09144380
_cell_formula_units_Z   1
loop_
 _symmetry_equiv_pos_site_id
 _symmetry_equiv_pos_as_xyz
  1  'x, y, z'
loop_
 _atom_site_type_symbol
 _atom_site_label
 _atom_site_symmetry_multiplicity
 _atom_site_fract_x
 _atom_site_fract_y
 _atom_site_fract_z
 _atom_site_occupancy
  U  U0  1  0.01072375  0.98927625  0.01072375  1
  Al  Al1  1  0.66148537  0.33851463  0.66148537  1
  Al  Al2  1  0.34622145  0.65377855  0.34622145  1
  Al  Al3  1  0.99101282  0.35375149  0.33577713  1
  Al  Al4  1  0.99101282  0.66422287  0.64624851  1
  Al  Al5  1  0.27679566  0.22320434  0.77679566  1
  Al  Al6  1  0.50275148  0.78557149  0.79107445  1
  Al  Al7  1  0.50275148  0.20892555  0.21442851  1
  Fe  Fe8  1  0.49542867  0.00071230  0.49610396  1
  Fe  Fe9  1  -0.00003701  0.00071230  0.49610396  1
  Fe  Fe10  1  0.49542867  0.50389604  0.99928770  1
  Fe  Fe11  1  -0.00003701  0.50389604  0.99928770  1
  Fe  Fe12  1  0.72646186  0.77353814  0.22646186  1
