# generated using pymatgen
data_Yb9Y3Al20O48
_symmetry_space_group_name_H-M   'P 1'
_cell_length_a   10.49629665
_cell_length_b   10.48647093
_cell_length_c   10.49629665
_cell_angle_alpha   70.43299414
_cell_angle_beta   70.48161281
_cell_angle_gamma   109.36625525
_symmetry_Int_Tables_number   1
_chemical_formula_structural   Yb9Y3Al20O48
_chemical_formula_sum   'Yb9 Y3 Al20 O48'
_cell_volume   888.94482350
_cell_formula_units_Z   1
loop_
 _symmetry_equiv_pos_site_id
 _symmetry_equiv_pos_as_xyz
  1  'x, y, z'
loop_
 _atom_site_type_symbol
 _atom_site_label
 _atom_site_symmetry_multiplicity
 _atom_site_fract_x
 _atom_site_fract_y
 _atom_site_fract_z
 _atom_site_occupancy
  Yb  Yb0  1  0.12437317  0.25000000  0.62562683  1
  Yb  Yb1  1  0.25012822  0.62416468  0.62456426  1
  Yb  Yb2  1  0.75127106  0.87583532  0.87403646  1
  Yb  Yb3  1  0.62490725  0.37501541  0.75013217  1
  Yb  Yb4  1  0.87485242  0.12498459  0.25010817  1
  Yb  Yb5  1  0.62477844  0.25000000  0.12522156  1
  Yb  Yb6  1  0.87486655  0.75000000  0.37513345  1
  Yb  Yb7  1  0.75003255  0.37490182  0.37494780  1
  Yb  Yb8  1  0.25015038  0.12509818  0.12486927  1
  Y  Y9  1  0.37453326  0.62442574  0.25214858  1
  Y  Y10  1  0.12342567  0.87557426  0.74989249  1
  Y  Y11  1  0.37612148  0.75000000  0.87387852  1
  Al  Al12  1  0.12419822  0.37458989  0.25026446  1
  Al  Al13  1  0.37514565  0.12541011  0.75039168  1
  Al  Al14  1  0.62550360  0.75000000  0.62449640  1
  Al  Al15  1  0.87518363  0.25000000  0.87481637  1
  Al  Al16  1  0.24990440  0.87413493  0.37606754  1
  Al  Al17  1  0.74979753  0.62586507  0.12423053  1
  Al  Al18  1  0.87448148  0.62417690  0.75009186  1
  Al  Al19  1  0.62573124  0.87582310  0.24969542  1
  Al  Al20  1  0.37439127  0.25000000  0.37560873  1
  Al  Al21  1  0.12486353  0.75000000  0.12513647  1
  Al  Al22  1  0.75008751  0.12424060  0.62546073  1
  Al  Al23  1  0.25029867  0.37575940  0.87415309  1
  Al  Al24  1  0.50100697  0.00088362  0.99981751  1
  Al  Al25  1  0.49997301  0.50027894  0.50037770  1
  Al  Al26  1  0.99929887  0.49911638  -0.00012335  1
  Al  Al27  1  0.99934337  0.99972106  0.50030593  1
  Al  Al28  1  0.50075649  0.49979663  0.99934907  1
  Al  Al29  1  0.50085430  0.00020337  0.49904014  1
  Al  Al30  1  0.99983304  0.49957448  0.50050209  1
  Al  Al31  1  0.99992343  0.00042552  0.99974144  1
  O  O32  1  0.32011609  0.51995850  0.09836287  1
  O  O33  1  0.11735902  0.42061869  0.40003631  1
  O  O34  1  0.38167863  0.98004150  0.69984241  1
  O  O35  1  0.17934500  0.07938131  0.80325967  1
  O  O36  1  0.48286145  0.80391042  0.61734715  1
  O  O37  1  0.57874244  0.69608958  0.82104897  1
  O  O38  1  0.01668882  0.40273758  0.68010353  1
  O  O39  1  0.91715889  0.09726242  0.88604876  1
  O  O40  1  0.19992166  0.68022714  0.41530133  1
  O  O41  1  0.30024872  0.88517248  0.51971431  1
  O  O42  1  0.59511321  0.61482752  0.08492376  1
  O  O43  1  0.90447153  0.81977286  0.98030548  1
  O  O44  1  0.68016317  0.48263576  0.90372295  1
  O  O45  1  0.88661665  0.58350620  0.59640719  1
  O  O46  1  0.61364128  0.01736424  0.30247259  1
  O  O47  1  0.82008661  0.91649380  0.19688955  1
  O  O48  1  0.51672392  0.19718754  0.38665329  1
  O  O49  1  0.41615917  0.30281246  0.18046361  1
  O  O50  1  0.98266623  0.59657982  0.31961359  1
  O  O51  1  0.08380659  0.90342018  0.11391359  1
  O  O52  1  0.80226568  0.31910096  0.58386854  1
  O  O53  1  0.69737827  0.11418128  0.48286544  1
  O  O54  1  0.40295327  0.38581872  0.91680301  1
  O  O55  1  0.09703051  0.18089904  0.01683527  1
  O  O56  1  0.68031907  0.19728097  0.91628132  1
  O  O57  1  0.88643771  0.30271903  0.01696190  1
  O  O58  1  0.61419418  0.59675699  0.58338163  1
  O  O59  1  0.81986139  0.90324301  0.48256281  1
  O  O60  1  0.51692366  0.31984646  0.59642909  1
  O  O61  1  0.41661995  0.11343878  0.90375270  1
  O  O62  1  0.98280853  0.38656122  0.19681883  1
  O  O63  1  0.08372445  0.18015354  0.30292280  1
  O  O64  1  0.80214206  0.48310641  0.11385646  1
  O  O65  1  0.69773231  0.58385043  0.31914402  1
  O  O66  1  0.40303713  0.01689359  0.18096435  1
  O  O67  1  0.09700554  0.91614957  0.38611812  1
  O  O68  1  0.32050004  0.80043321  0.08116776  1
  O  O69  1  0.11839903  0.69956679  0.97993316  1
  O  O70  1  0.38485759  0.40454869  0.41499909  1
  O  O71  1  0.18045221  0.09545131  0.51969110  1
  O  O72  1  0.48283598  0.67938309  0.39985912  1
  O  O73  1  0.57909120  0.88261357  0.10002526  1
  O  O74  1  0.01736117  0.61738643  0.80352237  1
  O  O75  1  0.92075779  0.82061691  0.69654712  1
  O  O76  1  0.19975665  0.51940301  0.88505445  1
  O  O77  1  0.30357777  0.41739785  0.67975357  1
  O  O78  1  0.59554253  0.98059699  0.81964636  1
  O  O79  1  0.90284858  0.08260215  0.61382008  1
