# generated using pymatgen
data_Ca3(TiS2)4
_symmetry_space_group_name_H-M   'P 1'
_cell_length_a   7.12026454
_cell_length_b   7.55442690
_cell_length_c   13.30689626
_cell_angle_alpha   28.26886311
_cell_angle_beta   90.49025245
_cell_angle_gamma   104.21252274
_symmetry_Int_Tables_number   1
_chemical_formula_structural   Ca3(TiS2)4
_chemical_formula_sum   'Ca3 Ti4 S8'
_cell_volume   293.07642315
_cell_formula_units_Z   1
loop_
 _symmetry_equiv_pos_site_id
 _symmetry_equiv_pos_as_xyz
  1  'x, y, z'
loop_
 _atom_site_type_symbol
 _atom_site_label
 _atom_site_symmetry_multiplicity
 _atom_site_fract_x
 _atom_site_fract_y
 _atom_site_fract_z
 _atom_site_occupancy
  Ca  Ca0  1  -0.00000000  0.00000000  0.25000000  1
  Ca  Ca1  1  -0.00000000  0.00000000  0.75000000  1
  Ca  Ca2  1  0.50000000  0.00000000  0.25000000  1
  Ti  Ti3  1  0.00000000  0.05742340  0.97128830  1
  Ti  Ti4  1  1.00000000  0.94257660  0.52871170  1
  Ti  Ti5  1  0.51574142  0.01574142  0.98930418  1
  Ti  Ti6  1  0.48425858  0.98425858  0.51069582  1
  S  S7  1  0.33211943  0.32687172  0.22922017  1
  S  S8  1  0.33211943  0.33736714  0.72397246  1
  S  S9  1  0.83427438  0.33427438  0.22831351  1
  S  S10  1  0.82683266  0.32683266  0.72002839  1
  S  S11  1  0.17316734  0.67316734  0.77997161  1
  S  S12  1  0.16572562  0.66572562  0.27168649  1
  S  S13  1  0.66788057  0.66263286  0.77602754  1
  S  S14  1  0.66788057  0.67312828  0.27077983  1
