# generated using pymatgen
data_Ti2Nb2Ni2C
_symmetry_space_group_name_H-M   'P 1'
_cell_length_a   8.17212571
_cell_length_b   8.17212571
_cell_length_c   8.21773330
_cell_angle_alpha   59.81521389
_cell_angle_beta   120.18478611
_cell_angle_gamma   119.63042777
_symmetry_Int_Tables_number   1
_chemical_formula_structural   Ti2Nb2Ni2C
_chemical_formula_sum   'Ti8 Nb8 Ni8 C4'
_cell_volume   388.04305561
_cell_formula_units_Z   4
loop_
 _symmetry_equiv_pos_site_id
 _symmetry_equiv_pos_as_xyz
  1  'x, y, z'
loop_
 _atom_site_type_symbol
 _atom_site_label
 _atom_site_symmetry_multiplicity
 _atom_site_fract_x
 _atom_site_fract_y
 _atom_site_fract_z
 _atom_site_occupancy
  Ti  Ti0  1  0.49544574  0.49980050  0.99782262  1
  Ti  Ti1  1  0.50217738  0.99782262  0.00455426  1
  Ti  Ti2  1  0.50217738  0.99782262  0.49980050  1
  Ti  Ti3  1  0.00019950  0.00455426  0.99782262  1
  Ti  Ti4  1  0.05967513  0.80967513  0.44032487  1
  Ti  Ti5  1  0.69032487  0.44032487  0.80967513  1
  Ti  Ti6  1  0.05967513  0.80967513  0.80967513  1
  Ti  Ti7  1  0.69032487  0.44032487  0.44032487  1
  Nb  Nb8  1  0.05784645  0.44215355  0.80784645  1
  Nb  Nb9  1  0.69215355  0.80784645  0.44215355  1
  Nb  Nb10  1  0.94220166  0.19220166  0.55779834  1
  Nb  Nb11  1  0.30779834  0.55779834  0.19220166  1
  Nb  Nb12  1  0.94220166  0.19220166  0.19220166  1
  Nb  Nb13  1  0.30779834  0.55779834  0.55779834  1
  Nb  Nb14  1  0.94097108  0.55902892  0.19097108  1
  Nb  Nb15  1  0.30902892  0.19097108  0.55902892  1
  Ni  Ni16  1  0.29410780  0.88908540  0.20251120  1
  Ni  Ni17  1  0.29748880  0.20251120  0.20589220  1
  Ni  Ni18  1  0.29748880  0.20251120  0.88908540  1
  Ni  Ni19  1  0.61091460  0.20589220  0.20251120  1
  Ni  Ni20  1  0.70312407  0.12257153  0.79027627  1
  Ni  Ni21  1  0.70972373  0.79027627  0.79687593  1
  Ni  Ni22  1  0.70972373  0.79027627  0.12257153  1
  Ni  Ni23  1  0.37742847  0.79687593  0.79027627  1
  C  C24  1  0.00232364  0.99474265  0.50379050  1
  C  C25  1  0.99620950  0.50379050  0.49767636  1
  C  C26  1  0.99620950  0.50379050  0.99474265  1
  C  C27  1  0.50525735  0.49767636  0.50379050  1
