# generated using pymatgen
data_TmMn6GaGe5
_symmetry_space_group_name_H-M   'P 1'
_cell_length_a   5.18912994
_cell_length_b   5.18594641
_cell_length_c   8.11805695
_cell_angle_alpha   90.02185061
_cell_angle_beta   89.97101585
_cell_angle_gamma   120.01901299
_symmetry_Int_Tables_number   1
_chemical_formula_structural   TmMn6GaGe5
_chemical_formula_sum   'Tm1 Mn6 Ga1 Ge5'
_cell_volume   189.15681747
_cell_formula_units_Z   1
loop_
 _symmetry_equiv_pos_site_id
 _symmetry_equiv_pos_as_xyz
  1  'x, y, z'
loop_
 _atom_site_type_symbol
 _atom_site_label
 _atom_site_symmetry_multiplicity
 _atom_site_fract_x
 _atom_site_fract_y
 _atom_site_fract_z
 _atom_site_occupancy
  Tm  Tm0  1  0.99995320  0.00000381  0.99706850  1
  Mn  Mn1  1  0.99999325  0.49998264  0.24991589  1
  Mn  Mn2  1  0.50000639  0.99999327  0.24964704  1
  Mn  Mn3  1  0.50001399  0.50000670  0.24995226  1
  Mn  Mn4  1  0.99996710  0.49997360  0.75183182  1
  Mn  Mn5  1  0.50001580  0.00000969  0.75189996  1
  Mn  Mn6  1  0.49996549  0.49998425  0.75182667  1
  Ga  Ga7  1  0.99998148  0.00002542  0.65134438  1
  Ge  Ge8  1  0.33343374  0.66691358  0.99993712  1
  Ge  Ge9  1  0.66653510  0.33310235  0.99994085  1
  Ge  Ge10  1  0.33329592  0.66667398  0.50206524  1
  Ge  Ge11  1  0.66665453  0.33332416  0.50207633  1
  Ge  Ge12  1  0.99998401  0.00000655  0.34249394  1
