# generated using pymatgen
data_Tm6Mn(GeS7)2
_symmetry_space_group_name_H-M   'P 1'
_cell_length_a   5.74053101
_cell_length_b   9.74086376
_cell_length_c   9.73925375
_cell_angle_alpha   119.98712533
_cell_angle_beta   90.02974620
_cell_angle_gamma   90.01742505
_symmetry_Int_Tables_number   1
_chemical_formula_structural   Tm6Mn(GeS7)2
_chemical_formula_sum   'Tm6 Mn1 Ge2 S14'
_cell_volume   471.69581896
_cell_formula_units_Z   1
loop_
 _symmetry_equiv_pos_site_id
 _symmetry_equiv_pos_as_xyz
  1  'x, y, z'
loop_
 _atom_site_type_symbol
 _atom_site_label
 _atom_site_symmetry_multiplicity
 _atom_site_fract_x
 _atom_site_fract_y
 _atom_site_fract_z
 _atom_site_occupancy
  Tm  Tm0  1  0.25336409  0.22644330  0.35719778  1
  Tm  Tm1  1  0.25337568  0.64282152  0.86932048  1
  Tm  Tm2  1  0.25332987  0.13075342  0.77357669  1
  Tm  Tm3  1  0.76005177  0.77454009  0.64347585  1
  Tm  Tm4  1  0.76006798  0.35656123  0.13112768  1
  Tm  Tm5  1  0.76003208  0.86889697  0.22540574  1
  Mn  Mn6  1  0.47331326  0.00003658  0.99994994  1
  Ge  Ge7  1  0.83132818  0.33324018  0.66660339  1
  Ge  Ge8  1  0.33935782  0.66668408  0.33331123  1
  S  S9  1  0.99936293  0.09639991  0.51548811  1
  S  S10  1  0.99939259  0.48455775  0.58090791  1
  S  S11  1  0.99944322  0.41906549  0.90365962  1
  S  S12  1  0.50513702  0.90373782  0.48392775  1
  S  S13  1  0.50514109  0.51608536  0.41986364  1
  S  S14  1  0.50504016  0.58021489  0.09630052  1
  S  S15  1  0.45046896  0.33328972  0.66664732  1
  S  S16  1  0.95730810  0.66667362  0.33333038  1
  S  S17  1  0.70259053  0.15385423  0.25047038  1
  S  S18  1  0.70255493  0.74954501  0.90341805  1
  S  S19  1  0.70254305  0.09658809  0.84607917  1
  S  S20  1  0.22159154  0.84383672  0.74974732  1
  S  S21  1  0.22158083  0.25023665  0.09398191  1
  S  S22  1  0.22162431  0.90593736  0.15620916  1
