# generated using pymatgen
data_Ti5S8
_symmetry_space_group_name_H-M   'P 1'
_cell_length_a   3.41855556
_cell_length_b   5.95784299
_cell_length_c   35.36410924
_cell_angle_alpha   90.39039917
_cell_angle_beta   89.99221855
_cell_angle_gamma   89.97198126
_symmetry_Int_Tables_number   1
_chemical_formula_structural   Ti5S8
_chemical_formula_sum   'Ti15 S24'
_cell_volume   720.25168232
_cell_formula_units_Z   3
loop_
 _symmetry_equiv_pos_site_id
 _symmetry_equiv_pos_as_xyz
  1  'x, y, z'
loop_
 _atom_site_type_symbol
 _atom_site_label
 _atom_site_symmetry_multiplicity
 _atom_site_fract_x
 _atom_site_fract_y
 _atom_site_fract_z
 _atom_site_occupancy
  Ti  Ti0  1  0.00052915  0.33824723  0.66598437  1
  Ti  Ti1  1  0.50052161  0.81644142  0.66646784  1
  Ti  Ti2  1  0.50029197  0.15118037  0.16708056  1
  Ti  Ti3  1  0.00037177  0.67263851  0.16727094  1
  Ti  Ti4  1  0.00022335  0.00541975  0.50050641  1
  Ti  Ti5  1  0.50014430  0.48491535  0.50023894  1
  Ti  Ti6  1  0.00009481  0.00849143  0.99954474  1
  Ti  Ti7  1  0.50010952  0.50655611  0.00185542  1
  Ti  Ti8  1  0.00027933  0.32830142  0.75474864  1
  Ti  Ti9  1  0.00030367  0.66259277  0.07877231  1
  Ti  Ti10  1  0.00039987  0.99594747  0.41187112  1
  Ti  Ti11  1  -0.00000356  0.34188171  0.33285187  1
  Ti  Ti12  1  0.49979819  0.83996997  0.33535306  1
  Ti  Ti13  1  0.50021937  0.17405175  0.83148261  1
  Ti  Ti14  1  0.00003708  0.67580624  0.83379622  1
  S  S15  1  0.99969998  0.33769361  0.87155078  1
  S  S16  1  0.49985258  0.84117007  0.87317647  1
  S  S17  1  0.50011654  0.18191717  0.37629729  1
  S  S18  1  0.00002277  0.65964369  0.37617850  1
  S  S19  1  0.00006732  0.32673983  0.04281971  1
  S  S20  1  0.50011970  0.84841883  0.04302488  1
  S  S21  1  0.49949368  0.16632641  0.54111861  1
  S  S22  1  0.99919162  0.66567137  0.53811819  1
  S  S23  1  0.99994338  0.32486854  0.45770539  1
  S  S24  1  0.50010575  0.83041215  0.45692110  1
  S  S25  1  0.49998181  0.16973807  0.96015698  1
  S  S26  1  0.99987656  0.66658748  0.96187474  1
  S  S27  1  0.99938154  0.33221823  0.20476566  1
  S  S28  1  0.49955193  0.83317547  0.20788158  1
  S  S29  1  0.50011610  0.16467902  0.70954140  1
  S  S30  1  0.99999299  0.65919448  0.70911811  1
  S  S31  1  0.00004106  0.99186149  0.12447869  1
  S  S32  1  0.50011508  0.49699868  0.12365482  1
  S  S33  1  0.99938464  0.99431724  0.62869118  1
  S  S34  1  0.49960813  0.49609475  0.62548506  1
  S  S35  1  0.99989791  0.99963670  0.29526900  1
  S  S36  1  0.49994830  0.50292705  0.29345892  1
  S  S37  1  0.00008425  0.99285656  0.79035557  1
  S  S38  1  0.50008594  0.51441162  0.79053230  1
