# generated using pymatgen
data_Ti20(AlSi3)3
_symmetry_space_group_name_H-M   'P 1'
_cell_length_a   5.17007449
_cell_length_b   7.55182431
_cell_length_c   13.05067862
_cell_angle_alpha   89.95160750
_cell_angle_beta   89.99931160
_cell_angle_gamma   90.00138402
_symmetry_Int_Tables_number   1
_chemical_formula_structural   Ti20(AlSi3)3
_chemical_formula_sum   'Ti20 Al3 Si9'
_cell_volume   509.54391335
_cell_formula_units_Z   1
loop_
 _symmetry_equiv_pos_site_id
 _symmetry_equiv_pos_as_xyz
  1  'x, y, z'
loop_
 _atom_site_type_symbol
 _atom_site_label
 _atom_site_symmetry_multiplicity
 _atom_site_fract_x
 _atom_site_fract_y
 _atom_site_fract_z
 _atom_site_occupancy
  Ti  Ti0  1  0.49621874  0.99395711  0.33334867  1
  Ti  Ti1  1  0.49809890  0.49746303  0.82988900  1
  Ti  Ti2  1  0.49635261  0.50401050  0.16953610  1
  Ti  Ti3  1  0.49809799  0.99737553  0.66965012  1
  Ti  Ti4  1  0.00364814  0.50400310  0.16952347  1
  Ti  Ti5  1  0.00190442  0.99738491  0.66965076  1
  Ti  Ti6  1  0.00378489  0.99394815  0.33334564  1
  Ti  Ti7  1  0.00190527  0.49746141  0.82989880  1
  Ti  Ti8  1  0.75001176  0.74385150  0.50046125  1
  Ti  Ti9  1  0.75000339  0.24321234  0.99658181  1
  Ti  Ti10  1  0.75000266  0.38411271  0.37827936  1
  Ti  Ti11  1  0.75000740  0.87956074  0.87284929  1
  Ti  Ti12  1  0.75001433  0.87562905  0.12502197  1
  Ti  Ti13  1  0.75000213  0.38017247  0.62587487  1
  Ti  Ti14  1  0.24997740  0.25522600  0.50011603  1
  Ti  Ti15  1  0.24998298  0.75507154  0.99972788  1
  Ti  Ti16  1  0.24998291  0.12278859  0.12194956  1
  Ti  Ti17  1  0.25000920  0.62468633  0.62558422  1
  Ti  Ti18  1  0.24999449  0.62528705  0.37488278  1
  Ti  Ti19  1  0.24999297  0.12544776  0.87418426  1
  Al  Al20  1  0.74998373  0.60568172  0.99900496  1
  Al  Al21  1  0.75001639  0.10772836  0.50051603  1
  Al  Al22  1  0.75001142  0.19852500  0.19777199  1
  Si  Si23  1  0.74999559  0.69686580  0.69587859  1
  Si  Si24  1  0.75002711  0.69698855  0.30454951  1
  Si  Si25  1  0.75000707  0.19645358  0.80249219  1
  Si  Si26  1  0.25000554  0.39331907  0.00015319  1
  Si  Si27  1  0.24997621  0.89309064  0.50142160  1
  Si  Si28  1  0.24999062  0.30038990  0.30349672  1
  Si  Si29  1  0.25000591  0.80253769  0.80534978  1
  Si  Si30  1  0.24997930  0.80590440  0.19432265  1
  Si  Si31  1  0.25000852  0.30186549  0.69468697  1
