# generated using pymatgen
data_TbNdCo4
_symmetry_space_group_name_H-M   'P 1'
_cell_length_a   5.13835963
_cell_length_b   5.13835987
_cell_length_c   5.13738602
_cell_angle_alpha   59.99372925
_cell_angle_beta   120.00627311
_cell_angle_gamma   120.00000146
_symmetry_Int_Tables_number   1
_chemical_formula_structural   TbNdCo4
_chemical_formula_sum   'Tb1 Nd1 Co4'
_cell_volume   95.90362738
_cell_formula_units_Z   1
loop_
 _symmetry_equiv_pos_site_id
 _symmetry_equiv_pos_as_xyz
  1  'x, y, z'
loop_
 _atom_site_type_symbol
 _atom_site_label
 _atom_site_symmetry_multiplicity
 _atom_site_fract_x
 _atom_site_fract_y
 _atom_site_fract_z
 _atom_site_occupancy
  Tb  Tb0  1  0.12500982  0.87499018  0.37502945  1
  Nd  Nd1  1  0.87496978  0.12503022  0.62490934  1
  Co  Co2  1  0.00148480  0.50050925  0.00046630  1
  Co  Co3  1  0.49949075  0.99851520  0.00046630  1
  Co  Co4  1  0.49949075  0.50050925  0.00046630  1
  Co  Co5  1  0.49955411  0.50044589  0.49866232  1
