# generated using pymatgen
data_LiCu5(PO4)2
_symmetry_space_group_name_H-M   'P 1'
_cell_length_a   6.25675057
_cell_length_b   5.52328821
_cell_length_c   10.47696245
_cell_angle_alpha   89.96917738
_cell_angle_beta   90.06286431
_cell_angle_gamma   89.99000896
_symmetry_Int_Tables_number   1
_chemical_formula_structural   LiCu5(PO4)2
_chemical_formula_sum   'Li2 Cu10 P4 O16'
_cell_volume   362.06088132
_cell_formula_units_Z   2
loop_
 _symmetry_equiv_pos_site_id
 _symmetry_equiv_pos_as_xyz
  1  'x, y, z'
loop_
 _atom_site_type_symbol
 _atom_site_label
 _atom_site_symmetry_multiplicity
 _atom_site_fract_x
 _atom_site_fract_y
 _atom_site_fract_z
 _atom_site_occupancy
  Li  Li0  1  0.24917728  0.32546821  0.49609167  1
  Li  Li1  1  0.74935592  0.67512162  0.24827705  1
  Cu  Cu2  1  0.00445649  0.20171194  0.75007112  1
  Cu  Cu3  1  0.99663034  0.19678525  0.24479286  1
  Cu  Cu4  1  0.24493869  0.34233830  0.00039476  1
  Cu  Cu5  1  0.25823032  0.66983919  0.24871488  1
  Cu  Cu6  1  0.25133107  0.65049427  0.75197424  1
  Cu  Cu7  1  0.49512067  0.80404039  0.99884674  1
  Cu  Cu8  1  0.50510082  0.79847910  0.49543681  1
  Cu  Cu9  1  0.74326847  0.65668743  0.74719391  1
  Cu  Cu10  1  0.75547030  0.34505334  0.49659751  1
  Cu  Cu11  1  0.75640897  0.33505972  0.00335175  1
  P  P12  1  0.99406842  0.82837120  0.00306601  1
  P  P13  1  0.00462194  0.82935463  0.49710110  1
  P  P14  1  0.50274002  0.17261086  0.25436043  1
  P  P15  1  0.49661695  0.16958441  0.74594177  1
  O  O16  1  0.99559878  0.82350140  0.64515375  1
  O  O17  1  0.01570875  0.09493410  0.44859976  1
  O  O18  1  0.99251646  0.81937760  0.15086476  1
  O  O19  1  0.99391341  0.08960399  0.94946633  1
  O  O20  1  0.20546768  0.67962246  0.45016865  1
  O  O21  1  0.19912597  0.69834516  0.94928304  1
  O  O22  1  0.29560374  0.30104837  0.19963068  1
  O  O23  1  0.29780805  0.30363665  0.68613326  1
  O  O24  1  0.49271170  0.17546774  0.89377748  1
  O  O25  1  0.49674239  0.90639515  0.69476917  1
  O  O26  1  0.49462198  0.18178445  0.40204398  1
  O  O27  1  0.51456745  0.90815441  0.20387311  1
  O  O28  1  0.70437826  0.30065375  0.69550675  1
  O  O29  1  0.70115524  0.32190188  0.20449108  1
  O  O30  1  0.80179942  0.70131275  0.43646769  1
  O  O31  1  0.79074205  0.69325830  0.95015086  1
