# generated using pymatgen
data_TmMn6InSn5
_symmetry_space_group_name_H-M   'P 1'
_cell_length_a   5.41308931
_cell_length_b   5.41180873
_cell_length_c   9.02801865
_cell_angle_alpha   90.00000000
_cell_angle_beta   90.00000000
_cell_angle_gamma   120.00015142
_symmetry_Int_Tables_number   1
_chemical_formula_structural   TmMn6InSn5
_chemical_formula_sum   'Tm1 Mn6 In1 Sn5'
_cell_volume   229.03932164
_cell_formula_units_Z   1
loop_
 _symmetry_equiv_pos_site_id
 _symmetry_equiv_pos_as_xyz
  1  'x, y, z'
loop_
 _atom_site_type_symbol
 _atom_site_label
 _atom_site_symmetry_multiplicity
 _atom_site_fract_x
 _atom_site_fract_y
 _atom_site_fract_z
 _atom_site_occupancy
  Tm  Tm0  1  0.99978879  0.99997947  0.00000000  1
  Mn  Mn1  1  0.49972887  0.99932310  0.24592346  1
  Mn  Mn2  1  0.49969844  0.50030253  0.24580302  1
  Mn  Mn3  1  0.00061385  0.50033719  0.24587202  1
  Mn  Mn4  1  0.49972887  0.99932310  0.75407654  1
  Mn  Mn5  1  0.49969844  0.50030253  0.75419698  1
  Mn  Mn6  1  0.00061385  0.50033719  0.75412798  1
  In  In7  1  0.66663291  0.33327491  0.50000000  1
  Sn  Sn8  1  0.33327231  0.66687332  -0.00000000  1
  Sn  Sn9  1  0.66660769  0.33324754  0.00000000  1
  Sn  Sn10  1  0.00009125  0.00002175  0.33308881  1
  Sn  Sn11  1  0.00009125  0.00002175  0.66691119  1
  Sn  Sn12  1  0.33323350  0.66665562  0.50000000  1
