# generated using pymatgen
data_Ti5S8
_symmetry_space_group_name_H-M   'P 1'
_cell_length_a   3.41379032
_cell_length_b   11.88936702
_cell_length_c   5.94335016
_cell_angle_alpha   81.52748443
_cell_angle_beta   89.99999791
_cell_angle_gamma   90.00000190
_symmetry_Int_Tables_number   1
_chemical_formula_structural   Ti5S8
_chemical_formula_sum   'Ti5 S8'
_cell_volume   238.59494356
_cell_formula_units_Z   1
loop_
 _symmetry_equiv_pos_site_id
 _symmetry_equiv_pos_as_xyz
  1  'x, y, z'
loop_
 _atom_site_type_symbol
 _atom_site_label
 _atom_site_symmetry_multiplicity
 _atom_site_fract_x
 _atom_site_fract_y
 _atom_site_fract_z
 _atom_site_occupancy
  Ti  Ti0  1  1.00000000  0.00078058  0.98751197  1
  Ti  Ti1  1  0.50000000  0.00075143  0.50717423  1
  Ti  Ti2  1  1.00000000  0.50410826  0.50329604  1
  Ti  Ti3  1  0.50000000  0.49701130  0.00790807  1
  Ti  Ti4  1  0.50000000  0.73546686  0.58539065  1
  S  S5  1  0.50000000  0.38425768  0.70051287  1
  S  S6  1  1.00000000  0.37873370  0.20538988  1
  S  S7  1  0.50000000  0.62668111  0.28522677  1
  S  S8  1  0.00000000  0.62813366  0.80616995  1
  S  S9  1  1.00000000  0.86958708  0.37184006  1
  S  S10  1  0.50000000  0.87301507  0.86752548  1
  S  S11  1  0.00000000  0.12216330  0.62919027  1
  S  S12  1  0.50000000  0.11356996  0.13144377  1
