# generated using pymatgen
data_Tl2V9CrS16
_symmetry_space_group_name_H-M   'P 1'
_cell_length_a   3.26023291
_cell_length_b   8.55027904
_cell_length_c   17.45673508
_cell_angle_alpha   104.62320741
_cell_angle_beta   90.00000000
_cell_angle_gamma   90.00000000
_symmetry_Int_Tables_number   1
_chemical_formula_structural   Tl2V9CrS16
_chemical_formula_sum   'Tl2 V9 Cr1 S16'
_cell_volume   470.85906322
_cell_formula_units_Z   1
loop_
 _symmetry_equiv_pos_site_id
 _symmetry_equiv_pos_as_xyz
  1  'x, y, z'
loop_
 _atom_site_type_symbol
 _atom_site_label
 _atom_site_symmetry_multiplicity
 _atom_site_fract_x
 _atom_site_fract_y
 _atom_site_fract_z
 _atom_site_occupancy
  Tl  Tl0  1  0.50000000  0.00000000  0.00000000  1
  Tl  Tl1  1  0.00000000  0.00000000  0.50000000  1
  V  V2  1  0.50000000  0.85981225  0.21130986  1
  V  V3  1  0.00000000  0.86028176  0.71139586  1
  V  V4  1  0.00000000  0.13971824  0.28860414  1
  V  V5  1  0.50000000  0.14018775  0.78869014  1
  V  V6  1  0.50000000  0.49511718  0.14792475  1
  V  V7  1  0.00000000  0.49599287  0.64650118  1
  V  V8  1  0.00000000  0.50400713  0.35349882  1
  V  V9  1  0.50000000  0.50488282  0.85207525  1
  V  V10  1  0.00000000  0.50000000  0.00000000  1
  Cr  Cr11  1  0.50000000  0.50000000  0.50000000  1
  S  S12  1  0.50000000  0.67969700  0.41616687  1
  S  S13  1  0.00000000  0.68163379  0.91491949  1
  S  S14  1  0.00000000  0.31836621  0.08508051  1
  S  S15  1  0.50000000  0.32030300  0.58383313  1
  S  S16  1  0.50000000  0.34012809  0.25989720  1
  S  S17  1  0.00000000  0.33985039  0.75901243  1
  S  S18  1  -0.00000000  0.66014961  0.24098757  1
  S  S19  1  0.50000000  0.65987191  0.74010280  1
  S  S20  1  0.50000000  0.00101017  0.34048118  1
  S  S21  1  0.00000000  0.99977053  0.84002261  1
  S  S22  1  0.00000000  0.00022947  0.15997739  1
  S  S23  1  0.50000000  0.99898983  0.65951882  1
  S  S24  1  0.50000000  0.67860709  0.07438811  1
  S  S25  1  0.00000000  0.67536095  0.57222852  1
  S  S26  1  0.00000000  0.32463905  0.42777148  1
  S  S27  1  0.50000000  0.32139291  0.92561189  1
