# generated using pymatgen
data_Ta2Al3V4C3
_symmetry_space_group_name_H-M   'P 1'
_cell_length_a   2.99378402
_cell_length_b   2.99431218
_cell_length_c   40.19541106
_cell_angle_alpha   90.00000000
_cell_angle_beta   89.99958325
_cell_angle_gamma   59.99416394
_symmetry_Int_Tables_number   1
_chemical_formula_structural   Ta2Al3V4C3
_chemical_formula_sum   'Ta4 Al6 V8 C6'
_cell_volume   312.03197921
_cell_formula_units_Z   2
loop_
 _symmetry_equiv_pos_site_id
 _symmetry_equiv_pos_as_xyz
  1  'x, y, z'
loop_
 _atom_site_type_symbol
 _atom_site_label
 _atom_site_symmetry_multiplicity
 _atom_site_fract_x
 _atom_site_fract_y
 _atom_site_fract_z
 _atom_site_occupancy
  Ta  Ta0  1  0.33290212  0.33354894  0.19894940  1
  Ta  Ta1  1  0.33325710  0.33337145  0.52928078  1
  Ta  Ta2  1  0.33327650  0.33336175  0.86242113  1
  Ta  Ta3  1  0.66708021  0.66645989  0.13456817  1
  Al  Al4  1  0.33354403  0.33322798  0.07849430  1
  Al  Al5  1  0.33349167  0.33325416  0.41569528  1
  Al  Al6  1  0.33348847  0.33325577  0.74867425  1
  Al  Al7  1  0.66645432  0.66677284  0.25515188  1
  Al  Al8  1  0.66648182  0.66675909  0.58693214  1
  Al  Al9  1  0.66648108  0.66675946  0.91976893  1
  V  V10  1  0.66673602  0.66663199  0.46970923  1
  V  V11  1  0.66672610  0.66663695  0.80289085  1
  V  V12  1  0.66675282  0.66662359  0.02632530  1
  V  V13  1  0.66674199  0.66662901  0.36179009  1
  V  V14  1  0.66673703  0.66663149  0.69455783  1
  V  V15  1  0.33324430  0.33337785  0.30749841  1
  V  V16  1  0.33324900  0.33337550  0.64030091  1
  V  V17  1  0.33328099  0.33335950  0.97261100  1
  C  C18  1  0.99999880  0.00000060  0.16676346  1
  C  C19  1  0.00003535  0.99998233  0.49643178  1
  C  C20  1  0.00003794  0.99998103  0.82965289  1
  C  C21  1  0.00001919  0.99999041  0.99950938  1
  C  C22  1  0.99999118  0.00000441  0.33459970  1
  C  C23  1  0.99999197  0.00000401  0.66742295  1
