# generated using pymatgen
data_SrNd(CoO3)2
_symmetry_space_group_name_H-M   'P 1'
_cell_length_a   5.42949084
_cell_length_b   5.43257813
_cell_length_c   5.43257813
_cell_angle_alpha   90.58900849
_cell_angle_beta   119.98119522
_cell_angle_gamma   60.01880478
_symmetry_Int_Tables_number   1
_chemical_formula_structural   SrNd(CoO3)2
_chemical_formula_sum   'Sr1 Nd1 Co2 O6'
_cell_volume   113.93921755
_cell_formula_units_Z   1
loop_
 _symmetry_equiv_pos_site_id
 _symmetry_equiv_pos_as_xyz
  1  'x, y, z'
loop_
 _atom_site_type_symbol
 _atom_site_label
 _atom_site_symmetry_multiplicity
 _atom_site_fract_x
 _atom_site_fract_y
 _atom_site_fract_z
 _atom_site_occupancy
  Sr  Sr0  1  0.99919232  0.25080768  0.24919232  1
  Nd  Nd1  1  0.00934151  0.74065849  0.75934151  1
  Co  Co2  1  0.50116134  0.99939973  0.00172241  1
  Co  Co3  1  0.50116134  0.49827759  0.50060027  1
  O  O4  1  0.45216177  0.79783823  0.70216177  1
  O  O5  1  0.56929328  0.18070672  0.31929328  1
  O  O6  1  0.48373323  0.28952949  0.77337372  1
  O  O7  1  0.00011100  0.72662628  0.21047051  1
  O  O8  1  0.00011100  0.28952949  0.77337372  1
  O  O9  1  0.48373323  0.72662628  0.21047051  1
