# generated using pymatgen
data_U3(Mo5O16)4
_symmetry_space_group_name_H-M   'P 1'
_cell_length_a   8.19164831
_cell_length_b   15.38866872
_cell_length_c   10.89832385
_cell_angle_alpha   95.77038703
_cell_angle_beta   112.07509414
_cell_angle_gamma   74.48288664
_symmetry_Int_Tables_number   1
_chemical_formula_structural   U3(Mo5O16)4
_chemical_formula_sum   'U3 Mo20 O64'
_cell_volume   1226.71036012
_cell_formula_units_Z   1
loop_
 _symmetry_equiv_pos_site_id
 _symmetry_equiv_pos_as_xyz
  1  'x, y, z'
loop_
 _atom_site_type_symbol
 _atom_site_label
 _atom_site_symmetry_multiplicity
 _atom_site_fract_x
 _atom_site_fract_y
 _atom_site_fract_z
 _atom_site_occupancy
  U  U0  1  0.75000000  0.50000000  0.00000000  1
  U  U1  1  0.00102016  0.99825290  0.00000000  1
  U  U2  1  0.49897984  0.00174710  0.00000000  1
  Mo  Mo3  1  0.89582079  0.62576053  0.31967040  1
  Mo  Mo4  1  0.38965043  0.62293365  0.30922426  1
  Mo  Mo5  1  0.41957383  0.37706635  0.30922426  1
  Mo  Mo6  1  0.92384961  0.37423947  0.31967040  1
  Mo  Mo7  1  0.76415123  0.87816274  0.31043954  1
  Mo  Mo8  1  0.27459153  0.87500537  0.32300883  1
  Mo  Mo9  1  0.54841730  0.12499463  0.32300883  1
  Mo  Mo10  1  0.04628830  0.12183726  0.31043954  1
  Mo  Mo11  1  0.60417921  0.37423947  0.68032960  1
  Mo  Mo12  1  0.11034957  0.37706635  0.69077574  1
  Mo  Mo13  1  0.08042617  0.62293365  0.69077574  1
  Mo  Mo14  1  0.57615039  0.62576053  0.68032960  1
  Mo  Mo15  1  0.73584877  0.12183726  0.68956046  1
  Mo  Mo16  1  0.22540847  0.12499463  0.67699117  1
  Mo  Mo17  1  0.95158270  0.87500537  0.67699117  1
  Mo  Mo18  1  0.45371170  0.87816274  0.68956046  1
  Mo  Mo19  1  0.67829102  0.74846486  0.00000000  1
  Mo  Mo20  1  0.17788654  0.75398551  0.00000000  1
  Mo  Mo21  1  0.32211346  0.24601449  0.00000000  1
  Mo  Mo22  1  0.82170898  0.25153514  0.00000000  1
  O  O23  1  0.96346739  0.59903282  0.49993374  1
  O  O24  1  0.46353365  0.59903282  0.50006626  1
  O  O25  1  0.53653261  0.40096718  0.50006626  1
  O  O26  1  0.03646635  0.40096718  0.49993374  1
  O  O27  1  0.81052331  0.90930893  0.50563546  1
  O  O28  1  0.30488785  0.90930893  0.49436454  1
  O  O29  1  0.68947669  0.09069107  0.49436454  1
  O  O30  1  0.19511215  0.09069107  0.50563546  1
  O  O31  1  0.25222438  0.66004062  0.13673896  1
  O  O32  1  0.75417147  0.64488686  0.12543248  1
  O  O33  1  0.87126101  0.35511314  0.12543248  1
  O  O34  1  0.38451457  0.33995938  0.13673896  1
  O  O35  1  0.14544888  0.85729290  0.12240849  1
  O  O36  1  0.64357277  0.85784662  0.11916424  1
  O  O37  1  0.97559147  0.14215338  0.11916424  1
  O  O38  1  0.47695961  0.14270710  0.12240849  1
  O  O39  1  0.24777562  0.33995938  0.86326104  1
  O  O40  1  0.74582853  0.35511314  0.87456752  1
  O  O41  1  0.62873899  0.64488686  0.87456752  1
  O  O42  1  0.11548543  0.66004062  0.86326104  1
  O  O43  1  0.35455112  0.14270710  0.87759151  1
  O  O44  1  0.85642723  0.14215338  0.88083576  1
  O  O45  1  0.52440853  0.85784662  0.88083576  1
  O  O46  1  0.02304039  0.85729290  0.87759151  1
  O  O47  1  0.10836329  0.62519560  0.31725429  1
  O  O48  1  0.60536457  0.62250719  0.31514456  1
  O  O49  1  0.20977999  0.37749281  0.31514456  1
  O  O50  1  0.70889100  0.37480440  0.31725429  1
  O  O51  1  0.97970416  0.87814144  0.31612180  1
  O  O52  1  0.48463970  0.87645504  0.31584991  1
  O  O53  1  0.33121021  0.12354496  0.31584991  1
  O  O54  1  0.83641764  0.12185856  0.31612180  1
  O  O55  1  0.39163671  0.37480440  0.68274571  1
  O  O56  1  0.89463543  0.37749281  0.68485544  1
  O  O57  1  0.29022001  0.62250719  0.68485544  1
  O  O58  1  0.79110900  0.62519560  0.68274571  1
  O  O59  1  0.52029584  0.12185856  0.68387820  1
  O  O60  1  0.01536030  0.12354496  0.68415009  1
  O  O61  1  0.16878979  0.87645504  0.68415009  1
  O  O62  1  0.66358236  0.87814144  0.68387820  1
  O  O63  1  0.89069802  0.75076266  0.00000000  1
  O  O64  1  0.39289426  0.75149710  0.00000000  1
  O  O65  1  0.10710574  0.24850290  0.00000000  1
  O  O66  1  0.60930198  0.24923734  0.00000000  1
  O  O67  1  0.81084366  0.74816189  0.34595628  1
  O  O68  1  0.31627174  0.75353091  0.35358562  1
  O  O69  1  0.03511263  0.25183811  0.34595628  1
  O  O70  1  0.53731388  0.24646909  0.35358562  1
  O  O71  1  0.18372826  0.24646909  0.64641438  1
  O  O72  1  0.68915634  0.25183811  0.65404372  1
  O  O73  1  0.96268612  0.75353091  0.64641438  1
  O  O74  1  0.46488737  0.74816189  0.65404372  1
  O  O75  1  0.52888135  0.50376283  0.00000000  1
  O  O76  1  0.97111865  0.49623717  0.00000000  1
  O  O77  1  0.25000000  -0.00000000  0.00000000  1
  O  O78  1  0.75000000  -0.00000000  0.00000000  1
  O  O79  1  0.88047855  0.50000000  0.26095709  1
  O  O80  1  0.38701919  0.50000000  0.27403838  1
  O  O81  1  0.61694416  0.00270621  0.24183979  1
  O  O82  1  0.12489563  0.99729379  0.24183979  1
  O  O83  1  0.11298081  0.50000000  0.72596162  1
  O  O84  1  0.61952145  0.50000000  0.73904291  1
  O  O85  1  0.88305584  0.99729379  0.75816021  1
  O  O86  1  0.37510437  0.00270621  0.75816021  1
