# generated using pymatgen
data_Ti2NbNi9
_symmetry_space_group_name_H-M   'P 1'
_cell_length_a   5.11833332
_cell_length_b   5.11833332
_cell_length_c   25.29324938
_cell_angle_alpha   90.00000000
_cell_angle_beta   90.00000000
_cell_angle_gamma   119.99939295
_symmetry_Int_Tables_number   1
_chemical_formula_structural   Ti2NbNi9
_chemical_formula_sum   'Ti8 Nb4 Ni36'
_cell_volume   573.84558351
_cell_formula_units_Z   4
loop_
 _symmetry_equiv_pos_site_id
 _symmetry_equiv_pos_as_xyz
  1  'x, y, z'
loop_
 _atom_site_type_symbol
 _atom_site_label
 _atom_site_symmetry_multiplicity
 _atom_site_fract_x
 _atom_site_fract_y
 _atom_site_fract_z
 _atom_site_occupancy
  Ti  Ti0  1  0.33333021  0.66666979  0.41691298  1
  Ti  Ti1  1  0.33333021  0.66666979  0.74975402  1
  Ti  Ti2  1  0.00001471  0.99998529  0.16691136  1
  Ti  Ti3  1  -0.00000438  0.00000438  0.49958289  1
  Ti  Ti4  1  0.00000883  0.99999117  0.83270308  1
  Ti  Ti5  1  0.00001471  0.99998529  0.99975564  1
  Ti  Ti6  1  0.00000883  0.99999117  0.33396292  1
  Ti  Ti7  1  -0.00000438  0.00000438  0.66708411  1
  Nb  Nb8  1  0.66665500  0.33334500  0.25151038  1
  Nb  Nb9  1  0.66666208  0.33333792  0.58333300  1
  Nb  Nb10  1  0.66665500  0.33334500  0.91515662  1
  Nb  Nb11  1  0.33333340  0.66666660  0.08333300  1
  Ni  Ni12  1  0.17081320  0.82918680  0.24999558  1
  Ni  Ni13  1  0.17104129  0.82895871  0.58333300  1
  Ni  Ni14  1  0.17081320  0.82918680  0.91667142  1
  Ni  Ni15  1  0.65840423  0.82918655  0.24999410  1
  Ni  Ni16  1  0.65793865  0.82896010  0.58333300  1
  Ni  Ni17  1  0.65840423  0.82918655  0.91667290  1
  Ni  Ni18  1  0.17081345  0.34159577  0.24999410  1
  Ni  Ni19  1  0.17103990  0.34206135  0.58333300  1
  Ni  Ni20  1  0.17081345  0.34159577  0.91667290  1
  Ni  Ni21  1  0.82936194  0.17063806  0.08333300  1
  Ni  Ni22  1  0.82886397  0.17113603  0.41671061  1
  Ni  Ni23  1  0.82886397  0.17113603  0.74995639  1
  Ni  Ni24  1  0.34128058  0.17066041  0.08333300  1
  Ni  Ni25  1  0.34227141  0.17114791  0.41670862  1
  Ni  Ni26  1  0.34227141  0.17114791  0.74995838  1
  Ni  Ni27  1  0.82933959  0.65871942  0.08333300  1
  Ni  Ni28  1  0.82885209  0.65772859  0.41670862  1
  Ni  Ni29  1  0.82885209  0.65772859  0.74995838  1
  Ni  Ni30  1  0.50022700  0.00045707  0.16672501  1
  Ni  Ni31  1  0.49927401  0.99854408  0.49927298  1
  Ni  Ni32  1  0.49908058  0.99814618  0.83249425  1
  Ni  Ni33  1  0.50021576  0.49978424  0.16672652  1
  Ni  Ni34  1  0.49926735  0.50073265  0.49927102  1
  Ni  Ni35  1  0.49906119  0.50093881  0.83249641  1
  Ni  Ni36  1  0.99954293  0.49977300  0.16672501  1
  Ni  Ni37  1  0.00145592  0.50072599  0.49927298  1
  Ni  Ni38  1  0.00185382  0.50091942  0.83249425  1
  Ni  Ni39  1  0.50022700  0.00045707  0.99994199  1
  Ni  Ni40  1  0.49908058  0.99814618  0.33417175  1
  Ni  Ni41  1  0.49927401  0.99854408  0.66739402  1
  Ni  Ni42  1  0.50021576  0.49978424  0.99994048  1
  Ni  Ni43  1  0.49906119  0.50093881  0.33416959  1
  Ni  Ni44  1  0.49926735  0.50073265  0.66739598  1
  Ni  Ni45  1  0.00185382  0.50091942  0.33417175  1
  Ni  Ni46  1  0.00145592  0.50072599  0.66739402  1
  Ni  Ni47  1  0.99954293  0.49977300  0.99994199  1
