# generated using pymatgen
data_Fe5O3F7
_symmetry_space_group_name_H-M   'P 1'
_cell_length_a   4.80415902
_cell_length_b   4.80415902
_cell_length_c   15.61296564
_cell_angle_alpha   89.82833506
_cell_angle_beta   90.17166494
_cell_angle_gamma   90.72008374
_symmetry_Int_Tables_number   1
_chemical_formula_structural   Fe5O3F7
_chemical_formula_sum   'Fe10 O6 F14'
_cell_volume   360.31471774
_cell_formula_units_Z   2
loop_
 _symmetry_equiv_pos_site_id
 _symmetry_equiv_pos_as_xyz
  1  'x, y, z'
loop_
 _atom_site_type_symbol
 _atom_site_label
 _atom_site_symmetry_multiplicity
 _atom_site_fract_x
 _atom_site_fract_y
 _atom_site_fract_z
 _atom_site_occupancy
  Fe  Fe0  1  0.95837292  0.97718513  0.00833023  1
  Fe  Fe1  1  0.00643475  0.00643475  0.20000000  1
  Fe  Fe2  1  0.97718513  0.95837292  0.39166977  1
  Fe  Fe3  1  0.02600662  0.02581723  0.59823815  1
  Fe  Fe4  1  0.02581723  0.02600662  0.80176185  1
  Fe  Fe5  1  0.54097817  0.47620673  0.09634893  1
  Fe  Fe6  1  0.50586363  0.49656937  0.50007071  1
  Fe  Fe7  1  0.47620673  0.54097817  0.30365107  1
  Fe  Fe8  1  0.47483308  0.47483308  0.70000000  1
  Fe  Fe9  1  0.49656937  0.50586363  0.89992929  1
  O  O10  1  0.18103899  0.81206787  0.30094587  1
  O  O11  1  0.32315537  0.32144029  0.59757064  1
  O  O12  1  0.32144029  0.32315537  0.80242936  1
  O  O13  1  0.68603413  0.68168687  0.99381266  1
  O  O14  1  0.68168687  0.68603413  0.40618734  1
  O  O15  1  0.81206787  0.18103899  0.09905413  1
  F  F16  1  0.20185582  0.79193778  0.09728359  1
  F  F17  1  0.19717518  0.79739963  0.49505860  1
  F  F18  1  0.21567158  0.80182053  0.70015999  1
  F  F19  1  0.19424156  0.80042495  0.90666387  1
  F  F20  1  0.29586691  0.28763820  0.99479716  1
  F  F21  1  0.32048246  0.32048246  0.20000000  1
  F  F22  1  0.28763820  0.29586691  0.40520284  1
  F  F23  1  0.68974412  0.68974412  0.20000000  1
  F  F24  1  0.70716522  0.70488490  0.60147553  1
  F  F25  1  0.70488490  0.70716522  0.79852447  1
  F  F26  1  0.80042495  0.19424156  0.49333613  1
  F  F27  1  0.79193778  0.20185582  0.30271641  1
  F  F28  1  0.79739963  0.19717518  0.90494140  1
  F  F29  1  0.80182053  0.21567158  0.69984001  1
