# generated using pymatgen
data_Ta5Nb5Si6
_symmetry_space_group_name_H-M   'P 1'
_cell_length_a   5.10205899
_cell_length_b   7.55555288
_cell_length_c   7.56537165
_cell_angle_alpha   96.48498995
_cell_angle_beta   109.70626321
_cell_angle_gamma   70.26706543
_symmetry_Int_Tables_number   1
_chemical_formula_structural   Ta5Nb5Si6
_chemical_formula_sum   'Ta5 Nb5 Si6'
_cell_volume   258.43347823
_cell_formula_units_Z   1
loop_
 _symmetry_equiv_pos_site_id
 _symmetry_equiv_pos_as_xyz
  1  'x, y, z'
loop_
 _atom_site_type_symbol
 _atom_site_label
 _atom_site_symmetry_multiplicity
 _atom_site_fract_x
 _atom_site_fract_y
 _atom_site_fract_z
 _atom_site_occupancy
  Ta  Ta0  1  0.28000798  0.29542891  0.85544486  1
  Ta  Ta1  1  0.78005636  0.14450731  0.70462003  1
  Ta  Ta2  1  0.22009051  0.85541402  0.29559504  1
  Ta  Ta3  1  0.25039946  0.49975407  0.50035041  1
  Ta  Ta4  1  0.75019688  0.49975407  0.50035041  1
  Nb  Nb5  1  0.42357109  0.85703002  0.70417220  1
  Nb  Nb6  1  0.57604022  0.14363345  0.29571389  1
  Nb  Nb7  1  0.92429958  0.29499196  0.14359112  1
  Nb  Nb8  1  0.07577948  0.70473770  0.85629666  1
  Nb  Nb9  1  0.71978066  0.70468102  0.14424234  1
  Si  Si10  1  0.24973268  0.00008669  0.99987281  1
  Si  Si11  1  0.75005344  0.00008669  0.99987281  1
  Si  Si12  1  0.33531443  0.50001533  0.17064419  1
  Si  Si13  1  0.66457147  0.49972148  0.82886442  1
  Si  Si14  1  0.83523476  0.82963142  0.50010093  1
  Si  Si15  1  0.16487100  0.17052585  0.50026786  1
