# generated using pymatgen
data_SrCaV2O6
_symmetry_space_group_name_H-M   'P 1'
_cell_length_a   5.48104362
_cell_length_b   5.43156552
_cell_length_c   7.87495941
_cell_angle_alpha   90.00000000
_cell_angle_beta   90.00000000
_cell_angle_gamma   90.00000000
_symmetry_Int_Tables_number   1
_chemical_formula_structural   SrCaV2O6
_chemical_formula_sum   'Sr2 Ca2 V4 O12'
_cell_volume   234.44264099
_cell_formula_units_Z   2
loop_
 _symmetry_equiv_pos_site_id
 _symmetry_equiv_pos_as_xyz
  1  'x, y, z'
loop_
 _atom_site_type_symbol
 _atom_site_label
 _atom_site_symmetry_multiplicity
 _atom_site_fract_x
 _atom_site_fract_y
 _atom_site_fract_z
 _atom_site_occupancy
  Sr  Sr0  1  0.49759967  0.00601483  0.25000000  1
  Sr  Sr1  1  0.00240033  0.50601483  0.25000000  1
  Ca  Ca2  1  0.49318988  0.99238155  0.75000000  1
  Ca  Ca3  1  0.00681012  0.49238155  0.75000000  1
  V  V4  1  0.49961161  0.50020073  0.99564547  1
  V  V5  1  0.00038839  0.00020073  0.50435453  1
  V  V6  1  0.49961161  0.50020073  0.50435453  1
  V  V7  1  0.00038839  0.00020073  0.99564547  1
  O  O8  1  0.96152496  0.99403333  0.25000000  1
  O  O9  1  0.53847504  0.49403333  0.25000000  1
  O  O10  1  0.05607622  0.00825650  0.75000000  1
  O  O11  1  0.44392378  0.50825650  0.75000000  1
  O  O12  1  0.27827356  0.76491809  0.01444644  1
  O  O13  1  0.22172644  0.26491809  0.48555356  1
  O  O14  1  0.72077257  0.23453808  0.52753254  1
  O  O15  1  0.77922743  0.73453808  0.97246746  1
  O  O16  1  0.72077257  0.23453808  0.97246746  1
  O  O17  1  0.77922743  0.73453808  0.52753254  1
  O  O18  1  0.27827356  0.76491809  0.48555356  1
  O  O19  1  0.22172644  0.26491809  0.01444644  1
