# generated using pymatgen
data_Sr6MgMo3O14
_symmetry_space_group_name_H-M   'P 1'
_cell_length_a   5.70406941
_cell_length_b   5.69521389
_cell_length_c   10.82998986
_cell_angle_alpha   90.00000000
_cell_angle_beta   74.73130191
_cell_angle_gamma   90.00000000
_symmetry_Int_Tables_number   1
_chemical_formula_structural   Sr6MgMo3O14
_chemical_formula_sum   'Sr6 Mg1 Mo3 O14'
_cell_volume   339.40310778
_cell_formula_units_Z   1
loop_
 _symmetry_equiv_pos_site_id
 _symmetry_equiv_pos_as_xyz
  1  'x, y, z'
loop_
 _atom_site_type_symbol
 _atom_site_label
 _atom_site_symmetry_multiplicity
 _atom_site_fract_x
 _atom_site_fract_y
 _atom_site_fract_z
 _atom_site_occupancy
  Sr  Sr0  1  0.50286458  0.00000000  0.99427083  1
  Sr  Sr1  1  0.00281618  0.50000000  0.99436764  1
  Sr  Sr2  1  0.31392513  -0.00000000  0.37214974  1
  Sr  Sr3  1  0.81051230  0.50000000  0.37897540  1
  Sr  Sr4  1  0.18547034  0.50000000  0.62905931  1
  Sr  Sr5  1  0.68476260  -0.00000000  0.63047481  1
  Mg  Mg6  1  0.59988745  0.50000000  0.80022509  1
  Mo  Mo7  1  0.09817728  0.00000000  0.80364543  1
  Mo  Mo8  1  0.90023727  0.00000000  0.19952546  1
  Mo  Mo9  1  0.40343399  0.50000000  0.19313201  1
  O  O10  1  0.33691901  0.23958207  0.80541116  1
  O  O11  1  0.85766983  0.76041793  0.80541116  1
  O  O12  1  0.85766983  0.23958207  0.80541116  1
  O  O13  1  0.33691901  0.76041793  0.80541116  1
  O  O14  1  0.15818979  0.25279030  0.19468592  1
  O  O15  1  0.64712429  0.74720970  0.19468592  1
  O  O16  1  0.64712429  0.25279030  0.19468592  1
  O  O17  1  0.15818979  0.74720970  0.19468592  1
  O  O18  1  0.19338279  0.00000000  0.61323441  1
  O  O19  1  0.69782392  0.50000000  0.60435217  1
  O  O20  1  0.30126555  0.50000000  0.39746890  1
  O  O21  1  0.80136006  0.00000000  0.39727988  1
  O  O22  1  0.50139354  0.50000000  0.99721293  1
  O  O23  1  0.00288119  0.00000000  0.99423761  1
