# generated using pymatgen
data_Sr3CaMn2FeO10
_symmetry_space_group_name_H-M   'P 1'
_cell_length_a   3.86173729
_cell_length_b   3.86173729
_cell_length_c   14.18301208
_cell_angle_alpha   82.17548341
_cell_angle_beta   82.17548341
_cell_angle_gamma   90.00000000
_symmetry_Int_Tables_number   1
_chemical_formula_structural   Sr3CaMn2FeO10
_chemical_formula_sum   'Sr3 Ca1 Mn2 Fe1 O10'
_cell_volume   207.55430760
_cell_formula_units_Z   1
loop_
 _symmetry_equiv_pos_site_id
 _symmetry_equiv_pos_as_xyz
  1  'x, y, z'
loop_
 _atom_site_type_symbol
 _atom_site_label
 _atom_site_symmetry_multiplicity
 _atom_site_fract_x
 _atom_site_fract_y
 _atom_site_fract_z
 _atom_site_occupancy
  Sr  Sr0  1  0.57014402  0.57014402  0.85971197  1
  Sr  Sr1  1  0.43033160  0.43033160  0.13933680  1
  Sr  Sr2  1  0.70399350  0.70399350  0.59201301  1
  Ca  Ca3  1  0.29980776  0.29980776  0.40038447  1
  Mn  Mn4  1  0.14242775  0.14242775  0.71514451  1
  Mn  Mn5  1  0.85783943  0.85783943  0.28432114  1
  Fe  Fe6  1  0.00014953  0.00014953  0.99970094  1
  O  O7  1  0.63998242  0.13998242  0.72003516  1
  O  O8  1  0.13998242  0.63998242  0.72003516  1
  O  O9  1  0.35715956  0.85715956  0.28568088  1
  O  O10  1  0.85715956  0.35715956  0.28568088  1
  O  O11  1  0.07153857  0.07153857  0.85692285  1
  O  O12  1  0.92790633  0.92790633  0.14418733  1
  O  O13  1  0.21227479  0.21227479  0.57545042  1
  O  O14  1  0.78996785  0.78996785  0.42006430  1
  O  O15  1  0.99966745  0.49966745  0.00066510  1
  O  O16  1  0.49966745  0.99966745  0.00066510  1
