# generated using pymatgen
data_Sr7Ca2Al3(O4F)3
_symmetry_space_group_name_H-M   'P 1'
_cell_length_a   6.74351969
_cell_length_b   7.36182453
_cell_length_c   17.49604834
_cell_angle_alpha   82.92955201
_cell_angle_beta   90.76901566
_cell_angle_gamma   62.23265432
_symmetry_Int_Tables_number   1
_chemical_formula_structural   Sr7Ca2Al3(O4F)3
_chemical_formula_sum   'Sr14 Ca4 Al6 O24 F6'
_cell_volume   760.23873165
_cell_formula_units_Z   2
loop_
 _symmetry_equiv_pos_site_id
 _symmetry_equiv_pos_as_xyz
  1  'x, y, z'
loop_
 _atom_site_type_symbol
 _atom_site_label
 _atom_site_symmetry_multiplicity
 _atom_site_fract_x
 _atom_site_fract_y
 _atom_site_fract_z
 _atom_site_occupancy
  Sr  Sr0  1  0.16932553  0.66531040  0.91742394  1
  Sr  Sr1  1  0.50042531  0.99977556  0.25009944  1
  Sr  Sr2  1  0.83631415  0.33188696  0.58399004  1
  Sr  Sr3  1  0.83342660  0.33348806  0.08427997  1
  Sr  Sr4  1  0.16953438  0.66502747  0.41642512  1
  Sr  Sr5  1  0.50306562  0.99844935  0.75081304  1
  Sr  Sr6  1  0.72025256  0.88960975  0.55471963  1
  Sr  Sr7  1  0.05361381  0.22324534  0.88863845  1
  Sr  Sr8  1  0.61220216  0.11164883  0.94430068  1
  Sr  Sr9  1  0.94609508  0.44647243  0.27680777  1
  Sr  Sr10  1  0.27885049  0.77870343  0.61048604  1
  Sr  Sr11  1  0.05463161  0.55444818  0.72274949  1
  Sr  Sr12  1  0.38841742  0.88683529  0.05689706  1
  Sr  Sr13  1  0.72021536  0.22166942  0.38886743  1
  Ca  Ca14  1  0.94028479  0.77975585  0.11008585  1
  Ca  Ca15  1  0.26840108  0.11597317  0.44205106  1
  Ca  Ca16  1  0.60235883  0.44877356  0.77561160  1
  Ca  Ca17  1  0.39288448  0.55370120  0.22329008  1
  Al  Al18  1  0.66788146  0.66607917  0.91700846  1
  Al  Al19  1  0.00004785  -0.00022126  0.24995529  1
  Al  Al20  1  0.33461161  0.33259938  0.58355122  1
  Al  Al21  1  0.33603624  0.33328132  0.08476776  1
  Al  Al22  1  0.66501902  0.66638964  0.41562717  1
  Al  Al23  1  0.00112715  0.99954599  0.75029275  1
  O  O24  1  0.21134024  0.29279649  0.00188385  1
  O  O25  1  0.54066769  0.62376548  0.33243497  1
  O  O26  1  0.87752476  0.95825085  0.66785205  1
  O  O27  1  0.59988734  0.09587603  0.09800157  1
  O  O28  1  0.93023277  0.43085515  0.43042204  1
  O  O29  1  0.26547965  0.76338519  0.76447356  1
  O  O30  1  0.82669284  0.62540829  0.83447288  1
  O  O31  1  0.16310184  0.95455609  0.16873171  1
  O  O32  1  0.49313387  0.29203404  0.50091788  1
  O  O33  1  0.63729900  0.43684847  0.92909725  1
  O  O34  1  0.97678646  0.76742805  0.26183189  1
  O  O35  1  0.30449872  0.10319894  0.59545225  1
  O  O36  1  0.79403114  0.70661238  0.00050385  1
  O  O37  1  0.12500054  0.04211186  0.33344773  1
  O  O38  1  0.46056372  0.37356851  0.66697796  1
  O  O39  1  0.40678056  0.89955668  0.90314379  1
  O  O40  1  0.73554608  0.23692257  0.23606983  1
  O  O41  1  0.07350688  0.56599027  0.56991020  1
  O  O42  1  0.17117144  0.37921157  0.16556165  1
  O  O43  1  0.50013728  0.71064847  0.49656702  1
  O  O44  1  0.83406700  0.04410775  0.83080646  1
  O  O45  1  0.35852420  0.56607335  0.07233760  1
  O  O46  1  0.68826414  0.89920551  0.40210511  1
  O  O47  1  0.02297198  0.23303736  0.73630068  1
  F  F48  1  0.33861598  0.33573149  0.83216093  1
  F  F49  1  0.66693481  0.66638790  0.16674197  1
  F  F50  1  0.00508728  0.00267732  0.49868586  1
  F  F51  1  0.99895525  0.99549217  0.00222008  1
  F  F52  1  0.33300250  0.33343709  0.33338357  1
  F  F53  1  0.66517143  0.66237620  0.66876446  1
