# generated using pymatgen
data_Sr4Ca(FeO2)5
_symmetry_space_group_name_H-M   'P 1'
_cell_length_a   3.42599822
_cell_length_b   5.74348036
_cell_length_c   14.64209043
_cell_angle_alpha   101.31068793
_cell_angle_beta   90.00000000
_cell_angle_gamma   90.00000000
_symmetry_Int_Tables_number   1
_chemical_formula_structural   Sr4Ca(FeO2)5
_chemical_formula_sum   'Sr4 Ca1 Fe5 O10'
_cell_volume   282.51892372
_cell_formula_units_Z   1
loop_
 _symmetry_equiv_pos_site_id
 _symmetry_equiv_pos_as_xyz
  1  'x, y, z'
loop_
 _atom_site_type_symbol
 _atom_site_label
 _atom_site_symmetry_multiplicity
 _atom_site_fract_x
 _atom_site_fract_y
 _atom_site_fract_z
 _atom_site_occupancy
  Sr  Sr0  1  0.50000000  0.09940247  0.19880494  1
  Sr  Sr1  1  0.50000000  0.69976692  0.39953384  1
  Sr  Sr2  1  0.50000000  0.30023308  0.60046616  1
  Sr  Sr3  1  0.50000000  0.90059753  0.80119506  1
  Ca  Ca4  1  0.50000000  0.50000000  0.00000000  1
  Fe  Fe5  1  -0.00000000  0.40077722  0.80155443  1
  Fe  Fe6  1  -0.00000000  0.19982071  0.39964143  1
  Fe  Fe7  1  -0.00000000  0.80017929  0.60035857  1
  Fe  Fe8  1  0.00000000  -0.00000000  0.00000000  1
  Fe  Fe9  1  -0.00000000  0.59922278  0.19844557  1
  O  O10  1  0.00000000  0.09987417  0.70092234  1
  O  O11  1  0.00000000  0.90012583  0.29907766  1
  O  O12  1  0.00000000  0.50000000  0.50000000  1
  O  O13  1  0.00000000  0.69607574  0.90265088  1
  O  O14  1  -0.00000000  0.30392426  0.09734912  1
  O  O15  1  0.00000000  0.60104816  0.70092234  1
  O  O16  1  0.00000000  0.39895184  0.29907766  1
  O  O17  1  0.00000000  -0.00000000  0.50000000  1
  O  O18  1  -0.00000000  0.20657514  0.90265088  1
  O  O19  1  0.00000000  0.79342486  0.09734912  1
