# generated using pymatgen
data_Sr3Ta4Ti4O21
_symmetry_space_group_name_H-M   'P 1'
_cell_length_a   9.09450174
_cell_length_b   9.09450649
_cell_length_c   11.58370764
_cell_angle_alpha   89.96050625
_cell_angle_beta   89.96060544
_cell_angle_gamma   60.15759188
_symmetry_Int_Tables_number   1
_chemical_formula_structural   Sr3Ta4Ti4O21
_chemical_formula_sum   'Sr6 Ta8 Ti8 O42'
_cell_volume   831.04320222
_cell_formula_units_Z   2
loop_
 _symmetry_equiv_pos_site_id
 _symmetry_equiv_pos_as_xyz
  1  'x, y, z'
loop_
 _atom_site_type_symbol
 _atom_site_label
 _atom_site_symmetry_multiplicity
 _atom_site_fract_x
 _atom_site_fract_y
 _atom_site_fract_z
 _atom_site_occupancy
  Sr  Sr0  1  0.59561302  0.00356648  0.74949213  1
  Sr  Sr1  1  0.99644043  0.40438678  0.75050586  1
  Sr  Sr2  1  0.40820761  0.59178738  0.74999927  1
  Sr  Sr3  1  0.40438580  0.99643640  0.25050957  1
  Sr  Sr4  1  0.00356416  0.59561699  0.24948986  1
  Sr  Sr5  1  0.59178785  0.40821193  0.24999955  1
  Ta  Ta6  1  0.66869099  0.66293422  0.49990016  1
  Ta  Ta7  1  0.33129950  0.33707065  0.50010282  1
  Ta  Ta8  1  0.33707332  0.33130073  0.00009867  1
  Ta  Ta9  1  0.66293050  0.66869991  0.99989769  1
  Ta  Ta10  1  0.24359864  0.99828024  0.59276046  1
  Ta  Ta11  1  0.75639613  0.00172247  0.40723990  1
  Ta  Ta12  1  0.99828030  0.24360308  0.09276062  1
  Ta  Ta13  1  0.00172094  0.75639715  0.90724006  1
  Ti  Ti14  1  0.00065504  0.74712628  0.59310043  1
  Ti  Ti15  1  0.74761462  0.25151035  0.59654019  1
  Ti  Ti16  1  0.99933716  0.25288360  0.40690094  1
  Ti  Ti17  1  0.25238115  0.74849661  0.40345924  1
  Ti  Ti18  1  0.74712467  0.00066200  0.09310278  1
  Ti  Ti19  1  0.25151166  0.74760686  0.09653923  1
  Ti  Ti20  1  0.25287046  0.99934390  0.90689845  1
  Ti  Ti21  1  0.74849508  0.25238558  0.90346026  1
  O  O22  1  0.68205468  0.48550109  0.60586341  1
  O  O23  1  0.48798096  0.83370662  0.60565350  1
  O  O24  1  0.83526132  0.67994069  0.60319011  1
  O  O25  1  0.16716320  0.51447665  0.60551531  1
  O  O26  1  0.32156482  0.16559968  0.60544282  1
  O  O27  1  0.51438436  0.31989221  0.60394008  1
  O  O28  1  0.31793560  0.51450400  0.39414057  1
  O  O29  1  0.51201477  0.16629439  0.39434623  1
  O  O30  1  0.16473563  0.32005956  0.39680737  1
  O  O31  1  0.83282988  0.48552303  0.39448624  1
  O  O32  1  0.67843394  0.83439918  0.39455588  1
  O  O33  1  0.48561354  0.68010628  0.39605840  1
  O  O34  1  0.31990198  0.51437880  0.10394197  1
  O  O35  1  0.51448413  0.16716410  0.10551471  1
  O  O36  1  0.16560502  0.32156389  0.10544413  1
  O  O37  1  0.83370711  0.48798327  0.10565096  1
  O  O38  1  0.67994520  0.83526144  0.10319195  1
  O  O39  1  0.48550137  0.68205870  0.10586274  1
  O  O40  1  0.68010784  0.48561632  0.89605887  1
  O  O41  1  0.48551872  0.83283597  0.89448854  1
  O  O42  1  0.83440141  0.67843177  0.89455312  1
  O  O43  1  0.16629794  0.51201564  0.89434881  1
  O  O44  1  0.32006096  0.16473659  0.89680734  1
  O  O45  1  0.51450599  0.31793848  0.89413848  1
  O  O46  1  0.19556236  0.99866081  0.75339435  1
  O  O47  1  0.00134124  0.80442951  0.74660563  1
  O  O48  1  0.79887741  0.20112456  0.74999880  1
  O  O49  1  0.80443766  0.00133716  0.24660742  1
  O  O50  1  0.99866121  0.19556798  0.25339533  1
  O  O51  1  0.20112471  0.79887330  0.24999828  1
  O  O52  1  0.78649656  0.00028863  0.57750253  1
  O  O53  1  0.00328895  0.20895917  0.57468904  1
  O  O54  1  0.21332667  0.78942873  0.57370893  1
  O  O55  1  0.21350266  0.99970636  0.42249884  1
  O  O56  1  0.99670827  0.79104597  0.42531164  1
  O  O57  1  0.78666869  0.21057224  0.42629289  1
  O  O58  1  0.20895444  0.00329127  0.07468780  1
  O  O59  1  0.00029423  0.78649018  0.07750061  1
  O  O60  1  0.78943290  0.21332451  0.07370695  1
  O  O61  1  0.79104719  0.99670700  0.92531089  1
  O  O62  1  0.99971128  0.21350573  0.92249873  1
  O  O63  1  0.21057420  0.78666897  0.92629160  1
