# generated using pymatgen
data_Fe5O3F7
_symmetry_space_group_name_H-M   'P 1'
_cell_length_a   4.80318134
_cell_length_b   4.79913711
_cell_length_c   15.56764570
_cell_angle_alpha   89.96590835
_cell_angle_beta   90.46036229
_cell_angle_gamma   91.42861064
_symmetry_Int_Tables_number   1
_chemical_formula_structural   Fe5O3F7
_chemical_formula_sum   'Fe10 O6 F14'
_cell_volume   358.72860822
_cell_formula_units_Z   2
loop_
 _symmetry_equiv_pos_site_id
 _symmetry_equiv_pos_as_xyz
  1  'x, y, z'
loop_
 _atom_site_type_symbol
 _atom_site_label
 _atom_site_symmetry_multiplicity
 _atom_site_fract_x
 _atom_site_fract_y
 _atom_site_fract_z
 _atom_site_occupancy
  Fe  Fe0  1  0.96067800  0.97786270  0.00753507  1
  Fe  Fe1  1  0.00000000  0.00000000  0.20000000  1
  Fe  Fe2  1  0.03932200  0.02213730  0.39246493  1
  Fe  Fe3  1  0.96284767  0.96228537  0.59887239  1
  Fe  Fe4  1  0.03715233  0.03771463  0.80112761  1
  Fe  Fe5  1  0.53763932  0.47339852  0.09685610  1
  Fe  Fe6  1  0.50375502  0.49404060  0.50018390  1
  Fe  Fe7  1  0.46236068  0.52660148  0.30314390  1
  Fe  Fe8  1  0.50000000  0.50000000  0.70000000  1
  Fe  Fe9  1  0.49624498  0.50595940  0.89981610  1
  O  O10  1  0.17681737  0.83320666  0.29429766  1
  O  O11  1  0.30726944  0.31243281  0.40871564  1
  O  O12  1  0.32849644  0.33130888  0.79992881  1
  O  O13  1  0.69273056  0.68756719  0.99128436  1
  O  O14  1  0.67150356  0.66869112  0.60007119  1
  O  O15  1  0.82318263  0.16679334  0.10570234  1
  F  F16  1  0.19761909  0.79322600  0.10055222  1
  F  F17  1  0.20049420  0.80139413  0.49517156  1
  F  F18  1  0.20608340  0.79477108  0.70009863  1
  F  F19  1  0.19694600  0.80434693  0.90584198  1
  F  F20  1  0.28806204  0.28434126  0.99200899  1
  F  F21  1  0.29477856  0.29418266  0.19834937  1
  F  F22  1  0.28707137  0.28474416  0.60119559  1
  F  F23  1  0.70522144  0.70581734  0.20165063  1
  F  F24  1  0.71193796  0.71565874  0.40799101  1
  F  F25  1  0.71292863  0.71525584  0.79880441  1
  F  F26  1  0.80305400  0.19565307  0.49415802  1
  F  F27  1  0.80238091  0.20677400  0.29944778  1
  F  F28  1  0.79950580  0.19860587  0.90482844  1
  F  F29  1  0.79391660  0.20522892  0.69990137  1
