# generated using pymatgen
data_Sr2EuTa(CuO4)2
_symmetry_space_group_name_H-M   'P 1'
_cell_length_a   3.93116389
_cell_length_b   3.93116389
_cell_length_c   11.79691323
_cell_angle_alpha   90.00000000
_cell_angle_beta   90.00000000
_cell_angle_gamma   90.19076974
_symmetry_Int_Tables_number   1
_chemical_formula_structural   Sr2EuTa(CuO4)2
_chemical_formula_sum   'Sr2 Eu1 Ta1 Cu2 O8'
_cell_volume   182.30907059
_cell_formula_units_Z   1
loop_
 _symmetry_equiv_pos_site_id
 _symmetry_equiv_pos_as_xyz
  1  'x, y, z'
loop_
 _atom_site_type_symbol
 _atom_site_label
 _atom_site_symmetry_multiplicity
 _atom_site_fract_x
 _atom_site_fract_y
 _atom_site_fract_z
 _atom_site_occupancy
  Sr  Sr0  1  0.49948938  0.49948938  0.79896561  1
  Sr  Sr1  1  0.49948938  0.49948938  0.20103439  1
  Eu  Eu2  1  0.50034108  0.50034108  0.50000000  1
  Ta  Ta3  1  0.01893740  0.01893740  -0.00000000  1
  Cu  Cu4  1  0.00047544  0.00047544  0.64397038  1
  Cu  Cu5  1  0.00047544  0.00047544  0.35602962  1
  O  O6  1  0.01496365  0.01496365  0.83210008  1
  O  O7  1  0.01496365  0.01496365  0.16789992  1
  O  O8  1  0.50099491  0.00024342  0.63205282  1
  O  O9  1  0.00024342  0.50099491  0.63205282  1
  O  O10  1  0.50099491  0.00024342  0.36794718  1
  O  O11  1  0.00024342  0.50099491  0.36794718  1
  O  O12  1  0.05082600  0.52556193  0.00000000  1
  O  O13  1  0.52556193  0.05082600  -0.00000000  1
