# generated using pymatgen
data_Sr2Ca2NdMn5O15
_symmetry_space_group_name_H-M   'P 1'
_cell_length_a   5.48968114
_cell_length_b   9.37559799
_cell_length_c   12.01326637
_cell_angle_alpha   82.54698616
_cell_angle_beta   77.35042030
_cell_angle_gamma   104.61432799
_symmetry_Int_Tables_number   1
_chemical_formula_structural   Sr2Ca2NdMn5O15
_chemical_formula_sum   'Sr4 Ca4 Nd2 Mn10 O30'
_cell_volume   572.47208832
_cell_formula_units_Z   2
loop_
 _symmetry_equiv_pos_site_id
 _symmetry_equiv_pos_as_xyz
  1  'x, y, z'
loop_
 _atom_site_type_symbol
 _atom_site_label
 _atom_site_symmetry_multiplicity
 _atom_site_fract_x
 _atom_site_fract_y
 _atom_site_fract_z
 _atom_site_occupancy
  Sr  Sr0  1  0.85080151  0.64981883  0.95034082  1
  Sr  Sr1  1  0.45273963  0.05193574  0.14941567  1
  Sr  Sr2  1  0.05121027  0.44835408  0.34865286  1
  Sr  Sr3  1  0.64759432  0.84991601  0.55305211  1
  Ca  Ca4  1  0.54887781  0.95246301  0.84841473  1
  Ca  Ca5  1  0.15390038  0.34825915  0.04683498  1
  Ca  Ca6  1  0.34835529  0.15212790  0.44721110  1
  Ca  Ca7  1  0.94678464  0.54889936  0.65350576  1
  Nd  Nd8  1  0.24685669  0.25001626  0.74833130  1
  Nd  Nd9  1  0.75133465  0.75006641  0.25147973  1
  Mn  Mn10  1  0.49936372  0.49960988  0.50104985  1
  Mn  Mn11  1  0.29946426  0.69938804  0.09822592  1
  Mn  Mn12  1  0.90146658  0.10181813  0.30041011  1
  Mn  Mn13  1  0.09808086  0.89866817  0.70011030  1
  Mn  Mn14  1  0.70040974  0.30024244  0.90003920  1
  Mn  Mn15  1  0.40018125  0.60159444  0.80012354  1
  Mn  Mn16  1  0.20035819  0.80103573  0.40186755  1
  Mn  Mn17  1  0.79976503  0.19936003  0.59968547  1
  Mn  Mn18  1  0.00085791  0.00056152  0.99843059  1
  Mn  Mn19  1  0.59924397  0.39786350  0.20006737  1
  O  O20  1  0.84252132  0.65138867  0.44534290  1
  O  O21  1  0.65884702  0.84726466  0.05343082  1
  O  O22  1  0.25701797  0.24781450  0.25264849  1
  O  O23  1  0.45085339  0.05826672  0.65731987  1
  O  O24  1  0.04531200  0.44495442  0.84622273  1
  O  O25  1  0.74924222  0.74601105  0.75204866  1
  O  O26  1  0.54793831  0.94463662  0.34866288  1
  O  O27  1  0.15540578  0.34604416  0.55447479  1
  O  O28  1  0.34753529  0.15159651  0.94035268  1
  O  O29  1  0.94837667  0.56058382  0.15240957  1
  O  O30  1  0.56906272  0.41702035  0.36167367  1
  O  O31  1  0.36129362  0.61103371  0.96259447  1
  O  O32  1  0.96884530  0.01503257  0.16076791  1
  O  O33  1  0.16543292  0.81253839  0.56231500  1
  O  O34  1  0.78448072  0.21659100  0.76098893  1
  O  O35  1  0.00765968  0.98221755  0.83969987  1
  O  O36  1  0.80024913  0.17382941  0.44348419  1
  O  O37  1  0.40199647  0.57119197  0.64295378  1
  O  O38  1  0.60569373  0.37301293  0.04133110  1
  O  O39  1  0.21269893  0.77544849  0.24167665  1
  O  O40  1  0.25622150  0.76725032  0.77836766  1
  O  O41  1  0.04634995  0.96161233  0.37880000  1
  O  O42  1  0.64629688  0.36449317  0.58392532  1
  O  O43  1  0.85262062  0.16562774  0.97731596  1
  O  O44  1  0.45458263  0.56579199  0.17730588  1
  O  O45  1  0.97782503  0.04795281  0.61740598  1
  O  O46  1  0.78342418  0.25023990  0.21609308  1
  O  O47  1  0.36749827  0.64309523  0.41871905  1
  O  O48  1  0.55618298  0.43634279  0.81744650  1
  O  O49  1  0.18088806  0.84911764  0.01697265  1
