# generated using pymatgen
data_Sr2Mn2Cu(AsO)2
_symmetry_space_group_name_H-M   'P 1'
_cell_length_a   4.12984099
_cell_length_b   4.12984099
_cell_length_c   9.86690932
_cell_angle_alpha   77.91999432
_cell_angle_beta   77.91999432
_cell_angle_gamma   90.00000000
_symmetry_Int_Tables_number   1
_chemical_formula_structural   Sr2Mn2Cu(AsO)2
_chemical_formula_sum   'Sr2 Mn2 Cu1 As2 O2'
_cell_volume   160.74662459
_cell_formula_units_Z   1
loop_
 _symmetry_equiv_pos_site_id
 _symmetry_equiv_pos_as_xyz
  1  'x, y, z'
loop_
 _atom_site_type_symbol
 _atom_site_label
 _atom_site_symmetry_multiplicity
 _atom_site_fract_x
 _atom_site_fract_y
 _atom_site_fract_z
 _atom_site_occupancy
  Sr  Sr0  1  0.41038879  0.41038879  0.17922242  1
  Sr  Sr1  1  0.58961121  0.58961121  0.82077758  1
  Mn  Mn2  1  -0.00000000  -0.00000000  0.00000000  1
  Mn  Mn3  1  0.25000000  0.75000000  0.50000000  1
  Cu  Cu4  1  0.75000000  0.25000000  0.50000000  1
  As  As5  1  0.16792596  0.16792596  0.66414809  1
  As  As6  1  0.83207404  0.83207404  0.33585191  1
  O  O7  1  0.50029586  0.00029586  0.99940827  1
  O  O8  1  0.99970414  0.49970414  0.00059173  1
