# generated using pymatgen
data_Sm2Ga3Co
_symmetry_space_group_name_H-M   'P 1'
_cell_length_a   3.83677424
_cell_length_b   4.29710760
_cell_length_c   7.58539776
_cell_angle_alpha   89.98604113
_cell_angle_beta   90.00000000
_cell_angle_gamma   90.00000000
_symmetry_Int_Tables_number   1
_chemical_formula_structural   Sm2Ga3Co
_chemical_formula_sum   'Sm2 Ga3 Co1'
_cell_volume   125.06068983
_cell_formula_units_Z   1
loop_
 _symmetry_equiv_pos_site_id
 _symmetry_equiv_pos_as_xyz
  1  'x, y, z'
loop_
 _atom_site_type_symbol
 _atom_site_label
 _atom_site_symmetry_multiplicity
 _atom_site_fract_x
 _atom_site_fract_y
 _atom_site_fract_z
 _atom_site_occupancy
  Sm  Sm0  1  0.00000000  0.00001938  0.02205435  1
  Sm  Sm1  1  0.00000000  0.50005009  0.48638045  1
  Ga  Ga2  1  0.50000000  0.49987822  0.83515602  1
  Ga  Ga3  1  0.50000000  0.50000721  0.17508704  1
  Ga  Ga4  1  0.50000000  0.00003530  0.65384582  1
  Co  Co5  1  0.50000000  0.99980981  0.32747633  1
