# generated using pymatgen
data_Fe5(OF4)2
_symmetry_space_group_name_H-M   'P 1'
_cell_length_a   4.80795125
_cell_length_b   13.57378448
_cell_length_c   5.78056026
_cell_angle_alpha   101.48152450
_cell_angle_beta   90.75543653
_cell_angle_gamma   89.44474209
_symmetry_Int_Tables_number   1
_chemical_formula_structural   Fe5(OF4)2
_chemical_formula_sum   'Fe10 O4 F16'
_cell_volume   369.66051958
_cell_formula_units_Z   2
loop_
 _symmetry_equiv_pos_site_id
 _symmetry_equiv_pos_as_xyz
  1  'x, y, z'
loop_
 _atom_site_type_symbol
 _atom_site_label
 _atom_site_symmetry_multiplicity
 _atom_site_fract_x
 _atom_site_fract_y
 _atom_site_fract_z
 _atom_site_occupancy
  Fe  Fe0  1  0.48530295  0.00858007  0.49875911  1
  Fe  Fe1  1  0.48901389  0.39674277  0.27760943  1
  Fe  Fe2  1  0.46693096  0.20364156  0.88073157  1
  Fe  Fe3  1  0.51718784  0.59615302  0.71832041  1
  Fe  Fe4  1  0.54461040  0.79530134  0.08326202  1
  Fe  Fe5  1  0.01387129  0.39617690  0.80983418  1
  Fe  Fe6  1  0.98493136  0.80226488  0.61848885  1
  Fe  Fe7  1  0.01267490  0.19742877  0.40791883  1
  Fe  Fe8  1  0.98987433  0.60645040  0.19479031  1
  Fe  Fe9  1  0.99220646  0.99501082  -0.00265797  1
  O  O10  1  0.79808955  0.85625223  0.89661863  1
  O  O11  1  0.68297182  0.66510001  0.02972459  1
  O  O12  1  0.31612025  0.33762647  0.99283009  1
  O  O13  1  0.30028836  0.14552601  0.59796677  1
  F  F14  1  0.79238105  0.26294196  0.72900388  1
  F  F15  1  0.81555784  0.66556713  0.52318778  1
  F  F16  1  0.80033280  0.05685699  0.31797803  1
  F  F17  1  0.79743873  0.46215944  0.13526809  1
  F  F18  1  0.70026744  0.07061719  0.83457423  1
  F  F19  1  0.69219783  0.45224757  0.59553283  1
  F  F20  1  0.70301337  0.85695134  0.40833437  1
  F  F21  1  0.70261041  0.26097408  0.22171891  1
  F  F22  1  0.29505725  0.74312073  0.78645343  1
  F  F23  1  0.31035797  0.92813335  0.16639164  1
  F  F24  1  0.31100435  0.53688883  0.37487078  1
  F  F25  1  0.20966723  0.13655169  0.07958936  1
  F  F26  1  0.19975055  0.93142101  0.66252197  1
  F  F27  1  0.17614256  0.53924656  0.88165974  1
  F  F28  1  0.20713225  0.34648333  0.47375032  1
  F  F29  1  0.19301201  0.74758355  0.30496586  1
