# generated using pymatgen
data_Sn13Pd20
_symmetry_space_group_name_H-M   'P 1'
_cell_length_a   8.92105612
_cell_length_b   8.96576851
_cell_length_c   17.21659569
_cell_angle_alpha   90.00227457
_cell_angle_beta   89.94054900
_cell_angle_gamma   59.83538233
_symmetry_Int_Tables_number   1
_chemical_formula_structural   Sn13Pd20
_chemical_formula_sum   'Sn26 Pd40'
_cell_volume   1190.57999619
_cell_formula_units_Z   2
loop_
 _symmetry_equiv_pos_site_id
 _symmetry_equiv_pos_as_xyz
  1  'x, y, z'
loop_
 _atom_site_type_symbol
 _atom_site_label
 _atom_site_symmetry_multiplicity
 _atom_site_fract_x
 _atom_site_fract_y
 _atom_site_fract_z
 _atom_site_occupancy
  Sn  Sn0  1  0.30488690  0.38789379  0.41151357  1
  Sn  Sn1  1  0.30846458  0.30304253  0.74459634  1
  Sn  Sn2  1  0.36940350  0.31749870  0.08019773  1
  Sn  Sn3  1  0.63072781  0.68689195  0.25315558  1
  Sn  Sn4  1  0.69135030  0.61163959  0.58869109  1
  Sn  Sn5  1  0.69511049  0.69282635  0.92179801  1
  Sn  Sn6  1  0.11355228  0.69195101  0.92148020  1
  Sn  Sn7  1  0.18721612  0.13102147  0.25408592  1
  Sn  Sn8  1  0.69021917  0.19547384  0.58937018  1
  Sn  Sn9  1  0.30978338  0.88563471  0.74397581  1
  Sn  Sn10  1  0.81275915  0.31815904  0.07929351  1
  Sn  Sn11  1  0.88656503  0.80536154  0.41180356  1
  Sn  Sn12  1  0.16767633  0.66480729  0.58546393  1
  Sn  Sn13  1  0.16788997  0.16713267  0.91847541  1
  Sn  Sn14  1  0.66421430  0.16878079  0.25059192  1
  Sn  Sn15  1  0.33587601  0.83299602  0.08260536  1
  Sn  Sn16  1  0.83208166  0.33498608  0.41494255  1
  Sn  Sn17  1  0.83233272  0.83251246  0.74793515  1
  Sn  Sn18  1  0.18724054  0.68571154  0.24775684  1
  Sn  Sn19  1  0.10981969  0.19553632  0.58442998  1
  Sn  Sn20  1  0.69529844  0.10866758  0.91999039  1
  Sn  Sn21  1  0.30471945  0.80388226  0.41337851  1
  Sn  Sn22  1  0.89011394  0.30532247  0.74887748  1
  Sn  Sn23  1  0.81290838  0.87260999  0.08554511  1
  Sn  Sn24  1  0.49808223  0.99912654  0.49922259  1
  Sn  Sn25  1  0.50194910  0.49714839  0.83401975  1
  Pd  Pd26  1  0.99868250  0.49954384  0.49888261  1
  Pd  Pd27  1  0.50056360  0.99953869  0.83367954  1
  Pd  Pd28  1  0.50014022  0.50031733  0.16670022  1
  Pd  Pd29  1  0.49987679  0.00044215  0.16665614  1
  Pd  Pd30  1  0.49943470  0.50007242  0.49961404  1
  Pd  Pd31  1  0.00133018  0.49822004  0.83442951  1
  Pd  Pd32  1  0.18112152  0.65936483  0.75701585  1
  Pd  Pd33  1  0.15915785  0.17885633  0.09084743  1
  Pd  Pd34  1  0.65919097  0.15885246  0.42344720  1
  Pd  Pd35  1  0.34084724  0.81806991  0.90984770  1
  Pd  Pd36  1  0.84082074  0.33799143  0.24251648  1
  Pd  Pd37  1  0.81887684  0.84052138  0.57625072  1
  Pd  Pd38  1  0.33891544  0.31817656  0.57999869  1
  Pd  Pd39  1  0.34404089  0.33978978  0.91466974  1
  Pd  Pd40  1  0.31866124  0.34202458  0.24701716  1
  Pd  Pd41  1  0.68130470  0.66055173  0.08631733  1
  Pd  Pd42  1  0.65596361  0.68379641  0.41864374  1
  Pd  Pd43  1  0.66107976  0.65713325  0.75330749  1
  Pd  Pd44  1  0.99523419  0.49710069  0.33209668  1
  Pd  Pd45  1  0.50832449  0.99498490  0.66394072  1
  Pd  Pd46  1  0.49514330  0.50759733  -0.00000927  1
  Pd  Pd47  1  0.50484354  0.00270763  0.33334439  1
  Pd  Pd48  1  0.49162372  0.50334071  0.66933495  1
  Pd  Pd49  1  0.00473872  0.49242969  0.00124131  1
  Pd  Pd50  1  0.99997115  0.99511823  0.66665469  1
  Pd  Pd51  1  0.00158778  0.00034942  0.00212712  1
  Pd  Pd52  1  0.99835920  0.00200154  0.33122339  1
  Pd  Pd53  1  0.15927952  0.66345505  0.08402395  1
  Pd  Pd54  1  0.18407445  0.15460058  0.41736945  1
  Pd  Pd55  1  0.66173904  0.17969070  0.75206018  1
  Pd  Pd56  1  0.33817994  0.84145850  0.58125077  1
  Pd  Pd57  1  0.81582706  0.33873798  0.91598077  1
  Pd  Pd58  1  0.84083854  0.82264340  0.24926418  1
  Pd  Pd59  1  0.99995897  0.50822252  0.66666499  1
  Pd  Pd60  1  0.49677853  0.00231565  0.00172455  1
  Pd  Pd61  1  0.50336248  0.49897286  0.33161638  1
  Pd  Pd62  1  0.99992812  0.00150182  0.16667394  1
  Pd  Pd63  1  0.00022651  0.00001393  0.49913642  1
  Pd  Pd64  1  0.99973091  0.00032231  0.83417112  1
  Pd  Pd65  1  0.99999959  0.50255651  0.16667125  1
