# generated using pymatgen
data_Sm2ZrCo16
_symmetry_space_group_name_H-M   'P 1'
_cell_length_a   8.20053311
_cell_length_b   8.40652753
_cell_length_c   8.40617076
_cell_angle_alpha   59.99859602
_cell_angle_beta   90.02094660
_cell_angle_gamma   90.00000000
_symmetry_Int_Tables_number   1
_chemical_formula_structural   Sm2ZrCo16
_chemical_formula_sum   'Sm4 Zr2 Co32'
_cell_volume   501.85861380
_cell_formula_units_Z   2
loop_
 _symmetry_equiv_pos_site_id
 _symmetry_equiv_pos_as_xyz
  1  'x, y, z'
loop_
 _atom_site_type_symbol
 _atom_site_label
 _atom_site_symmetry_multiplicity
 _atom_site_fract_x
 _atom_site_fract_y
 _atom_site_fract_z
 _atom_site_occupancy
  Sm  Sm0  1  0.26477295  0.66662387  0.66675227  1
  Sm  Sm1  1  0.73522705  0.33337613  0.33324773  1
  Sm  Sm2  1  0.74930043  0.00007584  0.99984832  1
  Sm  Sm3  1  0.25069957  0.99992416  0.00015168  1
  Zr  Zr4  1  0.11384334  0.33346613  0.33306773  1
  Zr  Zr5  1  0.88615666  0.66653387  0.66693227  1
  Co  Co6  1  0.74783121  0.67040851  0.36773521  1
  Co  Co7  1  0.74786587  0.36759377  0.96188585  1
  Co  Co8  1  0.74785198  0.96179429  0.67045584  1
  Co  Co9  1  0.74785198  0.36774987  0.67045584  1
  Co  Co10  1  0.74783121  0.96185628  0.36773521  1
  Co  Co11  1  0.74786587  0.67052039  0.96188585  1
  Co  Co12  1  0.25216879  0.32959149  0.63226479  1
  Co  Co13  1  0.25213413  0.63240623  0.03811415  1
  Co  Co14  1  0.25214802  0.03820571  0.32954416  1
  Co  Co15  1  0.25214802  0.63225013  0.32954416  1
  Co  Co16  1  0.25216879  0.03814372  0.63226479  1
  Co  Co17  1  0.25213413  0.32947961  0.03811415  1
  Co  Co18  1  0.50000000  0.50000000  0.50000000  1
  Co  Co19  1  0.50000000  0.50000000  0.00000000  1
  Co  Co20  1  0.50000000  -0.00000000  0.50000000  1
  Co  Co21  1  -0.00000000  0.50000000  0.50000000  1
  Co  Co22  1  -0.00000000  0.50000000  0.00000000  1
  Co  Co23  1  -0.00000000  -0.00000000  0.50000000  1
  Co  Co24  1  0.48627109  0.83310681  0.83319295  1
  Co  Co25  1  0.48622223  0.83318095  0.33363810  1
  Co  Co26  1  0.48627109  0.33370024  0.83319295  1
  Co  Co27  1  0.51372891  0.16689319  0.16680705  1
  Co  Co28  1  0.51377777  0.16681905  0.66636190  1
  Co  Co29  1  0.51372891  0.66629976  0.16680705  1
  Co  Co30  1  0.97849493  0.16230344  0.16223739  1
  Co  Co31  1  0.97860860  0.16219970  0.67560061  1
  Co  Co32  1  0.97849493  0.67545917  0.16223739  1
  Co  Co33  1  0.02150507  0.83769656  0.83776261  1
  Co  Co34  1  0.02139140  0.83780030  0.32439939  1
  Co  Co35  1  0.02150507  0.32454083  0.83776261  1
  Co  Co36  1  0.59362561  0.66669273  0.66661454  1
  Co  Co37  1  0.40637439  0.33330727  0.33338546  1
