# generated using pymatgen
data_Sr2AlV11O22
_symmetry_space_group_name_H-M   'P 1'
_cell_length_a   5.90142052
_cell_length_b   5.82818133
_cell_length_c   13.37931252
_cell_angle_alpha   90.00000000
_cell_angle_beta   90.00000000
_cell_angle_gamma   60.40968518
_symmetry_Int_Tables_number   1
_chemical_formula_structural   Sr2AlV11O22
_chemical_formula_sum   'Sr2 Al1 V11 O22'
_cell_volume   400.15860985
_cell_formula_units_Z   1
loop_
 _symmetry_equiv_pos_site_id
 _symmetry_equiv_pos_as_xyz
  1  'x, y, z'
loop_
 _atom_site_type_symbol
 _atom_site_label
 _atom_site_symmetry_multiplicity
 _atom_site_fract_x
 _atom_site_fract_y
 _atom_site_fract_z
 _atom_site_occupancy
  Sr  Sr0  1  0.32876642  0.33561679  0.75000000  1
  Sr  Sr1  1  0.66446386  0.66776807  0.25000000  1
  Al  Al2  1  0.33186009  0.33406995  0.25000000  1
  V  V3  1  0.99989368  0.00005316  0.85347679  1
  V  V4  1  0.99855838  0.00072081  0.14885554  1
  V  V5  1  0.99855838  0.00072081  0.35114446  1
  V  V6  1  0.99989368  0.00005316  0.64652321  1
  V  V7  1  0.49866314  0.00816795  0.49802934  1
  V  V8  1  0.99684730  0.50157635  0.50050766  1
  V  V9  1  0.49866314  0.49316891  0.49802934  1
  V  V10  1  0.49866314  0.00816795  0.00197066  1
  V  V11  1  0.99684730  0.50157635  0.99949234  1
  V  V12  1  0.49866314  0.49316891  0.00197066  1
  V  V13  1  0.66581249  0.66709375  0.75000000  1
  O  O14  1  0.31952373  0.34023813  0.41111526  1
  O  O15  1  0.67428810  0.66285595  0.58296507  1
  O  O16  1  0.67428810  0.66285595  0.91703493  1
  O  O17  1  0.31952373  0.34023813  0.08888474  1
  O  O18  1  0.17466183  0.64544324  0.57787650  1
  O  O19  1  0.65083215  0.17458392  0.58210943  1
  O  O20  1  0.17466183  0.17989493  0.57787650  1
  O  O21  1  0.83054313  0.34554265  0.42102232  1
  O  O22  1  0.35946468  0.82026766  0.42172245  1
  O  O23  1  0.83054313  0.82391422  0.42102232  1
  O  O24  1  0.83054313  0.34554265  0.07897768  1
  O  O25  1  0.35946468  0.82026766  0.07827755  1
  O  O26  1  0.83054313  0.82391422  0.07897768  1
  O  O27  1  0.17466183  0.64544324  0.92212350  1
  O  O28  1  0.65083215  0.17458392  0.91789057  1
  O  O29  1  0.17466183  0.17989493  0.92212350  1
  O  O30  1  0.85504225  0.29738377  0.75000000  1
  O  O31  1  0.29396963  0.85301518  0.75000000  1
  O  O32  1  0.85504225  0.84757398  0.75000000  1
  O  O33  1  0.15613715  0.68946427  0.25000000  1
  O  O34  1  0.67848028  0.16075986  0.25000000  1
  O  O35  1  0.15613715  0.15439858  0.25000000  1
