# generated using pymatgen
data_Sm3SiS6Cl
_symmetry_space_group_name_H-M   'P 1'
_cell_length_a   5.73631234
_cell_length_b   9.99484060
_cell_length_c   10.17110520
_cell_angle_alpha   120.94349489
_cell_angle_beta   90.00000000
_cell_angle_gamma   90.00000000
_symmetry_Int_Tables_number   1
_chemical_formula_structural   Sm3SiS6Cl
_chemical_formula_sum   'Sm6 Si2 S12 Cl2'
_cell_volume   500.14907060
_cell_formula_units_Z   2
loop_
 _symmetry_equiv_pos_site_id
 _symmetry_equiv_pos_as_xyz
  1  'x, y, z'
loop_
 _atom_site_type_symbol
 _atom_site_label
 _atom_site_symmetry_multiplicity
 _atom_site_fract_x
 _atom_site_fract_y
 _atom_site_fract_z
 _atom_site_occupancy
  Sm  Sm0  1  0.25133785  0.77755695  0.13633185  1
  Sm  Sm1  1  0.25071241  0.88015894  0.64559847  1
  Sm  Sm2  1  0.24781935  0.35292056  0.22558129  1
  Sm  Sm3  1  0.75133785  0.22244305  0.86366815  1
  Sm  Sm4  1  0.75071241  0.11984106  0.35440153  1
  Sm  Sm5  1  0.74781935  0.64707944  0.77441871  1
  Si  Si6  1  0.33470784  0.33210660  0.66524684  1
  Si  Si7  1  0.83470784  0.66789340  0.33475316  1
  S  S8  1  0.96677274  0.33456603  0.66768123  1
  S  S9  1  0.46677274  0.66543397  0.33231877  1
  S  S10  1  0.98491583  0.89409697  0.41657938  1
  S  S11  1  0.98135013  0.58305103  0.47411593  1
  S  S12  1  0.98042315  0.52049990  0.11122334  1
  S  S13  1  0.48491583  0.10590303  0.58342062  1
  S  S14  1  0.48135013  0.41694897  0.52588407  1
  S  S15  1  0.48042315  0.47950010  0.88877666  1
  S  S16  1  0.72254873  0.83499131  0.09023470  1
  S  S17  1  0.72191231  0.90536750  0.74436946  1
  S  S18  1  0.22254873  0.16500869  0.90976530  1
  S  S19  1  0.22191231  0.09463250  0.25563054  1
  Cl  Cl20  1  0.72129966  0.25307715  0.16216020  1
  Cl  Cl21  1  0.22129966  0.74692285  0.83783980  1
