# generated using pymatgen
data_Co3(O2F)2
_symmetry_space_group_name_H-M   'P 1'
_cell_length_a   7.03701366
_cell_length_b   5.34358369
_cell_length_c   5.34358369
_cell_angle_alpha   68.94053298
_cell_angle_beta   71.26150384
_cell_angle_gamma   71.26150384
_symmetry_Int_Tables_number   1
_chemical_formula_structural   Co3(O2F)2
_chemical_formula_sum   'Co6 O8 F4'
_cell_volume   172.69145603
_cell_formula_units_Z   2
loop_
 _symmetry_equiv_pos_site_id
 _symmetry_equiv_pos_as_xyz
  1  'x, y, z'
loop_
 _atom_site_type_symbol
 _atom_site_label
 _atom_site_symmetry_multiplicity
 _atom_site_fract_x
 _atom_site_fract_y
 _atom_site_fract_z
 _atom_site_occupancy
  Co  Co0  1  0.83505313  0.67096185  0.67096185  1
  Co  Co1  1  0.33143747  0.64895219  0.64895219  1
  Co  Co2  1  0.66666700  0.33333300  0.33333300  1
  Co  Co3  1  0.16666700  0.33333300  0.33333300  1
  Co  Co4  1  0.49827987  0.99570515  0.99570515  1
  Co  Co5  1  0.00189553  0.01771481  0.01771481  1
  O  O6  1  0.32943469  0.35650382  0.96676412  1
  O  O7  1  0.66666700  0.02899346  0.63767354  1
  O  O8  1  0.96009171  0.24358874  0.24358874  1
  O  O9  1  0.37324129  0.42307826  0.42307826  1
  O  O10  1  0.32943469  0.96676412  0.35650382  1
  O  O11  1  0.66666700  0.63767354  0.02899346  1
  O  O12  1  0.00389831  0.31016318  0.69990188  1
  O  O13  1  0.00389831  0.69990188  0.31016318  1
  F  F14  1  0.64243123  0.57349331  0.57349331  1
  F  F15  1  0.30927319  0.89353827  0.89353827  1
  F  F16  1  0.02406081  0.77312773  0.77312773  1
  F  F17  1  0.69090177  0.09317369  0.09317369  1
