# generated using pymatgen
data_Sm4Fe31(CoC2)3
_symmetry_space_group_name_H-M   'P 1'
_cell_length_a   6.50129277
_cell_length_b   6.53214261
_cell_length_c   13.04511954
_cell_angle_alpha   83.60840460
_cell_angle_beta   83.58789606
_cell_angle_gamma   83.55000389
_symmetry_Int_Tables_number   1
_chemical_formula_structural   Sm4Fe31(CoC2)3
_chemical_formula_sum   'Sm4 Fe31 Co3 C6'
_cell_volume   544.29780329
_cell_formula_units_Z   1
loop_
 _symmetry_equiv_pos_site_id
 _symmetry_equiv_pos_as_xyz
  1  'x, y, z'
loop_
 _atom_site_type_symbol
 _atom_site_label
 _atom_site_symmetry_multiplicity
 _atom_site_fract_x
 _atom_site_fract_y
 _atom_site_fract_z
 _atom_site_occupancy
  Sm  Sm0  1  0.65522566  0.65506525  0.32808959  1
  Sm  Sm1  1  0.65495357  0.65515064  0.82760188  1
  Sm  Sm2  1  0.34680900  0.34511535  0.17322855  1
  Sm  Sm3  1  0.34581265  0.34459459  0.67181946  1
  Fe  Fe4  1  0.90416016  0.90316104  0.45221503  1
  Fe  Fe5  1  0.90488906  0.90335908  0.95199562  1
  Fe  Fe6  1  0.09425765  0.09567147  0.04755244  1
  Fe  Fe7  1  0.09436013  0.09513647  0.54709192  1
  Fe  Fe8  1  0.00001322  0.00138566  0.24989968  1
  Fe  Fe9  1  0.99967898  0.00084072  0.74988957  1
  Fe  Fe10  1  0.00005521  0.49985160  0.50005084  1
  Fe  Fe11  1  0.99947191  0.49980234  0.00031444  1
  Fe  Fe12  1  0.49917847  0.00028298  0.00012611  1
  Fe  Fe13  1  0.49955344  0.00069075  0.50017369  1
  Fe  Fe14  1  0.28217817  0.71789572  0.49931454  1
  Fe  Fe15  1  0.28284930  0.71639895  0.00000724  1
  Fe  Fe16  1  0.71604559  0.99932366  0.14209036  1
  Fe  Fe17  1  0.71660384  0.99935640  0.64170312  1
  Fe  Fe18  1  0.00065162  0.28266657  0.35842791  1
  Fe  Fe19  1  0.99963350  0.28305194  0.85848463  1
  Fe  Fe20  1  0.28340533  0.00022116  0.35809317  1
  Fe  Fe21  1  0.28385835  0.00033433  0.85754011  1
  Fe  Fe22  1  0.99866549  0.71760550  0.14186784  1
  Fe  Fe23  1  0.99793803  0.71842181  0.64158831  1
  Fe  Fe24  1  0.71631501  0.28305281  0.00036732  1
  Fe  Fe25  1  0.71744237  0.28262337  0.50044519  1
  Fe  Fe26  1  0.34235502  0.34202283  0.92842766  1
  Fe  Fe27  1  0.34199022  0.85654839  0.17081556  1
  Fe  Fe28  1  0.34198426  0.85692890  0.67041655  1
  Fe  Fe29  1  0.14228870  0.65712070  0.32796968  1
  Fe  Fe30  1  0.14245592  0.65648666  0.82799535  1
  Fe  Fe31  1  0.65745373  0.65867468  0.07170450  1
  Fe  Fe32  1  0.65598683  0.65723275  0.57122663  1
  Fe  Fe33  1  0.65803799  0.14298311  0.32943319  1
  Fe  Fe34  1  0.65759656  0.14278026  0.82941129  1
  Co  Co35  1  0.86088363  0.34359239  0.17186419  1
  Co  Co36  1  0.86295993  0.34312774  0.67131839  1
  Co  Co37  1  0.34372373  0.34342551  0.43082478  1
  C  C38  1  0.49972364  0.49930506  0.00023192  1
  C  C39  1  0.49920241  0.49947609  0.49998057  1
  C  C40  1  0.49936616  0.00048917  0.24984551  1
  C  C41  1  0.49987025  0.00027492  0.74952490  1
  C  C42  1  0.00018677  0.49894853  0.24952918  1
  C  C43  1  0.99992856  0.49952213  0.74950161  1
