# generated using pymatgen
data_NdGaCo4
_symmetry_space_group_name_H-M   'P 1'
_cell_length_a   3.88140247
_cell_length_b   5.14057537
_cell_length_c   5.14119511
_cell_angle_alpha   59.98092722
_cell_angle_beta   90.00000000
_cell_angle_gamma   90.00000000
_symmetry_Int_Tables_number   1
_chemical_formula_structural   NdGaCo4
_chemical_formula_sum   'Nd1 Ga1 Co4'
_cell_volume   88.82017570
_cell_formula_units_Z   1
loop_
 _symmetry_equiv_pos_site_id
 _symmetry_equiv_pos_as_xyz
  1  'x, y, z'
loop_
 _atom_site_type_symbol
 _atom_site_label
 _atom_site_symmetry_multiplicity
 _atom_site_fract_x
 _atom_site_fract_y
 _atom_site_fract_z
 _atom_site_occupancy
  Nd  Nd0  1  0.00000000  0.99996966  0.00002183  1
  Ga  Ga1  1  0.00000000  0.33330613  0.33335461  1
  Co  Co2  1  0.00000000  0.66657440  0.66671770  1
  Co  Co3  1  0.50000000  0.50455104  0.50453904  1
  Co  Co4  1  0.50000000  0.50458242  0.99089880  1
  Co  Co5  1  0.50000000  0.99091635  0.50456801  1
