# generated using pymatgen
data_Nd2NbInO7
_symmetry_space_group_name_H-M   'P 1'
_cell_length_a   7.59639983
_cell_length_b   7.48713169
_cell_length_c   7.69197464
_cell_angle_alpha   90.00000000
_cell_angle_beta   59.58292412
_cell_angle_gamma   119.52530437
_symmetry_Int_Tables_number   1
_chemical_formula_structural   Nd2NbInO7
_chemical_formula_sum   'Nd4 Nb2 In2 O14'
_cell_volume   309.59763048
_cell_formula_units_Z   2
loop_
 _symmetry_equiv_pos_site_id
 _symmetry_equiv_pos_as_xyz
  1  'x, y, z'
loop_
 _atom_site_type_symbol
 _atom_site_label
 _atom_site_symmetry_multiplicity
 _atom_site_fract_x
 _atom_site_fract_y
 _atom_site_fract_z
 _atom_site_occupancy
  Nd  Nd0  1  0.50000000  -0.00000000  0.50000000  1
  Nd  Nd1  1  0.50000000  0.50000000  0.50000000  1
  Nd  Nd2  1  -0.00000000  0.50000000  0.00000000  1
  Nd  Nd3  1  -0.00000000  0.50000000  0.50000000  1
  Nb  Nb4  1  -0.00000000  -0.00000000  0.50000000  1
  Nb  Nb5  1  -0.00000000  -0.00000000  0.00000000  1
  In  In6  1  0.50000000  0.50000000  0.00000000  1
  In  In7  1  0.50000000  -0.00000000  0.00000000  1
  O  O8  1  0.87763130  0.93881565  0.31118435  1
  O  O9  1  0.70198968  0.35099484  0.89900516  1
  O  O10  1  0.24848756  0.92574194  0.90356205  1
  O  O11  1  0.24848756  0.32274561  0.34795040  1
  O  O12  1  0.24848756  0.32274561  0.90356205  1
  O  O13  1  0.24848756  0.92574194  0.34795040  1
  O  O14  1  0.12236870  0.06118435  0.68881565  1
  O  O15  1  0.29801032  0.64900516  0.10099484  1
  O  O16  1  0.75151244  0.07425806  0.09643795  1
  O  O17  1  0.75151244  0.67725439  0.65204960  1
  O  O18  1  0.75151244  0.67725439  0.09643795  1
  O  O19  1  0.75151244  0.07425806  0.65204960  1
  O  O20  1  0.74523314  0.37261657  0.37738343  1
  O  O21  1  0.25476686  0.62738343  0.62261657  1
