# generated using pymatgen
data_Sm4Cr3Fe31C4
_symmetry_space_group_name_H-M   'P 1'
_cell_length_a   6.47994889
_cell_length_b   6.48808285
_cell_length_c   12.93369223
_cell_angle_alpha   83.43637388
_cell_angle_beta   83.57640945
_cell_angle_gamma   83.46626853
_symmetry_Int_Tables_number   1
_chemical_formula_structural   Sm4Cr3Fe31C4
_chemical_formula_sum   'Sm4 Cr3 Fe31 C4'
_cell_volume   533.99177584
_cell_formula_units_Z   1
loop_
 _symmetry_equiv_pos_site_id
 _symmetry_equiv_pos_as_xyz
  1  'x, y, z'
loop_
 _atom_site_type_symbol
 _atom_site_label
 _atom_site_symmetry_multiplicity
 _atom_site_fract_x
 _atom_site_fract_y
 _atom_site_fract_z
 _atom_site_occupancy
  Sm  Sm0  1  0.66519154  0.65068058  0.32490676  1
  Sm  Sm1  1  0.66356205  0.64847457  0.82461739  1
  Sm  Sm2  1  0.33788993  0.35133364  0.17538314  1
  Sm  Sm3  1  0.34022739  0.35503634  0.67799374  1
  Cr  Cr4  1  0.91226277  0.91444466  0.95710708  1
  Cr  Cr5  1  0.08582554  0.08626065  0.04355788  1
  Cr  Cr6  1  0.09348345  0.09471882  0.54691579  1
  Fe  Fe7  1  0.99943297  0.00085230  0.24905671  1
  Fe  Fe8  1  0.99998410  0.99995683  0.74962136  1
  Fe  Fe9  1  -0.00031007  0.49832933  0.50076845  1
  Fe  Fe10  1  0.00028875  0.49978059  0.99971110  1
  Fe  Fe11  1  0.49979340  0.00037744  0.99937229  1
  Fe  Fe12  1  0.49830508  0.00026998  0.50024202  1
  Fe  Fe13  1  0.85513809  0.34191761  0.17079697  1
  Fe  Fe14  1  0.85552717  0.34024891  0.67151302  1
  Fe  Fe15  1  0.34084212  0.34376530  0.42802779  1
  Fe  Fe16  1  0.33887593  0.34268545  0.92857380  1
  Fe  Fe17  1  0.34032768  0.85749290  0.17075031  1
  Fe  Fe18  1  0.33960985  0.85634638  0.67207149  1
  Fe  Fe19  1  0.14304018  0.65739473  0.32931389  1
  Fe  Fe20  1  0.14353841  0.66004479  0.82842488  1
  Fe  Fe21  1  0.66083675  0.65791478  0.07167000  1
  Fe  Fe22  1  0.66175923  0.65638735  0.57175925  1
  Fe  Fe23  1  0.66037972  0.14388708  0.32867153  1
  Fe  Fe24  1  0.66176467  0.14198527  0.82834503  1
  Fe  Fe25  1  0.28559176  0.71249708  0.49870192  1
  Fe  Fe26  1  0.28898647  0.71440773  0.99783637  1
  Fe  Fe27  1  0.71239474  0.00244296  0.14204504  1
  Fe  Fe28  1  0.71150690  0.00043576  0.64197567  1
  Fe  Fe29  1  0.00052013  0.28100250  0.35850459  1
  Fe  Fe30  1  0.99968239  0.28222166  0.85882487  1
  Fe  Fe31  1  0.28505364  0.99655683  0.35620794  1
  Fe  Fe32  1  0.28691378  0.99852416  0.85752659  1
  Fe  Fe33  1  0.00107899  0.71804953  0.14026628  1
  Fe  Fe34  1  0.00102930  0.71597200  0.64109578  1
  Fe  Fe35  1  0.71158692  0.28462043  0.00209287  1
  Fe  Fe36  1  0.71076334  0.28307274  0.50165115  1
  Fe  Fe37  1  0.90738189  0.90777751  0.45390675  1
  C  C38  1  0.49995815  0.50056721  -0.00017613  1
  C  C39  1  0.50005179  0.50044851  0.50019483  1
  C  C40  1  0.50010804  0.00036576  0.25005302  1
  C  C41  1  0.49981503  0.00045136  0.75012079  1
