# generated using pymatgen
data_Nd2MnGaO6
_symmetry_space_group_name_H-M   'P 1'
_cell_length_a   5.47325678
_cell_length_b   5.80981467
_cell_length_c   7.73507675
_cell_angle_alpha   90.00000000
_cell_angle_beta   89.55275991
_cell_angle_gamma   90.00000000
_symmetry_Int_Tables_number   1
_chemical_formula_structural   Nd2MnGaO6
_chemical_formula_sum   'Nd4 Mn2 Ga2 O12'
_cell_volume   245.95717642
_cell_formula_units_Z   2
loop_
 _symmetry_equiv_pos_site_id
 _symmetry_equiv_pos_as_xyz
  1  'x, y, z'
loop_
 _atom_site_type_symbol
 _atom_site_label
 _atom_site_symmetry_multiplicity
 _atom_site_fract_x
 _atom_site_fract_y
 _atom_site_fract_z
 _atom_site_occupancy
  Nd  Nd0  1  0.48439529  0.06637374  0.24957094  1
  Nd  Nd1  1  0.01560471  0.56637374  0.25042906  1
  Nd  Nd2  1  0.51560471  0.93362626  0.75042906  1
  Nd  Nd3  1  0.98439529  0.43362626  0.74957094  1
  Mn  Mn4  1  0.50000000  0.50000000  0.50000000  1
  Mn  Mn5  1  0.00000000  -0.00000000  -0.00000000  1
  Ga  Ga6  1  0.50000000  0.50000000  -0.00000000  1
  Ga  Ga7  1  0.00000000  -0.00000000  0.50000000  1
  O  O8  1  0.29200558  0.80596721  0.04666532  1
  O  O9  1  0.20799442  0.30596721  0.45333468  1
  O  O10  1  0.71668262  0.18404184  0.54907867  1
  O  O11  1  0.78331738  0.68404184  0.95092133  1
  O  O12  1  0.70799442  0.19403279  0.95333468  1
  O  O13  1  0.79200558  0.69403279  0.54666532  1
  O  O14  1  0.28331738  0.81595816  0.45092133  1
  O  O15  1  0.21668262  0.31595816  0.04907867  1
  O  O16  1  0.59332969  0.47627678  0.25429144  1
  O  O17  1  0.90667031  0.97627678  0.24570856  1
  O  O18  1  0.40667031  0.52372322  0.74570856  1
  O  O19  1  0.09332969  0.02372322  0.75429144  1
