# generated using pymatgen
data_Nd2Sn4Ru
_symmetry_space_group_name_H-M   'P 1'
_cell_length_a   4.69880190
_cell_length_b   4.72000480
_cell_length_c   8.67136261
_cell_angle_alpha   74.20713215
_cell_angle_beta   90.00000000
_cell_angle_gamma   90.00000000
_symmetry_Int_Tables_number   1
_chemical_formula_structural   Nd2Sn4Ru
_chemical_formula_sum   'Nd2 Sn4 Ru1'
_cell_volume   185.05707418
_cell_formula_units_Z   1
loop_
 _symmetry_equiv_pos_site_id
 _symmetry_equiv_pos_as_xyz
  1  'x, y, z'
loop_
 _atom_site_type_symbol
 _atom_site_label
 _atom_site_symmetry_multiplicity
 _atom_site_fract_x
 _atom_site_fract_y
 _atom_site_fract_z
 _atom_site_occupancy
  Nd  Nd0  1  0.25000000  0.89912039  0.20175922  1
  Nd  Nd1  1  0.75000000  0.09990670  0.80018660  1
  Sn  Sn2  1  0.25000000  0.54299946  0.91400108  1
  Sn  Sn3  1  0.75000000  0.42150704  0.15698592  1
  Sn  Sn4  1  0.25000000  0.26441956  0.47116087  1
  Sn  Sn5  1  0.75000000  0.75959881  0.48080238  1
  Ru  Ru6  1  0.25000000  0.69744803  0.60510393  1
