# generated using pymatgen
data_Sb3TeClO6
_symmetry_space_group_name_H-M   'P 1'
_cell_length_a   4.14619264
_cell_length_b   8.73642955
_cell_length_c   8.16301447
_cell_angle_alpha   76.84229307
_cell_angle_beta   104.71209357
_cell_angle_gamma   76.27315556
_symmetry_Int_Tables_number   1
_chemical_formula_structural   Sb3TeClO6
_chemical_formula_sum   'Sb3 Te1 Cl1 O6'
_cell_volume   264.46214655
_cell_formula_units_Z   1
loop_
 _symmetry_equiv_pos_site_id
 _symmetry_equiv_pos_as_xyz
  1  'x, y, z'
loop_
 _atom_site_type_symbol
 _atom_site_label
 _atom_site_symmetry_multiplicity
 _atom_site_fract_x
 _atom_site_fract_y
 _atom_site_fract_z
 _atom_site_occupancy
  Sb  Sb0  1  0.67216158  0.48537997  0.82970312  1
  Sb  Sb1  1  0.30478989  0.85448249  0.46406227  1
  Sb  Sb2  1  0.69806508  0.14309665  0.53922680  1
  Te  Te3  1  0.33000665  0.50761700  0.16763030  1
  Cl  Cl4  1  0.99658247  0.50007529  0.49324022  1
  O  O5  1  0.21808568  0.49042972  0.92660107  1
  O  O6  1  0.78544916  0.51536836  0.08626668  1
  O  O7  1  0.21458444  0.07949307  0.50866195  1
  O  O8  1  0.78342261  0.92339044  0.49023566  1
  O  O9  1  0.49884368  0.27471340  0.27240075  1
  O  O10  1  0.49800878  0.72595363  0.72197118  1
