# generated using pymatgen
data_Li11(FeO3)4
_symmetry_space_group_name_H-M   'P 1'
_cell_length_a   3.49637869
_cell_length_b   8.99739581
_cell_length_c   9.06567452
_cell_angle_alpha   89.27041649
_cell_angle_beta   90.00000000
_cell_angle_gamma   90.00000000
_symmetry_Int_Tables_number   1
_chemical_formula_structural   Li11(FeO3)4
_chemical_formula_sum   'Li11 Fe4 O12'
_cell_volume   285.16761466
_cell_formula_units_Z   1
loop_
 _symmetry_equiv_pos_site_id
 _symmetry_equiv_pos_as_xyz
  1  'x, y, z'
loop_
 _atom_site_type_symbol
 _atom_site_label
 _atom_site_symmetry_multiplicity
 _atom_site_fract_x
 _atom_site_fract_y
 _atom_site_fract_z
 _atom_site_occupancy
  Li  Li0  1  0.49999900  0.11218438  0.31381311  1
  Li  Li1  1  0.00000000  0.14370111  0.60087515  1
  Li  Li2  1  0.50000000  0.31842092  0.10886924  1
  Li  Li3  1  0.50000100  0.33100698  0.67051756  1
  Li  Li4  1  0.00000000  0.40079366  0.85907254  1
  Li  Li5  1  0.00000000  0.60036723  0.14781097  1
  Li  Li6  1  0.50000000  0.64242114  0.90184704  1
  Li  Li7  1  0.49999900  0.67329172  0.33038929  1
  Li  Li8  1  0.00000200  0.82991499  0.82533648  1
  Li  Li9  1  0.00000000  0.87129070  0.39734929  1
  Li  Li10  1  0.50000000  0.90356876  0.64033204  1
  Fe  Fe11  1  0.50000000  0.11326815  0.88655639  1
  Fe  Fe12  1  0.00000000  0.61620490  0.61229535  1
  Fe  Fe13  1  0.00000000  0.38405390  0.38554325  1
  Fe  Fe14  1  0.50000000  0.88741984  0.11018355  1
  O  O15  1  0.50000000  0.11201525  0.68503983  1
  O  O16  1  0.50000000  0.09502831  0.09238611  1
  O  O17  1  0.00000000  0.18586127  0.39629572  1
  O  O18  1  0.50000000  0.31648040  0.89045465  1
  O  O19  1  0.00000000  0.40146542  0.60095548  1
  O  O20  1  0.00000000  0.39384647  0.18931475  1
  O  O21  1  0.00000000  0.60122697  0.39979877  1
  O  O22  1  0.00000000  0.61151328  0.81574772  1
  O  O23  1  0.50000000  0.68415962  0.11043347  1
  O  O24  1  0.00000000  0.82148330  0.60628486  1
  O  O25  1  0.50000000  0.89268888  0.31150338  1
  O  O26  1  0.50000000  0.89770943  0.89643698  1
