# generated using pymatgen
data_Nd4Sn8Ir
_symmetry_space_group_name_H-M   'P 1'
_cell_length_a   4.51168151
_cell_length_b   4.53974375
_cell_length_c   17.44137307
_cell_angle_alpha   90.00000000
_cell_angle_beta   90.00000000
_cell_angle_gamma   90.00000000
_symmetry_Int_Tables_number   1
_chemical_formula_structural   Nd4Sn8Ir
_chemical_formula_sum   'Nd4 Sn8 Ir1'
_cell_volume   357.23207427
_cell_formula_units_Z   1
loop_
 _symmetry_equiv_pos_site_id
 _symmetry_equiv_pos_as_xyz
  1  'x, y, z'
loop_
 _atom_site_type_symbol
 _atom_site_label
 _atom_site_symmetry_multiplicity
 _atom_site_fract_x
 _atom_site_fract_y
 _atom_site_fract_z
 _atom_site_occupancy
  Nd  Nd0  1  0.25000000  -0.00000000  0.09957531  1
  Nd  Nd1  1  0.25000000  0.50000000  0.60673784  1
  Nd  Nd2  1  0.75000000  0.50000000  0.39581788  1
  Nd  Nd3  1  0.75000000  -0.00000000  0.89859885  1
  Sn  Sn4  1  0.25000000  0.50000000  0.23496720  1
  Sn  Sn5  1  0.25000000  -0.00000000  0.74870909  1
  Sn  Sn6  1  0.75000000  -0.00000000  0.23497552  1
  Sn  Sn7  1  0.75000000  0.50000000  0.75450281  1
  Sn  Sn8  1  0.25000000  0.00000000  0.46185302  1
  Sn  Sn9  1  0.25000000  0.50000000  0.94077660  1
  Sn  Sn10  1  0.75000000  0.50000000  0.05805584  1
  Sn  Sn11  1  0.75000000  0.00000000  0.57171461  1
  Ir  Ir12  1  0.25000000  -0.00000000  0.31371544  1
