# generated using pymatgen
data_Na3Tl4
_symmetry_space_group_name_H-M   'P 1'
_cell_length_a   5.37739053
_cell_length_b   5.37739053
_cell_length_c   9.22944188
_cell_angle_alpha   73.06316376
_cell_angle_beta   90.00000000
_cell_angle_gamma   120.00000000
_symmetry_Int_Tables_number   1
_chemical_formula_structural   Na3Tl4
_chemical_formula_sum   'Na3 Tl4'
_cell_volume   217.65730559
_cell_formula_units_Z   1
loop_
 _symmetry_equiv_pos_site_id
 _symmetry_equiv_pos_as_xyz
  1  'x, y, z'
loop_
 _atom_site_type_symbol
 _atom_site_label
 _atom_site_symmetry_multiplicity
 _atom_site_fract_x
 _atom_site_fract_y
 _atom_site_fract_z
 _atom_site_occupancy
  Na  Na0  1  0.37494608  0.74989216  0.87516176  1
  Na  Na1  1  0.99471011  0.98942023  0.01586966  1
  Na  Na2  1  0.50545638  0.01091276  0.48363086  1
  Tl  Tl3  1  0.62849764  0.25699527  0.11450709  1
  Tl  Tl4  1  0.12479947  0.24959893  0.62560160  1
  Tl  Tl5  1  0.24622049  0.49244098  0.26133853  1
  Tl  Tl6  1  0.75036984  0.50073967  0.74889049  1
