# generated using pymatgen
data_NaCa3ScZn3(SiO3)8
_symmetry_space_group_name_H-M   'P 1'
_cell_length_a   5.33214303
_cell_length_b   9.89849181
_cell_length_c   9.09709439
_cell_angle_alpha   90.00000000
_cell_angle_beta   90.00000000
_cell_angle_gamma   104.98581428
_symmetry_Int_Tables_number   1
_chemical_formula_structural   NaCa3ScZn3(SiO3)8
_chemical_formula_sum   'Na1 Ca3 Sc1 Zn3 Si8 O24'
_cell_volume   463.81639338
_cell_formula_units_Z   1
loop_
 _symmetry_equiv_pos_site_id
 _symmetry_equiv_pos_as_xyz
  1  'x, y, z'
loop_
 _atom_site_type_symbol
 _atom_site_label
 _atom_site_symmetry_multiplicity
 _atom_site_fract_x
 _atom_site_fract_y
 _atom_site_fract_z
 _atom_site_occupancy
  Na  Na0  1  0.25000000  0.50000000  0.80353962  1
  Ca  Ca1  1  0.75000000  0.00000000  0.29569651  1
  Ca  Ca2  1  0.75000000  0.50000000  0.19696244  1
  Ca  Ca3  1  0.25000000  0.00000000  0.70403199  1
  Sc  Sc4  1  0.75000000  0.50000000  0.60332107  1
  Zn  Zn5  1  0.25000000  0.50000000  0.40050017  1
  Zn  Zn6  1  0.75000000  0.00000000  0.90483184  1
  Zn  Zn7  1  0.25000000  0.00000000  0.09445893  1
  Si  Si8  1  0.44424493  0.71238111  0.09012239  1
  Si  Si9  1  0.94569999  0.21291456  0.59217738  1
  Si  Si10  1  0.05575507  0.28761889  0.09012239  1
  Si  Si11  1  0.55430001  0.78708544  0.59217738  1
  Si  Si12  1  0.55364335  0.28687304  0.90967921  1
  Si  Si13  1  0.05531406  0.78784660  0.40799938  1
  Si  Si14  1  0.94635665  0.71312696  0.90967921  1
  Si  Si15  1  0.44468594  0.21215340  0.40799938  1
  O  O16  1  0.52815949  0.88300739  0.08876008  1
  O  O17  1  0.02476906  0.38258368  0.58425812  1
  O  O18  1  0.97184051  0.11699261  0.08876008  1
  O  O19  1  0.47523094  0.61741632  0.58425812  1
  O  O20  1  0.47077508  0.11676701  0.91000651  1
  O  O21  1  0.96854863  0.61706005  0.41393441  1
  O  O22  1  0.02922492  0.88323299  0.91000651  1
  O  O23  1  0.53145137  0.38293995  0.41393441  1
  O  O24  1  0.46034503  0.63866554  0.24677825  1
  O  O25  1  0.96125085  0.13820352  0.74690682  1
  O  O26  1  0.03965497  0.36133446  0.24677825  1
  O  O27  1  0.53874915  0.86179648  0.74690682  1
  O  O28  1  0.54752770  0.36000504  0.75139165  1
  O  O29  1  0.03893676  0.86119228  0.25242168  1
  O  O30  1  0.95247230  0.63999496  0.75139165  1
  O  O31  1  0.46106324  0.13880772  0.25242168  1
  O  O32  1  0.14764821  0.65116102  0.01805654  1
  O  O33  1  0.64944495  0.14999165  0.51651022  1
  O  O34  1  0.35235179  0.34883898  0.01805654  1
  O  O35  1  0.85055505  0.85000835  0.51651022  1
  O  O36  1  0.84611813  0.34902029  0.98592875  1
  O  O37  1  0.34951580  0.84942093  0.48339734  1
  O  O38  1  0.65388187  0.65097971  0.98592875  1
  O  O39  1  0.15048420  0.15057907  0.48339734  1
