# generated using pymatgen
data_NaV6O15
_symmetry_space_group_name_H-M   'P 1'
_cell_length_a   3.66387534
_cell_length_b   8.07701378
_cell_length_c   10.27058649
_cell_angle_alpha   109.14908673
_cell_angle_beta   90.00000000
_cell_angle_gamma   76.89073603
_symmetry_Int_Tables_number   1
_chemical_formula_structural   NaV6O15
_chemical_formula_sum   'Na1 V6 O15'
_cell_volume   278.72334939
_cell_formula_units_Z   1
loop_
 _symmetry_equiv_pos_site_id
 _symmetry_equiv_pos_as_xyz
  1  'x, y, z'
loop_
 _atom_site_type_symbol
 _atom_site_label
 _atom_site_symmetry_multiplicity
 _atom_site_fract_x
 _atom_site_fract_y
 _atom_site_fract_z
 _atom_site_occupancy
  Na  Na0  1  0.99555656  0.00888687  0.39367143  1
  V  V1  1  0.66376550  0.67246901  0.10000343  1
  V  V2  1  0.33562624  0.32874753  0.89766262  1
  V  V3  1  0.88273345  0.23453311  0.11493789  1
  V  V4  1  0.11493167  0.77013666  0.88574209  1
  V  V5  1  0.71402793  0.57194413  0.40739824  1
  V  V6  1  0.28475794  0.43048411  0.59223269  1
  O  O7  1  0.36694209  0.26611582  0.07215755  1
  O  O8  1  0.63290093  0.73419813  0.92625015  1
  O  O9  1  0.56451192  0.87097616  0.22357710  1
  O  O10  1  0.43447249  0.13105502  0.78229625  1
  O  O11  1  0.24468646  0.51062707  0.42663671  1
  O  O12  1  0.75592333  0.48815334  0.57637822  1
  O  O13  1  0.73894784  0.52210432  0.22162183  1
  O  O14  1  0.26218285  0.47563430  0.77944854  1
  O  O15  1  0.89268003  0.21463993  0.26942205  1
  O  O16  1  0.10911451  0.78177099  0.73036177  1
  O  O17  1  0.60443684  0.79112631  0.46551944  1
  O  O18  1  0.39494937  0.21010125  0.52804638  1
  O  O19  1  0.18686175  0.62627649  0.05348745  1
  O  O20  1  0.81355717  0.37288567  0.94737999  1
  O  O21  1  0.99943311  0.00113377  0.99976818  1
