# generated using pymatgen
data_Na3Si34
_symmetry_space_group_name_H-M   'P 1'
_cell_length_a   10.41359056
_cell_length_b   10.42710397
_cell_length_c   10.41359056
_cell_angle_alpha   90.00000000
_cell_angle_beta   60.00000000
_cell_angle_gamma   119.95713829
_symmetry_Int_Tables_number   1
_chemical_formula_structural   Na3Si34
_chemical_formula_sum   'Na3 Si34'
_cell_volume   800.07510696
_cell_formula_units_Z   1
loop_
 _symmetry_equiv_pos_site_id
 _symmetry_equiv_pos_as_xyz
  1  'x, y, z'
loop_
 _atom_site_type_symbol
 _atom_site_label
 _atom_site_symmetry_multiplicity
 _atom_site_fract_x
 _atom_site_fract_y
 _atom_site_fract_z
 _atom_site_occupancy
  Na  Na0  1  0.74994595  0.37491892  0.37502703  1
  Na  Na1  1  0.25005405  0.62508108  0.62497297  1
  Na  Na2  1  0.50000000  0.50000000  -0.00000000  1
  Si  Si3  1  0.06473190  0.84709786  0.21763405  1
  Si  Si4  1  0.06418327  0.21720250  0.21790837  1
  Si  Si5  1  0.43511086  0.21720250  0.84698077  1
  Si  Si6  1  0.43511086  0.21720250  0.21790837  1
  Si  Si7  1  0.93526810  0.15290214  0.78236595  1
  Si  Si8  1  0.93581673  0.78279750  0.78209163  1
  Si  Si9  1  0.56488914  0.78279750  0.15301923  1
  Si  Si10  1  0.56488914  0.78279750  0.78209163  1
  Si  Si11  1  0.24915631  0.12373447  0.12542184  1
  Si  Si12  1  0.75084369  0.87626553  0.87457816  1
  Si  Si13  1  0.13489352  0.76414995  0.37074357  1
  Si  Si14  1  0.13417910  0.37092141  0.99480556  1
  Si  Si15  1  0.36572696  0.37092141  0.76325770  1
  Si  Si16  1  0.36536638  0.99418390  0.37118248  1
  Si  Si17  1  0.74193674  0.37092141  0.76325770  1
  Si  Si18  1  0.75851286  0.76414995  0.37074357  1
  Si  Si19  1  0.75763504  0.99418390  0.37118248  1
  Si  Si20  1  0.74193674  0.37092141  0.99480556  1
  Si  Si21  1  0.13417910  0.37092141  0.37101534  1
  Si  Si22  1  0.36536638  0.99418390  0.76345114  1
  Si  Si23  1  0.13489352  0.76414995  0.99436291  1
  Si  Si24  1  0.36572696  0.37092141  0.37101534  1
  Si  Si25  1  0.86510648  0.23585005  0.62925643  1
  Si  Si26  1  0.86582090  0.62907859  0.00519444  1
  Si  Si27  1  0.63427304  0.62907859  0.23674230  1
  Si  Si28  1  0.63463362  0.00581610  0.62881752  1
  Si  Si29  1  0.25806326  0.62907859  0.23674230  1
  Si  Si30  1  0.24148714  0.23585005  0.62925643  1
  Si  Si31  1  0.24236496  0.00581610  0.62881752  1
  Si  Si32  1  0.25806326  0.62907859  0.00519444  1
  Si  Si33  1  0.86582090  0.62907859  0.62898466  1
  Si  Si34  1  0.63463362  0.00581610  0.23654886  1
  Si  Si35  1  0.86510648  0.23585005  0.00563709  1
  Si  Si36  1  0.63427304  0.62907859  0.62898466  1
