# generated using pymatgen
data_Nb9PO25
_symmetry_space_group_name_H-M   'P 1'
_cell_length_a   3.89200972
_cell_length_b   11.39859881
_cell_length_c   11.39869772
_cell_angle_alpha   91.67023869
_cell_angle_beta   99.82978188
_cell_angle_gamma   80.17013198
_symmetry_Int_Tables_number   1
_chemical_formula_structural   Nb9PO25
_chemical_formula_sum   'Nb9 P1 O25'
_cell_volume   490.94685281
_cell_formula_units_Z   1
loop_
 _symmetry_equiv_pos_site_id
 _symmetry_equiv_pos_as_xyz
  1  'x, y, z'
loop_
 _atom_site_type_symbol
 _atom_site_label
 _atom_site_symmetry_multiplicity
 _atom_site_fract_x
 _atom_site_fract_y
 _atom_site_fract_z
 _atom_site_occupancy
  Nb  Nb0  1  0.66259917  0.44361628  0.78298452  1
  Nb  Nb1  1  0.32323093  0.55638372  0.21701548  1
  Nb  Nb2  1  0.89390897  0.78298531  0.55637843  1
  Nb  Nb3  1  0.12051584  0.21701469  0.44362157  1
  Nb  Nb4  1  0.96161147  0.00000000  -0.00000000  1
  Nb  Nb5  1  0.89249450  0.32692256  0.10885412  1
  Nb  Nb6  1  0.11056294  0.67307744  0.89114588  1
  Nb  Nb7  1  0.78282204  0.10885136  0.67307694  1
  Nb  Nb8  1  0.21859645  0.89114864  0.32692306  1
  P  P9  1  0.74997495  0.50000000  0.50000000  1
  O  O10  1  0.84944780  0.51032302  0.19912544  1
  O  O11  1  0.16064537  0.48967698  0.80087456  1
  O  O12  1  0.64035788  0.19912213  0.48968618  1
  O  O13  1  0.34979383  0.80087787  0.51031382  1
  O  O14  1  0.71510466  0.29272166  0.72815414  1
  O  O15  1  0.27967218  0.70727834  0.27184586  1
  O  O16  1  0.99202706  0.72815814  0.70726797  1
  O  O17  1  0.01291722  0.27184186  0.29273203  1
  O  O18  1  0.58254147  0.51547799  0.61479530  1
  O  O19  1  0.48322416  0.48452201  0.38520470  1
  O  O20  1  0.90193318  0.61479838  0.48451716  1
  O  O21  1  0.03221440  0.38520162  0.51548284  1
  O  O22  1  0.61490272  0.63615604  0.86073192  1
  O  O23  1  0.39032684  0.36384396  0.13926808  1
  O  O24  1  0.74953190  0.86073606  0.36384018  1
  O  O25  1  0.24642778  0.13926394  0.63615982  1
  O  O26  1  0.78747072  0.39181267  0.95415536  1
  O  O27  1  0.22512802  0.60818733  0.04584464  1
  O  O28  1  0.82067389  0.95415141  0.60819295  1
  O  O29  1  0.16663235  0.04584859  0.39180705  1
  O  O30  1  0.95026421  0.16677253  0.06858191  1
  O  O31  1  0.04845483  0.83322747  0.93141809  1
  O  O32  1  0.88194111  0.06858228  0.83323368  1
  O  O33  1  0.11728970  0.93141772  0.16676632  1
  O  O34  1  0.49175946  -0.00000000  -0.00000000  1
