# generated using pymatgen
data_Na2UI6
_symmetry_space_group_name_H-M   'P 1'
_cell_length_a   8.04570257
_cell_length_b   9.46689594
_cell_length_c   9.46689594
_cell_angle_alpha   64.53965437
_cell_angle_beta   70.40257082
_cell_angle_gamma   109.59742918
_symmetry_Int_Tables_number   1
_chemical_formula_structural   Na2UI6
_chemical_formula_sum   'Na2 U1 I6'
_cell_volume   506.53770990
_cell_formula_units_Z   1
loop_
 _symmetry_equiv_pos_site_id
 _symmetry_equiv_pos_as_xyz
  1  'x, y, z'
loop_
 _atom_site_type_symbol
 _atom_site_label
 _atom_site_symmetry_multiplicity
 _atom_site_fract_x
 _atom_site_fract_y
 _atom_site_fract_z
 _atom_site_occupancy
  Na  Na0  1  0.50000000  0.50000000  0.50000000  1
  Na  Na1  1  0.50000000  0.00000000  -0.00000000  1
  U  U2  1  0.00000000  0.00000000  -0.00000000  1
  I  I3  1  0.35616179  0.30593042  0.94976863  1
  I  I4  1  0.35616179  0.05023137  0.69406958  1
  I  I5  1  0.00000000  0.30171345  0.69828655  1
  I  I6  1  0.64383821  0.69406958  0.05023137  1
  I  I7  1  0.64383821  0.94976863  0.30593042  1
  I  I8  1  -0.00000000  0.69828655  0.30171345  1
