# generated using pymatgen
data_Nd15Si7Ni2
_symmetry_space_group_name_H-M   'P 1'
_cell_length_a   7.77304586
_cell_length_b   7.77304586
_cell_length_c   21.59619672
_cell_angle_alpha   79.80764885
_cell_angle_beta   79.80764885
_cell_angle_gamma   90.95834447
_symmetry_Int_Tables_number   1
_chemical_formula_structural   Nd15Si7Ni2
_chemical_formula_sum   'Nd30 Si14 Ni4'
_cell_volume   1262.43422329
_cell_formula_units_Z   2
loop_
 _symmetry_equiv_pos_site_id
 _symmetry_equiv_pos_as_xyz
  1  'x, y, z'
loop_
 _atom_site_type_symbol
 _atom_site_label
 _atom_site_symmetry_multiplicity
 _atom_site_fract_x
 _atom_site_fract_y
 _atom_site_fract_z
 _atom_site_occupancy
  Nd  Nd0  1  0.83418438  0.83442402  0.33333300  1
  Nd  Nd1  1  0.17384214  0.17971592  0.66615742  1
  Nd  Nd2  1  0.50666556  0.51253933  0.00050958  1
  Nd  Nd3  1  0.98695108  0.99282486  0.00050958  1
  Nd  Nd4  1  0.33224198  0.33248162  0.33333300  1
  Nd  Nd5  1  0.65412767  0.66000144  0.66615742  1
  Nd  Nd6  1  0.77942633  0.62163564  0.09893803  1
  Nd  Nd7  1  0.10927309  0.95895647  0.43176944  1
  Nd  Nd8  1  0.44447338  0.29047657  0.76505106  1
  Nd  Nd9  1  0.12513615  0.27589084  0.09897301  1
  Nd  Nd10  1  0.45962226  0.60964035  0.43073639  1
  Nd  Nd11  1  0.79603293  0.93996717  0.76400091  1
  Nd  Nd12  1  0.62163594  0.12325459  0.09920516  1
  Nd  Nd13  1  0.95327052  0.45442752  0.42596681  1
  Nd  Nd14  1  0.29016624  0.79200356  0.76392695  1
  Nd  Nd15  1  0.27754026  0.77915890  0.09920516  1
  Nd  Nd16  1  0.61960467  0.12076167  0.42596681  1
  Nd  Nd17  1  0.94407048  0.44590781  0.76392695  1
  Nd  Nd18  1  0.55702565  0.70704374  0.23592961  1
  Nd  Nd19  1  0.89077616  0.04153085  0.56769399  1
  Nd  Nd20  1  0.22669983  0.37063407  0.90266609  1
  Nd  Nd21  1  0.20770953  0.05739291  0.23489656  1
  Nd  Nd22  1  0.54503136  0.38724067  0.56772897  1
  Nd  Nd23  1  0.87619043  0.72219362  0.90161594  1
  Nd  Nd24  1  0.71223848  0.21339548  0.24069919  1
  Nd  Nd25  1  0.04341241  0.54503106  0.56746184  1
  Nd  Nd26  1  0.37466344  0.87650076  0.90274005  1
  Nd  Nd27  1  0.04590433  0.54706133  0.24069919  1
  Nd  Nd28  1  0.38750810  0.88912674  0.56746184  1
  Nd  Nd29  1  0.72075919  0.22259652  0.90274005  1
  Si  Si30  1  0.41781864  0.41568296  0.16739243  1
  Si  Si31  1  0.75098404  0.74884836  0.49927457  1
  Si  Si32  1  0.08520335  0.08146265  0.83333300  1
  Si  Si33  1  0.91692561  0.91478994  0.16739243  1
  Si  Si34  1  0.25187706  0.24974139  0.49927457  1
  Si  Si35  1  0.58520335  0.58146265  0.83333300  1
  Si  Si36  1  0.05107846  0.78272033  0.66620221  1
  Si  Si37  1  0.38394667  0.11558854  0.00046479  1
  Si  Si38  1  0.21843509  0.71923736  0.33333300  1
  Si  Si39  1  0.55428902  0.04888530  0.66708766  1
  Si  Si40  1  0.88804268  0.38263896  0.99957934  1
  Si  Si41  1  0.44742864  0.94823091  0.33333300  1
  Si  Si42  1  0.78402804  0.27862432  0.66708766  1
  Si  Si43  1  0.11778170  0.61237798  0.99957934  1
  Ni  Ni44  1  0.60878320  0.89144144  0.99977536  1
  Ni  Ni45  1  0.95395425  0.21271175  0.33333300  1
  Ni  Ni46  1  0.27522556  0.55788380  0.66689164  1
  Ni  Ni47  1  0.71281068  0.45385532  0.33333300  1
