# generated using pymatgen
data_Na2Mn3Te4
_symmetry_space_group_name_H-M   'P 1'
_cell_length_a   4.50485574
_cell_length_b   8.88914816
_cell_length_c   7.96310279
_cell_angle_alpha   115.95521122
_cell_angle_beta   90.01358141
_cell_angle_gamma   104.67430744
_symmetry_Int_Tables_number   1
_chemical_formula_structural   Na2Mn3Te4
_chemical_formula_sum   'Na2 Mn3 Te4'
_cell_volume   275.08961702
_cell_formula_units_Z   1
loop_
 _symmetry_equiv_pos_site_id
 _symmetry_equiv_pos_as_xyz
  1  'x, y, z'
loop_
 _atom_site_type_symbol
 _atom_site_label
 _atom_site_symmetry_multiplicity
 _atom_site_fract_x
 _atom_site_fract_y
 _atom_site_fract_z
 _atom_site_occupancy
  Na  Na0  1  0.76252903  0.52559990  0.76416498  1
  Na  Na1  1  0.25878358  0.51768721  0.25442152  1
  Mn  Mn2  1  0.42683362  0.85341997  0.77228429  1
  Mn  Mn3  1  0.06176925  0.12348727  0.71138713  1
  Mn  Mn4  1  0.55028658  0.10101837  0.23432434  1
  Te  Te5  1  0.12613694  0.25210746  0.45442202  1
  Te  Te6  1  0.61504991  0.22960146  0.95022707  1
  Te  Te7  1  0.88356831  0.76715581  0.54376319  1
  Te  Te8  1  0.37744279  0.75462256  0.04400545  1
