# generated using pymatgen
data_MnBi12W2(ClO8)3
_symmetry_space_group_name_H-M   'P 1'
_cell_length_a   5.51039039
_cell_length_b   14.97013306
_cell_length_c   8.90509903
_cell_angle_alpha   103.66908363
_cell_angle_beta   108.02279123
_cell_angle_gamma   79.39447302
_symmetry_Int_Tables_number   1
_chemical_formula_structural   MnBi12W2(ClO8)3
_chemical_formula_sum   'Mn1 Bi12 W2 Cl3 O24'
_cell_volume   673.85451762
_cell_formula_units_Z   1
loop_
 _symmetry_equiv_pos_site_id
 _symmetry_equiv_pos_as_xyz
  1  'x, y, z'
loop_
 _atom_site_type_symbol
 _atom_site_label
 _atom_site_symmetry_multiplicity
 _atom_site_fract_x
 _atom_site_fract_y
 _atom_site_fract_z
 _atom_site_occupancy
  Mn  Mn0  1  0.33045887  0.99999065  0.66090738  1
  Bi  Bi1  1  0.79187266  0.64137180  0.22511611  1
  Bi  Bi2  1  0.45773680  0.64124554  0.55672014  1
  Bi  Bi3  1  0.12681176  0.63856895  0.89219246  1
  Bi  Bi4  1  0.88578758  0.36144439  0.13301855  1
  Bi  Bi5  1  0.55293368  0.35870601  0.46457437  1
  Bi  Bi6  1  0.21856503  0.35866009  0.79579016  1
  Bi  Bi7  1  0.25920750  0.82532566  0.34374167  1
  Bi  Bi8  1  0.92249286  0.82084539  0.66583111  1
  Bi  Bi9  1  0.58546609  0.81375445  0.98468563  1
  Bi  Bi10  1  0.46129010  0.18636716  0.10894836  1
  Bi  Bi11  1  0.14278053  0.17458655  0.46014760  1
  Bi  Bi12  1  0.80315455  0.17909897  0.78540708  1
  W  W13  1  0.99257175  0.99999589  0.98514040  1
  W  W14  1  0.66319568  0.00000769  0.32639905  1
  Cl  Cl15  1  0.00155908  0.49949042  0.50260957  1
  Cl  Cl16  1  0.66824082  0.49884712  0.83532876  1
  Cl  Cl17  1  0.33372855  0.50168301  0.16913912  1
  O  O18  1  0.82293863  0.99996718  0.14804089  1
  O  O19  1  0.48547624  0.00000922  0.47211146  1
  O  O20  1  0.15098764  0.00000840  0.82602841  1
  O  O21  1  0.32513608  0.99996718  0.14804089  1
  O  O22  1  0.98662500  0.00000922  0.47211146  1
  O  O23  1  0.67503237  0.00000840  0.82602841  1
  O  O24  1  0.59618374  0.71801897  0.41363216  1
  O  O25  1  0.26251150  0.71497483  0.74531474  1
  O  O26  1  0.92570940  0.71289103  0.07496100  1
  O  O27  1  0.24489648  0.28725422  0.26642523  1
  O  O28  1  0.91145027  0.28192821  0.60149695  1
  O  O29  1  0.57783925  0.28497955  0.93541910  1
  O  O30  1  0.73427553  0.28725422  0.26642523  1
  O  O31  1  0.40811747  0.28192821  0.60149695  1
  O  O32  1  0.07260030  0.28497955  0.93541910  1
  O  O33  1  0.09942945  0.71801897  0.41363216  1
  O  O34  1  0.76782941  0.71497483  0.74531474  1
  O  O35  1  0.43635956  0.71289103  0.07496100  1
  O  O36  1  0.03719159  0.86114725  0.93553043  1
  O  O37  1  0.69552701  0.86485850  0.25591152  1
  O  O38  1  0.37001558  0.86592876  0.60596091  1
  O  O39  1  0.28066065  0.13405887  0.69538116  1
  O  O40  1  0.94469221  0.13882841  0.02821283  1
  O  O41  1  0.60543074  0.13512526  0.34598574  1
