# generated using pymatgen
data_MnFe4O5
_symmetry_space_group_name_H-M   'P 1'
_cell_length_a   4.22056387
_cell_length_b   5.49173697
_cell_length_c   5.49173697
_cell_angle_alpha   81.50868239
_cell_angle_beta   67.40188611
_cell_angle_gamma   67.40188611
_symmetry_Int_Tables_number   1
_chemical_formula_structural   MnFe4O5
_chemical_formula_sum   'Mn1 Fe4 O5'
_cell_volume   108.49332994
_cell_formula_units_Z   1
loop_
 _symmetry_equiv_pos_site_id
 _symmetry_equiv_pos_as_xyz
  1  'x, y, z'
loop_
 _atom_site_type_symbol
 _atom_site_label
 _atom_site_symmetry_multiplicity
 _atom_site_fract_x
 _atom_site_fract_y
 _atom_site_fract_z
 _atom_site_occupancy
  Mn  Mn0  1  0.00000000  -0.00000000  -0.00000000  1
  Fe  Fe1  1  0.19977103  0.20134029  0.39911764  1
  Fe  Fe2  1  0.40111133  0.39911764  0.79865971  1
  Fe  Fe3  1  0.59888867  0.60088236  0.20134029  1
  Fe  Fe4  1  0.80022897  0.79865971  0.60088236  1
  O  O5  1  0.89954487  0.40498331  0.79592695  1
  O  O6  1  0.10045513  0.59501669  0.20407305  1
  O  O7  1  0.30452818  0.79592695  0.59501669  1
  O  O8  1  0.50000000  -0.00000000  -0.00000000  1
  O  O9  1  0.69547182  0.20407305  0.40498331  1
