# generated using pymatgen
data_Mn3B8Mo3
_symmetry_space_group_name_H-M   'P 1'
_cell_length_a   3.04571705
_cell_length_b   3.12546032
_cell_length_c   13.18819167
_cell_angle_alpha   90.00000000
_cell_angle_beta   90.00000000
_cell_angle_gamma   90.00000000
_symmetry_Int_Tables_number   1
_chemical_formula_structural   Mn3B8Mo3
_chemical_formula_sum   'Mn3 B8 Mo3'
_cell_volume   125.54192812
_cell_formula_units_Z   1
loop_
 _symmetry_equiv_pos_site_id
 _symmetry_equiv_pos_as_xyz
  1  'x, y, z'
loop_
 _atom_site_type_symbol
 _atom_site_label
 _atom_site_symmetry_multiplicity
 _atom_site_fract_x
 _atom_site_fract_y
 _atom_site_fract_z
 _atom_site_occupancy
  Mn  Mn0  1  0.00000000  -0.00000000  0.18976243  1
  Mn  Mn1  1  0.50000000  0.50000000  0.67649090  1
  Mn  Mn2  1  0.50000000  0.50000000  0.31325276  1
  B  B3  1  0.50000000  0.00000000  0.42480379  1
  B  B4  1  -0.00000000  0.50000000  0.93887605  1
  B  B5  1  0.00000000  0.50000000  0.07799251  1
  B  B6  1  0.50000000  0.00000000  0.56393071  1
  B  B7  1  -0.00000000  -0.00000000  0.35068173  1
  B  B8  1  0.50000000  0.50000000  0.86256578  1
  B  B9  1  0.50000000  0.50000000  0.15111369  1
  B  B10  1  -0.00000000  -0.00000000  0.63694570  1
  Mo  Mo11  1  -0.00000000  0.00000000  0.81195910  1
  Mo  Mo12  1  0.50000000  0.00000000  0.00751971  1
  Mo  Mo13  1  -0.00000000  0.50000000  0.49410516  1
