# generated using pymatgen
data_MnCoCu4(SnS4)2
_symmetry_space_group_name_H-M   'P 1'
_cell_length_a   5.43536429
_cell_length_b   6.67688206
_cell_length_c   10.18258921
_cell_angle_alpha   89.76960808
_cell_angle_beta   105.49479670
_cell_angle_gamma   65.95697497
_symmetry_Int_Tables_number   1
_chemical_formula_structural   MnCoCu4(SnS4)2
_chemical_formula_sum   'Mn1 Co1 Cu4 Sn2 S8'
_cell_volume   322.52665737
_cell_formula_units_Z   1
loop_
 _symmetry_equiv_pos_site_id
 _symmetry_equiv_pos_as_xyz
  1  'x, y, z'
loop_
 _atom_site_type_symbol
 _atom_site_label
 _atom_site_symmetry_multiplicity
 _atom_site_fract_x
 _atom_site_fract_y
 _atom_site_fract_z
 _atom_site_occupancy
  Mn  Mn0  1  0.37473408  0.37497762  0.12470576  1
  Co  Co1  1  0.87528251  0.87498589  0.62518763  1
  Cu  Cu2  1  0.62309128  0.62650579  0.87326315  1
  Cu  Cu3  1  0.12688835  0.12360897  0.37661424  1
  Cu  Cu4  1  0.00172038  0.99960707  0.99847279  1
  Cu  Cu5  1  0.49838297  0.50033682  0.50145801  1
  Sn  Sn6  1  0.24725041  0.24971588  0.74798650  1
  Sn  Sn7  1  0.75306772  0.75025412  0.25204972  1
  S  S8  1  0.93399848  0.69266788  0.05072104  1
  S  S9  1  0.45623648  0.17870488  0.55350431  1
  S  S10  1  0.69291991  0.42246749  0.32132739  1
  S  S11  1  0.17882535  0.91955874  0.81217860  1
  S  S12  1  0.79042573  0.58561040  0.68328880  1
  S  S13  1  0.28735822  0.06951343  0.18607046  1
  S  S14  1  0.58340332  0.31465923  0.94189524  1
  S  S15  1  0.07641481  0.81682580  0.45127639  1
