# generated using pymatgen
data_MnZn3S4
_symmetry_space_group_name_H-M   'P 1'
_cell_length_a   3.88063494
_cell_length_b   3.88063216
_cell_length_c   12.73254089
_cell_angle_alpha   90.00066418
_cell_angle_beta   89.99930588
_cell_angle_gamma   120.00112045
_symmetry_Int_Tables_number   1
_chemical_formula_structural   MnZn3S4
_chemical_formula_sum   'Mn1 Zn3 S4'
_cell_volume   166.05275145
_cell_formula_units_Z   1
loop_
 _symmetry_equiv_pos_site_id
 _symmetry_equiv_pos_as_xyz
  1  'x, y, z'
loop_
 _atom_site_type_symbol
 _atom_site_label
 _atom_site_symmetry_multiplicity
 _atom_site_fract_x
 _atom_site_fract_y
 _atom_site_fract_z
 _atom_site_occupancy
  Mn  Mn0  1  0.33333881  0.66664693  0.24800539  1
  Zn  Zn1  1  0.33333275  0.66666889  0.74947754  1
  Zn  Zn2  1  0.66666338  0.33333745  0.99704375  1
  Zn  Zn3  1  0.66666094  0.33334100  0.50248451  1
  S  S4  1  0.33333371  0.66666987  0.05880688  1
  S  S5  1  0.33333115  0.66667384  0.56355374  1
  S  S6  1  0.66667607  0.33332506  0.31739557  1
  S  S7  1  0.66666318  0.33333696  0.81123262  1
