# generated using pymatgen
data_MnCoB
_symmetry_space_group_name_H-M   'P 1'
_cell_length_a   4.10066856
_cell_length_b   4.17056868
_cell_length_c   4.17056868
_cell_angle_alpha   60.25009029
_cell_angle_beta   75.15611565
_cell_angle_gamma   104.84388435
_symmetry_Int_Tables_number   1
_chemical_formula_structural   MnCoB
_chemical_formula_sum   'Mn2 Co2 B2'
_cell_volume   53.24983702
_cell_formula_units_Z   2
loop_
 _symmetry_equiv_pos_site_id
 _symmetry_equiv_pos_as_xyz
  1  'x, y, z'
loop_
 _atom_site_type_symbol
 _atom_site_label
 _atom_site_symmetry_multiplicity
 _atom_site_fract_x
 _atom_site_fract_y
 _atom_site_fract_z
 _atom_site_occupancy
  Mn  Mn0  1  0.17632569  0.83816285  0.66183715  1
  Mn  Mn1  1  0.82367431  0.16183715  0.33816285  1
  Co  Co2  1  0.50000000  0.33334081  0.83334081  1
  Co  Co3  1  0.50000000  0.66665919  0.16665919  1
  B  B4  1  -0.00000000  0.25000000  0.75000000  1
  B  B5  1  -0.00000000  0.75000000  0.25000000  1
