# generated using pymatgen
data_Mn5Nb7N2
_symmetry_space_group_name_H-M   'P 1'
_cell_length_a   8.18318826
_cell_length_b   8.20280948
_cell_length_c   8.14717729
_cell_angle_alpha   90.00000000
_cell_angle_beta   60.14546435
_cell_angle_gamma   120.07934860
_symmetry_Int_Tables_number   1
_chemical_formula_structural   Mn5Nb7N2
_chemical_formula_sum   'Mn10 Nb14 N4'
_cell_volume   387.08745365
_cell_formula_units_Z   2
loop_
 _symmetry_equiv_pos_site_id
 _symmetry_equiv_pos_as_xyz
  1  'x, y, z'
loop_
 _atom_site_type_symbol
 _atom_site_label
 _atom_site_symmetry_multiplicity
 _atom_site_fract_x
 _atom_site_fract_y
 _atom_site_fract_z
 _atom_site_occupancy
  Mn  Mn0  1  0.10274272  0.88453715  0.19862864  1
  Mn  Mn1  1  0.10274272  0.21820557  0.19862864  1
  Mn  Mn2  1  0.41613548  0.20806774  0.89222486  1
  Mn  Mn3  1  0.41613548  0.20806774  0.19163967  1
  Mn  Mn4  1  0.89725728  0.11546285  0.80137136  1
  Mn  Mn5  1  0.89725728  0.78179443  0.80137136  1
  Mn  Mn6  1  0.58386452  0.79193226  0.10777514  1
  Mn  Mn7  1  0.58386452  0.79193226  0.80836033  1
  Mn  Mn8  1  0.50000000  0.50000000  -0.00000000  1
  Mn  Mn9  1  0.50000000  -0.00000000  -0.00000000  1
  Nb  Nb10  1  0.62356724  0.81178362  0.43821638  1
  Nb  Nb11  1  0.85629315  0.42814657  0.82185343  1
  Nb  Nb12  1  0.25385437  0.81702873  0.81732255  1
  Nb  Nb13  1  0.25385437  0.43682563  0.42882308  1
  Nb  Nb14  1  0.25385437  0.43682563  0.81732255  1
  Nb  Nb15  1  0.25385437  0.81702873  0.42882308  1
  Nb  Nb16  1  0.37643276  0.18821638  0.56178362  1
  Nb  Nb17  1  0.14370685  0.57185343  0.17814657  1
  Nb  Nb18  1  0.74614563  0.18297127  0.18267745  1
  Nb  Nb19  1  0.74614563  0.56317437  0.57117692  1
  Nb  Nb20  1  0.74614563  0.56317437  0.18267745  1
  Nb  Nb21  1  0.74614563  0.18297127  0.57117692  1
  Nb  Nb22  1  -0.00000000  -0.00000000  0.50000000  1
  Nb  Nb23  1  -0.00000000  -0.00000000  -0.00000000  1
  N  N24  1  0.50000000  -0.00000000  0.50000000  1
  N  N25  1  0.50000000  0.50000000  0.50000000  1
  N  N26  1  0.00000000  0.50000000  -0.00000000  1
  N  N27  1  0.00000000  0.50000000  0.50000000  1
