# generated using pymatgen
data_LiAlSiO4
_symmetry_space_group_name_H-M   'P 1'
_cell_length_a   5.31089117
_cell_length_b   5.29277016
_cell_length_c   11.31801895
_cell_angle_alpha   90.00000000
_cell_angle_beta   90.00000000
_cell_angle_gamma   59.94084223
_symmetry_Int_Tables_number   1
_chemical_formula_structural   LiAlSiO4
_chemical_formula_sum   'Li3 Al3 Si3 O12'
_cell_volume   275.35456936
_cell_formula_units_Z   3
loop_
 _symmetry_equiv_pos_site_id
 _symmetry_equiv_pos_as_xyz
  1  'x, y, z'
loop_
 _atom_site_type_symbol
 _atom_site_label
 _atom_site_symmetry_multiplicity
 _atom_site_fract_x
 _atom_site_fract_y
 _atom_site_fract_z
 _atom_site_occupancy
  Li  Li0  1  0.00000000  -0.00000000  0.33542414  1
  Li  Li1  1  0.00000000  -0.00000000  0.80427536  1
  Li  Li2  1  0.00000000  -0.00000000  0.02800691  1
  Al  Al3  1  0.50000000  -0.00000000  0.33714491  1
  Al  Al4  1  0.50000000  -0.00000000  0.83238606  1
  Al  Al5  1  0.00000000  0.50000000  0.99741494  1
  Si  Si6  1  0.00000000  0.50000000  0.49993905  1
  Si  Si7  1  0.50000000  0.50000000  0.17006563  1
  Si  Si8  1  0.50000000  0.50000000  0.66281812  1
  O  O9  1  0.21761705  0.58572623  0.08722227  1
  O  O10  1  0.22267025  0.55388065  0.58133240  1
  O  O11  1  0.60438055  0.21098596  0.25370259  1
  O  O12  1  0.60086996  0.21222142  0.74413052  1
  O  O13  1  0.17687965  0.20823119  0.41804289  1
  O  O14  1  0.17650856  0.17585298  0.91516477  1
  O  O15  1  0.78238295  0.41427377  0.08722227  1
  O  O16  1  0.77732975  0.44611935  0.58133240  1
  O  O17  1  0.39561945  0.78901404  0.25370259  1
  O  O18  1  0.39913004  0.78777858  0.74413052  1
  O  O19  1  0.82312035  0.79176881  0.41804289  1
  O  O20  1  0.82349144  0.82414702  0.91516477  1
