# generated using pymatgen
data_MgTi2Pb4WO12
_symmetry_space_group_name_H-M   'P 1'
_cell_length_a   5.67123700
_cell_length_b   5.67123700
_cell_length_c   9.00927107
_cell_angle_alpha   71.65460994
_cell_angle_beta   71.65460994
_cell_angle_gamma   90.00000000
_symmetry_Int_Tables_number   1
_chemical_formula_structural   MgTi2Pb4WO12
_chemical_formula_sum   'Mg1 Ti2 Pb4 W1 O12'
_cell_volume   259.47631304
_cell_formula_units_Z   1
loop_
 _symmetry_equiv_pos_site_id
 _symmetry_equiv_pos_as_xyz
  1  'x, y, z'
loop_
 _atom_site_type_symbol
 _atom_site_label
 _atom_site_symmetry_multiplicity
 _atom_site_fract_x
 _atom_site_fract_y
 _atom_site_fract_z
 _atom_site_occupancy
  Mg  Mg0  1  0.87500000  0.37500000  0.25000000  1
  Ti  Ti1  1  0.63213255  0.13213255  0.73573489  1
  Ti  Ti2  1  0.11786745  0.61786745  0.76426511  1
  Pb  Pb3  1  0.74785343  0.74785343  0.50429314  1
  Pb  Pb4  1  0.50214657  0.50214657  0.99570686  1
  Pb  Pb5  1  0.24785343  0.24785343  0.50429314  1
  Pb  Pb6  1  0.00214657  0.00214657  0.99570686  1
  W  W7  1  0.37500000  0.87500000  0.25000000  1
  O  O8  1  0.87500000  0.37500000  0.75000000  1
  O  O9  1  0.61690075  0.11690075  0.25000000  1
  O  O10  1  0.37500000  0.87500000  0.75000000  1
  O  O11  1  0.13309925  0.63309925  0.25000000  1
  O  O12  1  0.74549885  0.24549885  0.50900231  1
  O  O13  1  0.49771029  0.99771029  0.00457943  1
  O  O14  1  0.25228971  0.75228971  0.49542057  1
  O  O15  1  0.00450115  0.50450115  0.99099769  1
  O  O16  1  0.37500000  0.37500000  0.75000000  1
  O  O17  1  0.13309925  0.11690075  0.25000000  1
  O  O18  1  0.87500000  0.87500000  0.75000000  1
  O  O19  1  0.61690075  0.63309925  0.25000000  1
