# generated using pymatgen
data_Lu3Th
_symmetry_space_group_name_H-M   'P 1'
_cell_length_a   3.53832019
_cell_length_b   3.53803160
_cell_length_c   11.27120962
_cell_angle_alpha   90.00000000
_cell_angle_beta   90.00000000
_cell_angle_gamma   60.00269803
_symmetry_Int_Tables_number   1
_chemical_formula_structural   Lu3Th
_chemical_formula_sum   'Lu3 Th1'
_cell_volume   122.20016818
_cell_formula_units_Z   1
loop_
 _symmetry_equiv_pos_site_id
 _symmetry_equiv_pos_as_xyz
  1  'x, y, z'
loop_
 _atom_site_type_symbol
 _atom_site_label
 _atom_site_symmetry_multiplicity
 _atom_site_fract_x
 _atom_site_fract_y
 _atom_site_fract_z
 _atom_site_occupancy
  Lu  Lu0  1  0.33337330  0.33331335  0.87500000  1
  Lu  Lu1  1  0.66665177  0.66667412  0.12118284  1
  Lu  Lu2  1  0.66665177  0.66667412  0.62881716  1
  Th  Th3  1  0.33332316  0.33333842  0.37500000  1
