# generated using pymatgen
data_Mn12SiP3
_symmetry_space_group_name_H-M   'P 1'
_cell_length_a   4.48261883
_cell_length_b   6.71203758
_cell_length_c   6.77361173
_cell_angle_alpha   96.60742774
_cell_angle_beta   109.61312202
_cell_angle_gamma   70.28532166
_symmetry_Int_Tables_number   1
_chemical_formula_structural   Mn12SiP3
_chemical_formula_sum   'Mn12 Si1 P3'
_cell_volume   180.72340684
_cell_formula_units_Z   1
loop_
 _symmetry_equiv_pos_site_id
 _symmetry_equiv_pos_as_xyz
  1  'x, y, z'
loop_
 _atom_site_type_symbol
 _atom_site_label
 _atom_site_symmetry_multiplicity
 _atom_site_fract_x
 _atom_site_fract_y
 _atom_site_fract_z
 _atom_site_occupancy
  Mn  Mn0  1  0.65363011  0.38248013  0.67682803  1
  Mn  Mn1  1  0.37502364  0.61704394  0.32532845  1
  Mn  Mn2  1  0.01468447  0.32196091  0.38072047  1
  Mn  Mn3  1  0.95182461  0.68060461  0.61176485  1
  Mn  Mn4  1  0.06982198  0.39183583  0.05137732  1
  Mn  Mn5  1  0.41489595  0.61245585  0.95083083  1
  Mn  Mn6  1  0.97693765  0.95237562  0.39193755  1
  Mn  Mn7  1  0.54220209  0.04387341  0.60466017  1
  Mn  Mn8  1  0.69955995  0.18541336  0.02749884  1
  Mn  Mn9  1  0.85796346  0.81088415  0.97556461  1
  Mn  Mn10  1  0.32770074  0.97765894  0.18450653  1
  Mn  Mn11  1  0.11816893  0.02469893  0.81903238  1
  Si  Si12  1  0.21064895  0.33502403  0.74838901  1
  P  P13  1  0.80554746  0.66234164  0.25188232  1
  P  P14  1  0.53421189  0.25244923  0.33655684  1
  P  P15  1  0.44717812  0.74889943  0.66312180  1
