# generated using pymatgen
data_LiVMoO6
_symmetry_space_group_name_H-M   'P 1'
_cell_length_a   3.71803815
_cell_length_b   5.08450863
_cell_length_c   6.78209442
_cell_angle_alpha   110.69625291
_cell_angle_beta   90.00000000
_cell_angle_gamma   68.55400191
_symmetry_Int_Tables_number   1
_chemical_formula_structural   LiVMoO6
_chemical_formula_sum   'Li1 V1 Mo1 O6'
_cell_volume   110.39722537
_cell_formula_units_Z   1
loop_
 _symmetry_equiv_pos_site_id
 _symmetry_equiv_pos_as_xyz
  1  'x, y, z'
loop_
 _atom_site_type_symbol
 _atom_site_label
 _atom_site_symmetry_multiplicity
 _atom_site_fract_x
 _atom_site_fract_y
 _atom_site_fract_z
 _atom_site_occupancy
  Li  Li0  1  0.00858173  0.98283655  0.98209657  1
  V  V1  1  0.81065935  0.37868131  0.65575200  1
  Mo  Mo2  1  0.18295894  0.63408212  0.35900967  1
  O  O3  1  0.68968203  0.62063593  0.44074404  1
  O  O4  1  0.30361256  0.39277488  0.57118288  1
  O  O5  1  0.97623557  0.04752885  0.70222171  1
  O  O6  1  0.02391933  0.95216133  0.28282381  1
  O  O7  1  0.66664910  0.66670180  0.88985415  1
  O  O8  1  0.33770138  0.32459724  0.11631517  1
