# generated using pymatgen
data_Lu2Ga3Ni
_symmetry_space_group_name_H-M   'P 1'
_cell_length_a   4.28991174
_cell_length_b   5.54809361
_cell_length_c   5.44439827
_cell_angle_alpha   95.21205051
_cell_angle_beta   113.20205732
_cell_angle_gamma   67.25618421
_symmetry_Int_Tables_number   1
_chemical_formula_structural   Lu2Ga3Ni
_chemical_formula_sum   'Lu2 Ga3 Ni1'
_cell_volume   109.55065008
_cell_formula_units_Z   1
loop_
 _symmetry_equiv_pos_site_id
 _symmetry_equiv_pos_as_xyz
  1  'x, y, z'
loop_
 _atom_site_type_symbol
 _atom_site_label
 _atom_site_symmetry_multiplicity
 _atom_site_fract_x
 _atom_site_fract_y
 _atom_site_fract_z
 _atom_site_occupancy
  Lu  Lu0  1  0.75212483  0.70347179  0.20772145  1
  Lu  Lu1  1  0.24940474  0.29900940  0.79781888  1
  Ga  Ga2  1  0.46041443  0.68878182  0.60961068  1
  Ga  Ga3  1  0.05505178  0.12043844  0.23054199  1
  Ga  Ga4  1  0.93236226  0.90563249  0.77035700  1
  Ni  Ni5  1  0.55064197  0.28266606  0.38395000  1
