# generated using pymatgen
data_Mg2TeSe
_symmetry_space_group_name_H-M   'P 1'
_cell_length_a   4.42479586
_cell_length_b   4.42479586
_cell_length_c   7.67194023
_cell_angle_alpha   106.76070678
_cell_angle_beta   73.23929322
_cell_angle_gamma   120.00000000
_symmetry_Int_Tables_number   1
_chemical_formula_structural   Mg2TeSe
_chemical_formula_sum   'Mg2 Te1 Se1'
_cell_volume   122.65984940
_cell_formula_units_Z   1
loop_
 _symmetry_equiv_pos_site_id
 _symmetry_equiv_pos_as_xyz
  1  'x, y, z'
loop_
 _atom_site_type_symbol
 _atom_site_label
 _atom_site_symmetry_multiplicity
 _atom_site_fract_x
 _atom_site_fract_y
 _atom_site_fract_z
 _atom_site_occupancy
  Mg  Mg0  1  0.00541666  0.99458334  0.98375002  1
  Mg  Mg1  1  0.49409613  0.50590387  0.51771162  1
  Te  Te2  1  0.87626640  0.12373360  0.37120079  1
  Se  Se3  1  0.37422081  0.62577919  0.87733757  1
