# generated using pymatgen
data_Li5Mn2NiO8
_symmetry_space_group_name_H-M   'P 1'
_cell_length_a   5.80338498
_cell_length_b   5.80338498
_cell_length_c   5.80128134
_cell_angle_alpha   60.37257520
_cell_angle_beta   119.62742480
_cell_angle_gamma   120.77095898
_symmetry_Int_Tables_number   1
_chemical_formula_structural   Li5Mn2NiO8
_chemical_formula_sum   'Li5 Mn2 Ni1 O8'
_cell_volume   138.09325634
_cell_formula_units_Z   1
loop_
 _symmetry_equiv_pos_site_id
 _symmetry_equiv_pos_as_xyz
  1  'x, y, z'
loop_
 _atom_site_type_symbol
 _atom_site_label
 _atom_site_symmetry_multiplicity
 _atom_site_fract_x
 _atom_site_fract_y
 _atom_site_fract_z
 _atom_site_occupancy
  Li  Li0  1  0.00000000  0.50000000  0.00000000  1
  Li  Li1  1  0.50000000  0.50000000  0.00000000  1
  Li  Li2  1  0.00000000  0.00000000  -0.00000000  1
  Li  Li3  1  0.50000000  0.00000000  -0.00000000  1
  Li  Li4  1  0.50000000  0.50000000  0.50000000  1
  Mn  Mn5  1  0.00000000  0.50000000  0.50000000  1
  Mn  Mn6  1  0.50000000  0.00000000  0.50000000  1
  Ni  Ni7  1  0.00000000  0.00000000  0.50000000  1
  O  O8  1  0.25435691  0.21953939  0.28191478  1
  O  O9  1  0.74217098  0.25782902  0.26385580  1
  O  O10  1  0.25003575  0.74996425  0.27357532  1
  O  O11  1  0.78046061  0.74564309  0.28191478  1
  O  O12  1  0.74564309  0.78046061  0.71808522  1
  O  O13  1  0.25782902  0.74217098  0.73614420  1
  O  O14  1  0.74996425  0.25003575  0.72642468  1
  O  O15  1  0.21953939  0.25435691  0.71808522  1
