# generated using pymatgen
data_Li3V4(OF3)3
_symmetry_space_group_name_H-M   'P 1'
_cell_length_a   10.32145787
_cell_length_b   10.32654867
_cell_length_c   11.01168311
_cell_angle_alpha   63.38850128
_cell_angle_beta   92.84858447
_cell_angle_gamma   62.04645493
_symmetry_Int_Tables_number   1
_chemical_formula_structural   Li3V4(OF3)3
_chemical_formula_sum   'Li12 V16 O12 F36'
_cell_volume   875.37976657
_cell_formula_units_Z   4
loop_
 _symmetry_equiv_pos_site_id
 _symmetry_equiv_pos_as_xyz
  1  'x, y, z'
loop_
 _atom_site_type_symbol
 _atom_site_label
 _atom_site_symmetry_multiplicity
 _atom_site_fract_x
 _atom_site_fract_y
 _atom_site_fract_z
 _atom_site_occupancy
  Li  Li0  1  0.89617813  0.21638900  0.15488934  1
  Li  Li1  1  0.87296582  0.27544267  0.57040843  1
  Li  Li2  1  0.37004972  0.27292827  0.07611098  1
  Li  Li3  1  0.87300669  0.77025209  0.07604950  1
  Li  Li4  1  0.37070371  0.77490891  0.06681963  1
  Li  Li5  1  0.37198214  0.27124109  0.57716409  1
  Li  Li6  1  0.87226574  0.76151206  0.58844045  1
  Li  Li7  1  0.08923918  0.31188296  0.31688684  1
  Li  Li8  1  0.58955645  0.80644539  0.32023388  1
  Li  Li9  1  0.37566733  0.77187349  0.56960279  1
  Li  Li10  1  0.08945874  0.30806745  0.81717131  1
  Li  Li11  1  0.59033890  0.80675751  0.81872506  1
  V  V12  1  0.73762585  0.00758894  0.24001791  1
  V  V13  1  0.99877874  0.50387963  0.49522233  1
  V  V14  1  0.74515069  0.50273233  0.25041807  1
  V  V15  1  0.73972067  0.00953721  0.73931515  1
  V  V16  1  0.00007865  0.00764903  0.00661919  1
  V  V17  1  0.50354437  0.50467147  0.00647303  1
  V  V18  1  0.99811382  0.50231159  0.99407894  1
  V  V19  1  0.74679935  0.49760785  0.75453973  1
  V  V20  1  0.00313484  0.00293733  0.50904006  1
  V  V21  1  0.50342061  0.50362589  0.50743821  1
  V  V22  1  0.23912210  0.51019897  0.23817808  1
  V  V23  1  0.49848534  0.00399352  0.49574517  1
  V  V24  1  0.24745392  0.99920940  0.25029939  1
  V  V25  1  0.24022769  0.50923767  0.73935013  1
  V  V26  1  0.49819778  0.00394881  0.99462333  1
  V  V27  1  0.24561761  0.00128366  0.75092766  1
  O  O28  1  0.56585105  0.04613903  0.12203809  1
  O  O29  1  0.92732522  0.44018744  0.38231351  1
  O  O30  1  0.56717637  0.04698422  0.62179516  1
  O  O31  1  0.07855293  0.05032078  0.12934012  1
  O  O32  1  0.57952471  0.55089107  0.12786136  1
  O  O33  1  0.92752664  0.44925055  0.87290818  1
  O  O34  1  0.58079919  0.54906201  0.63021492  1
  O  O35  1  0.07882795  0.05049672  0.62979995  1
  O  O36  1  0.06756481  0.54478081  0.12192177  1
  O  O37  1  0.42714576  0.94092888  0.38221490  1
  O  O38  1  0.06858270  0.54779919  0.62058032  1
  O  O39  1  0.42747579  0.94048273  0.88118231  1
  F  F40  1  0.69686792  0.25151912  0.11757175  1
  F  F41  1  0.88758195  0.41556323  0.13768710  1
  F  F42  1  0.62645623  0.05794329  0.37630804  1
  F  F43  1  0.81339736  0.25038961  0.38314818  1
  F  F44  1  0.70056968  0.25222820  0.61391469  1
  F  F45  1  0.88010740  0.92333462  0.12855923  1
  F  F46  1  0.38237544  0.42231425  0.12898750  1
  F  F47  1  0.88880611  0.41671984  0.63736895  1
  F  F48  1  0.19714646  0.24959908  0.12210525  1
  F  F49  1  0.69727854  0.75125579  0.12334546  1
  F  F50  1  0.62432035  0.06079880  0.87426692  1
  F  F51  1  0.81173222  0.24962512  0.88109045  1
  F  F52  1  0.11461692  0.08537052  0.36482973  1
  F  F53  1  0.62145777  0.58058735  0.37069955  1
  F  F54  1  0.30246494  0.25202296  0.38399680  1
  F  F55  1  0.80224667  0.75151606  0.38509810  1
  F  F56  1  0.42750983  0.43927368  0.38327152  1
  F  F57  1  0.92807401  0.95138409  0.37188055  1
  F  F58  1  0.88223763  0.91948571  0.62941650  1
  F  F59  1  0.38228297  0.42121511  0.63022834  1
  F  F60  1  0.19714328  0.75534306  0.11510720  1
  F  F61  1  0.69398534  0.75106116  0.62414551  1
  F  F62  1  0.19732211  0.25045929  0.62380332  1
  F  F63  1  0.38824925  0.91478841  0.13706952  1
  F  F64  1  0.12440804  0.56035651  0.37355669  1
  F  F65  1  0.31246069  0.75107762  0.38986217  1
  F  F66  1  0.61832744  0.58345785  0.86838386  1
  F  F67  1  0.12197422  0.07968223  0.87181777  1
  F  F68  1  0.30214282  0.25182665  0.88350935  1
  F  F69  1  0.80220359  0.75203847  0.88520138  1
  F  F70  1  0.42880282  0.43828693  0.88387880  1
  F  F71  1  0.92866796  0.93776608  0.88487197  1
  F  F72  1  0.19972258  0.75344382  0.61589876  1
  F  F73  1  0.38539924  0.91859665  0.63591644  1
  F  F74  1  0.12742314  0.55886291  0.87571508  1
  F  F75  1  0.31195439  0.75159334  0.88925928  1
