# generated using pymatgen
data_Lu4CuGe8
_symmetry_space_group_name_H-M   'P 1'
_cell_length_a   3.93540854
_cell_length_b   4.02001120
_cell_length_c   16.24243265
_cell_angle_alpha   90.00000000
_cell_angle_beta   90.00000000
_cell_angle_gamma   90.00000000
_symmetry_Int_Tables_number   1
_chemical_formula_structural   Lu4CuGe8
_chemical_formula_sum   'Lu4 Cu1 Ge8'
_cell_volume   256.96156072
_cell_formula_units_Z   1
loop_
 _symmetry_equiv_pos_site_id
 _symmetry_equiv_pos_as_xyz
  1  'x, y, z'
loop_
 _atom_site_type_symbol
 _atom_site_label
 _atom_site_symmetry_multiplicity
 _atom_site_fract_x
 _atom_site_fract_y
 _atom_site_fract_z
 _atom_site_occupancy
  Lu  Lu0  1  0.25000000  -0.00000000  0.09673044  1
  Lu  Lu1  1  0.25000000  0.50000000  0.60788956  1
  Lu  Lu2  1  0.75000000  0.50000000  0.39679572  1
  Lu  Lu3  1  0.75000000  -0.00000000  0.89268277  1
  Cu  Cu4  1  0.25000000  -0.00000000  0.32143530  1
  Ge  Ge5  1  0.25000000  0.50000000  0.23408632  1
  Ge  Ge6  1  0.25000000  -0.00000000  0.74649496  1
  Ge  Ge7  1  0.75000000  -0.00000000  0.23353526  1
  Ge  Ge8  1  0.75000000  0.50000000  0.75433120  1
  Ge  Ge9  1  0.25000000  -0.00000000  0.46437260  1
  Ge  Ge10  1  0.25000000  0.50000000  0.94391085  1
  Ge  Ge11  1  0.75000000  0.50000000  0.04718211  1
  Ge  Ge12  1  0.75000000  0.00000000  0.56355292  1
