# generated using pymatgen
data_Fe4O7F
_symmetry_space_group_name_H-M   'P 1'
_cell_length_a   6.01619613
_cell_length_b   6.44156419
_cell_length_c   7.32983687
_cell_angle_alpha   90.00000000
_cell_angle_beta   114.22938612
_cell_angle_gamma   90.00000000
_symmetry_Int_Tables_number   1
_chemical_formula_structural   Fe4O7F
_chemical_formula_sum   'Fe8 O14 F2'
_cell_volume   259.03562393
_cell_formula_units_Z   2
loop_
 _symmetry_equiv_pos_site_id
 _symmetry_equiv_pos_as_xyz
  1  'x, y, z'
loop_
 _atom_site_type_symbol
 _atom_site_label
 _atom_site_symmetry_multiplicity
 _atom_site_fract_x
 _atom_site_fract_y
 _atom_site_fract_z
 _atom_site_occupancy
  Fe  Fe0  1  0.49776210  0.00000000  0.00965356  1
  Fe  Fe1  1  0.01189146  0.00000000  0.00965356  1
  Fe  Fe2  1  0.74981268  0.50000000  -0.00037564  1
  Fe  Fe3  1  0.25531758  0.50000000  0.01063416  1
  Fe  Fe4  1  0.49468242  0.00000000  0.48936584  1
  Fe  Fe5  1  0.00018732  0.00000000  0.50037564  1
  Fe  Fe6  1  0.73810854  0.50000000  0.49034644  1
  Fe  Fe7  1  0.25223790  0.50000000  0.49034644  1
  O  O8  1  0.34806542  0.00000000  0.19613085  1
  O  O9  1  0.84270297  0.00000000  0.18540693  1
  O  O10  1  0.50217707  0.30679798  0.99794609  1
  O  O11  1  -0.00423098  0.30679798  0.99794609  1
  O  O12  1  0.50217707  0.69320202  0.99794609  1
  O  O13  1  0.75423098  0.19320202  0.50205391  1
  O  O14  1  0.24782293  0.19320202  0.50205391  1
  O  O15  1  -0.00423098  0.69320202  0.99794609  1
  O  O16  1  0.15667503  0.00000000  0.81335007  1
  O  O17  1  0.40193458  0.50000000  0.30386915  1
  O  O18  1  0.90729703  0.50000000  0.31459307  1
  O  O19  1  0.59332497  0.50000000  0.68664993  1
  O  O20  1  0.75423098  0.80679798  0.50205391  1
  O  O21  1  0.24782293  0.80679798  0.50205391  1
  F  F22  1  0.65171331  0.00000000  0.80342662  1
  F  F23  1  0.09828669  0.50000000  0.69657338  1
