# generated using pymatgen
data_KTi3FeO8
_symmetry_space_group_name_H-M   'P 1'
_cell_length_a   3.00627132
_cell_length_b   7.33627066
_cell_length_c   7.44028097
_cell_angle_alpha   92.06305283
_cell_angle_beta   101.65550441
_cell_angle_gamma   78.17688059
_symmetry_Int_Tables_number   1
_chemical_formula_structural   KTi3FeO8
_chemical_formula_sum   'K1 Ti3 Fe1 O8'
_cell_volume   157.29844287
_cell_formula_units_Z   1
loop_
 _symmetry_equiv_pos_site_id
 _symmetry_equiv_pos_as_xyz
  1  'x, y, z'
loop_
 _atom_site_type_symbol
 _atom_site_label
 _atom_site_symmetry_multiplicity
 _atom_site_fract_x
 _atom_site_fract_y
 _atom_site_fract_z
 _atom_site_occupancy
  K  K0  1  0.99843941  0.00397390  0.00085271  1
  Ti  Ti1  1  0.33033465  0.51366703  0.17433634  1
  Ti  Ti2  1  0.85433855  0.80895251  0.51762962  1
  Ti  Ti3  1  0.15073510  0.18356754  0.48503774  1
  Fe  Fe4  1  0.66556237  0.48339905  0.81452379  1
  O  O5  1  0.95911071  0.37485212  0.29307353  1
  O  O6  1  0.03655787  0.62932709  0.70244283  1
  O  O7  1  0.66542955  0.28992822  0.62078731  1
  O  O8  1  0.33349773  0.70834917  0.37534464  1
  O  O9  1  0.70434458  0.64704797  0.05573712  1
  O  O10  1  0.30259274  0.35552911  0.96071458  1
  O  O11  1  0.65482577  0.05012636  0.35977789  1
  O  O12  1  0.34423098  0.95127993  0.63974188  1
