# generated using pymatgen
data_LaCeF6
_symmetry_space_group_name_H-M   'P 1'
_cell_length_a   4.21050645
_cell_length_b   4.21050645
_cell_length_c   7.42123422
_cell_angle_alpha   90.00000000
_cell_angle_beta   90.00000000
_cell_angle_gamma   121.94995675
_symmetry_Int_Tables_number   1
_chemical_formula_structural   LaCeF6
_chemical_formula_sum   'La1 Ce1 F6'
_cell_volume   111.63544066
_cell_formula_units_Z   1
loop_
 _symmetry_equiv_pos_site_id
 _symmetry_equiv_pos_as_xyz
  1  'x, y, z'
loop_
 _atom_site_type_symbol
 _atom_site_label
 _atom_site_symmetry_multiplicity
 _atom_site_fract_x
 _atom_site_fract_y
 _atom_site_fract_z
 _atom_site_occupancy
  La  La0  1  0.67042259  0.32957741  0.75000000  1
  Ce  Ce1  1  0.32778392  0.67221608  0.25000000  1
  F  F2  1  0.00056120  0.99943880  0.75000000  1
  F  F3  1  0.99924472  0.00075528  0.25000000  1
  F  F4  1  0.66780707  0.33219293  0.07972599  1
  F  F5  1  0.33318671  0.66681329  0.92256065  1
  F  F6  1  0.33318671  0.66681329  0.57743935  1
  F  F7  1  0.66780707  0.33219293  0.42027401  1
