# generated using pymatgen
data_Li7Ho3(MoO4)8
_symmetry_space_group_name_H-M   'P 1'
_cell_length_a   6.82606395
_cell_length_b   10.77376758
_cell_length_c   9.98246648
_cell_angle_alpha   113.77849161
_cell_angle_beta   105.03544662
_cell_angle_gamma   83.84655298
_symmetry_Int_Tables_number   1
_chemical_formula_structural   Li7Ho3(MoO4)8
_chemical_formula_sum   'Li7 Ho3 Mo8 O32'
_cell_volume   648.81287527
_cell_formula_units_Z   1
loop_
 _symmetry_equiv_pos_site_id
 _symmetry_equiv_pos_as_xyz
  1  'x, y, z'
loop_
 _atom_site_type_symbol
 _atom_site_label
 _atom_site_symmetry_multiplicity
 _atom_site_fract_x
 _atom_site_fract_y
 _atom_site_fract_z
 _atom_site_occupancy
  Li  Li0  1  0.50142104  0.50151594  0.49998601  1
  Li  Li1  1  0.99997105  0.50020978  0.99924833  1
  Li  Li2  1  0.43942979  0.63221151  0.84909941  1
  Li  Li3  1  0.93597580  0.63774095  0.35406490  1
  Li  Li4  1  0.05872648  0.36849446  0.65057524  1
  Li  Li5  1  0.56046981  0.36827554  0.15014557  1
  Li  Li6  1  0.76689169  0.93415833  0.54427459  1
  Ho  Ho7  1  0.27185150  0.93856842  0.04468512  1
  Ho  Ho8  1  0.72686943  0.05841884  0.95130574  1
  Ho  Ho9  1  0.23130868  0.05642826  0.45671102  1
  Mo  Mo10  1  0.38574576  0.70220953  0.23305063  1
  Mo  Mo11  1  0.88550572  0.70209340  0.73042037  1
  Mo  Mo12  1  0.11556381  0.29865786  0.26913020  1
  Mo  Mo13  1  0.61483413  0.29856235  0.76779741  1
  Mo  Mo14  1  0.34589523  0.81991215  0.64343459  1
  Mo  Mo15  1  0.84189030  0.82135063  0.14170004  1
  Mo  Mo16  1  0.15506138  0.17754553  0.85556858  1
  Mo  Mo17  1  0.65861446  0.17705052  0.35759614  1
  O  O18  1  0.58876721  0.90844705  0.71105746  1
  O  O19  1  0.08839516  0.91254418  0.20611381  1
  O  O20  1  0.91352823  0.09342320  0.80035333  1
  O  O21  1  0.41050952  0.08712346  0.29290171  1
  O  O22  1  0.63717590  0.64008618  0.69839984  1
  O  O23  1  0.13632592  0.64095263  0.19773956  1
  O  O24  1  0.86352986  0.35903985  0.79985182  1
  O  O25  1  0.36273957  0.35963929  0.30061390  1
  O  O26  1  0.05512510  0.56786230  0.73925205  1
  O  O27  1  0.55768494  0.56821680  0.23912965  1
  O  O28  1  0.44512125  0.43343180  0.76446356  1
  O  O29  1  0.94492827  0.43238776  0.26338927  1
  O  O30  1  0.43731187  0.86024426  0.40173738  1
  O  O31  1  0.94555920  0.86478799  0.90591345  1
  O  O32  1  0.05457941  0.13687402  0.09803307  1
  O  O33  1  0.54909486  0.14517227  0.59445148  1
  O  O34  1  0.29505995  0.79468691  0.80110603  1
  O  O35  1  0.79384407  0.79585081  0.29467152  1
  O  O36  1  0.20114443  0.20521864  0.69890038  1
  O  O37  1  0.70123241  0.20415289  0.19927787  1
  O  O38  1  0.31815120  0.66047565  0.48885837  1
  O  O39  1  0.81673017  0.66134251  0.98936978  1
  O  O40  1  0.18022900  0.33699885  0.00919129  1
  O  O41  1  0.68518669  0.33827967  0.50840854  1
  O  O42  1  0.64247461  0.92971008  0.07756121  1
  O  O43  1  0.15847458  0.93178330  0.58433928  1
  O  O44  1  0.86037405  0.07331935  0.41315350  1
  O  O45  1  0.35374132  0.07064043  0.92249499  1
  O  O46  1  0.38591193  0.73485853  0.06580070  1
  O  O47  1  0.89158563  0.72670174  0.56505611  1
  O  O48  1  0.11697013  0.26779429  0.43581391  1
  O  O49  1  0.61248752  0.26454931  0.93380132  1
