# generated using pymatgen
data_Li2FeCl4
_symmetry_space_group_name_H-M   'P 1'
_cell_length_a   7.35135667
_cell_length_b   7.38427457
_cell_length_c   7.43013087
_cell_angle_alpha   90.00000000
_cell_angle_beta   59.64489319
_cell_angle_gamma   120.14823528
_symmetry_Int_Tables_number   1
_chemical_formula_structural   Li2FeCl4
_chemical_formula_sum   'Li4 Fe2 Cl8'
_cell_volume   283.02017863
_cell_formula_units_Z   2
loop_
 _symmetry_equiv_pos_site_id
 _symmetry_equiv_pos_as_xyz
  1  'x, y, z'
loop_
 _atom_site_type_symbol
 _atom_site_label
 _atom_site_symmetry_multiplicity
 _atom_site_fract_x
 _atom_site_fract_y
 _atom_site_fract_z
 _atom_site_occupancy
  Li  Li0  1  0.50000000  0.00000000  0.50000000  1
  Li  Li1  1  0.50000000  0.50000000  0.50000000  1
  Li  Li2  1  0.26085519  0.13042760  0.11957240  1
  Li  Li3  1  0.73914481  0.86957240  0.88042760  1
  Fe  Fe4  1  0.00000000  0.50000000  -0.00000000  1
  Fe  Fe5  1  0.00000000  0.50000000  0.50000000  1
  Cl  Cl6  1  0.99432998  0.72749346  0.25283501  1
  Cl  Cl7  1  0.99432998  0.26683652  0.25283501  1
  Cl  Cl8  1  0.52932386  0.26466193  0.72395885  1
  Cl  Cl9  1  0.52932386  0.26466193  0.24671728  1
  Cl  Cl10  1  0.00567002  0.27250654  0.74716499  1
  Cl  Cl11  1  0.00567002  0.73316348  0.74716499  1
  Cl  Cl12  1  0.47067614  0.73533807  0.27604115  1
  Cl  Cl13  1  0.47067614  0.73533807  0.75328272  1
