# generated using pymatgen
data_In2S3
_symmetry_space_group_name_H-M   'P 1'
_cell_length_a   3.98522973
_cell_length_b   5.87949820
_cell_length_c   7.03520770
_cell_angle_alpha   65.30029184
_cell_angle_beta   73.54664373
_cell_angle_gamma   90.00000000
_symmetry_Int_Tables_number   1
_chemical_formula_structural   In2S3
_chemical_formula_sum   'In2 S3'
_cell_volume   142.29772688
_cell_formula_units_Z   1
loop_
 _symmetry_equiv_pos_site_id
 _symmetry_equiv_pos_as_xyz
  1  'x, y, z'
loop_
 _atom_site_type_symbol
 _atom_site_label
 _atom_site_symmetry_multiplicity
 _atom_site_fract_x
 _atom_site_fract_y
 _atom_site_fract_z
 _atom_site_occupancy
  In  In0  1  0.00728531  0.01505768  0.98542937  1
  In  In1  1  0.32604769  0.33382005  0.34790363  1
  S  S2  1  0.50159944  0.74240497  0.99680113  1
  S  S3  1  0.83173356  0.07253910  0.33653187  1
  S  S4  1  0.16666700  0.41951120  0.66666700  1
