# generated using pymatgen
data_KU2(PO4)3
_symmetry_space_group_name_H-M   'P 1'
_cell_length_a   6.82868935
_cell_length_b   8.08280166
_cell_length_c   9.45692102
_cell_angle_alpha   101.30473289
_cell_angle_beta   68.83580389
_cell_angle_gamma   90.00000000
_symmetry_Int_Tables_number   1
_chemical_formula_structural   KU2(PO4)3
_chemical_formula_sum   'K2 U4 P6 O24'
_cell_volume   475.89110015
_cell_formula_units_Z   2
loop_
 _symmetry_equiv_pos_site_id
 _symmetry_equiv_pos_as_xyz
  1  'x, y, z'
loop_
 _atom_site_type_symbol
 _atom_site_label
 _atom_site_symmetry_multiplicity
 _atom_site_fract_x
 _atom_site_fract_y
 _atom_site_fract_z
 _atom_site_occupancy
  K  K0  1  0.60809301  0.71198842  0.98343179  1
  K  K1  1  0.40847520  0.21198842  0.98343179  1
  U  U2  1  0.75243481  0.53667053  0.30819982  1
  U  U3  1  0.06026017  0.96289910  0.69125841  1
  U  U4  1  0.24848142  0.46289910  0.69125841  1
  U  U5  1  0.93936536  0.03667053  0.30819982  1
  P  P6  1  0.09725074  0.75004800  -0.00003417  1
  P  P7  1  0.90278343  0.25004800  -0.00003417  1
  P  P8  1  0.60011595  0.81697956  0.61853352  1
  P  P9  1  0.21888754  0.68297218  0.38106138  1
  P  P10  1  0.40005108  0.18297218  0.38106138  1
  P  P11  1  0.78135052  0.31697956  0.61853352  1
  O  O12  1  0.72731033  0.83003463  0.44745417  1
  O  O13  1  0.17490132  0.67004907  0.55264851  1
  O  O14  1  0.27245018  0.17004907  0.55264851  1
  O  O15  1  0.82523549  0.33003463  0.44745417  1
  O  O16  1  0.89554691  0.74405980  0.14466036  1
  O  O17  1  0.04041844  0.75567713  0.85481467  1
  O  O18  1  0.10476689  0.25567713  0.85481467  1
  O  O19  1  0.95979273  0.24405980  0.14466036  1
  O  O20  1  0.45546629  0.65269188  0.28292696  1
  O  O21  1  0.73749256  0.84756985  0.71772774  1
  O  O22  1  0.54477970  0.34756985  0.71772774  1
  O  O23  1  0.26160674  0.15269188  0.28292696  1
  O  O24  1  0.54982228  0.62659275  0.59399909  1
  O  O25  1  0.14310877  0.87355603  0.40665906  1
  O  O26  1  0.45023217  0.37355603  0.40665906  1
  O  O27  1  0.85617864  0.12659275  0.59399909  1
  O  O28  1  0.08667460  0.56831467  0.30746594  1
  O  O29  1  0.39479964  0.93266582  0.69355350  1
  O  O30  1  0.91164685  0.43266582  0.69355350  1
  O  O31  1  0.60585946  0.06831467  0.30746594  1
  O  O32  1  0.75207708  0.41197822  0.05452426  1
  O  O33  1  0.80816769  0.08725236  0.94451499  1
  O  O34  1  0.24731732  0.58725236  0.94451499  1
  O  O35  1  0.19339866  0.91197822  0.05452426  1
