# generated using pymatgen
data_KNaCaMg5(SiO3)8
_symmetry_space_group_name_H-M   'P 1'
_cell_length_a   5.31962055
_cell_length_b   10.19570653
_cell_length_c   10.47431822
_cell_angle_alpha   119.11388590
_cell_angle_beta   97.27822397
_cell_angle_gamma   74.90883439
_symmetry_Int_Tables_number   1
_chemical_formula_structural   KNaCaMg5(SiO3)8
_chemical_formula_sum   'K1 Na1 Ca1 Mg5 Si8 O24'
_cell_volume   479.20507529
_cell_formula_units_Z   1
loop_
 _symmetry_equiv_pos_site_id
 _symmetry_equiv_pos_as_xyz
  1  'x, y, z'
loop_
 _atom_site_type_symbol
 _atom_site_label
 _atom_site_symmetry_multiplicity
 _atom_site_fract_x
 _atom_site_fract_y
 _atom_site_fract_z
 _atom_site_occupancy
  K  K0  1  0.96894387  0.51550841  0.00252424  1
  Na  Na1  1  0.50004144  0.72330555  0.44682746  1
  Ca  Ca2  1  0.50029468  0.27859537  0.55834090  1
  Mg  Mg3  1  0.50043529  0.90606385  0.81167555  1
  Mg  Mg4  1  0.50044360  0.09295599  0.18566704  1
  Mg  Mg5  1  0.99912453  0.99956828  0.99872711  1
  Mg  Mg6  1  0.00011994  0.81874059  0.63662634  1
  Mg  Mg7  1  0.99994882  0.17833913  0.35613787  1
  Si  Si8  1  0.70154119  0.18771018  0.83014736  1
  Si  Si9  1  0.70044202  0.35765395  0.17002607  1
  Si  Si10  1  0.29977629  0.81310918  0.17022662  1
  Si  Si11  1  0.29871731  0.64311158  0.82993856  1
  Si  Si12  1  0.19334092  0.11297846  0.65657572  1
  Si  Si13  1  0.19516861  0.45502424  0.34272653  1
  Si  Si14  1  0.80498433  0.88842419  0.34346347  1
  Si  Si15  1  0.80684392  0.54390014  0.65597027  1
  O  O16  1  0.40775901  0.22174779  0.76386671  1
  O  O17  1  0.40484311  0.45177135  0.23250051  1
  O  O18  1  0.59602067  0.78088110  0.23197010  1
  O  O19  1  0.59315423  0.54294450  0.76437533  1
  O  O20  1  0.27009062  0.94966901  0.65874630  1
  O  O21  1  0.27634611  0.29043639  0.34700446  1
  O  O22  1  0.72343445  0.05695723  0.34727276  1
  O  O23  1  0.72978809  0.70939964  0.65832884  1
  O  O24  1  0.31498273  0.08695460  0.99989360  1
  O  O25  1  0.68599302  0.91202828  0.99994398  1
  O  O26  1  0.78660384  0.02146067  0.82430882  1
  O  O27  1  0.78707433  0.19636229  0.17564868  1
  O  O28  1  0.21278987  0.98000768  0.17595535  1
  O  O29  1  0.21334262  0.80333904  0.82389991  1
  O  O30  1  0.20185100  0.12280222  0.50894655  1
  O  O31  1  0.19801521  0.60674543  0.49553062  1
  O  O32  1  0.80132177  0.88862517  0.49547782  1
  O  O33  1  0.79780148  0.38623471  0.50908229  1
  O  O34  1  0.89838943  0.21375845  0.73771283  1
  O  O35  1  0.90586513  0.46909007  0.25837951  1
  O  O36  1  0.09347693  0.78973147  0.25779122  1
  O  O37  1  0.10085725  0.52519555  0.73838794  1
  O  O38  1  0.70146790  0.32798029  0.99969190  1
  O  O39  1  0.30156446  0.67218798  0.99968284  1
