# generated using pymatgen
data_IrOs
_symmetry_space_group_name_H-M   'P 1'
_cell_length_a   2.75712211
_cell_length_b   2.75712211
_cell_length_c   4.39034759
_cell_angle_alpha   90.00000000
_cell_angle_beta   90.00000000
_cell_angle_gamma   120.00115915
_symmetry_Int_Tables_number   1
_chemical_formula_structural   IrOs
_chemical_formula_sum   'Ir1 Os1'
_cell_volume   28.90257022
_cell_formula_units_Z   1
loop_
 _symmetry_equiv_pos_site_id
 _symmetry_equiv_pos_as_xyz
  1  'x, y, z'
loop_
 _atom_site_type_symbol
 _atom_site_label
 _atom_site_symmetry_multiplicity
 _atom_site_fract_x
 _atom_site_fract_y
 _atom_site_fract_z
 _atom_site_occupancy
  Ir  Ir0  1  0.66668950  0.33331050  0.75000000  1
  Os  Os1  1  0.33331050  0.66668950  0.25000000  1
