# generated using pymatgen
data_In2CuAg(TeSe)2
_symmetry_space_group_name_H-M   'P 1'
_cell_length_a   6.21889525
_cell_length_b   6.18183536
_cell_length_c   7.64322981
_cell_angle_alpha   65.77086713
_cell_angle_beta   65.62069658
_cell_angle_gamma   89.15673084
_symmetry_Int_Tables_number   1
_chemical_formula_structural   In2CuAg(TeSe)2
_chemical_formula_sum   'In2 Cu1 Ag1 Te2 Se2'
_cell_volume   239.79189479
_cell_formula_units_Z   1
loop_
 _symmetry_equiv_pos_site_id
 _symmetry_equiv_pos_as_xyz
  1  'x, y, z'
loop_
 _atom_site_type_symbol
 _atom_site_label
 _atom_site_symmetry_multiplicity
 _atom_site_fract_x
 _atom_site_fract_y
 _atom_site_fract_z
 _atom_site_occupancy
  In  In0  1  0.24187772  0.74187772  0.51624456  1
  In  In1  1  0.50601310  0.50601310  0.98797381  1
  Cu  Cu2  1  0.01047830  0.01047830  0.97904340  1
  Ag  Ag3  1  0.73902144  0.23902144  0.52195712  1
  Te  Te4  1  0.10974832  0.11761570  0.23579736  1
  Te  Te5  1  0.65445433  0.64658694  0.23579736  1
  Se  Se6  1  0.35254514  0.88203571  0.76159320  1
  Se  Se7  1  0.88586166  0.35637109  0.76159320  1
