# generated using pymatgen
data_Mn2Fe3Cu10(SnS4)5
_symmetry_space_group_name_H-M   'P 1'
_cell_length_a   5.52822843
_cell_length_b   10.89552097
_cell_length_c   15.13778521
_cell_angle_alpha   68.90727941
_cell_angle_beta   100.52106460
_cell_angle_gamma   90.00000000
_symmetry_Int_Tables_number   1
_chemical_formula_structural   Mn2Fe3Cu10(SnS4)5
_chemical_formula_sum   'Mn2 Fe3 Cu10 Sn5 S20'
_cell_volume   834.25134074
_cell_formula_units_Z   1
loop_
 _symmetry_equiv_pos_site_id
 _symmetry_equiv_pos_as_xyz
  1  'x, y, z'
loop_
 _atom_site_type_symbol
 _atom_site_label
 _atom_site_symmetry_multiplicity
 _atom_site_fract_x
 _atom_site_fract_y
 _atom_site_fract_z
 _atom_site_occupancy
  Mn  Mn0  1  0.79995110  0.20004890  0.59990221  1
  Mn  Mn1  1  0.40004890  0.59995110  0.80009779  1
  Fe  Fe2  1  0.00029114  0.99970886  0.00058228  1
  Fe  Fe3  1  0.60000000  0.40000000  0.20000000  1
  Fe  Fe4  1  0.19970886  0.80029114  0.39941772  1
  Cu  Cu5  1  0.50162972  0.24737662  0.00085699  1
  Cu  Cu6  1  0.29682730  0.45175715  0.59875581  1
  Cu  Cu7  1  0.90317270  0.85051296  0.80124419  1
  Cu  Cu8  1  0.10000000  0.65129997  0.20000000  1
  Cu  Cu9  1  0.69837028  0.04823361  0.39914301  1
  Cu  Cu10  1  0.89807149  0.34824285  0.80124419  1
  Cu  Cu11  1  0.70077273  0.55262338  0.39914301  1
  Cu  Cu12  1  0.30192851  0.94948704  0.59875581  1
  Cu  Cu13  1  0.49922727  0.75176639  0.00085699  1
  Cu  Cu14  1  0.10000000  0.14870003  0.20000000  1
  Sn  Sn15  1  0.40084309  0.09915691  0.80168617  1
  Sn  Sn16  1  0.19887668  0.30112332  0.39775336  1
  Sn  Sn17  1  0.79915691  0.70084309  0.59831383  1
  Sn  Sn18  1  0.00112332  0.49887668  0.00224664  1
  Sn  Sn19  1  0.60000000  0.90000000  0.20000000  1
  S  S20  1  0.20603767  0.41627963  0.89800360  1
  S  S21  1  0.81414399  0.82112311  0.09340211  1
  S  S22  1  0.41340761  0.22145937  0.29297775  1
  S  S23  1  0.01272093  0.62210560  0.49258077  1
  S  S24  1  0.60575983  0.01623516  0.69710290  1
  S  S25  1  0.78659239  0.31443712  0.10702225  1
  S  S26  1  0.38585601  0.71452522  0.30659789  1
  S  S27  1  0.99396233  0.11428323  0.50199640  1
  S  S28  1  0.59424017  0.51333806  0.70289710  1
  S  S29  1  0.18727907  0.91468637  0.90741923  1
  S  S30  1  0.09134307  0.28666194  0.69710290  1
  S  S31  1  0.69196593  0.68571677  0.89800360  1
  S  S32  1  0.27925811  0.08547478  0.09340211  1
  S  S33  1  0.87957014  0.48556288  0.29297775  1
  S  S34  1  0.47985984  0.88531363  0.49258077  1
  S  S35  1  0.72014016  0.17789440  0.90741923  1
  S  S36  1  0.32042986  0.57854063  0.10702225  1
  S  S37  1  0.92074189  0.97887689  0.30659789  1
  S  S38  1  0.50803407  0.38372037  0.50199640  1
  S  S39  1  0.10865693  0.78376484  0.70289710  1
