# generated using pymatgen
data_La2MnGaO6
_symmetry_space_group_name_H-M   'P 1'
_cell_length_a   5.55212386
_cell_length_b   5.52204695
_cell_length_c   8.14642896
_cell_angle_alpha   88.74625345
_cell_angle_beta   90.00000000
_cell_angle_gamma   90.00000000
_symmetry_Int_Tables_number   1
_chemical_formula_structural   La2MnGaO6
_chemical_formula_sum   'La4 Mn2 Ga2 O12'
_cell_volume   249.70229398
_cell_formula_units_Z   2
loop_
 _symmetry_equiv_pos_site_id
 _symmetry_equiv_pos_as_xyz
  1  'x, y, z'
loop_
 _atom_site_type_symbol
 _atom_site_label
 _atom_site_symmetry_multiplicity
 _atom_site_fract_x
 _atom_site_fract_y
 _atom_site_fract_z
 _atom_site_occupancy
  La  La0  1  0.96544753  0.49068352  0.74821627  1
  La  La1  1  0.46544753  0.00931648  0.75178373  1
  La  La2  1  0.03455247  0.50931648  0.25178373  1
  La  La3  1  0.53455247  0.99068352  0.24821627  1
  Mn  Mn4  1  0.50000000  0.50000000  0.50000000  1
  Mn  Mn5  1  -0.00000000  0.00000000  -0.00000000  1
  Ga  Ga6  1  0.50000000  0.50000000  -0.00000000  1
  Ga  Ga7  1  -0.00000000  0.00000000  0.50000000  1
  O  O8  1  0.51464444  0.58246354  0.76555888  1
  O  O9  1  0.01464444  0.91753646  0.73444112  1
  O  O10  1  0.48535556  0.41753646  0.23444112  1
  O  O11  1  0.98535556  0.08246354  0.26555888  1
  O  O12  1  0.28038997  0.78790703  0.04443304  1
  O  O13  1  0.78038997  0.71209297  0.45556696  1
  O  O14  1  0.71194399  0.22200927  0.54651111  1
  O  O15  1  0.21194399  0.27799073  0.95348889  1
  O  O16  1  0.71961003  0.21209297  0.95556696  1
  O  O17  1  0.21961003  0.28790703  0.54443304  1
  O  O18  1  0.28805601  0.77799073  0.45348889  1
  O  O19  1  0.78805601  0.72200927  0.04651111  1
