# generated using pymatgen
data_LaFe5Bi4O15
_symmetry_space_group_name_H-M   'P 1'
_cell_length_a   5.64348850
_cell_length_b   12.72670610
_cell_length_c   9.81733511
_cell_angle_alpha   96.62034038
_cell_angle_beta   106.72943891
_cell_angle_gamma   102.81119806
_symmetry_Int_Tables_number   1
_chemical_formula_structural   LaFe5Bi4O15
_chemical_formula_sum   'La2 Fe10 Bi8 O30'
_cell_volume   646.23052294
_cell_formula_units_Z   2
loop_
 _symmetry_equiv_pos_site_id
 _symmetry_equiv_pos_as_xyz
  1  'x, y, z'
loop_
 _atom_site_type_symbol
 _atom_site_label
 _atom_site_symmetry_multiplicity
 _atom_site_fract_x
 _atom_site_fract_y
 _atom_site_fract_z
 _atom_site_occupancy
  La  La0  1  0.37939040  0.17646918  0.57657993  1
  La  La1  1  0.17393271  0.57310721  0.77314661  1
  Fe  Fe2  1  0.51378316  0.11335294  0.91105588  1
  Fe  Fe3  1  0.31142305  0.51435419  0.11254905  1
  Fe  Fe4  1  0.10908167  0.90909515  0.31010364  1
  Fe  Fe5  1  0.91376726  0.31191536  0.51421143  1
  Fe  Fe6  1  0.71410007  0.71346593  0.71493418  1
  Fe  Fe7  1  0.61041710  0.40756878  0.81127072  1
  Fe  Fe8  1  0.40647296  0.80725116  0.00926413  1
  Fe  Fe9  1  0.21095149  0.21118031  0.20943517  1
  Fe  Fe10  1  0.00862430  0.61274565  0.40866917  1
  Fe  Fe11  1  0.81362386  0.01068952  0.61225603  1
  Bi  Bi12  1  0.08998789  0.28939695  0.89250159  1
  Bi  Bi13  1  0.88232891  0.68982321  0.08446587  1
  Bi  Bi14  1  0.68885722  0.08862321  0.28481860  1
  Bi  Bi15  1  0.49129658  0.48913778  0.48937800  1
  Bi  Bi16  1  0.29366749  0.88672679  0.69473792  1
  Bi  Bi17  1  0.99028809  0.98750914  0.98957332  1
  Bi  Bi18  1  0.78747733  0.39007422  0.19035272  1
  Bi  Bi19  1  0.58714853  0.79010686  0.39022983  1
  O  O20  1  0.36656963  0.94785181  0.93709994  1
  O  O21  1  0.76582777  0.14735293  0.53579393  1
  O  O22  1  0.56924410  0.54819734  0.73793443  1
  O  O23  1  0.16368470  0.34758588  0.13838157  1
  O  O24  1  0.95845569  0.74810755  0.33554444  1
  O  O25  1  0.19064539  0.05959697  0.71533029  1
  O  O26  1  0.58658283  0.25614067  0.31959019  1
  O  O27  1  0.38478820  0.65781804  0.51788932  1
  O  O28  1  0.99250242  0.45856807  0.91747163  1
  O  O29  1  0.78970977  0.85842129  0.11514949  1
  O  O30  1  0.67553568  0.02898058  0.77610571  1
  O  O31  1  0.07765785  0.22401253  0.37817025  1
  O  O32  1  0.87655017  0.62661025  0.57740881  1
  O  O33  1  0.47917465  0.42841516  0.98006511  1
  O  O34  1  0.27934975  0.82692665  0.17998219  1
  O  O35  1  0.49040379  0.76045270  0.81782654  1
  O  O36  1  0.89030036  0.96132191  0.41728813  1
  O  O37  1  0.70235660  0.36569148  0.62127748  1
  O  O38  1  0.29013785  0.15724089  0.01894311  1
  O  O39  1  0.08124095  0.55739331  0.21700865  1
  O  O40  1  0.81926860  0.84895342  0.63704971  1
  O  O41  1  0.21811746  0.04740616  0.23897426  1
  O  O42  1  0.01988491  0.44862817  0.44043453  1
  O  O43  1  0.62545978  0.24981872  0.84111682  1
  O  O44  1  0.42501394  0.64919845  0.04177253  1
  O  O45  1  0.42590877  0.93056555  0.47949514  1
  O  O46  1  0.83003858  0.12635877  0.07718437  1
  O  O47  1  0.62554107  0.52652332  0.28004855  1
  O  O48  1  0.22742858  0.33410590  0.68164076  1
  O  O49  1  0.02700010  0.73016197  0.87948834  1
