# generated using pymatgen
data_Y(NiO2)3
_symmetry_space_group_name_H-M   'P 1'
_cell_length_a   18.31402345
_cell_length_b   6.13422874
_cell_length_c   6.13422834
_cell_angle_alpha   59.99160598
_cell_angle_beta   59.68973831
_cell_angle_gamma   59.68973326
_symmetry_Int_Tables_number   1
_chemical_formula_structural   Y(NiO2)3
_chemical_formula_sum   'Y4 Ni12 O24'
_cell_volume   484.96309611
_cell_formula_units_Z   4
loop_
 _symmetry_equiv_pos_site_id
 _symmetry_equiv_pos_as_xyz
  1  'x, y, z'
loop_
 _atom_site_type_symbol
 _atom_site_label
 _atom_site_symmetry_multiplicity
 _atom_site_fract_x
 _atom_site_fract_y
 _atom_site_fract_z
 _atom_site_occupancy
  Y  Y0  1  0.22019804  0.61345060  0.61345060  1
  Y  Y1  1  0.53779061  0.62687408  0.62687408  1
  Y  Y2  1  0.11313496  0.38654940  0.38654940  1
  Y  Y3  1  0.79554239  0.37312592  0.37312592  1
  Ni  Ni4  1  0.99810720  0.50558822  0.00032111  1
  Ni  Ni5  1  0.33522580  0.49441178  0.99967889  1
  Ni  Ni6  1  0.66666700  0.50000000  -0.00000000  1
  Ni  Ni7  1  0.99797113  0.00092882  0.00092882  1
  Ni  Ni8  1  0.33536187  0.99907118  0.99907118  1
  Ni  Ni9  1  0.66666700  0.00000000  0.00000000  1
  Ni  Ni10  1  0.16666700  0.00000000  -0.00000000  1
  Ni  Ni11  1  0.49927531  0.99871698  0.99871698  1
  Ni  Ni12  1  0.83405769  0.00128302  0.00128302  1
  Ni  Ni13  1  0.99810720  0.00032111  0.50558822  1
  Ni  Ni14  1  0.33522580  0.99967889  0.49441178  1
  Ni  Ni15  1  0.66666700  0.00000000  0.50000000  1
  O  O16  1  0.07555314  0.75574047  0.75574047  1
  O  O17  1  0.40098566  0.76362119  0.76362119  1
  O  O18  1  0.72721315  0.76304100  0.76304100  1
  O  O19  1  0.07140687  0.23422241  0.80868921  1
  O  O20  1  0.41221604  0.21743105  0.81534816  1
  O  O21  1  0.74911433  0.22777329  0.80406012  1
  O  O22  1  0.07140687  0.80868921  0.23422241  1
  O  O23  1  0.41221604  0.81534816  0.21743105  1
  O  O24  1  0.74911433  0.80406012  0.22777329  1
  O  O25  1  0.07198894  0.23721251  0.23721251  1
  O  O26  1  0.41376530  0.22112308  0.22112308  1
  O  O27  1  0.74950218  0.22644133  0.22644133  1
  O  O28  1  0.26192613  0.76577759  0.19131079  1
  O  O29  1  0.58421967  0.77222671  0.19593988  1
  O  O30  1  0.92111696  0.78256895  0.18465184  1
  O  O31  1  0.25778086  0.24425953  0.24425953  1
  O  O32  1  0.60611985  0.23695900  0.23695900  1
  O  O33  1  0.93234734  0.23637881  0.23637881  1
  O  O34  1  0.26192613  0.19131079  0.76577759  1
  O  O35  1  0.58421967  0.19593988  0.77222671  1
  O  O36  1  0.92111696  0.18465184  0.78256895  1
  O  O37  1  0.26134506  0.76278749  0.76278749  1
  O  O38  1  0.58383082  0.77355867  0.77355867  1
  O  O39  1  0.91956770  0.77887692  0.77887692  1
