# generated using pymatgen
data_Fe5(NiS2)4
_symmetry_space_group_name_H-M   'P 1'
_cell_length_a   6.95458731
_cell_length_b   6.95458731
_cell_length_c   6.95458731
_cell_angle_alpha   90.00000000
_cell_angle_beta   60.00000000
_cell_angle_gamma   120.00000000
_symmetry_Int_Tables_number   1
_chemical_formula_structural   Fe5(NiS2)4
_chemical_formula_sum   'Fe5 Ni4 S8'
_cell_volume   237.84777560
_cell_formula_units_Z   1
loop_
 _symmetry_equiv_pos_site_id
 _symmetry_equiv_pos_as_xyz
  1  'x, y, z'
loop_
 _atom_site_type_symbol
 _atom_site_label
 _atom_site_symmetry_multiplicity
 _atom_site_fract_x
 _atom_site_fract_y
 _atom_site_fract_z
 _atom_site_occupancy
  Fe  Fe0  1  -0.00000000  0.50000000  0.50000000  1
  Fe  Fe1  1  0.24954729  0.12477365  0.62567906  1
  Fe  Fe2  1  0.75045271  0.12477365  0.12477365  1
  Fe  Fe3  1  0.75045271  0.62567906  0.12477365  1
  Fe  Fe4  1  0.24954729  0.12477365  0.12477365  1
  Ni  Ni5  1  0.74659872  0.87329936  0.38010193  1
  Ni  Ni6  1  0.25340128  0.87329936  0.87329936  1
  Ni  Ni7  1  0.25340128  0.38010193  0.87329936  1
  Ni  Ni8  1  0.74659872  0.87329936  0.87329936  1
  S  S9  1  0.52959595  0.26479798  0.73520202  1
  S  S10  1  0.00000000  0.73520202  0.73520202  1
  S  S11  1  -0.00000000  0.26479798  0.73520202  1
  S  S12  1  0.47040405  0.73520202  0.26479798  1
  S  S13  1  0.00000000  0.26479798  0.26479798  1
  S  S14  1  0.00000000  0.73520202  0.26479798  1
  S  S15  1  0.50000000  0.25000000  0.25000000  1
  S  S16  1  0.50000000  0.75000000  0.75000000  1
