# generated using pymatgen
data_ErCuSi
_symmetry_space_group_name_H-M   'P 1'
_cell_length_a   3.68280661
_cell_length_b   4.11358073
_cell_length_c   4.11343560
_cell_angle_alpha   59.99842332
_cell_angle_beta   90.00000000
_cell_angle_gamma   90.00000000
_symmetry_Int_Tables_number   1
_chemical_formula_structural   ErCuSi
_chemical_formula_sum   'Er1 Cu1 Si1'
_cell_volume   53.96688773
_cell_formula_units_Z   1
loop_
 _symmetry_equiv_pos_site_id
 _symmetry_equiv_pos_as_xyz
  1  'x, y, z'
loop_
 _atom_site_type_symbol
 _atom_site_label
 _atom_site_symmetry_multiplicity
 _atom_site_fract_x
 _atom_site_fract_y
 _atom_site_fract_z
 _atom_site_occupancy
  Er  Er0  1  -0.00000000  -0.00000318  0.99997996  1
  Cu  Cu1  1  0.50000000  0.33329363  0.33339190  1
  Si  Si2  1  0.50000000  0.66660955  0.66672814  1
