# generated using pymatgen
data_Ho12Ge5S28
_symmetry_space_group_name_H-M   'P 1'
_cell_length_a   9.81876600
_cell_length_b   11.36780182
_cell_length_c   11.38119446
_cell_angle_alpha   60.88663055
_cell_angle_beta   115.56680594
_cell_angle_gamma   115.57347584
_symmetry_Int_Tables_number   1
_chemical_formula_structural   Ho12Ge5S28
_chemical_formula_sum   'Ho12 Ge5 S28'
_cell_volume   960.74624215
_cell_formula_units_Z   1
loop_
 _symmetry_equiv_pos_site_id
 _symmetry_equiv_pos_as_xyz
  1  'x, y, z'
loop_
 _atom_site_type_symbol
 _atom_site_label
 _atom_site_symmetry_multiplicity
 _atom_site_fract_x
 _atom_site_fract_y
 _atom_site_fract_z
 _atom_site_occupancy
  Ho  Ho0  1  0.23348580  0.06777223  0.29750319  1
  Ho  Ho1  1  0.22095886  0.53373926  0.81339414  1
  Ho  Ho2  1  0.65166725  0.29773415  0.57642941  1
  Ho  Ho3  1  0.63689501  0.81793992  0.05021436  1
  Ho  Ho4  1  0.12828638  0.25121784  0.52979756  1
  Ho  Ho5  1  0.12694659  0.76615576  0.99688649  1
  Ho  Ho6  1  0.77792566  0.96168408  0.69415402  1
  Ho  Ho7  1  0.77165813  0.42969353  0.20249830  1
  Ho  Ho8  1  0.36712374  0.68231963  0.45360746  1
  Ho  Ho9  1  0.34307805  0.19404870  0.92908350  1
  Ho  Ho10  1  0.86380091  0.72923829  0.49916878  1
  Ho  Ho11  1  0.87529790  0.24218060  0.97890966  1
  Ge  Ge12  1  0.33491333  0.91629124  0.74703219  1
  Ge  Ge13  1  0.33256864  0.42018878  0.25124496  1
  Ge  Ge14  1  0.66648134  0.99861038  0.33413317  1
  Ge  Ge15  1  0.66674113  0.49846861  0.83603889  1
  Ge  Ge16  1  0.00084668  0.76799460  0.23164306  1
  S  S17  1  0.10129830  0.75422008  0.74943353  1
  S  S18  1  0.09471396  0.26628001  0.26134682  1
  S  S19  1  0.47781847  0.78712269  0.78197329  1
  S  S20  1  0.49289109  0.30100628  0.29625216  1
  S  S21  1  0.41404156  0.95417068  0.94623901  1
  S  S22  1  0.42342435  0.45449755  0.45224697  1
  S  S23  1  0.90243517  0.99135570  0.48874882  1
  S  S24  1  0.90392674  0.49232678  0.99276867  1
  S  S25  1  0.51391579  0.96031810  0.45665972  1
  S  S26  1  0.51951001  0.46026246  0.96272898  1
  S  S27  1  0.58056694  0.79690722  0.29897170  1
  S  S28  1  0.57908844  0.30027202  0.79772056  1
  S  S29  1  0.33277567  0.10871165  0.55788255  1
  S  S30  1  0.33331177  0.60935004  0.05785587  1
  S  S31  1  0.67449420  0.69750617  0.65216031  1
  S  S32  1  0.65927472  0.18207921  0.13545642  1
  S  S33  1  0.14587779  0.77596276  0.46081583  1
  S  S34  1  0.16758565  0.26469315  0.00158279  1
  S  S35  1  0.73563954  0.08460296  0.81871999  1
  S  S36  1  0.76329386  0.61041739  0.29656766  1
  S  S37  1  0.09348570  0.04985417  0.78216513  1
  S  S38  1  0.09308803  0.58265145  0.27060088  1
  S  S39  1  0.83650367  0.25636366  0.48242129  1
  S  S40  1  0.84291604  0.75986777  0.99458290  1
  S  S41  1  0.24545722  0.92717416  0.16089187  1
  S  S42  1  0.26049501  0.43558183  0.66220262  1
  S  S43  1  0.91138006  0.96249541  0.19528434  1
  S  S44  1  0.90211486  0.46767104  0.69498021  1
