# generated using pymatgen
data_Li3Mn3NiO8
_symmetry_space_group_name_H-M   'P 1'
_cell_length_a   10.54241471
_cell_length_b   10.20709451
_cell_length_c   14.60940522
_cell_angle_alpha   19.31613252
_cell_angle_beta   19.24777357
_cell_angle_gamma   33.40086991
_symmetry_Int_Tables_number   1
_chemical_formula_structural   Li3Mn3NiO8
_chemical_formula_sum   'Li3 Mn3 Ni1 O8'
_cell_volume   146.98132375
_cell_formula_units_Z   1
loop_
 _symmetry_equiv_pos_site_id
 _symmetry_equiv_pos_as_xyz
  1  'x, y, z'
loop_
 _atom_site_type_symbol
 _atom_site_label
 _atom_site_symmetry_multiplicity
 _atom_site_fract_x
 _atom_site_fract_y
 _atom_site_fract_z
 _atom_site_occupancy
  Li  Li0  1  0.99999914  0.49997577  0.50001194  1
  Li  Li1  1  0.49999377  0.99998266  0.50001450  1
  Li  Li2  1  0.49998833  0.49998032  0.50002555  1
  Mn  Mn3  1  0.00006096  0.49999806  0.99996895  1
  Mn  Mn4  1  0.49999095  0.00004979  -0.00002038  1
  Mn  Mn5  1  0.49997104  0.49998556  0.00003667  1
  Ni  Ni6  1  0.99995803  0.99993386  0.00008354  1
  O  O7  1  0.96175772  0.00000549  0.27920814  1
  O  O8  1  0.02999515  0.48441892  0.25594186  1
  O  O9  1  0.49588259  0.99998815  0.26298529  1
  O  O10  1  0.03830344  0.00010188  0.72067150  1
  O  O11  1  0.54560233  0.51560017  0.22475872  1
  O  O12  1  0.97003293  0.51559125  0.74401750  1
  O  O13  1  0.50412697  0.00001432  0.73700168  1
  O  O14  1  0.45433765  0.48437380  0.77529356  1
