# generated using pymatgen
data_Fe3(Se2S)2
_symmetry_space_group_name_H-M   'P 1'
_cell_length_a   3.52880641
_cell_length_b   7.46259733
_cell_length_c   10.83084933
_cell_angle_alpha   99.18582777
_cell_angle_beta   90.00000000
_cell_angle_gamma   90.00000000
_symmetry_Int_Tables_number   1
_chemical_formula_structural   Fe3(Se2S)2
_chemical_formula_sum   'Fe6 Se8 S4'
_cell_volume   281.56252327
_cell_formula_units_Z   2
loop_
 _symmetry_equiv_pos_site_id
 _symmetry_equiv_pos_as_xyz
  1  'x, y, z'
loop_
 _atom_site_type_symbol
 _atom_site_label
 _atom_site_symmetry_multiplicity
 _atom_site_fract_x
 _atom_site_fract_y
 _atom_site_fract_z
 _atom_site_occupancy
  Fe  Fe0  1  0.50000000  0.82963374  0.66136921  1
  Fe  Fe1  1  0.50000000  0.50085616  0.00093953  1
  Fe  Fe2  1  0.50000000  0.16179370  0.32817545  1
  Fe  Fe3  1  0.00000000  0.33350522  0.67271073  1
  Fe  Fe4  1  -0.00000000  0.99870949  0.00685265  1
  Fe  Fe5  1  -0.00000000  0.66655309  0.33218422  1
  Se  Se6  1  0.50000000  0.34309165  0.52811418  1
  Se  Se7  1  0.50000000  0.01011787  0.86275277  1
  Se  Se8  1  -0.00000000  0.31744659  0.05093838  1
  Se  Se9  1  -0.00000000  0.98227741  0.38025776  1
  Se  Se10  1  0.00000000  0.65007086  0.71603760  1
  Se  Se11  1  -0.00000000  0.68431450  0.95241982  1
  Se  Se12  1  -0.00000000  0.34890150  0.28148024  1
  Se  Se13  1  -0.00000000  0.01586143  0.61534430  1
  S  S14  1  0.50000000  0.32986676  0.80720161  1
  S  S15  1  0.50000000  0.99133409  0.13915413  1
  S  S16  1  0.50000000  0.66216123  0.46844552  1
  S  S17  1  0.50000000  0.67350472  0.19562190  1
