# generated using pymatgen
data_ErAgS2
_symmetry_space_group_name_H-M   'P 1'
_cell_length_a   3.98879402
_cell_length_b   3.98879402
_cell_length_c   6.60236397
_cell_angle_alpha   107.58216513
_cell_angle_beta   72.41783487
_cell_angle_gamma   120.00000000
_symmetry_Int_Tables_number   1
_chemical_formula_structural   ErAgS2
_chemical_formula_sum   'Er1 Ag1 S2'
_cell_volume   85.25965863
_cell_formula_units_Z   1
loop_
 _symmetry_equiv_pos_site_id
 _symmetry_equiv_pos_as_xyz
  1  'x, y, z'
loop_
 _atom_site_type_symbol
 _atom_site_label
 _atom_site_symmetry_multiplicity
 _atom_site_fract_x
 _atom_site_fract_y
 _atom_site_fract_z
 _atom_site_occupancy
  Er  Er0  1  0.50000000  0.50000000  0.50000000  1
  Ag  Ag1  1  0.00000000  0.00000000  0.00000000  1
  S  S2  1  0.24604637  0.75395363  0.26186088  1
  S  S3  1  0.75395363  0.24604637  0.73813912  1
