# generated using pymatgen
data_Eu2Mo2WO12
_symmetry_space_group_name_H-M   'P 1'
_cell_length_a   7.04088971
_cell_length_b   7.04088971
_cell_length_c   11.77296999
_cell_angle_alpha   100.65820046
_cell_angle_beta   100.65820046
_cell_angle_gamma   111.83571924
_symmetry_Int_Tables_number   1
_chemical_formula_structural   Eu2Mo2WO12
_chemical_formula_sum   'Eu4 Mo4 W2 O24'
_cell_volume   511.40425219
_cell_formula_units_Z   2
loop_
 _symmetry_equiv_pos_site_id
 _symmetry_equiv_pos_as_xyz
  1  'x, y, z'
loop_
 _atom_site_type_symbol
 _atom_site_label
 _atom_site_symmetry_multiplicity
 _atom_site_fract_x
 _atom_site_fract_y
 _atom_site_fract_z
 _atom_site_occupancy
  Eu  Eu0  1  0.04670060  0.80347188  0.09238185  1
  Eu  Eu1  1  0.69652812  0.45329940  0.40761815  1
  Eu  Eu2  1  0.95329940  0.19652812  0.90761815  1
  Eu  Eu3  1  0.30347188  0.54670060  0.59238185  1
  Mo  Mo4  1  0.19648590  0.97440476  0.44726584  1
  Mo  Mo5  1  0.52559524  0.30351410  0.05273416  1
  Mo  Mo6  1  0.80351410  0.02559524  0.55273416  1
  Mo  Mo7  1  0.47440476  0.69648590  0.94726584  1
  W  W8  1  0.12052407  0.37947593  0.25000000  1
  W  W9  1  0.87947593  0.62052407  0.75000000  1
  O  O10  1  0.36164595  0.26133279  0.46122211  1
  O  O11  1  0.23866721  0.13835405  0.03877789  1
  O  O12  1  0.63835405  0.73866721  0.53877789  1
  O  O13  1  0.76133279  0.86164595  0.96122211  1
  O  O14  1  0.40586738  0.48154931  0.28693954  1
  O  O15  1  0.01845069  0.09413262  0.21306046  1
  O  O16  1  0.59413262  0.51845069  0.71306046  1
  O  O17  1  0.98154931  0.90586738  0.78693954  1
  O  O18  1  0.03655641  0.45427561  0.11385071  1
  O  O19  1  0.04572439  0.46344359  0.38614929  1
  O  O20  1  0.96344359  0.54572439  0.88614929  1
  O  O21  1  0.95427561  0.53655641  0.61385071  1
  O  O22  1  0.68936420  0.11998233  0.44239724  1
  O  O23  1  0.38001767  0.81063580  0.05760276  1
  O  O24  1  0.31063580  0.88001767  0.55760276  1
  O  O25  1  0.61998233  0.18936420  0.94239724  1
  O  O26  1  0.22017942  0.84584067  0.30770076  1
  O  O27  1  0.65415933  0.27982058  0.19229924  1
  O  O28  1  0.77982058  0.15415933  0.69229924  1
  O  O29  1  0.34584067  0.72017942  0.80770076  1
  O  O30  1  0.67025554  0.59921729  0.08380280  1
  O  O31  1  0.90078271  0.82974446  0.41619720  1
  O  O32  1  0.32974446  0.40078271  0.91619720  1
  O  O33  1  0.09921729  0.17025554  0.58380280  1
