# generated using pymatgen
data_H15RuS2(NO2)5
_symmetry_space_group_name_H-M   'P 1'
_cell_length_a   10.65916210
_cell_length_b   11.14106352
_cell_length_c   11.32615728
_cell_angle_alpha   90.00000000
_cell_angle_beta   90.00000000
_cell_angle_gamma   90.00000000
_symmetry_Int_Tables_number   1
_chemical_formula_structural   H15RuS2(NO2)5
_chemical_formula_sum   'H60 Ru4 S8 N20 O40'
_cell_volume   1345.03103504
_cell_formula_units_Z   4
loop_
 _symmetry_equiv_pos_site_id
 _symmetry_equiv_pos_as_xyz
  1  'x, y, z'
loop_
 _atom_site_type_symbol
 _atom_site_label
 _atom_site_symmetry_multiplicity
 _atom_site_fract_x
 _atom_site_fract_y
 _atom_site_fract_z
 _atom_site_occupancy
  H  H0  1  0.02659478  0.47869948  0.13846948  1
  H  H1  1  0.47340522  0.97869948  0.36153052  1
  H  H2  1  0.52659478  0.52130052  0.36153052  1
  H  H3  1  0.97340522  0.02130052  0.13846948  1
  H  H4  1  0.97681648  0.52158578  0.86308237  1
  H  H5  1  0.52318352  0.02158578  0.63691763  1
  H  H6  1  0.47681648  0.47841422  0.63691763  1
  H  H7  1  0.02318352  0.97841422  0.86308237  1
  H  H8  1  0.78393800  0.18075699  0.29088403  1
  H  H9  1  0.71606200  0.68075699  0.20911597  1
  H  H10  1  0.28393800  0.81924301  0.20911597  1
  H  H11  1  0.21606200  0.31924301  0.29088403  1
  H  H12  1  0.21716126  0.81873525  0.70995946  1
  H  H13  1  0.28283874  0.31873525  0.79004054  1
  H  H14  1  0.71716126  0.18126475  0.79004054  1
  H  H15  1  0.78283874  0.68126475  0.70995946  1
  H  H16  1  0.92609626  0.28481423  0.42438533  1
  H  H17  1  0.57390374  0.78481423  0.07561467  1
  H  H18  1  0.42609626  0.71518577  0.07561467  1
  H  H19  1  0.07390374  0.21518577  0.42438533  1
  H  H20  1  0.07357164  0.71759802  0.57457921  1
  H  H21  1  0.42642836  0.21759802  0.92542079  1
  H  H22  1  0.57357164  0.28240198  0.92542079  1
  H  H23  1  0.92642836  0.78240198  0.57457921  1
  H  H24  1  0.75247194  0.29907140  0.20398217  1
  H  H25  1  0.74752806  0.79907140  0.29601783  1
  H  H26  1  0.25247194  0.70092860  0.29601783  1
  H  H27  1  0.24752806  0.20092860  0.20398217  1
  H  H28  1  0.24731589  0.69896347  0.79634215  1
  H  H29  1  0.25268411  0.19896347  0.70365785  1
  H  H30  1  0.74731589  0.30103653  0.70365785  1
  H  H31  1  0.75268411  0.80103653  0.79634215  1
  H  H32  1  0.77498335  0.16266780  0.14556457  1
  H  H33  1  0.72501665  0.66266780  0.35443543  1
  H  H34  1  0.27498335  0.83733220  0.35443543  1
  H  H35  1  0.22501665  0.33733220  0.14556457  1
  H  H36  1  0.22583364  0.83472799  0.85524998  1
  H  H37  1  0.27416636  0.33472799  0.64475002  1
  H  H38  1  0.72583364  0.16527201  0.64475002  1
  H  H39  1  0.77416636  0.66527201  0.85524998  1
  H  H40  1  0.02129876  0.47149592  0.28401173  1
  H  H41  1  0.47870124  0.97149592  0.21598827  1
  H  H42  1  0.52129876  0.52850408  0.21598827  1
  H  H43  1  0.97870124  0.02850408  0.28401173  1
  H  H44  1  0.97732529  0.52780902  0.71776936  1
  H  H45  1  0.52267471  0.02780902  0.78223064  1
  H  H46  1  0.47732529  0.47219098  0.78223064  1
  H  H47  1  0.02267471  0.97219098  0.71776936  1
  H  H48  1  0.88734802  0.46571984  0.20635050  1
  H  H49  1  0.61265198  0.96571984  0.29364950  1
  H  H50  1  0.38734802  0.53428016  0.29364950  1
  H  H51  1  0.11265198  0.03428016  0.20635050  1
  H  H52  1  0.11412174  0.53478713  0.79280393  1
  H  H53  1  0.38587826  0.03478713  0.70719607  1
  H  H54  1  0.61412174  0.46521287  0.70719607  1
  H  H55  1  0.88587826  0.96521287  0.79280393  1
  H  H56  1  0.98972219  0.00266353  0.50276897  1
  H  H57  1  0.51027781  0.50266353  0.99723103  1
  H  H58  1  0.48972219  0.99733647  0.99723103  1
  H  H59  1  0.01027781  0.49733647  0.50276897  1
  Ru  Ru60  1  0.00000000  0.25000000  0.19710726  1
  Ru  Ru61  1  0.50000000  0.75000000  0.30289274  1
  Ru  Ru62  1  0.00000000  0.75000000  0.80285014  1
  Ru  Ru63  1  0.50000000  0.25000000  0.69714986  1
  S  S64  1  0.78571527  0.95919175  0.48657027  1
  S  S65  1  0.71428473  0.45919175  0.01342973  1
  S  S66  1  0.28571527  0.04080825  0.01342973  1
  S  S67  1  0.21428473  0.54080825  0.48657027  1
  S  S68  1  0.20816904  0.03838723  0.51181755  1
  S  S69  1  0.29183096  0.53838723  0.98818245  1
  S  S70  1  0.70816904  0.96161277  0.98818245  1
  S  S71  1  0.79183096  0.46161277  0.51181755  1
  N  N72  1  0.80297707  0.22062230  0.21132157  1
  N  N73  1  0.69702293  0.72062230  0.28867843  1
  N  N74  1  0.30297707  0.77937770  0.28867843  1
  N  N75  1  0.19702293  0.27937770  0.21132157  1
  N  N76  1  0.19733582  0.77790014  0.78894331  1
  N  N77  1  0.30266418  0.27790014  0.71105669  1
  N  N78  1  0.69733582  0.22209986  0.71105669  1
  N  N79  1  0.80266418  0.72209986  0.78894331  1
  N  N80  1  0.97996881  0.43987644  0.20831267  1
  N  N81  1  0.52003119  0.93987644  0.29168733  1
  N  N82  1  0.47996881  0.56012356  0.29168733  1
  N  N83  1  0.02003119  0.06012356  0.20831267  1
  N  N84  1  0.02125544  0.56020943  0.79198704  1
  N  N85  1  0.47874456  0.06020943  0.70801296  1
  N  N86  1  0.52125544  0.43979057  0.70801296  1
  N  N87  1  0.97874456  0.93979057  0.79198704  1
  N  N88  1  0.00000000  0.25000000  0.04344840  1
  N  N89  1  0.50000000  0.75000000  0.45655160  1
  N  N90  1  0.00000000  0.75000000  0.95650267  1
  N  N91  1  0.50000000  0.25000000  0.54349733  1
  O  O92  1  0.00000000  0.25000000  0.37631446  1
  O  O93  1  0.50000000  0.75000000  0.12368554  1
  O  O94  1  0.00000000  0.75000000  0.62285498  1
  O  O95  1  0.50000000  0.25000000  0.87714502  1
  O  O96  1  0.89597170  0.03252136  0.53926245  1
  O  O97  1  0.60402830  0.53252136  0.96073755  1
  O  O98  1  0.39597170  0.96747864  0.96073755  1
  O  O99  1  0.10402830  0.46747864  0.53926245  1
  O  O100  1  0.09823579  0.96802880  0.46115648  1
  O  O101  1  0.40176421  0.46802880  0.03884352  1
  O  O102  1  0.59823579  0.03197120  0.03884352  1
  O  O103  1  0.90176421  0.53197120  0.46115648  1
  O  O104  1  0.00000000  0.25000000  0.94049568  1
  O  O105  1  0.50000000  0.75000000  0.55950432  1
  O  O106  1  0.00000000  0.75000000  0.05913967  1
  O  O107  1  0.50000000  0.25000000  0.44086033  1
  O  O108  1  0.67131978  0.01365238  0.53379121  1
  O  O109  1  0.82868022  0.51365238  0.96620879  1
  O  O110  1  0.17131978  0.98634762  0.96620879  1
  O  O111  1  0.32868022  0.48634762  0.53379121  1
  O  O112  1  0.32459778  0.98558073  0.46493262  1
  O  O113  1  0.17540222  0.48558073  0.03506738  1
  O  O114  1  0.82459778  0.01441927  0.03506738  1
  O  O115  1  0.67540222  0.51441927  0.46493262  1
  O  O116  1  0.79251976  0.96847416  0.35574644  1
  O  O117  1  0.70748024  0.46847416  0.14425356  1
  O  O118  1  0.29251976  0.03152584  0.14425356  1
  O  O119  1  0.20748024  0.53152584  0.35574644  1
  O  O120  1  0.20430704  0.03022822  0.64354620  1
  O  O121  1  0.29569296  0.53022822  0.85645380  1
  O  O122  1  0.70430704  0.96977178  0.85645380  1
  O  O123  1  0.79569296  0.46977178  0.64354620  1
  O  O124  1  0.80104420  0.83205694  0.52437684  1
  O  O125  1  0.69895580  0.33205694  0.97562316  1
  O  O126  1  0.30104420  0.16794306  0.97562316  1
  O  O127  1  0.19895580  0.66794306  0.52437684  1
  O  O128  1  0.19505028  0.16702988  0.47526402  1
  O  O129  1  0.30494972  0.66702988  0.02473598  1
  O  O130  1  0.69505028  0.83297012  0.02473598  1
  O  O131  1  0.80494972  0.33297012  0.47526402  1
