# generated using pymatgen
data_ErTiFe8Co3
_symmetry_space_group_name_H-M   'P 1'
_cell_length_a   4.73087624
_cell_length_b   6.40213964
_cell_length_c   6.40213964
_cell_angle_alpha   97.92319257
_cell_angle_beta   111.68331189
_cell_angle_gamma   68.31668811
_symmetry_Int_Tables_number   1
_chemical_formula_structural   ErTiFe8Co3
_chemical_formula_sum   'Er1 Ti1 Fe8 Co3'
_cell_volume   167.43542846
_cell_formula_units_Z   1
loop_
 _symmetry_equiv_pos_site_id
 _symmetry_equiv_pos_as_xyz
  1  'x, y, z'
loop_
 _atom_site_type_symbol
 _atom_site_label
 _atom_site_symmetry_multiplicity
 _atom_site_fract_x
 _atom_site_fract_y
 _atom_site_fract_z
 _atom_site_occupancy
  Er  Er0  1  0.00537748  0.99462252  0.00537748  1
  Ti  Ti1  1  0.62591807  0.37408193  0.62591807  1
  Fe  Fe2  1  0.73008598  0.76991402  0.23008598  1
  Fe  Fe3  1  0.27917767  0.22082233  0.77917767  1
  Fe  Fe4  1  0.49957693  0.78354004  0.78269391  1
  Fe  Fe5  1  0.49957693  0.21730609  0.21645996  1
  Fe  Fe6  1  0.50147922  0.99698259  0.49935221  1
  Fe  Fe7  1  0.00089041  0.99698259  0.49935221  1
  Fe  Fe8  1  0.50147922  0.50064779  0.00301741  1
  Fe  Fe9  1  0.00089041  0.50064779  0.00301741  1
  Co  Co10  1  0.35147178  0.64852822  0.35147178  1
  Co  Co11  1  0.00203796  0.35554098  0.35961689  1
  Co  Co12  1  0.00203796  0.64038311  0.64445902  1
