# generated using pymatgen
data_Co2SiGe
_symmetry_space_group_name_H-M   'P 1'
_cell_length_a   4.53970367
_cell_length_b   4.53406639
_cell_length_c   4.53578947
_cell_angle_alpha   90.00000000
_cell_angle_beta   90.00000000
_cell_angle_gamma   90.71843323
_symmetry_Int_Tables_number   1
_chemical_formula_structural   Co2SiGe
_chemical_formula_sum   'Co4 Si2 Ge2'
_cell_volume   93.35425688
_cell_formula_units_Z   2
loop_
 _symmetry_equiv_pos_site_id
 _symmetry_equiv_pos_as_xyz
  1  'x, y, z'
loop_
 _atom_site_type_symbol
 _atom_site_label
 _atom_site_symmetry_multiplicity
 _atom_site_fract_x
 _atom_site_fract_y
 _atom_site_fract_z
 _atom_site_occupancy
  Co  Co0  1  0.85395035  0.64358784  0.36178853  1
  Co  Co1  1  0.64604965  0.35641216  0.86178853  1
  Co  Co2  1  0.36767086  0.86439864  0.64066283  1
  Co  Co3  1  0.13232914  0.13560136  0.14066283  1
  Si  Si4  1  0.66237810  0.15633442  0.33998457  1
  Si  Si5  1  0.83762190  0.84366558  0.83998457  1
  Ge  Ge6  1  0.15580086  0.33862574  0.65756406  1
  Ge  Ge7  1  0.34419914  0.66137426  0.15756406  1
