# generated using pymatgen
data_CsAlFe3(SiO4)3
_symmetry_space_group_name_H-M   'P 1'
_cell_length_a   5.40969250
_cell_length_b   5.40154629
_cell_length_c   10.89781922
_cell_angle_alpha   95.09608967
_cell_angle_beta   80.27200476
_cell_angle_gamma   120.03440128
_symmetry_Int_Tables_number   1
_chemical_formula_structural   CsAlFe3(SiO4)3
_chemical_formula_sum   'Cs1 Al1 Fe3 Si3 O12'
_cell_volume   271.71575741
_cell_formula_units_Z   1
loop_
 _symmetry_equiv_pos_site_id
 _symmetry_equiv_pos_as_xyz
  1  'x, y, z'
loop_
 _atom_site_type_symbol
 _atom_site_label
 _atom_site_symmetry_multiplicity
 _atom_site_fract_x
 _atom_site_fract_y
 _atom_site_fract_z
 _atom_site_occupancy
  Cs  Cs0  1  0.49140001  0.99958179  0.02014430  1
  Al  Al1  1  0.74339218  0.66138910  0.23786463  1
  Fe  Fe2  1  0.99616707  0.99975766  0.49735249  1
  Fe  Fe3  1  0.65689987  0.31000513  0.49519340  1
  Fe  Fe4  1  0.35126400  0.69307663  0.49749160  1
  Si  Si5  1  0.08425417  0.34014949  0.23257026  1
  Si  Si6  1  0.25681104  0.33662231  0.76119793  1
  Si  Si7  1  0.92040680  0.66093887  0.76088008  1
  O  O8  1  0.67415611  0.63574455  0.40370413  1
  O  O9  1  0.04017224  0.36154550  0.39030723  1
  O  O10  1  0.31423911  0.35491511  0.60964467  1
  O  O11  1  0.96421434  0.64189310  0.60910930  1
  O  O12  1  0.94901010  0.01118117  0.18658610  1
  O  O13  1  0.06915602  0.99932436  0.81009534  1
  O  O14  1  0.36075279  0.99799256  0.40991611  1
  O  O15  1  0.63600104  0.00631573  0.59156228  1
  O  O16  1  0.42287756  0.50894836  0.17571820  1
  O  O17  1  0.92582426  0.48104685  0.17529815  1
  O  O18  1  0.57018927  0.49654127  0.81682756  1
  O  O19  1  0.07281202  0.50303047  0.81853626  1
