# generated using pymatgen
data_ErFe2Co2B
_symmetry_space_group_name_H-M   'P 1'
_cell_length_a   4.98146264
_cell_length_b   4.98141803
_cell_length_c   6.93962615
_cell_angle_alpha   89.99383887
_cell_angle_beta   89.99317361
_cell_angle_gamma   60.80268403
_symmetry_Int_Tables_number   1
_chemical_formula_structural   ErFe2Co2B
_chemical_formula_sum   'Er2 Fe4 Co4 B2'
_cell_volume   150.32554400
_cell_formula_units_Z   2
loop_
 _symmetry_equiv_pos_site_id
 _symmetry_equiv_pos_as_xyz
  1  'x, y, z'
loop_
 _atom_site_type_symbol
 _atom_site_label
 _atom_site_symmetry_multiplicity
 _atom_site_fract_x
 _atom_site_fract_y
 _atom_site_fract_z
 _atom_site_occupancy
  Er  Er0  1  0.99993022  0.99996925  0.00218724  1
  Er  Er1  1  0.00000390  0.00000412  0.49575509  1
  Fe  Fe2  1  0.50003999  0.50003241  0.28280764  1
  Fe  Fe3  1  0.49994967  -0.00000482  0.71579358  1
  Fe  Fe4  1  0.99998259  0.49995963  0.71586290  1
  Fe  Fe5  1  0.49995262  0.49997226  0.71365977  1
  Co  Co6  1  0.66325499  0.66370909  0.00012919  1
  Co  Co7  1  0.33664766  0.33630582  0.00026634  1
  Co  Co8  1  0.50006207  0.00000035  0.28894416  1
  Co  Co9  1  -0.00000359  0.50005279  0.28883075  1
  B  B10  1  0.66930870  0.66920560  0.49789738  1
  B  B11  1  0.33067117  0.33079347  0.49786596  1
