# generated using pymatgen
data_Cd2InCuSe4
_symmetry_space_group_name_H-M   'P 1'
_cell_length_a   4.26800644
_cell_length_b   8.20485070
_cell_length_c   7.40441221
_cell_angle_alpha   63.09580156
_cell_angle_beta   90.00272656
_cell_angle_gamma   105.09366437
_symmetry_Int_Tables_number   1
_chemical_formula_structural   Cd2InCuSe4
_chemical_formula_sum   'Cd2 In1 Cu1 Se4'
_cell_volume   221.15017724
_cell_formula_units_Z   1
loop_
 _symmetry_equiv_pos_site_id
 _symmetry_equiv_pos_as_xyz
  1  'x, y, z'
loop_
 _atom_site_type_symbol
 _atom_site_label
 _atom_site_symmetry_multiplicity
 _atom_site_fract_x
 _atom_site_fract_y
 _atom_site_fract_z
 _atom_site_occupancy
  Cd  Cd0  1  0.50153346  0.00267151  0.82159671  1
  Cd  Cd1  1  0.99559822  0.99094134  0.35031130  1
  In  In2  1  0.75325797  0.50717557  0.90185140  1
  Cu  Cu3  1  0.24952934  0.49981075  0.42591052  1
  Se  Se4  1  0.07455440  0.14864071  0.59291539  1
  Se  Se5  1  0.56393974  0.12765820  0.10207078  1
  Se  Se6  1  0.80489643  0.60967053  0.50720680  1
  Se  Se7  1  0.30669043  0.61343139  0.04813711  1
