# generated using pymatgen
data_CaSmGa3O7
_symmetry_space_group_name_H-M   'P 1'
_cell_length_a   5.25147610
_cell_length_b   7.93734278
_cell_length_c   7.93734278
_cell_angle_alpha   89.78283377
_cell_angle_beta   90.00000000
_cell_angle_gamma   90.00000000
_symmetry_Int_Tables_number   1
_chemical_formula_structural   CaSmGa3O7
_chemical_formula_sum   'Ca2 Sm2 Ga6 O14'
_cell_volume   330.84802480
_cell_formula_units_Z   2
loop_
 _symmetry_equiv_pos_site_id
 _symmetry_equiv_pos_as_xyz
  1  'x, y, z'
loop_
 _atom_site_type_symbol
 _atom_site_label
 _atom_site_symmetry_multiplicity
 _atom_site_fract_x
 _atom_site_fract_y
 _atom_site_fract_z
 _atom_site_occupancy
  Ca  Ca0  1  0.51364197  0.33918603  0.16081397  1
  Ca  Ca1  1  0.51364197  0.66081397  0.83918603  1
  Sm  Sm2  1  0.48942570  0.16250139  0.66250139  1
  Sm  Sm3  1  0.48942570  0.83749861  0.33749861  1
  Ga  Ga4  1  0.99888488  0.50000000  0.50000000  1
  Ga  Ga5  1  0.99888488  -0.00000000  0.00000000  1
  Ga  Ga6  1  0.96531680  0.14487916  0.35512084  1
  Ga  Ga7  1  0.03524732  0.35657168  0.85657168  1
  Ga  Ga8  1  0.96531680  0.85512084  0.64487916  1
  Ga  Ga9  1  0.03524732  0.64342832  0.14342832  1
  O  O10  1  0.31090379  0.13305522  0.36694478  1
  O  O11  1  0.69089411  0.35341197  0.85341197  1
  O  O12  1  0.31090379  0.86694478  0.63305522  1
  O  O13  1  0.69089411  0.64658803  0.14658803  1
  O  O14  1  0.20341228  0.50000000  0.00000000  1
  O  O15  1  0.79010568  -0.00000000  0.50000000  1
  O  O16  1  0.78356266  0.33745010  0.41448800  1
  O  O17  1  0.21590057  0.15734721  0.90432062  1
  O  O18  1  0.78356266  0.66254990  0.58551200  1
  O  O19  1  0.21590057  0.84265279  0.09567938  1
  O  O20  1  0.21590057  0.59567938  0.34265279  1
  O  O21  1  0.78356266  0.91448800  0.83745010  1
  O  O22  1  0.21590057  0.40432062  0.65734721  1
  O  O23  1  0.78356266  0.08551200  0.16254990  1
