# generated using pymatgen
data_Ca(BC3)2
_symmetry_space_group_name_H-M   'P 1'
_cell_length_a   5.15605863
_cell_length_b   5.20991359
_cell_length_c   5.15605863
_cell_angle_alpha   75.61204305
_cell_angle_beta   60.14330554
_cell_angle_gamma   104.38795695
_symmetry_Int_Tables_number   1
_chemical_formula_structural   Ca(BC3)2
_chemical_formula_sum   'Ca1 B2 C6'
_cell_volume   104.31148777
_cell_formula_units_Z   1
loop_
 _symmetry_equiv_pos_site_id
 _symmetry_equiv_pos_as_xyz
  1  'x, y, z'
loop_
 _atom_site_type_symbol
 _atom_site_label
 _atom_site_symmetry_multiplicity
 _atom_site_fract_x
 _atom_site_fract_y
 _atom_site_fract_z
 _atom_site_occupancy
  Ca  Ca0  1  0.99913936  0.99829033  0.00086064  1
  B  B1  1  0.42313657  0.33261851  0.09056592  1
  B  B2  1  0.90943408  0.33261851  0.57686343  1
  C  C3  1  0.41794617  0.83594058  0.08205697  1
  C  C4  1  0.91794303  0.83594058  0.58205383  1
  C  C5  1  0.57880366  0.15764497  0.92119949  1
  C  C6  1  0.07880051  0.15764497  0.42119634  1
  C  C7  1  0.58856096  0.67465078  0.91396434  1
  C  C8  1  0.08603566  0.67465078  0.41143904  1
