# generated using pymatgen
data_Ca8Si4(O5F)3
_symmetry_space_group_name_H-M   'P 1'
_cell_length_a   7.63711804
_cell_length_b   10.56604069
_cell_length_c   11.08693171
_cell_angle_alpha   90.00000000
_cell_angle_beta   109.37045227
_cell_angle_gamma   90.00000000
_symmetry_Int_Tables_number   1
_chemical_formula_structural   Ca8Si4(O5F)3
_chemical_formula_sum   'Ca16 Si8 O30 F6'
_cell_volume   844.00726664
_cell_formula_units_Z   2
loop_
 _symmetry_equiv_pos_site_id
 _symmetry_equiv_pos_as_xyz
  1  'x, y, z'
loop_
 _atom_site_type_symbol
 _atom_site_label
 _atom_site_symmetry_multiplicity
 _atom_site_fract_x
 _atom_site_fract_y
 _atom_site_fract_z
 _atom_site_occupancy
  Ca  Ca0  1  0.03151390  0.90593331  0.80026764  1
  Ca  Ca1  1  0.96995599  0.40414698  0.69777420  1
  Ca  Ca2  1  0.96995599  0.09585302  0.19777420  1
  Ca  Ca3  1  0.03151390  0.59406669  0.30026764  1
  Ca  Ca4  1  0.52981041  0.91221676  0.81771587  1
  Ca  Ca5  1  0.46837983  0.41365813  0.68221912  1
  Ca  Ca6  1  0.46837983  0.08634187  0.18221912  1
  Ca  Ca7  1  0.52981041  0.58778324  0.31771587  1
  Ca  Ca8  1  0.83204131  0.63177447  0.92748571  1
  Ca  Ca9  1  0.17045277  0.13019459  0.57617732  1
  Ca  Ca10  1  0.17045277  0.36980541  0.07617732  1
  Ca  Ca11  1  0.83204131  0.86822553  0.42748571  1
  Ca  Ca12  1  0.33716741  0.63303220  0.91483649  1
  Ca  Ca13  1  0.66111776  0.12842760  0.58399278  1
  Ca  Ca14  1  0.66111776  0.37157240  0.08399278  1
  Ca  Ca15  1  0.33716741  0.86696780  0.41483649  1
  Si  Si16  1  0.15272322  0.69092613  0.62256289  1
  Si  Si17  1  0.84795291  0.19269697  0.87615756  1
  Si  Si18  1  0.84795291  0.30730303  0.37615756  1
  Si  Si19  1  0.15272322  0.80907387  0.12256289  1
  Si  Si20  1  0.72791056  0.69343976  0.63271335  1
  Si  Si21  1  0.27281511  0.19326542  0.86818632  1
  Si  Si22  1  0.27281511  0.30673458  0.36818632  1
  Si  Si23  1  0.72791056  0.80656024  0.13271335  1
  O  O24  1  0.93721877  0.72885171  0.62141521  1
  O  O25  1  0.06339083  0.22740201  0.87997415  1
  O  O26  1  0.06339083  0.27259799  0.37997415  1
  O  O27  1  0.93721877  0.77114829  0.12141521  1
  O  O28  1  0.14157386  0.73288613  0.47810276  1
  O  O29  1  0.85672141  0.23622276  0.02114575  1
  O  O30  1  0.85672141  0.26377724  0.52114575  1
  O  O31  1  0.14157386  0.76711387  0.97810276  1
  O  O32  1  0.19663635  0.54234090  0.65956134  1
  O  O33  1  0.80130284  0.04356558  0.84600896  1
  O  O34  1  0.80130284  0.45643442  0.34600896  1
  O  O35  1  0.19663635  0.95765910  0.15956134  1
  O  O36  1  0.59133095  0.73819852  0.49208441  1
  O  O37  1  0.40901707  0.23923004  0.00859630  1
  O  O38  1  0.40901707  0.26076996  0.50859630  1
  O  O39  1  0.59133095  0.76180148  0.99208441  1
  O  O40  1  0.71570246  0.54397834  0.66428892  1
  O  O41  1  0.28952823  0.04416092  0.83835696  1
  O  O42  1  0.28952823  0.45583908  0.33835696  1
  O  O43  1  0.71570246  0.95602166  0.16428892  1
  O  O44  1  0.73075112  0.77862590  0.75689380  1
  O  O45  1  0.26770944  0.27814297  0.74315553  1
  O  O46  1  0.26770944  0.22185703  0.24315553  1
  O  O47  1  0.73075112  0.72137410  0.25689380  1
  O  O48  1  0.27857202  0.77832116  0.74146857  1
  O  O49  1  0.72204845  0.27871162  0.75725575  1
  O  O50  1  0.72204845  0.22128838  0.25725575  1
  O  O51  1  0.27857202  0.72167884  0.24146857  1
  O  O52  1  0.92779051  0.00987346  0.60111507  1
  O  O53  1  0.92779051  0.49012654  0.10111507  1
  F  F54  1  0.42545038  0.99679126  0.60507466  1
  F  F55  1  0.56915361  0.49804498  0.89187558  1
  F  F56  1  0.56915361  0.00195502  0.39187558  1
  F  F57  1  0.42545038  0.50320874  0.10507466  1
  F  F58  1  0.07426049  0.50466352  0.89353705  1
  F  F59  1  0.07426049  0.99533648  0.39353705  1
