# generated using pymatgen
data_BaSr2Y2Cu2PtO10
_symmetry_space_group_name_H-M   'P 1'
_cell_length_a   5.73648977
_cell_length_b   6.83996478
_cell_length_c   7.46295023
_cell_angle_alpha   104.02255289
_cell_angle_beta   90.00000000
_cell_angle_gamma   65.20731776
_symmetry_Int_Tables_number   1
_chemical_formula_structural   BaSr2Y2Cu2PtO10
_chemical_formula_sum   'Ba1 Sr2 Y2 Cu2 Pt1 O10'
_cell_volume   256.19339736
_cell_formula_units_Z   1
loop_
 _symmetry_equiv_pos_site_id
 _symmetry_equiv_pos_as_xyz
  1  'x, y, z'
loop_
 _atom_site_type_symbol
 _atom_site_label
 _atom_site_symmetry_multiplicity
 _atom_site_fract_x
 _atom_site_fract_y
 _atom_site_fract_z
 _atom_site_occupancy
  Ba  Ba0  1  0.64916094  0.70167811  0.97257711  1
  Sr  Sr1  1  0.49952349  0.00095303  0.50039656  1
  Sr  Sr2  1  0.34987102  0.30025796  0.02497826  1
  Y  Y3  1  0.81169493  0.37661013  0.37310819  1
  Y  Y4  1  0.18900477  0.62199046  0.62700315  1
  Cu  Cu5  1  0.08686204  0.82627593  0.30215763  1
  Cu  Cu6  1  0.91347841  0.17304319  0.69726172  1
  Pt  Pt7  1  0.00101691  0.99796619  0.00051827  1
  O  O8  1  0.74896725  0.04146342  0.21831508  1
  O  O9  1  0.20956933  0.04146342  0.21831508  1
  O  O10  1  0.24769216  0.96569251  0.78346636  1
  O  O11  1  0.78661533  0.96569251  0.78346636  1
  O  O12  1  0.83351613  0.33296775  0.04760964  1
  O  O13  1  0.17257481  0.65485037  0.95275707  1
  O  O14  1  0.41236196  0.64820128  0.38065385  1
  O  O15  1  0.93943676  0.64820128  0.38065385  1
  O  O16  1  0.58722059  0.35134623  0.61838092  1
  O  O17  1  0.06143318  0.35134623  0.61838092  1
