# generated using pymatgen
data_CaGa2Cu3(RuO6)2
_symmetry_space_group_name_H-M   'P 1'
_cell_length_a   6.44540872
_cell_length_b   6.46827289
_cell_length_c   6.44540872
_cell_angle_alpha   70.70606741
_cell_angle_beta   70.19718323
_cell_angle_gamma   109.17557912
_symmetry_Int_Tables_number   1
_chemical_formula_structural   CaGa2Cu3(RuO6)2
_chemical_formula_sum   'Ca1 Ga2 Cu3 Ru2 O12'
_cell_volume   207.21039376
_cell_formula_units_Z   1
loop_
 _symmetry_equiv_pos_site_id
 _symmetry_equiv_pos_as_xyz
  1  'x, y, z'
loop_
 _atom_site_type_symbol
 _atom_site_label
 _atom_site_symmetry_multiplicity
 _atom_site_fract_x
 _atom_site_fract_y
 _atom_site_fract_z
 _atom_site_occupancy
  Ca  Ca0  1  -0.00000000  -0.00000000  0.00000000  1
  Ga  Ga1  1  -0.00000000  0.50000000  0.00000000  1
  Ga  Ga2  1  0.50000000  0.50000000  0.50000000  1
  Cu  Cu3  1  0.50000000  -0.00000000  0.50000000  1
  Cu  Cu4  1  0.50000000  0.50000000  0.00000000  1
  Cu  Cu5  1  -0.00000000  0.50000000  0.50000000  1
  Ru  Ru6  1  0.50000000  -0.00000000  0.00000000  1
  Ru  Ru7  1  -0.00000000  -0.00000000  0.50000000  1
  O  O8  1  0.82753544  0.52138886  0.30614658  1
  O  O9  1  0.17246456  0.47861114  0.69385342  1
  O  O10  1  0.82738025  0.13533040  0.69204985  1
  O  O11  1  0.17261975  0.86466960  0.30795015  1
  O  O12  1  0.68971630  0.16854341  0.13649560  1
  O  O13  1  0.31028370  0.83145659  0.86350440  1
  O  O14  1  0.30503901  0.16854341  0.52117288  1
  O  O15  1  0.69496099  0.83145659  0.47882712  1
  O  O16  1  0.48175697  0.30551739  0.83000435  1
  O  O17  1  0.51824303  0.69448261  0.16999565  1
  O  O18  1  0.86447826  0.69448261  0.82376042  1
  O  O19  1  0.13552174  0.30551739  0.17623958  1
