# generated using pymatgen
data_Ca9Nb2Ga10(SiO7)6
_symmetry_space_group_name_H-M   'P 1'
_cell_length_a   9.61557034
_cell_length_b   9.61585017
_cell_length_c   9.61220798
_cell_angle_alpha   94.92502473
_cell_angle_beta   85.09218436
_cell_angle_gamma   85.04178335
_symmetry_Int_Tables_number   1
_chemical_formula_structural   Ca9Nb2Ga10(SiO7)6
_chemical_formula_sum   'Ca9 Nb2 Ga10 Si6 O42'
_cell_volume   878.28950936
_cell_formula_units_Z   1
loop_
 _symmetry_equiv_pos_site_id
 _symmetry_equiv_pos_as_xyz
  1  'x, y, z'
loop_
 _atom_site_type_symbol
 _atom_site_label
 _atom_site_symmetry_multiplicity
 _atom_site_fract_x
 _atom_site_fract_y
 _atom_site_fract_z
 _atom_site_occupancy
  Ca  Ca0  1  0.85968034  0.71941487  0.14117959  1
  Ca  Ca1  1  0.52478393  0.05041260  0.47509964  1
  Ca  Ca2  1  0.19150248  0.38322587  0.80812833  1
  Ca  Ca3  1  0.52474646  0.47497834  0.05054201  1
  Ca  Ca4  1  0.19186399  0.80863973  0.38307828  1
  Ca  Ca5  1  0.85941367  0.14074828  0.71825257  1
  Ca  Ca6  1  0.28199729  0.13949053  0.14049344  1
  Ca  Ca7  1  0.94945997  0.47528286  0.47469466  1
  Ca  Ca8  1  0.61693896  0.80812763  0.80851383  1
  Nb  Nb9  1  0.66708780  0.33266649  0.33287911  1
  Nb  Nb10  1  0.33303118  0.66709604  0.66708432  1
  Ga  Ga11  1  0.58462286  0.66928545  0.41520126  1
  Ga  Ga12  1  0.25049150  0.00274988  0.75238892  1
  Ga  Ga13  1  0.91747298  0.33416862  0.08005965  1
  Ga  Ga14  1  0.91997410  0.08208571  0.33364958  1
  Ga  Ga15  1  0.58479987  0.41527390  0.66946392  1
  Ga  Ga16  1  0.24808570  0.74975410  0.00293021  1
  Ga  Ga17  1  0.66670028  0.07976149  0.08259496  1
  Ga  Ga18  1  0.33066416  0.41512043  0.41519660  1
  Ga  Ga19  1  0.99712092  0.75171363  0.74928120  1
  Ga  Ga20  1  0.00011385  0.99967902  0.00054344  1
  Si  Si21  1  0.81668475  0.85086769  0.51554055  1
  Si  Si22  1  0.48453080  0.18322644  0.85107109  1
  Si  Si23  1  0.14906208  0.51558145  0.18312964  1
  Si  Si24  1  0.51536174  0.81612143  0.14980486  1
  Si  Si25  1  0.18383922  0.14978674  0.48479112  1
  Si  Si26  1  0.85014376  0.48475622  0.81616557  1
  O  O27  1  0.92353811  0.74419935  0.40847692  1
  O  O28  1  0.59168070  0.07639164  0.74437001  1
  O  O29  1  0.25558871  0.40843826  0.07622895  1
  O  O30  1  0.40848016  0.92281649  0.25633496  1
  O  O31  1  0.07718201  0.25631591  0.59167613  1
  O  O32  1  0.74358986  0.59160603  0.92275137  1
  O  O33  1  0.62858742  0.89226925  0.04787952  1
  O  O34  1  0.29626703  0.22627993  0.38158425  1
  O  O35  1  0.96299653  0.56126914  0.71392251  1
  O  O36  1  0.61856567  0.70368521  0.22637680  1
  O  O37  1  0.28587372  0.03700182  0.56165191  1
  O  O38  1  0.95211773  0.37132239  0.89223489  1
  O  O39  1  0.43861215  0.71404312  0.03701605  1
  O  O40  1  0.10770856  0.04790751  0.37138290  1
  O  O41  1  0.77366218  0.38156859  0.70365421  1
  O  O42  1  0.83653478  0.84033254  0.68440497  1
  O  O43  1  0.50504191  0.17276934  0.01973350  1
  O  O44  1  0.17025231  0.50642323  0.35225396  1
  O  O45  1  0.64765075  0.82971839  0.50634642  1
  O  O46  1  0.31574562  0.16345563  0.84026071  1
  O  O47  1  0.98026790  0.49546355  0.17305549  1
  O  O48  1  0.82692282  0.01956090  0.49510639  1
  O  O49  1  0.49362002  0.35227121  0.82985420  1
  O  O50  1  0.15974032  0.68442334  0.16338417  1
  O  O51  1  0.30938728  0.46454950  0.60744727  1
  O  O52  1  0.97710685  0.80038815  0.93946162  1
  O  O53  1  0.64108704  0.13150066  0.27478577  1
  O  O54  1  0.06023676  0.02309430  0.80067595  1
  O  O55  1  0.72524701  0.35792498  0.13115509  1
  O  O56  1  0.39242202  0.69066441  0.46447099  1
  O  O57  1  0.86875864  0.27443257  0.35777830  1
  O  O58  1  0.53544998  0.60743828  0.69083587  1
  O  O59  1  0.19983611  0.93977231  0.02233152  1
  O  O60  1  0.81923005  0.09744330  0.95797893  1
  O  O61  1  0.48442100  0.43252029  0.28935822  1
  O  O62  1  0.15129577  0.76563797  0.62193477  1
  O  O63  1  0.37864498  0.84868628  0.76479886  1
  O  O64  1  0.04164853  0.18104400  0.09753895  1
  O  O65  1  0.71056069  0.51549174  0.43252293  1
  O  O66  1  0.56769793  0.28927549  0.51570022  1
  O  O67  1  0.23464769  0.62208039  0.84871720  1
  O  O68  1  0.90192010  0.95850719  0.18080800  1
