# generated using pymatgen
data_Ce(YSi)4
_symmetry_space_group_name_H-M   'P 1'
_cell_length_a   7.38599870
_cell_length_b   7.64838726
_cell_length_c   14.57881979
_cell_angle_alpha   90.00000000
_cell_angle_beta   90.00000000
_cell_angle_gamma   90.00000000
_symmetry_Int_Tables_number   1
_chemical_formula_structural   Ce(YSi)4
_chemical_formula_sum   'Ce4 Y16 Si16'
_cell_volume   823.57179326
_cell_formula_units_Z   4
loop_
 _symmetry_equiv_pos_site_id
 _symmetry_equiv_pos_as_xyz
  1  'x, y, z'
loop_
 _atom_site_type_symbol
 _atom_site_label
 _atom_site_symmetry_multiplicity
 _atom_site_fract_x
 _atom_site_fract_y
 _atom_site_fract_z
 _atom_site_occupancy
  Ce  Ce0  1  0.47125170  0.81868677  0.90159138  1
  Ce  Ce1  1  0.97125170  0.68131323  0.59840862  1
  Ce  Ce2  1  0.52874830  0.18131323  0.40159138  1
  Ce  Ce3  1  0.02874830  0.31868677  0.09840862  1
  Y  Y4  1  0.14647126  0.98699700  0.75001882  1
  Y  Y5  1  0.64647126  0.51300300  0.74998118  1
  Y  Y6  1  0.85352874  0.01300300  0.25001882  1
  Y  Y7  1  0.35352874  0.48699700  0.24998118  1
  Y  Y8  1  0.18550006  0.82230203  0.37796601  1
  Y  Y9  1  0.68550006  0.67769797  0.12203399  1
  Y  Y10  1  0.81449994  0.17769797  0.87796601  1
  Y  Y11  1  0.31449994  0.32230203  0.62203399  1
  Y  Y12  1  0.81608411  0.17911362  0.62195451  1
  Y  Y13  1  0.31608411  0.32088638  0.87804549  1
  Y  Y14  1  0.18391589  0.82088638  0.12195451  1
  Y  Y15  1  0.68391589  0.67911362  0.37804549  1
  Y  Y16  1  0.52861026  0.18177399  0.09985120  1
  Y  Y17  1  0.02861026  0.31822601  0.40014880  1
  Y  Y18  1  0.47138974  0.81822601  0.59985120  1
  Y  Y19  1  0.97138974  0.68177399  0.90014880  1
  Si  Si20  1  0.35431669  0.52874986  0.45961875  1
  Si  Si21  1  0.85431669  0.97125014  0.04038125  1
  Si  Si22  1  0.64568331  0.47125014  0.95961875  1
  Si  Si23  1  0.14568331  0.02874986  0.54038125  1
  Si  Si24  1  0.64283133  0.47396965  0.54077299  1
  Si  Si25  1  0.14283133  0.02603035  0.95922701  1
  Si  Si26  1  0.35716867  0.52603035  0.04077299  1
  Si  Si27  1  0.85716867  0.97396965  0.45922701  1
  Si  Si28  1  0.26321625  0.62531786  0.75068310  1
  Si  Si29  1  0.76321625  0.87468214  0.74931690  1
  Si  Si30  1  0.73678375  0.37468214  0.25068310  1
  Si  Si31  1  0.23678375  0.12531786  0.24931690  1
  Si  Si32  1  0.51935223  0.10720274  0.74998242  1
  Si  Si33  1  0.01935223  0.39279726  0.75001758  1
  Si  Si34  1  0.48064777  0.89279726  0.24998242  1
  Si  Si35  1  0.98064777  0.60720274  0.25001758  1
