# generated using pymatgen
data_Ce3Se2NO
_symmetry_space_group_name_H-M   'P 1'
_cell_length_a   4.05044951
_cell_length_b   9.37384622
_cell_length_c   12.24662411
_cell_angle_alpha   95.43243400
_cell_angle_beta   80.48126829
_cell_angle_gamma   90.00000000
_symmetry_Int_Tables_number   1
_chemical_formula_structural   Ce3Se2NO
_chemical_formula_sum   'Ce9 Se6 N3 O3'
_cell_volume   456.46355512
_cell_formula_units_Z   3
loop_
 _symmetry_equiv_pos_site_id
 _symmetry_equiv_pos_as_xyz
  1  'x, y, z'
loop_
 _atom_site_type_symbol
 _atom_site_label
 _atom_site_symmetry_multiplicity
 _atom_site_fract_x
 _atom_site_fract_y
 _atom_site_fract_z
 _atom_site_occupancy
  Ce  Ce0  1  0.46143913  0.67829970  0.07712174  1
  Ce  Ce1  1  0.53955553  0.32059618  0.92088894  1
  Ce  Ce2  1  0.09125579  0.64507003  0.81748841  1
  Ce  Ce3  1  0.90612281  0.35421616  0.18775438  1
  Ce  Ce4  1  0.18699230  0.01003804  0.62601540  1
  Ce  Ce5  1  0.81370496  0.99092777  0.37259008  1
  Ce  Ce6  1  0.00001223  0.99425382  -0.00002446  1
  Ce  Ce7  1  0.28044639  0.66348488  0.43910721  1
  Ce  Ce8  1  0.71937987  0.33780091  0.56124026  1
  Se  Se9  1  0.13170909  0.32552978  0.73658183  1
  Se  Se10  1  0.86784858  0.67328488  0.26430284  1
  Se  Se11  1  0.41175110  0.03542360  0.17649779  1
  Se  Se12  1  0.58841526  0.97126277  0.82316948  1
  Se  Se13  1  0.30919168  0.33249635  0.38161664  1
  Se  Se14  1  0.69021786  0.67026558  0.61956428  1
  N  N15  1  0.27531092  0.90051196  0.44937816  1
  N  N16  1  0.72547728  0.10104022  0.54904543  1
  N  N17  1  0.00297619  0.75720353  0.99404763  1
  O  O18  1  0.44820516  0.42986011  0.10358968  1
  O  O19  1  0.55229904  0.56308717  0.89540193  1
  O  O20  1  0.99768883  0.24534655  0.00462234  1
