# generated using pymatgen
data_BaTiFe3(BiO4)3
_symmetry_space_group_name_H-M   'P 1'
_cell_length_a   5.66826961
_cell_length_b   5.66826962
_cell_length_c   9.98012452
_cell_angle_alpha   90.00000065
_cell_angle_beta   73.50223457
_cell_angle_gamma   60.00000709
_symmetry_Int_Tables_number   1
_chemical_formula_structural   BaTiFe3(BiO4)3
_chemical_formula_sum   'Ba1 Ti1 Fe3 Bi3 O12'
_cell_volume   262.34074205
_cell_formula_units_Z   1
loop_
 _symmetry_equiv_pos_site_id
 _symmetry_equiv_pos_as_xyz
  1  'x, y, z'
loop_
 _atom_site_type_symbol
 _atom_site_label
 _atom_site_symmetry_multiplicity
 _atom_site_fract_x
 _atom_site_fract_y
 _atom_site_fract_z
 _atom_site_occupancy
  Ba  Ba0  1  0.51871130  0.74064435  0.22193305  1
  Ti  Ti1  1  0.75805568  0.12097216  0.36291648  1
  Fe  Fe2  1  0.77124641  0.61437680  0.84313039  1
  Fe  Fe3  1  0.26719415  0.36640293  0.09920878  1
  Fe  Fe4  1  0.27387406  0.86306297  0.58918891  1
  Bi  Bi5  1  0.48787205  0.25606397  0.76819192  1
  Bi  Bi6  1  0.98602911  0.00698545  0.02095634  1
  Bi  Bi7  1  0.98691542  0.50654229  0.51962687  1
  O  O8  1  0.00170076  0.24601236  0.19784743  1
  O  O9  1  0.95664669  0.79415744  0.69258508  1
  O  O10  1  0.04816493  0.75228689  0.19784743  1
  O  O11  1  0.10157236  0.24919587  0.69258508  1
  O  O12  1  0.55443946  0.19954819  0.19784743  1
  O  O13  1  0.55661079  0.64923177  0.69258508  1
  O  O14  1  0.47125708  0.48065073  0.45514579  1
  O  O15  1  0.46858156  0.99511584  0.94743078  1
  O  O16  1  0.02550493  0.04809220  0.45514579  1
  O  O17  1  0.04768506  0.53630260  0.94743078  1
  O  O18  1  0.59294640  0.92640287  0.45514579  1
  O  O19  1  0.58887182  0.41601234  0.94743078  1
