# generated using pymatgen
data_Ca3Mn4BiO12
_symmetry_space_group_name_H-M   'P 1'
_cell_length_a   5.41155329
_cell_length_b   5.49066981
_cell_length_c   7.66142259
_cell_angle_alpha   90.00000000
_cell_angle_beta   90.00000000
_cell_angle_gamma   89.76794258
_symmetry_Int_Tables_number   1
_chemical_formula_structural   Ca3Mn4BiO12
_chemical_formula_sum   'Ca3 Mn4 Bi1 O12'
_cell_volume   227.64238258
_cell_formula_units_Z   1
loop_
 _symmetry_equiv_pos_site_id
 _symmetry_equiv_pos_as_xyz
  1  'x, y, z'
loop_
 _atom_site_type_symbol
 _atom_site_label
 _atom_site_symmetry_multiplicity
 _atom_site_fract_x
 _atom_site_fract_y
 _atom_site_fract_z
 _atom_site_occupancy
  Ca  Ca0  1  0.99279288  0.04400843  0.25000000  1
  Ca  Ca1  1  0.49342883  0.45611970  0.75000000  1
  Ca  Ca2  1  0.00600094  0.95783983  0.75000000  1
  Mn  Mn3  1  0.00099309  0.49782520  0.99639109  1
  Mn  Mn4  1  0.49921399  0.00326004  0.50432970  1
  Mn  Mn5  1  0.00099309  0.49782520  0.50360891  1
  Mn  Mn6  1  0.49921399  0.00326004  0.99567030  1
  Bi  Bi7  1  0.50842779  0.55284748  0.25000000  1
  O  O8  1  0.79030101  0.78890758  0.04283101  1
  O  O9  1  0.70526190  0.29319677  0.46037688  1
  O  O10  1  0.20365578  0.20532604  0.53955849  1
  O  O11  1  0.29757754  0.70444870  0.96349972  1
  O  O12  1  0.20365578  0.20532604  0.96044151  1
  O  O13  1  0.29757754  0.70444870  0.53650028  1
  O  O14  1  0.79030101  0.78890758  0.45716899  1
  O  O15  1  0.70526190  0.29319677  0.03962312  1
  O  O16  1  0.42453236  0.97810441  0.25000000  1
  O  O17  1  0.07874123  0.48120584  0.25000000  1
  O  O18  1  0.57906813  0.02063477  0.75000000  1
  O  O19  1  0.92300122  0.52331089  0.75000000  1
