# generated using pymatgen
data_CaZr2PbO6
_symmetry_space_group_name_H-M   'P 1'
_cell_length_a   8.30201715
_cell_length_b   8.28681815
_cell_length_c   8.30311285
_cell_angle_alpha   88.97152984
_cell_angle_beta   91.01338212
_cell_angle_gamma   90.97717007
_symmetry_Int_Tables_number   1
_chemical_formula_structural   CaZr2PbO6
_chemical_formula_sum   'Ca4 Zr8 Pb4 O24'
_cell_volume   570.97040609
_cell_formula_units_Z   4
loop_
 _symmetry_equiv_pos_site_id
 _symmetry_equiv_pos_as_xyz
  1  'x, y, z'
loop_
 _atom_site_type_symbol
 _atom_site_label
 _atom_site_symmetry_multiplicity
 _atom_site_fract_x
 _atom_site_fract_y
 _atom_site_fract_z
 _atom_site_occupancy
  Ca  Ca0  1  0.98057977  0.51996895  0.52591729  1
  Ca  Ca1  1  0.97476644  0.02558997  0.52151269  1
  Ca  Ca2  1  0.47697712  0.02307067  0.02628900  1
  Ca  Ca3  1  0.97679191  0.52415617  0.02294149  1
  Zr  Zr4  1  0.24899328  0.74866948  0.74728248  1
  Zr  Zr5  1  0.75439494  0.25074332  0.24854956  1
  Zr  Zr6  1  0.75293815  0.24787117  0.75073904  1
  Zr  Zr7  1  0.24908128  0.24781357  0.24438858  1
  Zr  Zr8  1  0.75654145  0.74870507  0.25163503  1
  Zr  Zr9  1  0.24783320  0.24337160  0.74434740  1
  Zr  Zr10  1  0.25316978  0.74639295  0.24611074  1
  Zr  Zr11  1  0.75776891  0.74630975  0.74929615  1
  Pb  Pb12  1  0.48416744  0.51343132  0.51614281  1
  Pb  Pb13  1  0.98558771  0.01124991  0.01766308  1
  Pb  Pb14  1  0.48853303  0.01422292  0.51410201  1
  Pb  Pb15  1  0.48372086  0.51569204  0.00942249  1
  O  O16  1  0.00872593  0.18212498  0.27711869  1
  O  O17  1  0.72355870  0.99084651  0.18629967  1
  O  O18  1  0.81509921  0.28217875  0.99187664  1
  O  O19  1  0.51095335  0.76200736  0.70009003  1
  O  O20  1  0.29892808  0.48806303  0.76297955  1
  O  O21  1  0.22393149  0.68663738  0.48780732  1
  O  O22  1  0.01160129  0.68125452  0.77884928  1
  O  O23  1  0.21397509  0.98784759  0.68214994  1
  O  O24  1  0.31258836  0.78161178  0.98682608  1
  O  O25  1  0.50961649  0.26547845  0.19842346  1
  O  O26  1  0.81807020  0.49116529  0.27948486  1
  O  O27  1  0.73430151  0.19585061  0.49133593  1
  O  O28  1  0.73925846  0.49108093  0.69166845  1
  O  O29  1  0.30058349  0.26659945  0.48803334  1
  O  O30  1  0.51106156  0.69529919  0.26480013  1
  O  O31  1  0.23726812  0.19475268  0.98843000  1
  O  O32  1  0.01084403  0.76447237  0.19387238  1
  O  O33  1  0.80718676  0.99173958  0.76186027  1
  O  O34  1  0.22181537  0.49031564  0.17928439  1
  O  O35  1  0.82150186  0.77647189  0.49231010  1
  O  O36  1  0.50924411  0.18310253  0.77546459  1
  O  O37  1  0.74312170  0.69444254  0.99315767  1
  O  O38  1  0.00772978  0.27308619  0.68554143  1
  O  O39  1  0.30318980  0.99031190  0.25999596  1
