# generated using pymatgen
data_Ca4SnS6
_symmetry_space_group_name_H-M   'P 1'
_cell_length_a   7.95004522
_cell_length_b   7.95015246
_cell_length_c   7.95060814
_cell_angle_alpha   90.73036638
_cell_angle_beta   90.72670828
_cell_angle_gamma   90.73514332
_symmetry_Int_Tables_number   1
_chemical_formula_structural   Ca4SnS6
_chemical_formula_sum   'Ca8 Sn2 S12'
_cell_volume   502.38714433
_cell_formula_units_Z   2
loop_
 _symmetry_equiv_pos_site_id
 _symmetry_equiv_pos_as_xyz
  1  'x, y, z'
loop_
 _atom_site_type_symbol
 _atom_site_label
 _atom_site_symmetry_multiplicity
 _atom_site_fract_x
 _atom_site_fract_y
 _atom_site_fract_z
 _atom_site_occupancy
  Ca  Ca0  1  0.75005099  0.75002693  0.75022180  1
  Ca  Ca1  1  0.25005578  0.25000550  0.25021609  1
  Ca  Ca2  1  0.25001568  0.63252146  0.86779624  1
  Ca  Ca3  1  0.63249335  0.86745588  0.25029730  1
  Ca  Ca4  1  0.86758048  0.25000365  0.63273388  1
  Ca  Ca5  1  0.36747452  0.13245593  0.75027187  1
  Ca  Ca6  1  0.13255124  0.74999811  0.36775994  1
  Ca  Ca7  1  0.75001187  0.36756953  0.13275792  1
  Sn  Sn8  1  0.50001054  0.50002378  0.50024030  1
  Sn  Sn9  1  0.00003884  -0.00001255  0.00021584  1
  S  S10  1  0.56618956  0.44803496  0.81081597  1
  S  S11  1  0.44806867  0.81049281  0.56638758  1
  S  S12  1  0.81048105  0.56609518  0.44825294  1
  S  S13  1  0.31046315  0.94806034  0.06632791  1
  S  S14  1  0.94810082  0.06615644  0.31086879  1
  S  S15  1  0.06611386  0.31050362  0.94826840  1
  S  S16  1  0.43383643  0.55193809  0.18981243  1
  S  S17  1  0.55198312  0.18946225  0.43412990  1
  S  S18  1  0.18946287  0.43387668  0.55222052  1
  S  S19  1  0.68942309  0.05195660  0.93419847  1
  S  S20  1  0.05191095  0.93389611  0.68980543  1
  S  S21  1  0.93388315  0.68947872  0.05219846  1
