# generated using pymatgen
data_Ba4Al(IrO5)2
_symmetry_space_group_name_H-M   'P 1'
_cell_length_a   5.79264114
_cell_length_b   7.33463335
_cell_length_c   13.30632005
_cell_angle_alpha   90.00000000
_cell_angle_beta   90.00000000
_cell_angle_gamma   66.74133506
_symmetry_Int_Tables_number   1
_chemical_formula_structural   Ba4Al(IrO5)2
_chemical_formula_sum   'Ba8 Al2 Ir4 O20'
_cell_volume   519.39959419
_cell_formula_units_Z   2
loop_
 _symmetry_equiv_pos_site_id
 _symmetry_equiv_pos_as_xyz
  1  'x, y, z'
loop_
 _atom_site_type_symbol
 _atom_site_label
 _atom_site_symmetry_multiplicity
 _atom_site_fract_x
 _atom_site_fract_y
 _atom_site_fract_z
 _atom_site_occupancy
  Ba  Ba0  1  0.73717526  0.52564948  0.88789743  1
  Ba  Ba1  1  0.25926285  0.48147429  0.11583270  1
  Ba  Ba2  1  0.76282474  0.47435052  0.38789743  1
  Ba  Ba3  1  0.24073715  0.51852571  0.61583270  1
  Ba  Ba4  1  0.53400860  0.93198279  0.63902970  1
  Ba  Ba5  1  0.46748040  0.06503919  0.35488772  1
  Ba  Ba6  1  0.96599140  0.06801721  0.13902970  1
  Ba  Ba7  1  0.03251960  0.93496081  0.85488772  1
  Al  Al8  1  0.85939350  0.28121300  0.65307462  1
  Al  Al9  1  0.64060650  0.71878700  0.15307462  1
  Ir  Ir10  1  0.99995527  0.00008946  0.50441062  1
  Ir  Ir11  1  0.50004473  0.99991054  0.00441062  1
  Ir  Ir12  1  0.12542601  0.74914798  0.34595170  1
  Ir  Ir13  1  0.37457399  0.25085202  0.84595170  1
  O  O14  1  0.03345049  0.93309902  0.65061253  1
  O  O15  1  0.96996185  0.06007631  0.35168875  1
  O  O16  1  0.46654951  0.06690098  0.15061253  1
  O  O17  1  0.53003815  0.93992369  0.85168875  1
  O  O18  1  0.67157437  0.21817862  0.54213155  1
  O  O19  1  0.88146244  0.78200272  0.46048830  1
  O  O20  1  0.38975299  0.78182138  0.04213155  1
  O  O21  1  0.16346516  0.21799728  0.96048830  1
  O  O22  1  0.33653484  0.78200272  0.46048830  1
  O  O23  1  0.11024701  0.21817862  0.54213155  1
  O  O24  1  0.61853756  0.21799728  0.96048830  1
  O  O25  1  0.82842563  0.78182138  0.04213155  1
  O  O26  1  0.72644017  0.54711967  0.65296476  1
  O  O27  1  0.27011815  0.45976370  0.34634219  1
  O  O28  1  0.77355983  0.45288033  0.15296476  1
  O  O29  1  0.22988185  0.54023630  0.84634219  1
  O  O30  1  0.63218797  0.24523290  0.74603378  1
  O  O31  1  0.86781203  0.75476710  0.24603378  1
  O  O32  1  0.37742087  0.75476710  0.24603378  1
  O  O33  1  0.12257913  0.24523290  0.74603378  1
