# generated using pymatgen
data_Ba3ZrNb4O15
_symmetry_space_group_name_H-M   'P 1'
_cell_length_a   4.15073707
_cell_length_b   12.84301054
_cell_length_c   12.84301054
_cell_angle_alpha   90.00000000
_cell_angle_beta   90.00000000
_cell_angle_gamma   90.00000000
_symmetry_Int_Tables_number   1
_chemical_formula_structural   Ba3ZrNb4O15
_chemical_formula_sum   'Ba6 Zr2 Nb8 O30'
_cell_volume   684.63469136
_cell_formula_units_Z   2
loop_
 _symmetry_equiv_pos_site_id
 _symmetry_equiv_pos_as_xyz
  1  'x, y, z'
loop_
 _atom_site_type_symbol
 _atom_site_label
 _atom_site_symmetry_multiplicity
 _atom_site_fract_x
 _atom_site_fract_y
 _atom_site_fract_z
 _atom_site_occupancy
  Ba  Ba0  1  0.33784403  0.50000000  0.50000000  1
  Ba  Ba1  1  0.33784403  0.00000000  -0.00000000  1
  Ba  Ba2  1  0.33996855  0.83064942  0.33064942  1
  Ba  Ba3  1  0.33996855  0.16935058  0.66935058  1
  Ba  Ba4  1  0.33996855  0.66935058  0.83064942  1
  Ba  Ba5  1  0.33996855  0.33064942  0.16935058  1
  Zr  Zr6  1  0.82023372  0.00000000  0.50000000  1
  Zr  Zr7  1  0.82023372  0.50000000  -0.00000000  1
  Nb  Nb8  1  0.85768901  0.28727359  0.42409600  1
  Nb  Nb9  1  0.85768901  0.71272641  0.57590400  1
  Nb  Nb10  1  0.85768901  0.21272641  0.92409600  1
  Nb  Nb11  1  0.85768901  0.78727359  0.07590400  1
  Nb  Nb12  1  0.85768901  0.42409600  0.71272641  1
  Nb  Nb13  1  0.85768901  0.57590400  0.28727359  1
  Nb  Nb14  1  0.85768901  0.92409600  0.78727359  1
  Nb  Nb15  1  0.85768901  0.07590400  0.21272641  1
  O  O16  1  0.81150835  0.48932491  0.16508304  1
  O  O17  1  0.81150835  0.51067509  0.83491696  1
  O  O18  1  0.81150835  0.01067509  0.66508304  1
  O  O19  1  0.81150835  0.98932491  0.33491696  1
  O  O20  1  0.81150835  0.16508304  0.51067509  1
  O  O21  1  0.81150835  0.83491696  0.48932491  1
  O  O22  1  0.81150835  0.66508304  0.98932491  1
  O  O23  1  0.81150835  0.33491696  0.01067509  1
  O  O24  1  0.81122797  0.71870354  0.21870354  1
  O  O25  1  0.81122797  0.28129646  0.78129646  1
  O  O26  1  0.81122797  0.78129646  0.71870354  1
  O  O27  1  0.81122797  0.21870354  0.28129646  1
  O  O28  1  0.31523680  0.00000000  0.50000000  1
  O  O29  1  0.31523680  0.50000000  -0.00000000  1
  O  O30  1  0.30931062  0.29558107  0.41847141  1
  O  O31  1  0.30931062  0.70441893  0.58152859  1
  O  O32  1  0.30931062  0.20441893  0.91847141  1
  O  O33  1  0.30931062  0.79558107  0.08152859  1
  O  O34  1  0.30931062  0.41847141  0.70441893  1
  O  O35  1  0.30931062  0.58152859  0.29558107  1
  O  O36  1  0.30931062  0.91847141  0.79558107  1
  O  O37  1  0.30931062  0.08152859  0.20441893  1
  O  O38  1  0.81056513  0.43366249  0.36324294  1
  O  O39  1  0.81056513  0.56633751  0.63675706  1
  O  O40  1  0.81056513  0.06633751  0.86324294  1
  O  O41  1  0.81056513  0.93366249  0.13675706  1
  O  O42  1  0.81056513  0.36324294  0.56633751  1
  O  O43  1  0.81056513  0.63675706  0.43366249  1
  O  O44  1  0.81056513  0.86324294  0.93366249  1
  O  O45  1  0.81056513  0.13675706  0.06633751  1
