# generated using pymatgen
data_Rb2U2O5
_symmetry_space_group_name_H-M   'P 1'
_cell_length_a   9.08314468
_cell_length_b   4.37006459
_cell_length_c   4.37005995
_cell_angle_alpha   90.00062998
_cell_angle_beta   90.00060862
_cell_angle_gamma   89.99999057
_symmetry_Int_Tables_number   1
_chemical_formula_structural   Rb2U2O5
_chemical_formula_sum   'Rb2 U2 O5'
_cell_volume   173.46484907
_cell_formula_units_Z   1
loop_
 _symmetry_equiv_pos_site_id
 _symmetry_equiv_pos_as_xyz
  1  'x, y, z'
loop_
 _atom_site_type_symbol
 _atom_site_label
 _atom_site_symmetry_multiplicity
 _atom_site_fract_x
 _atom_site_fract_y
 _atom_site_fract_z
 _atom_site_occupancy
  Rb  Rb0  1  0.99987945  -0.00000009  0.00000025  1
  Rb  Rb1  1  0.50013259  0.00000206  0.00000168  1
  U  U2  1  0.26152038  0.50000050  0.49999931  1
  U  U3  1  0.73856796  0.49999849  0.50000529  1
  O  O4  1  0.23940995  0.49999909  0.99999630  1
  O  O5  1  0.76054213  0.50000047  0.00000178  1
  O  O6  1  0.50000038  0.50000232  0.49999951  1
  O  O7  1  0.23940524  0.00000187  0.50000015  1
  O  O8  1  0.76054292  0.00000028  0.50000072  1
