# generated using pymatgen
data_Ba3SrNd2(Cu3O7)2
_symmetry_space_group_name_H-M   'P 1'
_cell_length_a   3.90220097
_cell_length_b   3.91912981
_cell_length_c   23.59297520
_cell_angle_alpha   90.00000000
_cell_angle_beta   90.00000000
_cell_angle_gamma   90.00000000
_symmetry_Int_Tables_number   1
_chemical_formula_structural   Ba3SrNd2(Cu3O7)2
_chemical_formula_sum   'Ba3 Sr1 Nd2 Cu6 O14'
_cell_volume   360.81284675
_cell_formula_units_Z   1
loop_
 _symmetry_equiv_pos_site_id
 _symmetry_equiv_pos_as_xyz
  1  'x, y, z'
loop_
 _atom_site_type_symbol
 _atom_site_label
 _atom_site_symmetry_multiplicity
 _atom_site_fract_x
 _atom_site_fract_y
 _atom_site_fract_z
 _atom_site_occupancy
  Ba  Ba0  1  0.50000000  0.50000000  0.41095938  1
  Ba  Ba1  1  0.50000000  0.50000000  0.91023345  1
  Ba  Ba2  1  0.50000000  0.50000000  0.08956822  1
  Sr  Sr3  1  0.50000000  0.50000000  0.59044231  1
  Nd  Nd4  1  0.50000000  0.50000000  0.25010326  1
  Nd  Nd5  1  0.50000000  0.50000000  0.74911197  1
  Cu  Cu6  1  0.00000000  -0.00000000  0.32650102  1
  Cu  Cu7  1  0.00000000  -0.00000000  0.82619436  1
  Cu  Cu8  1  -0.00000000  0.00000000  0.17359749  1
  Cu  Cu9  1  -0.00000000  0.00000000  0.67209889  1
  Cu  Cu10  1  0.00000000  -0.00000000  0.00004024  1
  Cu  Cu11  1  -0.00000000  0.00000000  0.50109999  1
  O  O12  1  0.50000000  -0.00000000  0.31447808  1
  O  O13  1  0.50000000  0.00000000  0.81294728  1
  O  O14  1  -0.00000000  0.50000000  0.31364960  1
  O  O15  1  -0.00000000  0.50000000  0.81411861  1
  O  O16  1  0.50000000  -0.00000000  0.18658188  1
  O  O17  1  0.50000000  -0.00000000  0.68359578  1
  O  O18  1  0.00000000  0.50000000  0.18531948  1
  O  O19  1  0.00000000  0.50000000  0.68420400  1
  O  O20  1  0.00000000  -0.00000000  0.42098358  1
  O  O21  1  -0.00000000  -0.00000000  0.92034650  1
  O  O22  1  -0.00000000  -0.00000000  0.07965994  1
  O  O23  1  -0.00000000  -0.00000000  0.58099119  1
  O  O24  1  0.50000000  -0.00000000  0.99993438  1
  O  O25  1  0.00000000  0.50000000  0.50323912  1
