# generated using pymatgen
data_Ba4PrEr(Cu3O7)2
_symmetry_space_group_name_H-M   'P 1'
_cell_length_a   3.87496228
_cell_length_b   3.94890200
_cell_length_c   23.91546864
_cell_angle_alpha   90.00000000
_cell_angle_beta   90.00000000
_cell_angle_gamma   90.00000000
_symmetry_Int_Tables_number   1
_chemical_formula_structural   Ba4PrEr(Cu3O7)2
_chemical_formula_sum   'Ba4 Pr1 Er1 Cu6 O14'
_cell_volume   365.95082526
_cell_formula_units_Z   1
loop_
 _symmetry_equiv_pos_site_id
 _symmetry_equiv_pos_as_xyz
  1  'x, y, z'
loop_
 _atom_site_type_symbol
 _atom_site_label
 _atom_site_symmetry_multiplicity
 _atom_site_fract_x
 _atom_site_fract_y
 _atom_site_fract_z
 _atom_site_occupancy
  Ba  Ba0  1  0.50000000  0.50000000  0.08977836  1
  Ba  Ba1  1  0.50000000  0.50000000  0.59054110  1
  Ba  Ba2  1  0.50000000  0.50000000  0.41022164  1
  Ba  Ba3  1  0.50000000  0.50000000  0.90945890  1
  Pr  Pr4  1  0.50000000  0.50000000  0.25000000  1
  Er  Er5  1  0.50000000  0.50000000  0.75000000  1
  Cu  Cu6  1  -0.00000000  -0.00000000  0.17338774  1
  Cu  Cu7  1  -0.00000000  -0.00000000  0.67702362  1
  Cu  Cu8  1  0.00000000  -0.00000000  0.32661226  1
  Cu  Cu9  1  0.00000000  0.00000000  0.82297638  1
  Cu  Cu10  1  0.00000000  -0.00000000  0.99987492  1
  Cu  Cu11  1  -0.00000000  -0.00000000  0.50012508  1
  O  O12  1  -0.00000000  -0.00000000  0.07893064  1
  O  O13  1  0.00000000  -0.00000000  0.57980416  1
  O  O14  1  0.00000000  0.00000000  0.42106936  1
  O  O15  1  0.00000000  -0.00000000  0.92019584  1
  O  O16  1  0.00000000  0.50000000  0.99952213  1
  O  O17  1  0.00000000  0.50000000  0.50047787  1
  O  O18  1  0.00000000  0.50000000  0.18463206  1
  O  O19  1  0.00000000  0.50000000  0.69009038  1
  O  O20  1  -0.00000000  0.50000000  0.31536794  1
  O  O21  1  0.00000000  0.50000000  0.80990962  1
  O  O22  1  0.50000000  -0.00000000  0.18557773  1
  O  O23  1  0.50000000  0.00000000  0.69083753  1
  O  O24  1  0.50000000  -0.00000000  0.31442227  1
  O  O25  1  0.50000000  -0.00000000  0.80916247  1
