# generated using pymatgen
data_Ba3CaLa2Cu6O13
_symmetry_space_group_name_H-M   'P 1'
_cell_length_a   5.53107214
_cell_length_b   5.53107214
_cell_length_c   11.93056128
_cell_angle_alpha   90.35322333
_cell_angle_beta   89.64677667
_cell_angle_gamma   89.16106177
_symmetry_Int_Tables_number   1
_chemical_formula_structural   Ba3CaLa2Cu6O13
_chemical_formula_sum   'Ba3 Ca1 La2 Cu6 O13'
_cell_volume   364.93558505
_cell_formula_units_Z   1
loop_
 _symmetry_equiv_pos_site_id
 _symmetry_equiv_pos_as_xyz
  1  'x, y, z'
loop_
 _atom_site_type_symbol
 _atom_site_label
 _atom_site_symmetry_multiplicity
 _atom_site_fract_x
 _atom_site_fract_y
 _atom_site_fract_z
 _atom_site_occupancy
  Ba  Ba0  1  0.49528800  0.00471200  0.80528874  1
  Ba  Ba1  1  0.00356965  0.49643035  0.81102609  1
  Ba  Ba2  1  0.49447327  0.00552673  0.18356907  1
  Ca  Ca3  1  0.99915833  0.50084167  0.50394801  1
  La  La4  1  0.99508616  0.50491384  0.20998878  1
  La  La5  1  0.50030398  0.99969602  0.49487425  1
  Cu  Cu6  1  0.99845386  0.99988533  0.63764794  1
  Cu  Cu7  1  0.50011467  0.50154614  0.63764794  1
  Cu  Cu8  1  0.99989577  0.99842462  0.35169576  1
  Cu  Cu9  1  0.50157538  0.50010423  0.35169576  1
  Cu  Cu10  1  0.01018870  0.01240652  0.00664253  1
  Cu  Cu11  1  0.48759348  0.48981130  0.00664253  1
  O  O12  1  0.24929602  0.25070398  0.62941672  1
  O  O13  1  0.74843339  0.75156661  0.62843155  1
  O  O14  1  0.25103057  0.75238435  0.62468520  1
  O  O15  1  0.74761565  0.24896943  0.62468520  1
  O  O16  1  0.24415568  0.25584432  0.35482263  1
  O  O17  1  0.75744597  0.74255403  0.36778835  1
  O  O18  1  0.24510664  0.74220589  0.35806987  1
  O  O19  1  0.75779411  0.25489336  0.35806987  1
  O  O20  1  0.97951474  0.99228106  0.85510936  1
  O  O21  1  0.50771894  0.52048526  0.85510936  1
  O  O22  1  0.99076096  0.92081323  0.15396606  1
  O  O23  1  0.57918677  0.50923904  0.15396606  1
  O  O24  1  0.20623931  0.29376069  0.03521235  1
