# generated using pymatgen
data_Ca3Mn2WO9
_symmetry_space_group_name_H-M   'P 1'
_cell_length_a   5.58971537
_cell_length_b   7.87681583
_cell_length_c   16.29431102
_cell_angle_alpha   90.33708939
_cell_angle_beta   90.00000000
_cell_angle_gamma   90.00000000
_symmetry_Int_Tables_number   1
_chemical_formula_structural   Ca3Mn2WO9
_chemical_formula_sum   'Ca12 Mn8 W4 O36'
_cell_volume   717.41238643
_cell_formula_units_Z   4
loop_
 _symmetry_equiv_pos_site_id
 _symmetry_equiv_pos_as_xyz
  1  'x, y, z'
loop_
 _atom_site_type_symbol
 _atom_site_label
 _atom_site_symmetry_multiplicity
 _atom_site_fract_x
 _atom_site_fract_y
 _atom_site_fract_z
 _atom_site_occupancy
  Ca  Ca0  1  0.54283692  0.24153562  0.16347899  1
  Ca  Ca1  1  0.55415001  0.26869896  0.50329278  1
  Ca  Ca2  1  0.55551604  0.23529534  0.84537135  1
  Ca  Ca3  1  0.94584999  0.76869896  0.00329278  1
  Ca  Ca4  1  0.94448396  0.73529534  0.34537135  1
  Ca  Ca5  1  0.95716308  0.74153562  0.66347899  1
  Ca  Ca6  1  0.44448396  0.76470466  0.15462865  1
  Ca  Ca7  1  0.44584999  0.73130104  0.49670722  1
  Ca  Ca8  1  0.45716308  0.75846438  0.83652101  1
  Ca  Ca9  1  0.04283692  0.25846438  0.33652101  1
  Ca  Ca10  1  0.05551604  0.26470466  0.65462865  1
  Ca  Ca11  1  0.05415001  0.23130104  0.99670722  1
  Mn  Mn12  1  0.50000000  0.50000000  -0.00000000  1
  Mn  Mn13  1  0.49383619  0.49901182  0.33331241  1
  Mn  Mn14  1  0.50616381  0.50098818  0.66668759  1
  Mn  Mn15  1  0.99383619  0.00098818  0.16668759  1
  Mn  Mn16  1  -0.00000000  -0.00000000  0.50000000  1
  Mn  Mn17  1  0.00616381  0.99901182  0.83331241  1
  Mn  Mn18  1  0.50000000  -0.00000000  -0.00000000  1
  Mn  Mn19  1  -0.00000000  0.50000000  0.50000000  1
  W  W20  1  0.49695188  0.99700895  0.33186202  1
  W  W21  1  0.50304812  0.00299105  0.66813798  1
  W  W22  1  0.99695188  0.50299105  0.16813798  1
  W  W23  1  0.00304812  0.49700895  0.83186202  1
  O  O24  1  0.70958226  0.55119829  0.10614640  1
  O  O25  1  0.69498902  0.54092662  0.42677225  1
  O  O26  1  0.71203938  0.55344111  0.76637187  1
  O  O27  1  0.78796062  0.05344111  0.26637187  1
  O  O28  1  0.79041774  0.05119829  0.60614640  1
  O  O29  1  0.80501098  0.04092662  0.92677225  1
  O  O30  1  0.28796062  0.44655889  0.23362813  1
  O  O31  1  0.30501098  0.45907338  0.57322775  1
  O  O32  1  0.29041774  0.44880171  0.89385360  1
  O  O33  1  0.19498902  0.95907338  0.07322775  1
  O  O34  1  0.20958226  0.94880171  0.39385360  1
  O  O35  1  0.21203938  0.94655889  0.73362813  1
  O  O36  1  0.97385612  0.26672412  0.13643924  1
  O  O37  1  0.97203794  0.24143086  0.47517534  1
  O  O38  1  0.97082817  0.26203140  0.79699689  1
  O  O39  1  0.52917183  0.76203140  0.29699689  1
  O  O40  1  0.52614388  0.76672412  0.63643924  1
  O  O41  1  0.52796206  0.74143086  0.97517534  1
  O  O42  1  0.02917183  0.73796860  0.20300311  1
  O  O43  1  0.02796206  0.75856914  0.52482466  1
  O  O44  1  0.02614388  0.73327588  0.86356076  1
  O  O45  1  0.47203794  0.25856914  0.02482466  1
  O  O46  1  0.47385612  0.23327588  0.36356076  1
  O  O47  1  0.47082817  0.23796860  0.70300311  1
  O  O48  1  0.79966698  0.45310736  0.26436203  1
  O  O49  1  0.80019431  0.46507839  0.59770007  1
  O  O50  1  0.80838126  0.44617673  0.92746791  1
  O  O51  1  0.69980569  0.96507839  0.09770007  1
  O  O52  1  0.69161874  0.94617673  0.42746791  1
  O  O53  1  0.70033302  0.95310736  0.76436203  1
  O  O54  1  0.19161874  0.55382327  0.07253209  1
  O  O55  1  0.19980569  0.53492161  0.40229993  1
  O  O56  1  0.20033302  0.54689264  0.73563797  1
  O  O57  1  0.29966698  0.04689264  0.23563797  1
  O  O58  1  0.30838126  0.05382327  0.57253209  1
  O  O59  1  0.30019431  0.03492161  0.90229993  1
