# generated using pymatgen
data_Ba8Ca4Cu8Hg4O25
_symmetry_space_group_name_H-M   'P 1'
_cell_length_a   7.73575033
_cell_length_b   13.50480984
_cell_length_c   8.66233603
_cell_angle_alpha   104.83940697
_cell_angle_beta   63.47959737
_cell_angle_gamma   90.00000000
_symmetry_Int_Tables_number   1
_chemical_formula_structural   Ba8Ca4Cu8Hg4O25
_chemical_formula_sum   'Ba8 Ca4 Cu8 Hg4 O25'
_cell_volume   775.85147181
_cell_formula_units_Z   1
loop_
 _symmetry_equiv_pos_site_id
 _symmetry_equiv_pos_as_xyz
  1  'x, y, z'
loop_
 _atom_site_type_symbol
 _atom_site_label
 _atom_site_symmetry_multiplicity
 _atom_site_fract_x
 _atom_site_fract_y
 _atom_site_fract_z
 _atom_site_occupancy
  Ba  Ba0  1  0.43037134  0.77856273  0.63925732  1
  Ba  Ba1  1  0.92681721  0.79278813  0.64636557  1
  Ba  Ba2  1  0.18000498  0.78089350  0.13999004  1
  Ba  Ba3  1  0.67958548  0.78064441  0.14082905  1
  Ba  Ba4  1  0.56999502  0.21910650  0.36000996  1
  Ba  Ba5  1  0.07041452  0.21935559  0.35917095  1
  Ba  Ba6  1  0.31962866  0.22143727  0.86074268  1
  Ba  Ba7  1  0.82318279  0.20721187  0.85363443  1
  Ca  Ca8  1  0.49993085  0.49957649  0.50013831  1
  Ca  Ca9  1  0.99964227  0.50212217  0.50071545  1
  Ca  Ca10  1  0.25006915  0.50042351  -0.00013831  1
  Ca  Ca11  1  0.75035773  0.49787783  0.99928455  1
  Cu  Cu12  1  0.59564929  0.62218624  0.81074059  1
  Cu  Cu13  1  0.09361011  0.62218624  0.81074059  1
  Cu  Cu14  1  0.34342370  0.62216273  0.31175133  1
  Cu  Cu15  1  0.84482498  0.62216273  0.31175133  1
  Cu  Cu16  1  0.65638989  0.37781376  0.68925941  1
  Cu  Cu17  1  0.15435071  0.37781376  0.68925941  1
  Cu  Cu18  1  0.40657630  0.37783727  0.18824867  1
  Cu  Cu19  1  0.90517502  0.37783727  0.18824867  1
  Hg  Hg20  1  0.75442218  -0.00001164  0.50955734  1
  Hg  Hg21  1  0.23602047  -0.00001164  0.50955734  1
  Hg  Hg22  1  0.51397953  0.00001164  0.99044266  1
  Hg  Hg23  1  0.99557782  0.00001164  0.99044266  1
  O  O24  1  0.71734849  0.62151924  0.56084168  1
  O  O25  1  0.22180983  0.62151924  0.56084168  1
  O  O26  1  0.46971749  0.62191352  0.06096364  1
  O  O27  1  0.96931886  0.62191352  0.06096364  1
  O  O28  1  0.34419111  0.62193841  0.81161779  1
  O  O29  1  0.84380204  0.62106419  0.81239593  1
  O  O30  1  0.09564591  0.62106500  0.30870818  1
  O  O31  1  0.59479780  0.62204159  0.31040441  1
  O  O32  1  0.78068114  0.37808648  0.43903636  1
  O  O33  1  0.28028251  0.37808648  0.43903636  1
  O  O34  1  0.52819017  0.37848076  0.93915832  1
  O  O35  1  0.03265151  0.37848076  0.93915832  1
  O  O36  1  0.40580889  0.37806159  0.68838221  1
  O  O37  1  0.90619796  0.37893581  0.68760407  1
  O  O38  1  0.15520220  0.37795841  0.18959559  1
  O  O39  1  0.65435409  0.37893500  0.19129182  1
  O  O40  1  0.53222630  0.84174547  0.92508388  1
  O  O41  1  0.04268982  0.84174547  0.92508388  1
  O  O42  1  0.29670056  0.84176337  0.41689008  1
  O  O43  1  0.78640936  0.84176337  0.41689008  1
  O  O44  1  0.70731018  0.15825453  0.57491612  1
  O  O45  1  0.21777370  0.15825453  0.57491612  1
  O  O46  1  0.45329944  0.15823663  0.08310992  1
  O  O47  1  0.96359064  0.15823663  0.08310992  1
  O  O48  1  0.87500000  -0.00000000  0.75000000  1
