# generated using pymatgen
data_Ba4PrTm(Cu3O7)2
_symmetry_space_group_name_H-M   'P 1'
_cell_length_a   3.86232349
_cell_length_b   3.93779055
_cell_length_c   23.74873748
_cell_angle_alpha   90.00000000
_cell_angle_beta   90.00000000
_cell_angle_gamma   90.00000000
_symmetry_Int_Tables_number   1
_chemical_formula_structural   Ba4PrTm(Cu3O7)2
_chemical_formula_sum   'Ba4 Pr1 Tm1 Cu6 O14'
_cell_volume   361.19504563
_cell_formula_units_Z   1
loop_
 _symmetry_equiv_pos_site_id
 _symmetry_equiv_pos_as_xyz
  1  'x, y, z'
loop_
 _atom_site_type_symbol
 _atom_site_label
 _atom_site_symmetry_multiplicity
 _atom_site_fract_x
 _atom_site_fract_y
 _atom_site_fract_z
 _atom_site_occupancy
  Ba  Ba0  1  0.50000000  0.50000000  0.08949205  1
  Ba  Ba1  1  0.50000000  0.50000000  0.59076649  1
  Ba  Ba2  1  0.50000000  0.50000000  0.41050795  1
  Ba  Ba3  1  0.50000000  0.50000000  0.90923351  1
  Pr  Pr4  1  0.50000000  0.50000000  0.25000000  1
  Tm  Tm5  1  0.50000000  0.50000000  0.75000000  1
  Cu  Cu6  1  -0.00000000  -0.00000000  0.17296339  1
  Cu  Cu7  1  -0.00000000  0.00000000  0.67766933  1
  Cu  Cu8  1  0.00000000  0.00000000  0.32703661  1
  Cu  Cu9  1  0.00000000  -0.00000000  0.82233067  1
  Cu  Cu10  1  -0.00000000  0.00000000  0.99958352  1
  Cu  Cu11  1  -0.00000000  -0.00000000  0.50041648  1
  O  O12  1  -0.00000000  -0.00000000  0.07859113  1
  O  O13  1  0.00000000  0.00000000  0.57970605  1
  O  O14  1  0.00000000  0.00000000  0.42140887  1
  O  O15  1  -0.00000000  -0.00000000  0.92029395  1
  O  O16  1  -0.00000000  0.50000000  0.99926001  1
  O  O17  1  0.00000000  0.50000000  0.50073999  1
  O  O18  1  -0.00000000  0.50000000  0.18457824  1
  O  O19  1  -0.00000000  0.50000000  0.69085395  1
  O  O20  1  0.00000000  0.50000000  0.31542176  1
  O  O21  1  0.00000000  0.50000000  0.80914605  1
  O  O22  1  0.50000000  -0.00000000  0.18544239  1
  O  O23  1  0.50000000  -0.00000000  0.69161881  1
  O  O24  1  0.50000000  -0.00000000  0.31455761  1
  O  O25  1  0.50000000  0.00000000  0.80838119  1
