# generated using pymatgen
data_Ba2Ca3TlCu4O11
_symmetry_space_group_name_H-M   'P 1'
_cell_length_a   3.84790983
_cell_length_b   3.86164515
_cell_length_c   19.43609834
_cell_angle_alpha   90.00000000
_cell_angle_beta   90.00000000
_cell_angle_gamma   90.00000000
_symmetry_Int_Tables_number   1
_chemical_formula_structural   Ba2Ca3TlCu4O11
_chemical_formula_sum   'Ba2 Ca3 Tl1 Cu4 O11'
_cell_volume   288.80608396
_cell_formula_units_Z   1
loop_
 _symmetry_equiv_pos_site_id
 _symmetry_equiv_pos_as_xyz
  1  'x, y, z'
loop_
 _atom_site_type_symbol
 _atom_site_label
 _atom_site_symmetry_multiplicity
 _atom_site_fract_x
 _atom_site_fract_y
 _atom_site_fract_z
 _atom_site_occupancy
  Ba  Ba0  1  -0.00000000  0.01332660  0.63914834  1
  Ba  Ba1  1  -0.00000000  0.01332660  0.36085166  1
  Ca  Ca2  1  -0.00000000  0.99992371  -0.00000000  1
  Ca  Ca3  1  -0.00000000  0.00226303  0.82921483  1
  Ca  Ca4  1  -0.00000000  0.00226303  0.17078517  1
  Tl  Tl5  1  0.50000000  0.58430988  0.50000000  1
  Cu  Cu6  1  0.50000000  0.50391296  0.74612820  1
  Cu  Cu7  1  0.50000000  0.50391296  0.25387180  1
  Cu  Cu8  1  0.50000000  0.50024870  0.91646822  1
  Cu  Cu9  1  0.50000000  0.50024870  0.08353178  1
  O  O10  1  0.50000000  0.00014479  0.91793845  1
  O  O11  1  -0.00000000  0.50012869  0.91818991  1
  O  O12  1  0.50000000  0.00014479  0.08206155  1
  O  O13  1  -0.00000000  0.50012869  0.08181009  1
  O  O14  1  0.50000000  0.00473037  0.75441218  1
  O  O15  1  -0.00000000  0.50384294  0.75509480  1
  O  O16  1  0.50000000  0.00473037  0.24558782  1
  O  O17  1  -0.00000000  0.50384294  0.24490520  1
  O  O18  1  0.50000000  0.50483326  0.60911099  1
  O  O19  1  0.50000000  0.50483326  0.39088901  1
  O  O20  1  -0.00000000  0.93490374  0.50000000  1
