# generated using pymatgen
data_Ag2CO3
_symmetry_space_group_name_H-M   'P 1'
_cell_length_a   3.40826268
_cell_length_b   9.16008183
_cell_length_c   9.16031100
_cell_angle_alpha   120.00073691
_cell_angle_beta   90.00000000
_cell_angle_gamma   90.00000000
_symmetry_Int_Tables_number   1
_chemical_formula_structural   Ag2CO3
_chemical_formula_sum   'Ag6 C3 O9'
_cell_volume   247.66808046
_cell_formula_units_Z   3
loop_
 _symmetry_equiv_pos_site_id
 _symmetry_equiv_pos_as_xyz
  1  'x, y, z'
loop_
 _atom_site_type_symbol
 _atom_site_label
 _atom_site_symmetry_multiplicity
 _atom_site_fract_x
 _atom_site_fract_y
 _atom_site_fract_z
 _atom_site_occupancy
  Ag  Ag0  1  0.50000000  0.67493554  0.00098288  1
  Ag  Ag1  1  0.50000000  0.32603656  0.32507618  1
  Ag  Ag2  1  0.50000000  0.99901592  0.67394459  1
  Ag  Ag3  1  0.00000000  0.36662166  0.00265893  1
  Ag  Ag4  1  0.00000000  0.63603219  0.63338140  1
  Ag  Ag5  1  0.00000000  0.99732500  0.36395576  1
  C  C6  1  0.50000000  0.33333040  0.66666906  1
  C  C7  1  0.50000000  0.66664196  0.33332631  1
  C  C8  1  0.00000000  -0.00000821  -0.00000058  1
  O  O9  1  0.50000000  0.49453910  0.72055921  1
  O  O10  1  0.50000000  0.22600540  0.50545860  1
  O  O11  1  0.50000000  0.27943046  0.77398440  1
  O  O12  1  0.50000000  0.77272655  0.27796010  1
  O  O13  1  0.50000000  0.72203371  0.49476892  1
  O  O14  1  0.50000000  0.50522883  0.22728130  1
  O  O15  1  0.00000000  0.09196688  0.16422011  1
  O  O16  1  0.00000000  0.07225575  0.90802052  1
  O  O17  1  0.00000000  0.83578229  0.92775232  1
