# generated using pymatgen
data_Pb3NO6
_symmetry_space_group_name_H-M   'P 1'
_cell_length_a   14.32658944
_cell_length_b   8.92777568
_cell_length_c   5.69407972
_cell_angle_alpha   90.00000000
_cell_angle_beta   90.00000000
_cell_angle_gamma   90.00000000
_symmetry_Int_Tables_number   1
_chemical_formula_structural   Pb3NO6
_chemical_formula_sum   'Pb12 N4 O24'
_cell_volume   728.29885674
_cell_formula_units_Z   4
loop_
 _symmetry_equiv_pos_site_id
 _symmetry_equiv_pos_as_xyz
  1  'x, y, z'
loop_
 _atom_site_type_symbol
 _atom_site_label
 _atom_site_symmetry_multiplicity
 _atom_site_fract_x
 _atom_site_fract_y
 _atom_site_fract_z
 _atom_site_occupancy
  Pb  Pb0  1  0.83653099  0.73302652  0.10198132  1
  Pb  Pb1  1  0.16346901  0.26697348  0.60198132  1
  Pb  Pb2  1  0.66346901  0.73302652  0.60198132  1
  Pb  Pb3  1  0.33653099  0.26697348  0.10198132  1
  Pb  Pb4  1  0.66529514  0.04346551  0.08345835  1
  Pb  Pb5  1  0.33470486  0.95653449  0.58345835  1
  Pb  Pb6  1  0.83470486  0.04346551  0.58345835  1
  Pb  Pb7  1  0.16529514  0.95653449  0.08345835  1
  Pb  Pb8  1  0.66486934  0.42503670  0.09292903  1
  Pb  Pb9  1  0.33513066  0.57496330  0.59292903  1
  Pb  Pb10  1  0.83513066  0.42503670  0.59292903  1
  Pb  Pb11  1  0.16486934  0.57496330  0.09292903  1
  N  N12  1  0.48948041  0.73058177  0.06636020  1
  N  N13  1  0.51051959  0.26941823  0.56636020  1
  N  N14  1  0.01051959  0.73058177  0.56636020  1
  N  N15  1  0.98948041  0.26941823  0.06636020  1
  O  O16  1  0.75506305  0.57234447  0.85168828  1
  O  O17  1  0.24493695  0.42765553  0.35168828  1
  O  O18  1  0.74493695  0.57234447  0.35168828  1
  O  O19  1  0.25506305  0.42765553  0.85168828  1
  O  O20  1  0.75700896  0.89602086  0.84821398  1
  O  O21  1  0.24299104  0.10397914  0.34821398  1
  O  O22  1  0.74299104  0.89602086  0.34821398  1
  O  O23  1  0.25700896  0.10397914  0.84821398  1
  O  O24  1  0.57761794  0.73061925  0.11593169  1
  O  O25  1  0.42238206  0.26938075  0.61593169  1
  O  O26  1  0.92238206  0.73061925  0.61593169  1
  O  O27  1  0.07761794  0.26938075  0.11593169  1
  O  O28  1  0.75676918  0.23179764  0.25269990  1
  O  O29  1  0.24323082  0.76820236  0.75269990  1
  O  O30  1  0.74323082  0.23179764  0.75269990  1
  O  O31  1  0.25676918  0.76820236  0.25269990  1
  O  O32  1  0.44964592  0.85395753  0.02925594  1
  O  O33  1  0.55035408  0.14604247  0.52925594  1
  O  O34  1  0.05035408  0.85395753  0.52925594  1
  O  O35  1  0.94964592  0.14604247  0.02925594  1
  O  O36  1  0.44710146  0.60784666  0.05438131  1
  O  O37  1  0.55289854  0.39215334  0.55438131  1
  O  O38  1  0.05289854  0.60784666  0.55438131  1
  O  O39  1  0.94710146  0.39215334  0.05438131  1
