# generated using pymatgen
data_YPO4
_symmetry_space_group_name_H-M   'P 1'
_cell_length_a   6.29244011
_cell_length_b   6.96041185
_cell_length_c   6.96041185
_cell_angle_alpha   119.99999968
_cell_angle_beta   90.00000000
_cell_angle_gamma   90.00000000
_symmetry_Int_Tables_number   1
_chemical_formula_structural   YPO4
_chemical_formula_sum   'Y3 P3 O12'
_cell_volume   264.00952687
_cell_formula_units_Z   3
loop_
 _symmetry_equiv_pos_site_id
 _symmetry_equiv_pos_as_xyz
  1  'x, y, z'
loop_
 _atom_site_type_symbol
 _atom_site_label
 _atom_site_symmetry_multiplicity
 _atom_site_fract_x
 _atom_site_fract_y
 _atom_site_fract_z
 _atom_site_occupancy
  Y  Y0  1  0.33333300  0.00000000  0.50000000  1
  Y  Y1  1  0.66666700  0.50000000  0.00000000  1
  Y  Y2  1  0.00000000  0.50000000  0.50000000  1
  P  P3  1  0.83333300  0.00000000  0.50000000  1
  P  P4  1  0.16666600  0.50000000  0.00000000  1
  P  P5  1  0.50000000  0.50000000  0.50000000  1
  O  O6  1  0.68081894  0.85916687  0.30439549  1
  O  O7  1  0.01415194  0.44522862  0.14083313  1
  O  O8  1  0.34748594  0.69560451  0.55477138  1
  O  O9  1  0.68081894  0.14083313  0.69560451  1
  O  O10  1  0.01415194  0.55477138  0.85916687  1
  O  O11  1  0.34748594  0.30439549  0.44522862  1
  O  O12  1  0.65251406  0.55477138  0.69560451  1
  O  O13  1  0.31918106  0.30439549  0.85916687  1
  O  O14  1  0.98584806  0.14083313  0.44522862  1
  O  O15  1  0.65251406  0.44522862  0.30439549  1
  O  O16  1  0.31918106  0.69560451  0.14083313  1
  O  O17  1  0.98584806  0.85916687  0.55477138  1
