# generated using pymatgen
data_Ga2O3
_symmetry_space_group_name_H-M   'P 1'
_cell_length_a   5.39991173
_cell_length_b   5.39991172
_cell_length_c   5.39991172
_cell_angle_alpha   55.87160676
_cell_angle_beta   55.87160679
_cell_angle_gamma   55.87160678
_symmetry_Int_Tables_number   1
_chemical_formula_structural   Ga2O3
_chemical_formula_sum   'Ga4 O6'
_cell_volume   100.68355117
_cell_formula_units_Z   2
loop_
 _symmetry_equiv_pos_site_id
 _symmetry_equiv_pos_as_xyz
  1  'x, y, z'
loop_
 _atom_site_type_symbol
 _atom_site_label
 _atom_site_symmetry_multiplicity
 _atom_site_fract_x
 _atom_site_fract_y
 _atom_site_fract_z
 _atom_site_occupancy
  O  O0  1  0.75000000  0.44687107  0.05312893  1
  O  O1  1  0.44687107  0.05312893  0.75000000  1
  O  O2  1  0.05312893  0.75000000  0.44687107  1
  O  O3  1  0.25000000  0.55312893  0.94687107  1
  O  O4  1  0.94687107  0.25000000  0.55312893  1
  O  O5  1  0.55312893  0.94687107  0.25000000  1
  Ga  Ga6  1  0.85591124  0.85591124  0.85591124  1
  Ga  Ga7  1  0.64408876  0.64408876  0.64408876  1
  Ga  Ga8  1  0.14408876  0.14408876  0.14408876  1
  Ga  Ga9  1  0.35591124  0.35591124  0.35591124  1
