# generated using pymatgen
data_Sr3NdTaAl3O12
_symmetry_space_group_name_H-M   'P 1'
_cell_length_a   5.47632411
_cell_length_b   9.50982499
_cell_length_c   9.51377735
_cell_angle_alpha   70.59646963
_cell_angle_beta   89.93570424
_cell_angle_gamma   89.90716752
_symmetry_Int_Tables_number   1
_chemical_formula_structural   Sr3NdTaAl3O12
_chemical_formula_sum   'Sr6 Nd2 Ta2 Al6 O24'
_cell_volume   467.32476760
_cell_formula_units_Z   2
loop_
 _symmetry_equiv_pos_site_id
 _symmetry_equiv_pos_as_xyz
  1  'x, y, z'
loop_
 _atom_site_type_symbol
 _atom_site_label
 _atom_site_symmetry_multiplicity
 _atom_site_fract_x
 _atom_site_fract_y
 _atom_site_fract_z
 _atom_site_occupancy
  Sr  Sr0  1  0.50210554  0.39278357  0.37729944  1
  Sr  Sr1  1  0.99834771  0.38475640  0.86563696  1
  Sr  Sr2  1  0.50063450  0.86963849  0.88885305  1
  Sr  Sr3  1  0.49896257  0.12273449  0.10521213  1
  Sr  Sr4  1  0.00133275  0.63493289  0.11717524  1
  Sr  Sr5  1  0.49802962  0.61103570  0.63240733  1
  Nd  Nd6  1  0.00004875  0.84829388  0.36563806  1
  Nd  Nd7  1  0.00047412  0.13714067  0.64800292  1
  Ta  Ta8  1  0.99827246  0.25555092  0.24074252  1
  Ta  Ta9  1  0.50042618  0.99212263  0.50664225  1
  Al  Al10  1  0.50110623  0.74621841  0.24858716  1
  Al  Al11  1  0.49912629  0.25521231  0.75095737  1
  Al  Al12  1  0.00417114  0.74855875  0.75480532  1
  Al  Al13  1  0.00027454  0.99800377  0.99926828  1
  Al  Al14  1  0.50199409  0.50619444  0.99605248  1
  Al  Al15  1  0.99997727  0.49942875  0.50411359  1
  O  O16  1  0.27357644  0.37246270  0.13670142  1
  O  O17  1  0.75825961  0.87816437  0.13777407  1
  O  O18  1  0.75733106  0.37236206  0.63018327  1
  O  O19  1  0.26900650  0.86710368  0.64650409  1
  O  O20  1  0.20416539  0.09186500  0.38380937  1
  O  O21  1  0.75524878  0.62171810  0.37333547  1
  O  O22  1  0.74947033  0.11985698  0.86532604  1
  O  O23  1  0.24022106  0.61696718  0.88054459  1
  O  O24  1  0.00135283  0.13382361  0.10829974  1
  O  O25  1  0.50096233  0.63154806  0.11989671  1
  O  O26  1  0.49585678  0.14017829  0.61196089  1
  O  O27  1  0.99969369  0.63931007  0.61403262  1
  O  O28  1  0.71086873  0.13013079  0.34899227  1
  O  O29  1  0.24121043  0.62486427  0.37150251  1
  O  O30  1  0.24456696  0.12198614  0.86299077  1
  O  O31  1  0.74137433  0.63278755  0.86508193  1
  O  O32  1  0.00102731  0.35657473  0.39388164  1
  O  O33  1  0.50354757  0.85504465  0.38854035  1
  O  O34  1  0.50098978  0.37174195  0.88058991  1
  O  O35  1  0.99991981  0.87334921  0.87930347  1
  O  O36  1  0.76130358  0.39264083  0.11746803  1
  O  O37  1  0.24842638  0.88012661  0.13526168  1
  O  O38  1  0.24633838  0.37574383  0.62876455  1
  O  O39  1  0.78999817  0.89704328  0.61786052  1
