# generated using pymatgen
data_B10H11C2
_symmetry_space_group_name_H-M   'P 1'
_cell_length_a   7.53056966
_cell_length_b   10.10564645
_cell_length_c   12.85964835
_cell_angle_alpha   90.00000000
_cell_angle_beta   90.92987020
_cell_angle_gamma   90.00000000
_symmetry_Int_Tables_number   1
_chemical_formula_structural   B10H11C2
_chemical_formula_sum   'B40 H44 C8'
_cell_volume   978.50675084
_cell_formula_units_Z   4
loop_
 _symmetry_equiv_pos_site_id
 _symmetry_equiv_pos_as_xyz
  1  'x, y, z'
loop_
 _atom_site_type_symbol
 _atom_site_label
 _atom_site_symmetry_multiplicity
 _atom_site_fract_x
 _atom_site_fract_y
 _atom_site_fract_z
 _atom_site_occupancy
  B  B0  1  0.52063359  0.21671967  0.72077299  1
  B  B1  1  0.02063359  0.28328033  0.22077299  1
  B  B2  1  0.47936641  0.78328033  0.27922701  1
  B  B3  1  0.97936641  0.71671967  0.77922701  1
  B  B4  1  0.31440665  0.28018668  0.67327224  1
  B  B5  1  0.81440665  0.21981332  0.17327224  1
  B  B6  1  0.68559335  0.71981332  0.32672776  1
  B  B7  1  0.18559335  0.78018668  0.82672776  1
  B  B8  1  0.45889525  0.38236168  0.74881538  1
  B  B9  1  0.95889525  0.11763832  0.24881538  1
  B  B10  1  0.54110475  0.61763832  0.25118462  1
  B  B11  1  0.04110475  0.88236168  0.75118462  1
  B  B12  1  0.56399130  0.28402924  0.50555353  1
  B  B13  1  0.06399130  0.21597076  0.00555353  1
  B  B14  1  0.43600870  0.71597076  0.49444647  1
  B  B15  1  0.93600870  0.78402924  0.99444647  1
  B  B16  1  0.34127117  0.32181176  0.54012030  1
  B  B17  1  0.84127117  0.17818824  0.04012030  1
  B  B18  1  0.65872883  0.67818824  0.45987970  1
  B  B19  1  0.15872883  0.82181176  0.95987970  1
  B  B20  1  0.67481445  0.21936694  0.61744429  1
  B  B21  1  0.17481445  0.28063306  0.11744429  1
  B  B22  1  0.32518555  0.78063306  0.38255571  1
  B  B23  1  0.82518555  0.71936694  0.88255571  1
  B  B24  1  0.44791066  0.17909197  0.59203283  1
  B  B25  1  0.94791066  0.32090803  0.09203283  1
  B  B26  1  0.55208934  0.82090803  0.40796717  1
  B  B27  1  0.05208934  0.67909197  0.90796717  1
  B  B28  1  0.68022623  0.34494403  0.71390629  1
  B  B29  1  0.18022623  0.15505597  0.21390629  1
  B  B30  1  0.31977377  0.65505597  0.28609371  1
  B  B31  1  0.81977377  0.84494403  0.78609371  1
  B  B32  1  0.70853082  0.38544629  0.58149360  1
  B  B33  1  0.20853082  0.11455371  0.08149360  1
  B  B34  1  0.29146918  0.61455371  0.41850640  1
  B  B35  1  0.79146918  0.88544629  0.91850640  1
  B  B36  1  0.34679086  0.44676697  0.63778781  1
  B  B37  1  0.84679086  0.05323303  0.13778781  1
  B  B38  1  0.65320914  0.55323303  0.36221219  1
  B  B39  1  0.15320914  0.94676697  0.86221219  1
  H  H40  1  0.40291692  0.07114296  0.56545357  1
  H  H41  1  0.90291692  0.42885704  0.06545357  1
  H  H42  1  0.59708308  0.92885704  0.43454643  1
  H  H43  1  0.09708308  0.57114296  0.93454643  1
  H  H44  1  0.42829192  0.43161054  0.83059387  1
  H  H45  1  0.92829192  0.06838946  0.33059387  1
  H  H46  1  0.57170808  0.56838946  0.16940613  1
  H  H47  1  0.07170808  0.93161054  0.66940613  1
  H  H48  1  0.60303542  0.26247774  0.41787400  1
  H  H49  1  0.10303542  0.23752226  0.91787400  1
  H  H50  1  0.39696458  0.73752226  0.58212600  1
  H  H51  1  0.89696458  0.76247774  0.08212600  1
  H  H52  1  0.60994005  0.57524453  0.67591329  1
  H  H53  1  0.10994005  0.92475547  0.17591329  1
  H  H54  1  0.39005995  0.42475547  0.32408671  1
  H  H55  1  0.89005995  0.07524453  0.82408671  1
  H  H56  1  0.79451353  0.14310229  0.60945359  1
  H  H57  1  0.29451353  0.35689771  0.10945359  1
  H  H58  1  0.20548647  0.85689771  0.39054641  1
  H  H59  1  0.70548647  0.64310229  0.89054641  1
  H  H60  1  0.80075110  0.36879927  0.77152813  1
  H  H61  1  0.30075110  0.13120073  0.27152813  1
  H  H62  1  0.19924890  0.63120073  0.22847187  1
  H  H63  1  0.69924890  0.86879927  0.72847187  1
  H  H64  1  0.83752297  0.43850805  0.55082579  1
  H  H65  1  0.33752297  0.06149195  0.05082579  1
  H  H66  1  0.16247703  0.56149195  0.44917421  1
  H  H67  1  0.66247703  0.93850805  0.94917421  1
  H  H68  1  0.17377708  0.24664954  0.70520643  1
  H  H69  1  0.67377708  0.25335046  0.20520643  1
  H  H70  1  0.82622292  0.75335046  0.29479357  1
  H  H71  1  0.32622292  0.74664954  0.79479357  1
  H  H72  1  0.52931894  0.13603939  0.78820177  1
  H  H73  1  0.02931894  0.36396061  0.28820177  1
  H  H74  1  0.47068106  0.86396061  0.21179823  1
  H  H75  1  0.97068106  0.63603939  0.71179823  1
  H  H76  1  0.24874833  0.53807694  0.64124565  1
  H  H77  1  0.74874833  0.96192306  0.14124565  1
  H  H78  1  0.75125167  0.46192306  0.35875435  1
  H  H79  1  0.25125167  0.03807694  0.85875435  1
  H  H80  1  0.22604515  0.32519077  0.47576300  1
  H  H81  1  0.72604515  0.17480923  0.97576300  1
  H  H82  1  0.77395485  0.67480923  0.52423700  1
  H  H83  1  0.27395485  0.82519077  0.02423700  1
  C  C84  1  0.50185844  0.44230835  0.53889035  1
  C  C85  1  0.00185844  0.05769165  0.03889035  1
  C  C86  1  0.49814156  0.55769165  0.46110965  1
  C  C87  1  0.99814156  0.94230835  0.96110965  1
  C  C88  1  0.56931545  0.47416315  0.65971062  1
  C  C89  1  0.06931545  0.02583685  0.15971062  1
  C  C90  1  0.43068455  0.52583685  0.34028938  1
  C  C91  1  0.93068455  0.97416315  0.84028938  1
