# generated using pymatgen
data_In3Mo15Se19
_symmetry_space_group_name_H-M   'P 1'
_cell_length_a   9.98722587
_cell_length_b   10.02771079
_cell_length_c   19.68753750
_cell_angle_alpha   90.00000000
_cell_angle_beta   90.00000000
_cell_angle_gamma   59.39760702
_symmetry_Int_Tables_number   1
_chemical_formula_structural   In3Mo15Se19
_chemical_formula_sum   'In6 Mo30 Se38'
_cell_volume   1697.07232414
_cell_formula_units_Z   2
loop_
 _symmetry_equiv_pos_site_id
 _symmetry_equiv_pos_as_xyz
  1  'x, y, z'
loop_
 _atom_site_type_symbol
 _atom_site_label
 _atom_site_symmetry_multiplicity
 _atom_site_fract_x
 _atom_site_fract_y
 _atom_site_fract_z
 _atom_site_occupancy
  In  In0  1  0.34260896  0.32353307  0.62444399  1
  In  In1  1  0.65739104  0.67646693  0.12444399  1
  In  In2  1  0.65739104  0.67646693  0.37555601  1
  In  In3  1  0.34260896  0.32353307  0.87555601  1
  In  In4  1  0.03945270  0.77934195  0.75000000  1
  In  In5  1  0.96054730  0.22065805  0.25000000  1
  Mo  Mo6  1  0.50442942  0.68251940  0.63398685  1
  Mo  Mo7  1  0.81013748  0.50383765  0.63552379  1
  Mo  Mo8  1  0.67922449  0.81153379  0.63455936  1
  Mo  Mo9  1  0.49557058  0.31748060  0.13398685  1
  Mo  Mo10  1  0.18986252  0.49616235  0.13552379  1
  Mo  Mo11  1  0.32077551  0.18846621  0.13455936  1
  Mo  Mo12  1  0.49557058  0.31748060  0.36601315  1
  Mo  Mo13  1  0.18986252  0.49616235  0.36447621  1
  Mo  Mo14  1  0.32077551  0.18846621  0.36544064  1
  Mo  Mo15  1  0.50442942  0.68251940  0.86601315  1
  Mo  Mo16  1  0.81013748  0.50383765  0.86447621  1
  Mo  Mo17  1  0.67922449  0.81153379  0.86544064  1
  Mo  Mo18  1  0.16393738  0.98336728  0.55577618  1
  Mo  Mo19  1  0.85027864  0.16242575  0.55576681  1
  Mo  Mo20  1  0.98610656  0.85149552  0.55753185  1
  Mo  Mo21  1  0.83606262  0.01663272  0.05577618  1
  Mo  Mo22  1  0.14972136  0.83757425  0.05576681  1
  Mo  Mo23  1  0.01389344  0.14850448  0.05753185  1
  Mo  Mo24  1  0.83606262  0.01663272  0.44422382  1
  Mo  Mo25  1  0.14972136  0.83757425  0.44423319  1
  Mo  Mo26  1  0.01389344  0.14850448  0.44246815  1
  Mo  Mo27  1  0.16393738  0.98336728  0.94422382  1
  Mo  Mo28  1  0.85027864  0.16242575  0.94423319  1
  Mo  Mo29  1  0.98610656  0.85149552  0.94246815  1
  Mo  Mo30  1  0.51486283  0.82834343  0.75000000  1
  Mo  Mo31  1  0.65887003  0.51093337  0.75000000  1
  Mo  Mo32  1  0.83547036  0.65436082  0.75000000  1
  Mo  Mo33  1  0.48513717  0.17165657  0.25000000  1
  Mo  Mo34  1  0.34112997  0.48906663  0.25000000  1
  Mo  Mo35  1  0.16452964  0.34563918  0.25000000  1
  Se  Se36  1  0.35731945  0.68745517  0.75000000  1
  Se  Se37  1  0.95987047  0.35489310  0.75000000  1
  Se  Se38  1  0.68262808  0.95860731  0.75000000  1
  Se  Se39  1  0.64268055  0.31254483  0.25000000  1
  Se  Se40  1  0.04012953  0.64510690  0.25000000  1
  Se  Se41  1  0.31737192  0.04139269  0.25000000  1
  Se  Se42  1  0.00371333  0.00632968  0.66029794  1
  Se  Se43  1  0.99628667  0.99367032  0.16029794  1
  Se  Se44  1  0.99628667  0.99367032  0.33970206  1
  Se  Se45  1  0.00371333  0.00632968  0.83970206  1
  Se  Se46  1  0.37672637  0.98840774  0.64156873  1
  Se  Se47  1  0.63241993  0.37871054  0.64198728  1
  Se  Se48  1  0.98553128  0.62485347  0.63356521  1
  Se  Se49  1  0.62327363  0.01159226  0.14156873  1
  Se  Se50  1  0.36758007  0.62128946  0.14198728  1
  Se  Se51  1  0.01446872  0.37514653  0.13356521  1
  Se  Se52  1  0.62327363  0.01159226  0.35843127  1
  Se  Se53  1  0.36758007  0.62128946  0.35801272  1
  Se  Se54  1  0.01446872  0.37514653  0.36643479  1
  Se  Se55  1  0.37672637  0.98840774  0.85843127  1
  Se  Se56  1  0.63241993  0.37871054  0.85801272  1
  Se  Se57  1  0.98553128  0.62485347  0.86643479  1
  Se  Se58  1  0.28586786  0.68023015  0.55253481  1
  Se  Se59  1  0.02726274  0.28680455  0.54984664  1
  Se  Se60  1  0.68375649  0.02900373  0.55334454  1
  Se  Se61  1  0.71413214  0.31976985  0.05253481  1
  Se  Se62  1  0.97273726  0.71319545  0.04984664  1
  Se  Se63  1  0.31624351  0.97099627  0.05334454  1
  Se  Se64  1  0.71413214  0.31976985  0.44746519  1
  Se  Se65  1  0.97273726  0.71319545  0.45015336  1
  Se  Se66  1  0.31624351  0.97099627  0.44665546  1
  Se  Se67  1  0.28586786  0.68023015  0.94746519  1
  Se  Se68  1  0.02726274  0.28680455  0.95015336  1
  Se  Se69  1  0.68375649  0.02900373  0.94665546  1
  Se  Se70  1  0.33706547  0.33204727  0.03116166  1
  Se  Se71  1  0.66293453  0.66795273  0.53116166  1
  Se  Se72  1  0.66293453  0.66795273  0.96883834  1
  Se  Se73  1  0.33706547  0.33204727  0.46883834  1
