# generated using pymatgen
data_Ca4Hg9
_symmetry_space_group_name_H-M   'P 1'
_cell_length_a   11.12538891
_cell_length_b   11.12538891
_cell_length_c   11.12538891
_cell_angle_alpha   90.00000000
_cell_angle_beta   90.00000000
_cell_angle_gamma   90.00000000
_symmetry_Int_Tables_number   1
_chemical_formula_structural   Ca4Hg9
_chemical_formula_sum   'Ca16 Hg36'
_cell_volume   1377.03698424
_cell_formula_units_Z   4
loop_
 _symmetry_equiv_pos_site_id
 _symmetry_equiv_pos_as_xyz
  1  'x, y, z'
loop_
 _atom_site_type_symbol
 _atom_site_label
 _atom_site_symmetry_multiplicity
 _atom_site_fract_x
 _atom_site_fract_y
 _atom_site_fract_z
 _atom_site_occupancy
  Ca  Ca0  1  0.80858828  0.46382602  0.19141172  1
  Ca  Ca1  1  0.46382602  0.19141172  0.80858828  1
  Ca  Ca2  1  0.53617398  0.80858828  0.80858828  1
  Ca  Ca3  1  0.86582434  0.13417566  0.86582434  1
  Ca  Ca4  1  0.19141172  0.80858828  0.46382602  1
  Ca  Ca5  1  0.13417566  0.86582434  0.86582434  1
  Ca  Ca6  1  0.80858828  0.19141172  0.46382602  1
  Ca  Ca7  1  0.53617398  0.19141172  0.19141172  1
  Ca  Ca8  1  0.19141172  0.53617398  0.19141172  1
  Ca  Ca9  1  0.13417566  0.13417566  0.13417566  1
  Ca  Ca10  1  0.19141172  0.19141172  0.53617398  1
  Ca  Ca11  1  0.80858828  0.80858828  0.53617398  1
  Ca  Ca12  1  0.80858828  0.53617398  0.80858828  1
  Ca  Ca13  1  0.19141172  0.46382602  0.80858828  1
  Ca  Ca14  1  0.46382602  0.80858828  0.19141172  1
  Ca  Ca15  1  0.86582434  0.86582434  0.13417566  1
  Hg  Hg16  1  0.84047872  0.84047872  0.84047872  1
  Hg  Hg17  1  -0.00000000  0.00000000  0.36179940  1
  Hg  Hg18  1  0.32389672  0.97502892  0.67610328  1
  Hg  Hg19  1  0.32389672  0.02497108  0.32389672  1
  Hg  Hg20  1  0.84047872  0.15952128  0.15952128  1
  Hg  Hg21  1  0.60493195  0.60493195  0.60493195  1
  Hg  Hg22  1  0.63820060  0.00000000  0.00000000  1
  Hg  Hg23  1  0.60493195  0.39506805  0.39506805  1
  Hg  Hg24  1  0.67610328  0.67610328  0.02497108  1
  Hg  Hg25  1  0.15952128  0.84047872  0.15952128  1
  Hg  Hg26  1  0.50000000  0.50000000  0.85235094  1
  Hg  Hg27  1  0.31579834  0.68420166  0.68420166  1
  Hg  Hg28  1  0.68420166  0.31579834  0.68420166  1
  Hg  Hg29  1  0.50000000  0.14764906  0.50000000  1
  Hg  Hg30  1  0.97502892  0.67610328  0.32389672  1
  Hg  Hg31  1  -0.00000000  0.00000000  0.63820060  1
  Hg  Hg32  1  0.31579834  0.31579834  0.31579834  1
  Hg  Hg33  1  0.02497108  0.32389672  0.32389672  1
  Hg  Hg34  1  0.39506805  0.39506805  0.60493195  1
  Hg  Hg35  1  0.32389672  0.67610328  0.97502892  1
  Hg  Hg36  1  0.50000000  0.50000000  0.14764906  1
  Hg  Hg37  1  0.68420166  0.68420166  0.31579834  1
  Hg  Hg38  1  0.67610328  0.32389672  0.97502892  1
  Hg  Hg39  1  0.50000000  0.85235094  0.50000000  1
  Hg  Hg40  1  0.15952128  0.15952128  0.84047872  1
  Hg  Hg41  1  -0.00000000  0.36179940  0.00000000  1
  Hg  Hg42  1  0.97502892  0.32389672  0.67610328  1
  Hg  Hg43  1  0.14764906  0.50000000  0.50000000  1
  Hg  Hg44  1  0.39506805  0.60493195  0.39506805  1
  Hg  Hg45  1  0.67610328  0.97502892  0.32389672  1
  Hg  Hg46  1  0.67610328  0.02497108  0.67610328  1
  Hg  Hg47  1  0.85235094  0.50000000  0.50000000  1
  Hg  Hg48  1  -0.00000000  0.63820060  0.00000000  1
  Hg  Hg49  1  0.02497108  0.67610328  0.67610328  1
  Hg  Hg50  1  0.32389672  0.32389672  0.02497108  1
  Hg  Hg51  1  0.36179940  0.00000000  0.00000000  1
