# generated using pymatgen
data_Cs2KSiF7
_symmetry_space_group_name_H-M   'P 1'
_cell_length_a   6.06746405
_cell_length_b   8.23549908
_cell_length_c   8.23549908
_cell_angle_alpha   89.23864051
_cell_angle_beta   90.00000000
_cell_angle_gamma   90.00000000
_symmetry_Int_Tables_number   1
_chemical_formula_structural   Cs2KSiF7
_chemical_formula_sum   'Cs4 K2 Si2 F14'
_cell_volume   411.47998367
_cell_formula_units_Z   2
loop_
 _symmetry_equiv_pos_site_id
 _symmetry_equiv_pos_as_xyz
  1  'x, y, z'
loop_
 _atom_site_type_symbol
 _atom_site_label
 _atom_site_symmetry_multiplicity
 _atom_site_fract_x
 _atom_site_fract_y
 _atom_site_fract_z
 _atom_site_occupancy
  Cs  Cs0  1  -0.00000000  0.50000000  0.50000000  1
  Cs  Cs1  1  0.00000000  0.00000000  0.00000000  1
  Cs  Cs2  1  0.50000000  0.30562690  0.80562690  1
  Cs  Cs3  1  0.50000000  0.69437310  0.19437310  1
  K  K4  1  0.50000000  0.19564373  0.30435627  1
  K  K5  1  0.50000000  0.80435627  0.69564373  1
  Si  Si6  1  -0.00000000  0.00000000  0.50000000  1
  Si  Si7  1  0.00000000  0.50000000  0.00000000  1
  F  F8  1  0.79649165  0.10294044  0.60294044  1
  F  F9  1  0.79649165  0.89705956  0.39705956  1
  F  F10  1  0.79800914  0.39421945  0.10578055  1
  F  F11  1  0.79800914  0.60578055  0.89421945  1
  F  F12  1  0.20350835  0.89705956  0.39705956  1
  F  F13  1  0.20350835  0.10294044  0.60294044  1
  F  F14  1  0.20199086  0.60578055  0.89421945  1
  F  F15  1  0.20199086  0.39421945  0.10578055  1
  F  F16  1  -0.00000000  0.35339568  0.85339568  1
  F  F17  1  0.00000000  0.64660432  0.14660432  1
  F  F18  1  -0.00000000  0.14863454  0.35136546  1
  F  F19  1  -0.00000000  0.85136546  0.64863454  1
  F  F20  1  0.50000000  0.50000000  0.50000000  1
  F  F21  1  0.50000000  0.00000000  0.00000000  1
