# generated using pymatgen
data_Ca4Al6SO16
_symmetry_space_group_name_H-M   'P 1'
_cell_length_a   7.94646811
_cell_length_b   7.94646811
_cell_length_c   7.94646810
_cell_angle_alpha   109.47122062
_cell_angle_beta   109.47122062
_cell_angle_gamma   109.47122065
_symmetry_Int_Tables_number   1
_chemical_formula_structural   Ca4Al6SO16
_chemical_formula_sum   'Ca4 Al6 S1 O16'
_cell_volume   386.27850596
_cell_formula_units_Z   1
loop_
 _symmetry_equiv_pos_site_id
 _symmetry_equiv_pos_as_xyz
  1  'x, y, z'
loop_
 _atom_site_type_symbol
 _atom_site_label
 _atom_site_symmetry_multiplicity
 _atom_site_fract_x
 _atom_site_fract_y
 _atom_site_fract_z
 _atom_site_occupancy
  O  O0  1  0.42471444  0.99997630  0.71733122  1
  O  O1  1  0.28264508  0.70738322  0.28266878  1
  O  O2  1  0.71735492  0.00002370  0.42473813  1
  O  O3  1  0.29261678  0.57526187  0.57528556  1
  O  O4  1  0.57526187  0.57528556  0.29261678  1
  O  O5  1  0.71733122  0.42471444  0.99997630  1
  O  O6  1  0.70738322  0.28266878  0.28264508  1
  O  O7  1  0.42473813  0.71735492  0.00002370  1
  O  O8  1  0.99997630  0.71733122  0.42471444  1
  O  O9  1  0.28266878  0.28264508  0.70738322  1
  O  O10  1  0.00002370  0.42473813  0.71735492  1
  O  O11  1  0.81207860  0.81207860  0.81207860  1
  O  O12  1  0.00000000  0.18792140  0.00000000  1
  O  O13  1  0.00000000  0.00000000  0.18792140  1
  O  O14  1  0.18792140  0.00000000  0.00000000  1
  O  O15  1  0.57528556  0.29261678  0.57526187  1
  Al  Al16  1  0.75003238  0.25003238  0.50000000  1
  Al  Al17  1  0.50000000  0.75003238  0.25003238  1
  Al  Al18  1  0.74996762  0.50000000  0.24996762  1
  Al  Al19  1  0.24996762  0.74996762  0.50000000  1
  Al  Al20  1  0.25003238  0.50000000  0.75003238  1
  Al  Al21  1  0.50000000  0.24996762  0.74996762  1
  S  S22  1  0.00000000  0.00000000  0.00000000  1
  Ca  Ca23  1  0.00000000  0.00000000  0.62355597  1
  Ca  Ca24  1  0.62355597  0.00000000  0.00000000  1
  Ca  Ca25  1  0.00000000  0.62355597  0.00000000  1
  Ca  Ca26  1  0.37644403  0.37644403  0.37644403  1
