# generated using pymatgen
data_Nd2AlCo2
_symmetry_space_group_name_H-M   'P 1'
_cell_length_a   4.02085179
_cell_length_b   5.61126112
_cell_length_c   5.61126112
_cell_angle_alpha   60.01566103
_cell_angle_beta   69.00514316
_cell_angle_gamma   69.00514314
_symmetry_Int_Tables_number   1
_chemical_formula_structural   Nd2AlCo2
_chemical_formula_sum   'Nd2 Al1 Co2'
_cell_volume   99.83143316
_cell_formula_units_Z   1
loop_
 _symmetry_equiv_pos_site_id
 _symmetry_equiv_pos_as_xyz
  1  'x, y, z'
loop_
 _atom_site_type_symbol
 _atom_site_label
 _atom_site_symmetry_multiplicity
 _atom_site_fract_x
 _atom_site_fract_y
 _atom_site_fract_z
 _atom_site_occupancy
  Al  Al0  1  0.00000000  0.00000000  0.00000000  1
  Co  Co1  1  0.50000000  0.27024161  0.72975839  1
  Co  Co2  1  0.50000000  0.72975839  0.27024161  1
  Nd  Nd3  1  0.19915070  0.30084930  0.30084930  1
  Nd  Nd4  1  0.80084930  0.69915070  0.69915070  1
