# generated using pymatgen
data_Al17(Re2Si)2
_symmetry_space_group_name_H-M   'P 1'
_cell_length_a   12.93086401
_cell_length_b   12.93086401
_cell_length_c   12.93086401
_cell_angle_alpha   90.00000000
_cell_angle_beta   90.00000000
_cell_angle_gamma   90.00000000
_symmetry_Int_Tables_number   1
_chemical_formula_structural   Al17(Re2Si)2
_chemical_formula_sum   'Al102 Si12 Re24'
_cell_volume   2162.13413423
_cell_formula_units_Z   6
loop_
 _symmetry_equiv_pos_site_id
 _symmetry_equiv_pos_as_xyz
  1  'x, y, z'
loop_
 _atom_site_type_symbol
 _atom_site_label
 _atom_site_symmetry_multiplicity
 _atom_site_fract_x
 _atom_site_fract_y
 _atom_site_fract_z
 _atom_site_occupancy
  Al  Al0  1  0.16450202  0.10207683  0.00000000  1
  Al  Al1  1  0.00000000  0.16450202  0.10207683  1
  Al  Al2  1  0.10207683  0.00000000  0.16450202  1
  Al  Al3  1  0.89792317  0.00000000  0.16450202  1
  Al  Al4  1  0.00000000  0.83549798  0.89792317  1
  Al  Al5  1  0.89792317  0.00000000  0.83549798  1
  Al  Al6  1  0.00000000  0.83549798  0.10207683  1
  Al  Al7  1  0.00000000  0.16450202  0.89792317  1
  Al  Al8  1  0.10207683  0.00000000  0.83549798  1
  Al  Al9  1  0.16450202  0.89792317  0.00000000  1
  Al  Al10  1  0.83549798  0.10207683  0.00000000  1
  Al  Al11  1  0.83549798  0.89792317  0.00000000  1
  Al  Al12  1  0.33211343  0.39838205  0.50000000  1
  Al  Al13  1  0.50000000  0.33211343  0.39838205  1
  Al  Al14  1  0.39838205  0.50000000  0.33211343  1
  Al  Al15  1  0.60161795  0.50000000  0.33211343  1
  Al  Al16  1  0.50000000  0.66788657  0.60161795  1
  Al  Al17  1  0.60161795  0.50000000  0.66788657  1
  Al  Al18  1  0.50000000  0.66788657  0.39838205  1
  Al  Al19  1  0.50000000  0.33211343  0.60161795  1
  Al  Al20  1  0.39838205  0.50000000  0.66788657  1
  Al  Al21  1  0.33211343  0.60161795  0.50000000  1
  Al  Al22  1  0.66788657  0.39838205  0.50000000  1
  Al  Al23  1  0.66788657  0.60161795  0.50000000  1
  Al  Al24  1  0.36626124  0.00000000  0.00000000  1
  Al  Al25  1  0.00000000  0.36626124  0.00000000  1
  Al  Al26  1  0.00000000  0.00000000  0.36626124  1
  Al  Al27  1  0.00000000  0.63373876  0.00000000  1
  Al  Al28  1  0.00000000  0.00000000  0.63373876  1
  Al  Al29  1  0.63373876  0.00000000  0.00000000  1
  Al  Al30  1  0.11118021  0.50000000  0.50000000  1
  Al  Al31  1  0.50000000  0.11118021  0.50000000  1
  Al  Al32  1  0.50000000  0.50000000  0.11118021  1
  Al  Al33  1  0.50000000  0.88881979  0.50000000  1
  Al  Al34  1  0.50000000  0.50000000  0.88881979  1
  Al  Al35  1  0.88881979  0.50000000  0.50000000  1
  Al  Al36  1  0.12054802  0.18675258  0.30438713  1
  Al  Al37  1  0.30438713  0.12054802  0.18675258  1
  Al  Al38  1  0.18675258  0.30438713  0.12054802  1
  Al  Al39  1  0.81324742  0.69561287  0.12054802  1
  Al  Al40  1  0.30438713  0.87945198  0.81324742  1
  Al  Al41  1  0.81324742  0.30438713  0.87945198  1
  Al  Al42  1  0.69561287  0.87945198  0.18675258  1
  Al  Al43  1  0.69561287  0.12054802  0.81324742  1
  Al  Al44  1  0.18675258  0.69561287  0.87945198  1
  Al  Al45  1  0.12054802  0.81324742  0.69561287  1
  Al  Al46  1  0.87945198  0.18675258  0.69561287  1
  Al  Al47  1  0.87945198  0.81324742  0.30438713  1
  Al  Al48  1  0.87945198  0.81324742  0.69561287  1
  Al  Al49  1  0.69561287  0.87945198  0.81324742  1
  Al  Al50  1  0.81324742  0.69561287  0.87945198  1
  Al  Al51  1  0.18675258  0.30438713  0.87945198  1
  Al  Al52  1  0.69561287  0.12054802  0.18675258  1
  Al  Al53  1  0.18675258  0.69561287  0.12054802  1
  Al  Al54  1  0.30438713  0.12054802  0.81324742  1
  Al  Al55  1  0.30438713  0.87945198  0.18675258  1
  Al  Al56  1  0.81324742  0.30438713  0.12054802  1
  Al  Al57  1  0.87945198  0.18675258  0.30438713  1
  Al  Al58  1  0.12054802  0.81324742  0.30438713  1
  Al  Al59  1  0.12054802  0.18675258  0.69561287  1
  Al  Al60  1  0.39118526  0.31395220  0.19199483  1
  Al  Al61  1  0.19199483  0.39118526  0.31395220  1
  Al  Al62  1  0.31395220  0.19199483  0.39118526  1
  Al  Al63  1  0.68604780  0.80800517  0.39118526  1
  Al  Al64  1  0.19199483  0.60881474  0.68604780  1
  Al  Al65  1  0.68604780  0.19199483  0.60881474  1
  Al  Al66  1  0.80800517  0.60881474  0.31395220  1
  Al  Al67  1  0.80800517  0.39118526  0.68604780  1
  Al  Al68  1  0.31395220  0.80800517  0.60881474  1
  Al  Al69  1  0.39118526  0.68604780  0.80800517  1
  Al  Al70  1  0.60881474  0.31395220  0.80800517  1
  Al  Al71  1  0.60881474  0.68604780  0.19199483  1
  Al  Al72  1  0.60881474  0.68604780  0.80800517  1
  Al  Al73  1  0.80800517  0.60881474  0.68604780  1
  Al  Al74  1  0.68604780  0.80800517  0.60881474  1
  Al  Al75  1  0.31395220  0.19199483  0.60881474  1
  Al  Al76  1  0.80800517  0.39118526  0.31395220  1
  Al  Al77  1  0.31395220  0.80800517  0.39118526  1
  Al  Al78  1  0.19199483  0.39118526  0.68604780  1
  Al  Al79  1  0.19199483  0.60881474  0.31395220  1
  Al  Al80  1  0.68604780  0.19199483  0.39118526  1
  Al  Al81  1  0.60881474  0.31395220  0.19199483  1
  Al  Al82  1  0.39118526  0.68604780  0.19199483  1
  Al  Al83  1  0.39118526  0.31395220  0.80800517  1
  Al  Al84  1  0.87129552  0.89541999  0.50000000  1
  Al  Al85  1  0.87129552  0.10458001  0.50000000  1
  Al  Al86  1  0.12870448  0.89541999  0.50000000  1
  Al  Al87  1  0.10458001  0.50000000  0.87129552  1
  Al  Al88  1  0.50000000  0.12870448  0.89541999  1
  Al  Al89  1  0.50000000  0.87129552  0.10458001  1
  Al  Al90  1  0.89541999  0.50000000  0.87129552  1
  Al  Al91  1  0.50000000  0.87129552  0.89541999  1
  Al  Al92  1  0.89541999  0.50000000  0.12870448  1
  Al  Al93  1  0.10458001  0.50000000  0.12870448  1
  Al  Al94  1  0.50000000  0.12870448  0.10458001  1
  Al  Al95  1  0.12870448  0.10458001  0.50000000  1
  Al  Al96  1  0.68731612  0.00000000  0.50000000  1
  Al  Al97  1  0.00000000  0.50000000  0.68731612  1
  Al  Al98  1  0.50000000  0.68731612  0.00000000  1
  Al  Al99  1  0.00000000  0.50000000  0.31268388  1
  Al  Al100  1  0.50000000  0.31268388  0.00000000  1
  Al  Al101  1  0.31268388  0.00000000  0.50000000  1
  Si  Si102  1  0.00000000  0.68102804  0.40267942  1
  Si  Si103  1  0.68102804  0.59732058  0.00000000  1
  Si  Si104  1  0.68102804  0.40267942  0.00000000  1
  Si  Si105  1  0.31897196  0.59732058  0.00000000  1
  Si  Si106  1  0.40267942  0.00000000  0.68102804  1
  Si  Si107  1  0.00000000  0.31897196  0.59732058  1
  Si  Si108  1  0.59732058  0.00000000  0.68102804  1
  Si  Si109  1  0.00000000  0.68102804  0.59732058  1
  Si  Si110  1  0.59732058  0.00000000  0.31897196  1
  Si  Si111  1  0.40267942  0.00000000  0.31897196  1
  Si  Si112  1  0.00000000  0.31897196  0.40267942  1
  Si  Si113  1  0.31897196  0.40267942  0.00000000  1
  Re  Re114  1  0.16550997  0.29963877  0.50000000  1
  Re  Re115  1  0.50000000  0.16550997  0.29963877  1
  Re  Re116  1  0.29963877  0.50000000  0.16550997  1
  Re  Re117  1  0.70036123  0.50000000  0.16550997  1
  Re  Re118  1  0.50000000  0.83449003  0.70036123  1
  Re  Re119  1  0.70036123  0.50000000  0.83449003  1
  Re  Re120  1  0.50000000  0.83449003  0.29963877  1
  Re  Re121  1  0.83449003  0.70036123  0.50000000  1
  Re  Re122  1  0.83449003  0.29963877  0.50000000  1
  Re  Re123  1  0.16550997  0.70036123  0.50000000  1
  Re  Re124  1  0.29963877  0.50000000  0.83449003  1
  Re  Re125  1  0.50000000  0.16550997  0.70036123  1
  Re  Re126  1  0.67355735  0.79140820  0.00000000  1
  Re  Re127  1  0.67355735  0.20859180  0.00000000  1
  Re  Re128  1  0.32644265  0.79140820  0.00000000  1
  Re  Re129  1  0.20859180  0.00000000  0.67355735  1
  Re  Re130  1  0.00000000  0.32644265  0.79140820  1
  Re  Re131  1  0.00000000  0.67355735  0.20859180  1
  Re  Re132  1  0.79140820  0.00000000  0.67355735  1
  Re  Re133  1  0.00000000  0.67355735  0.79140820  1
  Re  Re134  1  0.79140820  0.00000000  0.32644265  1
  Re  Re135  1  0.20859180  0.00000000  0.32644265  1
  Re  Re136  1  0.00000000  0.32644265  0.20859180  1
  Re  Re137  1  0.32644265  0.20859180  0.00000000  1
