# generated using pymatgen
data_LiCoO2
_symmetry_space_group_name_H-M   'P 1'
_cell_length_a   5.91027976
_cell_length_b   5.90306157
_cell_length_c   5.88081396
_cell_angle_alpha   120.30222927
_cell_angle_beta   90.46359898
_cell_angle_gamma   59.53212759
_symmetry_Int_Tables_number   1
_chemical_formula_structural   LiCoO2
_chemical_formula_sum   'Li4 Co4 O8'
_cell_volume   143.97145767
_cell_formula_units_Z   4
loop_
 _symmetry_equiv_pos_site_id
 _symmetry_equiv_pos_as_xyz
  1  'x, y, z'
loop_
 _atom_site_type_symbol
 _atom_site_label
 _atom_site_symmetry_multiplicity
 _atom_site_fract_x
 _atom_site_fract_y
 _atom_site_fract_z
 _atom_site_occupancy
  Li  Li0  1  0.50001652  0.00000329  0.99998794  1
  Li  Li1  1  0.50001570  0.49999045  0.49997346  1
  Li  Li2  1  0.00002259  0.99999017  0.99998118  1
  Li  Li3  1  0.50001017  0.50000300  0.99998126  1
  Co  Co4  1  0.00001149  0.49999690  0.99998667  1
  Co  Co5  1  0.00001061  0.49999842  0.49998661  1
  Co  Co6  1  0.50001068  0.99999613  0.49998560  1
  Co  Co7  1  0.00000924  -0.00000204  0.49998597  1
  O  O8  1  0.75800066  0.98845049  0.25771554  1
  O  O9  1  0.75173439  0.51692966  0.26499808  1
  O  O10  1  0.23083502  0.51353217  0.25704269  1
  O  O11  1  0.75474917  0.99287376  0.73638241  1
  O  O12  1  0.24527154  0.00712129  0.26358989  1
  O  O13  1  0.76918603  0.48646363  0.74293044  1
  O  O14  1  0.24828841  0.48306296  0.73497419  1
  O  O15  1  0.24202079  0.01154273  0.74225707  1
