# generated using pymatgen
data_LiCoPO4
_symmetry_space_group_name_H-M   'P 1'
_cell_length_a   10.31812400
_cell_length_b   5.97505293
_cell_length_c   4.75715776
_cell_angle_alpha   90.00000000
_cell_angle_beta   90.00000000
_cell_angle_gamma   90.00000000
_symmetry_Int_Tables_number   1
_chemical_formula_structural   LiCoPO4
_chemical_formula_sum   'Li4 Co4 P4 O16'
_cell_volume   293.28513641
_cell_formula_units_Z   4
loop_
 _symmetry_equiv_pos_site_id
 _symmetry_equiv_pos_as_xyz
  1  'x, y, z'
loop_
 _atom_site_type_symbol
 _atom_site_label
 _atom_site_symmetry_multiplicity
 _atom_site_fract_x
 _atom_site_fract_y
 _atom_site_fract_z
 _atom_site_occupancy
  Li  Li0  1  0.00000000  0.00000000  0.00000000  1
  Li  Li1  1  0.50000000  0.50000000  0.50000000  1
  Li  Li2  1  0.50000000  0.00000000  0.50000000  1
  Li  Li3  1  0.00000000  0.50000000  0.00000000  1
  O  O4  1  0.40138858  0.75000000  0.24396728  1
  O  O5  1  0.83241706  0.54437209  0.71601655  1
  O  O6  1  0.83241706  0.95562791  0.71601655  1
  O  O7  1  0.90138858  0.75000000  0.25603272  1
  O  O8  1  0.04343680  0.75000000  0.70262911  1
  O  O9  1  0.09861142  0.25000000  0.74396728  1
  O  O10  1  0.16758294  0.04437209  0.28398345  1
  O  O11  1  0.66758294  0.45562791  0.21601655  1
  O  O12  1  0.33241706  0.54437209  0.78398345  1
  O  O13  1  0.33241706  0.95562791  0.78398345  1
  O  O14  1  0.16758294  0.45562791  0.28398345  1
  O  O15  1  0.45656320  0.25000000  0.20262911  1
  O  O16  1  0.54343680  0.75000000  0.79737089  1
  O  O17  1  0.59861142  0.25000000  0.75603272  1
  O  O18  1  0.66758294  0.04437209  0.21601655  1
  O  O19  1  0.95656320  0.25000000  0.29737089  1
  P  P20  1  0.09607247  0.25000000  0.42143958  1
  P  P21  1  0.40392753  0.75000000  0.92143958  1
  P  P22  1  0.59607247  0.25000000  0.07856042  1
  P  P23  1  0.90392753  0.75000000  0.57856042  1
  Co  Co24  1  0.78082446  0.25000000  0.51455767  1
  Co  Co25  1  0.71917554  0.75000000  0.01455767  1
  Co  Co26  1  0.28082446  0.25000000  0.98544233  1
  Co  Co27  1  0.21917554  0.75000000  0.48544233  1
