# generated using pymatgen
data_Nb9PO25
_symmetry_space_group_name_H-M   'P 1'
_cell_length_a   3.87765680
_cell_length_b   11.42724171
_cell_length_c   11.42724171
_cell_angle_alpha   88.35040038
_cell_angle_beta   80.23152863
_cell_angle_gamma   80.23152854
_symmetry_Int_Tables_number   1
_chemical_formula_structural   Nb9PO25
_chemical_formula_sum   'Nb9 P1 O25'
_cell_volume   491.77528413
_cell_formula_units_Z   1
loop_
 _symmetry_equiv_pos_site_id
 _symmetry_equiv_pos_as_xyz
  1  'x, y, z'
loop_
 _atom_site_type_symbol
 _atom_site_label
 _atom_site_symmetry_multiplicity
 _atom_site_fract_x
 _atom_site_fract_y
 _atom_site_fract_z
 _atom_site_occupancy
  O  O0  1  0.14533264  0.48938573  0.19984240  1
  O  O1  1  0.65482497  0.19984240  0.51061427  1
  O  O2  1  0.36528163  0.80015760  0.48938573  1
  O  O3  1  0.83456076  0.51061427  0.80015760  1
  O  O4  1  0.96953171  0.61492716  0.51077113  1
  O  O5  1  0.51969716  0.51077113  0.38507284  1
  O  O6  1  0.41554112  0.48922887  0.61492716  1
  O  O7  1  0.09523001  0.38507284  0.48922887  1
  O  O8  1  0.97673310  0.73215559  0.29002421  1
  O  O9  1  0.73324268  0.29002421  0.26784441  1
  O  O10  1  0.50000000  0.00000000  0.00000000  1
  O  O11  1  0.25793161  0.13907508  0.36478010  1
  O  O12  1  0.37728829  0.36478010  0.86092492  1
  O  O13  1  0.60299331  0.63521990  0.13907508  1
  O  O14  1  0.76178679  0.86092492  0.63521990  1
  O  O15  1  0.11773731  0.93810323  0.83086452  1
  O  O16  1  0.05139817  0.83086452  0.06189677  1
  O  O17  1  0.94415946  0.16913548  0.93810323  1
  O  O18  1  0.88670506  0.06189677  0.16913548  1
  O  O19  1  0.19356331  0.04510082  0.60542588  1
  O  O20  1  0.20101081  0.60542588  0.95489918  1
  O  O21  1  0.76133586  0.39457412  0.04510082  1
  O  O22  1  0.84409001  0.95489918  0.39457412  1
  O  O23  1  0.99891291  0.26784441  0.70997579  1
  O  O24  1  0.29111131  0.70997579  0.73215559  1
  P  P25  1  0.25000000  0.50000000  0.50000000  1
  Nb  Nb26  1  0.67542243  0.44192536  0.21634283  1
  Nb  Nb27  1  0.33369061  0.55807464  0.78365717  1
  Nb  Nb28  1  0.10823475  0.21634283  0.55807464  1
  Nb  Nb29  1  0.78963425  0.10804880  0.32735289  1
  Nb  Nb30  1  0.88301287  0.32735289  0.89195120  1
  Nb  Nb31  1  0.10231695  0.67264711  0.10804880  1
  Nb  Nb32  1  0.22503593  0.89195120  0.67264711  1
  Nb  Nb33  1  0.00000000  0.00000000  0.00000000  1
  Nb  Nb34  1  0.88265221  0.78365717  0.44192536  1
