# generated using pymatgen
data_Al4Co(BO5)2
_symmetry_space_group_name_H-M   'P 1'
_cell_length_a   4.39909960
_cell_length_b   7.26860435
_cell_length_c   9.61798209
_cell_angle_alpha   108.43613975
_cell_angle_beta   90.00000000
_cell_angle_gamma   90.00000000
_symmetry_Int_Tables_number   1
_chemical_formula_structural   Al4Co(BO5)2
_chemical_formula_sum   'Al8 Co2 B4 O20'
_cell_volume   291.75414444
_cell_formula_units_Z   2
loop_
 _symmetry_equiv_pos_site_id
 _symmetry_equiv_pos_as_xyz
  1  'x, y, z'
loop_
 _atom_site_type_symbol
 _atom_site_label
 _atom_site_symmetry_multiplicity
 _atom_site_fract_x
 _atom_site_fract_y
 _atom_site_fract_z
 _atom_site_occupancy
  Al  Al0  1  0.52158147  0.70322218  0.33191865  1
  Al  Al1  1  0.47841853  0.29677782  0.66808135  1
  Al  Al2  1  0.00561714  0.07489921  0.39132848  1
  Al  Al3  1  0.99438286  0.92510079  0.60867152  1
  Al  Al4  1  0.50561714  0.92510079  0.10867152  1
  Al  Al5  1  0.49438286  0.07489921  0.89132848  1
  Al  Al6  1  0.02158147  0.29677782  0.16808135  1
  Al  Al7  1  0.97841853  0.70322218  0.83191865  1
  Co  Co8  1  0.00000000  0.50000000  0.50000000  1
  Co  Co9  1  0.50000000  0.50000000  0.00000000  1
  B  B10  1  0.57122161  0.29113096  0.35125603  1
  B  B11  1  0.42877839  0.70886904  0.64874397  1
  B  B12  1  0.92877839  0.29113096  0.85125603  1
  B  B13  1  0.07122161  0.70886904  0.14874397  1
  O  O14  1  0.74186973  0.71889378  0.15565808  1
  O  O15  1  0.70856939  0.45868351  0.31501360  1
  O  O16  1  0.75813027  0.71889378  0.65565808  1
  O  O17  1  0.78466225  0.88728208  0.43864139  1
  O  O18  1  0.69898891  0.28822755  0.49562278  1
  O  O19  1  0.79143061  0.45868351  0.81501360  1
  O  O20  1  0.21533775  0.11271792  0.56135861  1
  O  O21  1  0.25813027  0.28110622  0.84434192  1
  O  O22  1  0.28466225  0.11271792  0.06135861  1
  O  O23  1  0.71533775  0.88728208  0.93864139  1
  O  O24  1  0.29143061  0.54131649  0.68498640  1
  O  O25  1  0.19898891  0.71177245  0.00437722  1
  O  O26  1  0.75745720  0.12081151  0.74305006  1
  O  O27  1  0.24186973  0.28110622  0.34434192  1
  O  O28  1  0.20856939  0.54131649  0.18498640  1
  O  O29  1  0.80101109  0.28822755  0.99562278  1
  O  O30  1  0.25745720  0.87918849  0.75694994  1
  O  O31  1  0.74254280  0.12081151  0.24305006  1
  O  O32  1  0.30101109  0.71177245  0.50437722  1
  O  O33  1  0.24254280  0.87918849  0.25694994  1
