# generated using pymatgen
data_CsTiP2O7
_symmetry_space_group_name_H-M   'P 1'
_cell_length_a   7.87491962
_cell_length_b   8.44939552
_cell_length_c   10.40297446
_cell_angle_alpha   90.00000000
_cell_angle_beta   90.00000000
_cell_angle_gamma   104.98185279
_symmetry_Int_Tables_number   1
_chemical_formula_structural   CsTiP2O7
_chemical_formula_sum   'Cs4 Ti4 P8 O28'
_cell_volume   668.66703635
_cell_formula_units_Z   4
loop_
 _symmetry_equiv_pos_site_id
 _symmetry_equiv_pos_as_xyz
  1  'x, y, z'
loop_
 _atom_site_type_symbol
 _atom_site_label
 _atom_site_symmetry_multiplicity
 _atom_site_fract_x
 _atom_site_fract_y
 _atom_site_fract_z
 _atom_site_occupancy
  O  O0  1  0.39283499  0.27298838  0.56794414  1
  O  O1  1  0.60716501  0.22701162  0.06794414  1
  O  O2  1  0.60716501  0.72701162  0.43205586  1
  O  O3  1  0.39283499  0.77298838  0.93205586  1
  O  O4  1  0.56570543  0.27069740  0.77071939  1
  O  O5  1  0.43429457  0.22930260  0.27071939  1
  O  O6  1  0.43429457  0.72930260  0.22928061  1
  O  O7  1  0.56570543  0.77069740  0.72928061  1
  O  O8  1  0.67728582  0.49695221  0.60434514  1
  O  O9  1  0.32271418  0.00304779  0.10434514  1
  O  O10  1  0.32271418  0.50304779  0.39565486  1
  O  O11  1  0.67728582  0.99695221  0.89565486  1
  O  O12  1  0.68607756  0.20765570  0.55217166  1
  O  O13  1  0.31392244  0.29234430  0.05217166  1
  O  O14  1  0.31392244  0.79234430  0.44782834  1
  O  O15  1  0.68607756  0.70765570  0.94782834  1
  O  O16  1  0.98961830  0.73696268  0.49602952  1
  O  O17  1  0.01038170  0.76303732  0.99602952  1
  O  O18  1  0.01038170  0.26303732  0.50397048  1
  O  O19  1  0.98961830  0.23696268  0.00397048  1
  O  O20  1  0.90915569  0.73112750  0.76495528  1
  O  O21  1  0.09084431  0.76887250  0.26495528  1
  O  O22  1  0.09084431  0.26887250  0.23504472  1
  O  O23  1  0.90915569  0.23112750  0.73504472  1
  O  O24  1  0.83900306  0.98383577  0.58636576  1
  O  O25  1  0.16099694  0.51616423  0.08636576  1
  O  O26  1  0.16099694  0.01616423  0.41363424  1
  O  O27  1  0.83900306  0.48383577  0.91363424  1
  P  P28  1  0.57519007  0.31833394  0.62821612  1
  P  P29  1  0.42480993  0.18166606  0.12821612  1
  P  P30  1  0.42480993  0.68166606  0.37178388  1
  P  P31  1  0.57519007  0.81833394  0.87178388  1
  P  P32  1  0.86999968  0.16934788  0.59658969  1
  P  P33  1  0.13000032  0.33065212  0.09658969  1
  P  P34  1  0.13000032  0.83065212  0.40341031  1
  P  P35  1  0.86999968  0.66934788  0.90341031  1
  Ti  Ti36  1  0.75959132  0.24220569  0.89768253  1
  Ti  Ti37  1  0.24040868  0.25779431  0.39768253  1
  Ti  Ti38  1  0.24040868  0.75779431  0.10231747  1
  Ti  Ti39  1  0.75959132  0.74220569  0.60231747  1
  Cs  Cs40  1  0.80072646  0.45362927  0.30211942  1
  Cs  Cs41  1  0.19927354  0.04637073  0.80211942  1
  Cs  Cs42  1  0.19927354  0.54637073  0.69788058  1
  Cs  Cs43  1  0.80072646  0.95362927  0.19788058  1
