# generated using pymatgen
data_Sr2SmTa(CuO4)2
_symmetry_space_group_name_H-M   'P 1'
_cell_length_a   3.93868078
_cell_length_b   3.93868078
_cell_length_c   11.76544767
_cell_angle_alpha   90.00000000
_cell_angle_beta   90.00000000
_cell_angle_gamma   90.00000000
_symmetry_Int_Tables_number   1
_chemical_formula_structural   Sr2SmTa(CuO4)2
_chemical_formula_sum   'Sr2 Sm1 Ta1 Cu2 O8'
_cell_volume   182.51981676
_cell_formula_units_Z   1
loop_
 _symmetry_equiv_pos_site_id
 _symmetry_equiv_pos_as_xyz
  1  'x, y, z'
loop_
 _atom_site_type_symbol
 _atom_site_label
 _atom_site_symmetry_multiplicity
 _atom_site_fract_x
 _atom_site_fract_y
 _atom_site_fract_z
 _atom_site_occupancy
  O  O0  1  0.50000000  0.00000000  0.62798482  1
  O  O1  1  0.00000000  0.50000000  0.62798482  1
  O  O2  1  0.50000000  0.00000000  0.37201518  1
  O  O3  1  0.00000000  0.50000000  0.37201518  1
  O  O4  1  0.00000000  0.50000000  0.00000000  1
  O  O5  1  0.50000000  0.00000000  0.00000000  1
  O  O6  1  0.00000000  0.00000000  0.16857800  1
  O  O7  1  0.00000000  0.00000000  0.83142200  1
  Cu  Cu8  1  0.00000000  0.00000000  0.64027494  1
  Cu  Cu9  1  0.00000000  0.00000000  0.35972506  1
  Sr  Sr10  1  0.50000000  0.50000000  0.79939160  1
  Sr  Sr11  1  0.50000000  0.50000000  0.20060840  1
  Sm  Sm12  1  0.50000000  0.50000000  0.50000000  1
  Ta  Ta13  1  0.00000000  0.00000000  0.00000000  1
