# generated using pymatgen
data_Sm2(InCo3)3
_symmetry_space_group_name_H-M   'P 1'
_cell_length_a   4.06682567
_cell_length_b   4.91520124
_cell_length_c   11.52359687
_cell_angle_alpha   102.31798902
_cell_angle_beta   90.02523479
_cell_angle_gamma   89.99191710
_symmetry_Int_Tables_number   1
_chemical_formula_structural   Sm2(InCo3)3
_chemical_formula_sum   'Sm2 In3 Co9'
_cell_volume   225.04529783
_cell_formula_units_Z   1
loop_
 _symmetry_equiv_pos_site_id
 _symmetry_equiv_pos_as_xyz
  1  'x, y, z'
loop_
 _atom_site_type_symbol
 _atom_site_label
 _atom_site_symmetry_multiplicity
 _atom_site_fract_x
 _atom_site_fract_y
 _atom_site_fract_z
 _atom_site_occupancy
  Sm  Sm0  1  0.99776714  0.32381690  0.63996218  1
  Sm  Sm1  1  0.99766881  0.68176638  0.35930430  1
  In  In2  1  0.49815410  0.20357720  0.40275515  1
  In  In3  1  0.49765397  0.80218290  0.59657391  1
  In  In4  1  0.99991477  0.99936772  0.99937752  1
  Co  Co5  1  0.99852141  0.11565625  0.22891003  1
  Co  Co6  1  0.49853045  0.84475525  0.18283824  1
  Co  Co7  1  0.99815502  0.88802322  0.76971312  1
  Co  Co8  1  0.49833303  0.66247566  0.81694432  1
  Co  Co9  1  0.99855379  0.44502452  0.88602665  1
  Co  Co10  1  0.49880161  0.49365700  0.99970390  1
  Co  Co11  1  0.99883649  0.55784408  0.11293627  1
  Co  Co12  1  0.49871590  0.34046009  0.18266479  1
  Co  Co13  1  0.49846950  0.15740283  0.81699163  1
