# generated using pymatgen
data_BaYCo4O7
_symmetry_space_group_name_H-M   'P 1'
_cell_length_a   6.39693974
_cell_length_b   6.39693974
_cell_length_c   10.42515148
_cell_angle_alpha   90.00000000
_cell_angle_beta   90.00000000
_cell_angle_gamma   120.00000001
_symmetry_Int_Tables_number   1
_chemical_formula_structural   BaYCo4O7
_chemical_formula_sum   'Ba2 Y2 Co8 O14'
_cell_volume   369.45157722
_cell_formula_units_Z   2
loop_
 _symmetry_equiv_pos_site_id
 _symmetry_equiv_pos_as_xyz
  1  'x, y, z'
loop_
 _atom_site_type_symbol
 _atom_site_label
 _atom_site_symmetry_multiplicity
 _atom_site_fract_x
 _atom_site_fract_y
 _atom_site_fract_z
 _atom_site_occupancy
  O  O0  1  0.83299549  0.16700586  0.00626901  1
  O  O1  1  0.66598882  0.83299400  0.50626846  1
  O  O2  1  0.16700495  0.33400990  0.50626846  1
  O  O3  1  0.83299574  0.66598997  0.00626901  1
  O  O4  1  0.33401029  0.16700586  0.00626901  1
  O  O5  1  0.16700519  0.83299400  0.50626846  1
  O  O6  1  0.00000000  0.00000000  0.74749435  1
  O  O7  1  0.00000000  0.00000000  0.24749490  1
  O  O8  1  0.50875091  0.49125071  0.26247784  1
  O  O9  1  0.01750029  0.50875098  0.76247826  1
  O  O10  1  0.49124980  0.98249960  0.76247826  1
  O  O11  1  0.50875089  0.01750027  0.26247784  1
  O  O12  1  0.49125068  0.50875098  0.76247826  1
  O  O13  1  0.98249972  0.49125071  0.26247784  1
  Co  Co14  1  0.83073766  0.16926312  0.19037249  1
  Co  Co15  1  0.66147371  0.83073674  0.69037291  1
  Co  Co16  1  0.16926312  0.33852624  0.69037291  1
  Co  Co17  1  0.83073756  0.66147362  0.19037249  1
  Co  Co18  1  0.33852539  0.16926312  0.19037249  1
  Co  Co19  1  0.16926303  0.83073674  0.69037291  1
  Co  Co20  1  0.00000000  0.00000000  0.44550545  1
  Co  Co21  1  0.00000000  0.00000000  0.94550490  1
  Y  Y22  1  0.66666740  0.33333329  0.87994590  1
  Y  Y23  1  0.33333329  0.66666658  0.37994645  1
  Ba  Ba24  1  0.66666740  0.33333329  0.48369585  1
  Ba  Ba25  1  0.33333329  0.66666658  0.98369628  1
