# generated using pymatgen
data_VAgHgO4
_symmetry_space_group_name_H-M   'P 1'
_cell_length_a   5.58377517
_cell_length_b   5.98797199
_cell_length_c   7.25409111
_cell_angle_alpha   98.01948525
_cell_angle_beta   90.00000000
_cell_angle_gamma   117.79110278
_symmetry_Int_Tables_number   1
_chemical_formula_structural   VAgHgO4
_chemical_formula_sum   'V2 Ag2 Hg2 O8'
_cell_volume   211.88257833
_cell_formula_units_Z   2
loop_
 _symmetry_equiv_pos_site_id
 _symmetry_equiv_pos_as_xyz
  1  'x, y, z'
loop_
 _atom_site_type_symbol
 _atom_site_label
 _atom_site_symmetry_multiplicity
 _atom_site_fract_x
 _atom_site_fract_y
 _atom_site_fract_z
 _atom_site_occupancy
  O  O0  1  0.21997328  0.73252545  0.97499113  1
  O  O1  1  0.48744784  0.26747455  0.02500887  1
  O  O2  1  0.50118714  0.23741590  0.40776003  1
  O  O3  1  0.26377124  0.76258410  0.59223997  1
  O  O4  1  0.08565928  0.27822301  0.73240838  1
  O  O5  1  0.80743627  0.72177699  0.26759162  1
  O  O6  1  0.95071768  0.28577968  0.21189053  1
  O  O7  1  0.66493800  0.71422032  0.78810947  1
  V  V8  1  0.31664037  0.62641914  0.76994759  1
  V  V9  1  0.69022123  0.37358086  0.23005241  1
  Ag  Ag10  1  0.35188406  0.72392271  0.27854249  1
  Ag  Ag11  1  0.62796134  0.27607729  0.72145751  1
  Hg  Hg12  1  0.00889151  0.00000000  0.00000000  1
  Hg  Hg13  1  0.97287076  0.00000000  0.50000000  1
