# generated using pymatgen
data_Sc(US2)3
_symmetry_space_group_name_H-M   'P 1'
_cell_length_a   3.77679719
_cell_length_b   13.33947153
_cell_length_c   16.31977440
_cell_angle_alpha   90.00000000
_cell_angle_beta   90.00000000
_cell_angle_gamma   90.00000000
_symmetry_Int_Tables_number   1
_chemical_formula_structural   Sc(US2)3
_chemical_formula_sum   'Sc4 U12 S24'
_cell_volume   822.19804476
_cell_formula_units_Z   4
loop_
 _symmetry_equiv_pos_site_id
 _symmetry_equiv_pos_as_xyz
  1  'x, y, z'
loop_
 _atom_site_type_symbol
 _atom_site_label
 _atom_site_symmetry_multiplicity
 _atom_site_fract_x
 _atom_site_fract_y
 _atom_site_fract_z
 _atom_site_occupancy
  Sc  Sc0  1  0.50000000  0.00000000  0.50000000  1
  Sc  Sc1  1  -0.00000000  0.50000000  0.50000000  1
  Sc  Sc2  1  0.50000000  0.00000000  -0.00000000  1
  Sc  Sc3  1  -0.00000000  0.50000000  -0.00000000  1
  U  U4  1  0.50000000  0.44945631  0.71680327  1
  U  U5  1  -0.00000000  0.17947605  0.65131062  1
  U  U6  1  0.50000000  0.74973309  0.09863833  1
  U  U7  1  0.00000000  0.24973309  0.40136167  1
  U  U8  1  -0.00000000  0.82052395  0.34868938  1
  U  U9  1  -0.00000000  0.05054369  0.21680327  1
  U  U10  1  0.50000000  0.55054369  0.28319673  1
  U  U11  1  0.50000000  0.32052395  0.15131062  1
  U  U12  1  0.50000000  0.25026691  0.90136167  1
  U  U13  1  -0.00000000  0.94945631  0.78319673  1
  U  U14  1  0.50000000  0.67947605  0.84868938  1
  U  U15  1  -0.00000000  0.75026691  0.59863833  1
  S  S16  1  0.00000000  0.62602335  0.39082311  1
  S  S17  1  0.00000000  0.90776927  0.07857592  1
  S  S18  1  0.50000000  0.12602335  0.10917689  1
  S  S19  1  0.50000000  0.47549947  0.89383349  1
  S  S20  1  0.00000000  0.31034567  0.02444098  1
  S  S21  1  -0.00000000  0.37397665  0.60917689  1
  S  S22  1  0.00000000  0.97549947  0.60616651  1
  S  S23  1  0.50000000  0.87397665  0.89082311  1
  S  S24  1  0.50000000  0.18965433  0.52444098  1
  S  S25  1  -0.00000000  0.68566394  0.21135278  1
  S  S26  1  0.50000000  0.40776927  0.42142408  1
  S  S27  1  0.00000000  0.09223073  0.92142408  1
  S  S28  1  -0.00000000  0.02450053  0.39383349  1
  S  S29  1  0.50000000  0.09990811  0.75364277  1
  S  S30  1  0.50000000  0.18566394  0.28864722  1
  S  S31  1  0.00000000  0.31433606  0.78864722  1
  S  S32  1  0.50000000  0.59223073  0.57857592  1
  S  S33  1  0.50000000  0.81034567  0.47555902  1
  S  S34  1  0.50000000  0.52450053  0.10616651  1
  S  S35  1  0.50000000  0.81433606  0.71135278  1
  S  S36  1  0.00000000  0.59990811  0.74635723  1
  S  S37  1  -0.00000000  0.68965433  0.97555902  1
  S  S38  1  0.00000000  0.40009189  0.25364277  1
  S  S39  1  0.50000000  0.90009189  0.24635723  1
