# generated using pymatgen
data_UH12(ClO2)3
_symmetry_space_group_name_H-M   'P 1'
_cell_length_a   6.68909471
_cell_length_b   8.04609752
_cell_length_c   9.79008428
_cell_angle_alpha   93.09756421
_cell_angle_beta   90.00000000
_cell_angle_gamma   90.00000000
_symmetry_Int_Tables_number   1
_chemical_formula_structural   UH12(ClO2)3
_chemical_formula_sum   'U2 H24 Cl6 O12'
_cell_volume   526.14335039
_cell_formula_units_Z   2
loop_
 _symmetry_equiv_pos_site_id
 _symmetry_equiv_pos_as_xyz
  1  'x, y, z'
loop_
 _atom_site_type_symbol
 _atom_site_label
 _atom_site_symmetry_multiplicity
 _atom_site_fract_x
 _atom_site_fract_y
 _atom_site_fract_z
 _atom_site_occupancy
  H  H0  1  0.74461714  0.48993024  0.96749149  1
  H  H1  1  0.74461714  0.01006976  0.53250851  1
  H  H2  1  0.25538286  0.51006976  0.03250851  1
  H  H3  1  0.25538286  0.98993024  0.46749149  1
  H  H4  1  0.66728754  0.65845729  0.03626679  1
  H  H5  1  0.66728754  0.84154271  0.46373321  1
  H  H6  1  0.33271246  0.34154271  0.96373321  1
  H  H7  1  0.33271246  0.15845729  0.53626679  1
  H  H8  1  0.44493942  0.64004693  0.61377650  1
  H  H9  1  0.44493942  0.85995307  0.88622350  1
  H  H10  1  0.55506058  0.35995307  0.38622350  1
  H  H11  1  0.55506058  0.14004693  0.11377650  1
  H  H12  1  0.52083833  0.47839792  0.68196215  1
  H  H13  1  0.52083833  0.02160208  0.81803785  1
  H  H14  1  0.47916167  0.52160208  0.31803785  1
  H  H15  1  0.47916167  0.97839792  0.18196215  1
  H  H16  1  0.90972657  0.11762627  0.86825215  1
  H  H17  1  0.90972657  0.38237373  0.63174785  1
  H  H18  1  0.09027343  0.88237373  0.13174785  1
  H  H19  1  0.09027343  0.61762627  0.36825215  1
  H  H20  1  0.91273246  0.59564198  0.26333852  1
  H  H21  1  0.91273246  0.90435802  0.23666148  1
  H  H22  1  0.08726754  0.40435802  0.73666148  1
  H  H23  1  0.08726754  0.09564198  0.76333852  1
  O  O24  1  0.70526103  0.60474575  0.94680488  1
  O  O25  1  0.70526103  0.89525425  0.55319512  1
  O  O26  1  0.29473897  0.39525425  0.05319512  1
  O  O27  1  0.29473897  0.10474575  0.44680488  1
  O  O28  1  0.56739512  0.58428613  0.64622228  1
  O  O29  1  0.56739512  0.91571387  0.85377772  1
  O  O30  1  0.43260488  0.41571387  0.35377772  1
  O  O31  1  0.43260488  0.08428613  0.14622228  1
  O  O32  1  0.95538538  0.04990217  0.78625879  1
  O  O33  1  0.95538538  0.45009783  0.71374121  1
  O  O34  1  0.04461462  0.95009783  0.21374121  1
  O  O35  1  0.04461462  0.54990217  0.28625879  1
  Cl  Cl36  1  0.17640033  0.75819737  0.55324717  1
  Cl  Cl37  1  0.17640033  0.74180263  0.94675283  1
  Cl  Cl38  1  0.82359967  0.24180263  0.44675283  1
  Cl  Cl39  1  0.82359967  0.25819737  0.05324717  1
  Cl  Cl40  1  0.63237980  0.75000000  0.25000000  1
  Cl  Cl41  1  0.36762020  0.25000000  0.75000000  1
  U  U42  1  0.84953204  0.75000000  0.75000000  1
  U  U43  1  0.15046796  0.25000000  0.25000000  1
