# generated using pymatgen
data_Sr2In2O5
_symmetry_space_group_name_H-M   'P 1'
_cell_length_a   5.92475611
_cell_length_b   6.14927809
_cell_length_c   9.05744090
_cell_angle_alpha   109.84397888
_cell_angle_beta   109.09077058
_cell_angle_gamma   89.99999998
_symmetry_Int_Tables_number   1
_chemical_formula_structural   Sr2In2O5
_chemical_formula_sum   'Sr4 In4 O10'
_cell_volume   291.02659348
_cell_formula_units_Z   2
loop_
 _symmetry_equiv_pos_site_id
 _symmetry_equiv_pos_as_xyz
  1  'x, y, z'
loop_
 _atom_site_type_symbol
 _atom_site_label
 _atom_site_symmetry_multiplicity
 _atom_site_fract_x
 _atom_site_fract_y
 _atom_site_fract_z
 _atom_site_occupancy
  O  O0  1  0.64924716  0.36734606  0.50000000  1
  O  O1  1  0.14924716  0.63265394  0.50000000  1
  O  O2  1  0.59272299  0.72071194  0.27806338  1
  O  O3  1  0.31465961  0.27928806  0.72193662  1
  O  O4  1  0.09272299  0.05735144  0.27806338  1
  O  O5  1  0.81465961  0.94264856  0.72193662  1
  O  O6  1  0.23780657  0.73882865  0.96500463  1
  O  O7  1  0.27280193  0.26117135  0.03499537  1
  O  O8  1  0.77280193  0.27382401  0.03499537  1
  O  O9  1  0.73780657  0.72617599  0.96500463  1
  Sr  Sr10  1  0.40910664  0.91823780  0.78500259  1
  Sr  Sr11  1  0.62410404  0.08176220  0.21499741  1
  Sr  Sr12  1  0.90910664  0.36676479  0.78500259  1
  Sr  Sr13  1  0.12410404  0.63323521  0.21499741  1
  In  In14  1  0.00153658  0.00000000  0.00000000  1
  In  In15  1  0.50153658  0.50000000  0.00000000  1
  In  In16  1  0.79201449  0.68619574  0.50000000  1
  In  In17  1  0.29201449  0.31380426  0.50000000  1
