# generated using pymatgen
data_TiH8N2F5
_symmetry_space_group_name_H-M   'P 1'
_cell_length_a   6.35276460
_cell_length_b   7.75244875
_cell_length_c   11.45059293
_cell_angle_alpha   90.00000000
_cell_angle_beta   90.00000000
_cell_angle_gamma   90.00000000
_symmetry_Int_Tables_number   1
_chemical_formula_structural   TiH8N2F5
_chemical_formula_sum   'Ti4 H32 N8 F20'
_cell_volume   563.93577019
_cell_formula_units_Z   4
loop_
 _symmetry_equiv_pos_site_id
 _symmetry_equiv_pos_as_xyz
  1  'x, y, z'
loop_
 _atom_site_type_symbol
 _atom_site_label
 _atom_site_symmetry_multiplicity
 _atom_site_fract_x
 _atom_site_fract_y
 _atom_site_fract_z
 _atom_site_occupancy
  H  H0  1  0.90127584  0.64300030  0.38634017  1
  H  H1  1  0.40127584  0.85699970  0.11365983  1
  H  H2  1  0.09872416  0.14300030  0.61365983  1
  H  H3  1  0.59872416  0.35699970  0.88634017  1
  H  H4  1  0.09872416  0.35699970  0.61365983  1
  H  H5  1  0.59872416  0.14300030  0.88634017  1
  H  H6  1  0.90127584  0.85699970  0.38634017  1
  H  H7  1  0.40127584  0.64300030  0.11365983  1
  H  H8  1  0.87291837  0.25000000  0.59017866  1
  H  H9  1  0.37291837  0.25000000  0.90982134  1
  H  H10  1  0.12708163  0.75000000  0.40982134  1
  H  H11  1  0.62708163  0.75000000  0.09017866  1
  H  H12  1  0.97967747  0.25000000  0.72505350  1
  H  H13  1  0.47967747  0.25000000  0.77494650  1
  H  H14  1  0.02032253  0.75000000  0.27494650  1
  H  H15  1  0.92719467  0.75000000  0.63367862  1
  H  H16  1  0.97854339  0.36109731  0.25116888  1
  H  H17  1  0.47854339  0.13890269  0.24883112  1
  H  H18  1  0.02145661  0.86109731  0.74883112  1
  H  H19  1  0.52145661  0.63890269  0.75116888  1
  H  H20  1  0.02145661  0.63890269  0.74883112  1
  H  H21  1  0.52145661  0.86109731  0.75116888  1
  H  H22  1  0.97854339  0.13890269  0.25116888  1
  H  H23  1  0.47854339  0.36109731  0.24883112  1
  H  H24  1  0.18603117  0.75000000  0.65647703  1
  H  H25  1  0.68603117  0.75000000  0.84352297  1
  H  H26  1  0.81396883  0.25000000  0.34352297  1
  H  H27  1  0.31396883  0.25000000  0.15647703  1
  H  H28  1  0.57280533  0.25000000  0.13367862  1
  H  H29  1  0.07280533  0.25000000  0.36632138  1
  H  H30  1  0.42719467  0.75000000  0.86632138  1
  H  H31  1  0.52032253  0.75000000  0.22505350  1
  N  N32  1  0.04214021  0.75000000  0.69791462  1
  N  N33  1  0.54214021  0.75000000  0.80208538  1
  N  N34  1  0.95785979  0.25000000  0.30208538  1
  N  N35  1  0.45785979  0.25000000  0.19791462  1
  N  N36  1  0.01199722  0.25000000  0.63672233  1
  N  N37  1  0.51199722  0.25000000  0.86327767  1
  N  N38  1  0.48800278  0.75000000  0.13672233  1
  N  N39  1  0.98800278  0.75000000  0.36327767  1
  F  F40  1  0.41586306  0.02783858  0.66921464  1
  F  F41  1  0.91586306  0.47216142  0.83078536  1
  F  F42  1  0.58413694  0.52783858  0.33078536  1
  F  F43  1  0.08413694  0.97216142  0.16921464  1
  F  F44  1  0.91586306  0.02783858  0.83078536  1
  F  F45  1  0.41586306  0.47216142  0.66921464  1
  F  F46  1  0.08413694  0.52783858  0.16921464  1
  F  F47  1  0.58413694  0.97216142  0.33078536  1
  F  F48  1  0.11761822  0.25000000  0.01379974  1
  F  F49  1  0.27720729  0.56433813  0.95302940  1
  F  F50  1  0.22279271  0.43566187  0.45302940  1
  F  F51  1  0.72279271  0.06433813  0.04697060  1
  F  F52  1  0.22279271  0.06433813  0.45302940  1
  F  F53  1  0.72279271  0.43566187  0.04697060  1
  F  F54  1  0.77720729  0.56433813  0.54697060  1
  F  F55  1  0.27720729  0.93566187  0.95302940  1
  F  F56  1  0.38238178  0.75000000  0.51379974  1
  F  F57  1  0.88238178  0.75000000  0.98620026  1
  F  F58  1  0.61761822  0.25000000  0.48620026  1
  F  F59  1  0.77720729  0.93566187  0.54697060  1
  Ti  Ti60  1  0.50000000  0.00000000  0.50000000  1
  Ti  Ti61  1  0.00000000  0.50000000  0.00000000  1
  Ti  Ti62  1  0.50000000  0.50000000  0.50000000  1
  Ti  Ti63  1  0.00000000  0.00000000  0.00000000  1
