# generated using pymatgen
data_BiI4
_symmetry_space_group_name_H-M   'P 1'
_cell_length_a   9.22145783
_cell_length_b   8.70694236
_cell_length_c   9.22145747
_cell_angle_alpha   61.82915613
_cell_angle_beta   59.12384783
_cell_angle_gamma   61.82916087
_symmetry_Int_Tables_number   1
_chemical_formula_structural   BiI4
_chemical_formula_sum   'Bi2 I8'
_cell_volume   533.72250092
_cell_formula_units_Z   2
loop_
 _symmetry_equiv_pos_site_id
 _symmetry_equiv_pos_as_xyz
  1  'x, y, z'
loop_
 _atom_site_type_symbol
 _atom_site_label
 _atom_site_symmetry_multiplicity
 _atom_site_fract_x
 _atom_site_fract_y
 _atom_site_fract_z
 _atom_site_occupancy
  Bi  Bi0  1  0.00000000  0.00000000  0.00000000  1
  Bi  Bi1  1  0.00000000  0.50000000  0.00000000  1
  I  I2  1  0.22729259  0.20911200  0.22729259  1
  I  I3  1  0.22729259  0.83630382  0.22729259  1
  I  I4  1  0.21213403  0.28021430  0.72743736  1
  I  I5  1  0.72743736  0.28021430  0.21213403  1
  I  I6  1  0.27256264  0.71978570  0.78786597  1
  I  I7  1  0.77270741  0.16369618  0.77270741  1
  I  I8  1  0.78786597  0.71978570  0.27256264  1
  I  I9  1  0.77270741  0.79088800  0.77270741  1
