# generated using pymatgen
data_VIn2O5
_symmetry_space_group_name_H-M   'P 1'
_cell_length_a   3.56929039
_cell_length_b   7.32687262
_cell_length_c   14.98459887
_cell_angle_alpha   90.00000000
_cell_angle_beta   90.00000000
_cell_angle_gamma   90.00000000
_symmetry_Int_Tables_number   1
_chemical_formula_structural   VIn2O5
_chemical_formula_sum   'V4 In8 O20'
_cell_volume   391.87327418
_cell_formula_units_Z   4
loop_
 _symmetry_equiv_pos_site_id
 _symmetry_equiv_pos_as_xyz
  1  'x, y, z'
loop_
 _atom_site_type_symbol
 _atom_site_label
 _atom_site_symmetry_multiplicity
 _atom_site_fract_x
 _atom_site_fract_y
 _atom_site_fract_z
 _atom_site_occupancy
  O  O0  1  0.24999949  0.43526203  0.95865205  1
  O  O1  1  0.75000135  0.56473735  0.04134783  1
  O  O2  1  0.24999949  0.93526307  0.54134777  1
  O  O3  1  0.75000135  0.06473766  0.45865211  1
  O  O4  1  0.24999949  0.73257665  0.17628173  1
  O  O5  1  0.75000135  0.26742273  0.82371815  1
  O  O6  1  0.24999949  0.23257696  0.32371821  1
  O  O7  1  0.75000135  0.76742242  0.67628166  1
  O  O8  1  0.24999949  0.36952607  0.15148677  1
  O  O9  1  0.75000135  0.63047467  0.84851377  1
  O  O10  1  0.24999949  0.86952576  0.34851317  1
  O  O11  1  0.75000135  0.13047498  0.65148671  1
  O  O12  1  0.75000135  0.05847148  0.17574366  1
  O  O13  1  0.24999949  0.94152926  0.82425621  1
  O  O14  1  0.75000135  0.55847117  0.32425628  1
  O  O15  1  0.24999949  0.44152957  0.67574360  1
  O  O16  1  0.24999949  0.84529954  0.00453655  1
  O  O17  1  0.24999949  0.34529985  0.49546339  1
  O  O18  1  0.75000135  0.15469984  0.99546332  1
  O  O19  1  0.75000135  0.65470089  0.50453649  1
  V  V20  1  0.24999949  0.60447330  0.07482948  1
  V  V21  1  0.75000135  0.39552744  0.92517106  1
  V  V22  1  0.24999949  0.10447361  0.42517046  1
  V  V23  1  0.75000135  0.89552712  0.57482942  1
  In  In24  1  0.24999949  0.60355865  0.41819586  1
  In  In25  1  0.75000135  0.89644042  0.91819580  1
  In  In26  1  0.24999949  0.10355896  0.08180408  1
  In  In27  1  0.75000135  0.39644073  0.58180402  1
  In  In28  1  0.24999949  0.67420469  0.76064642  1
  In  In29  1  0.75000135  0.32579605  0.23935346  1
  In  In30  1  0.24999949  0.17420364  0.73935340  1
  In  In31  1  0.75000135  0.82579573  0.26064648  1
