# generated using pymatgen
data_Li3FePCO7
_symmetry_space_group_name_H-M   'P 1'
_cell_length_a   5.03910037
_cell_length_b   6.45011525
_cell_length_c   8.56688709
_cell_angle_alpha   90.00000000
_cell_angle_beta   83.21008546
_cell_angle_gamma   90.00000000
_symmetry_Int_Tables_number   1
_chemical_formula_structural   Li3FePCO7
_chemical_formula_sum   'Li6 Fe2 P2 C2 O14'
_cell_volume   276.49469203
_cell_formula_units_Z   2
loop_
 _symmetry_equiv_pos_site_id
 _symmetry_equiv_pos_as_xyz
  1  'x, y, z'
loop_
 _atom_site_type_symbol
 _atom_site_label
 _atom_site_symmetry_multiplicity
 _atom_site_fract_x
 _atom_site_fract_y
 _atom_site_fract_z
 _atom_site_occupancy
  Li  Li0  1  0.72943062  0.98350822  0.72590810  1
  Li  Li1  1  0.27056866  0.01649230  0.27409135  1
  Li  Li2  1  0.79736658  0.25000052  0.10447856  1
  Li  Li3  1  0.20263270  0.74999999  0.89552088  1
  Li  Li4  1  0.72943062  0.51649177  0.72590810  1
  Li  Li5  1  0.27056866  0.48350874  0.27409135  1
  C  C6  1  0.66862526  0.74999999  0.03648367  1
  C  C7  1  0.33137402  0.25000052  0.96351577  1
  O  O8  1  0.17078365  0.74999999  0.42605511  1
  O  O9  1  0.91606200  0.74999999  0.06266647  1
  O  O10  1  0.51460809  0.25000052  0.84144495  1
  O  O11  1  0.48539305  0.74999999  0.15855560  1
  O  O12  1  0.16087652  0.56275789  0.69323403  1
  O  O13  1  0.08393914  0.25000052  0.93733408  1
  O  O14  1  0.16087652  0.93724210  0.69323403  1
  O  O15  1  0.83912263  0.43724106  0.30676658  1
  O  O16  1  0.83912263  0.06275841  0.30676658  1
  O  O17  1  0.41835690  0.25000052  0.43055186  1
  O  O18  1  0.60077435  0.74999999  0.89487281  1
  O  O19  1  0.39922493  0.25000052  0.10512663  1
  O  O20  1  0.58164424  0.74999999  0.56944869  1
  O  O21  1  0.82921550  0.25000052  0.57394551  1
  P  P22  1  0.73039931  0.25000052  0.41116028  1
  P  P23  1  0.26959984  0.74999999  0.58884034  1
  Fe  Fe24  1  0.78855777  0.74999999  0.32991020  1
  Fe  Fe25  1  0.21144350  0.25000052  0.67008918  1
