# generated using pymatgen
data_NiBiO3
_symmetry_space_group_name_H-M   'P 1'
_cell_length_a   5.37151214
_cell_length_b   5.68496402
_cell_length_c   7.85577473
_cell_angle_alpha   89.86402379
_cell_angle_beta   90.28214195
_cell_angle_gamma   90.32645939
_symmetry_Int_Tables_number   1
_chemical_formula_structural   NiBiO3
_chemical_formula_sum   'Ni4 Bi4 O12'
_cell_volume   239.88317812
_cell_formula_units_Z   4
loop_
 _symmetry_equiv_pos_site_id
 _symmetry_equiv_pos_as_xyz
  1  'x, y, z'
loop_
 _atom_site_type_symbol
 _atom_site_label
 _atom_site_symmetry_multiplicity
 _atom_site_fract_x
 _atom_site_fract_y
 _atom_site_fract_z
 _atom_site_occupancy
  O  O0  1  0.67984913  0.31770121  0.56439878  1
  O  O1  1  0.32015081  0.68229896  0.43560146  1
  O  O2  1  0.20115493  0.20706069  0.42765009  1
  O  O3  1  0.79884501  0.79293948  0.57235015  1
  O  O4  1  0.31754670  0.68167920  0.07109059  1
  O  O5  1  0.68245325  0.31832097  0.92890965  1
  O  O6  1  0.80269640  0.79818106  0.93329631  1
  O  O7  1  0.19730357  0.20181733  0.06670396  1
  O  O8  1  0.15045043  0.46196089  0.74992339  1
  O  O9  1  0.84954951  0.53803928  0.25007685  1
  O  O10  1  0.38282914  0.92858465  0.75066042  1
  O  O11  1  0.61717083  0.07141373  0.24933985  1
  Ni  Ni12  1  0.99999923  0.50000005  0.50000055  1
  Ni  Ni13  1  0.49999916  0.99999956  0.49999957  1
  Ni  Ni14  1  0.99999988  0.50000051  0.00000055  1
  Ni  Ni15  1  0.49999981  0.00000002  0.99999958  1
  Bi  Bi16  1  0.53084926  0.56934524  0.74648836  1
  Bi  Bi17  1  0.46915068  0.43065493  0.25351189  1
  Bi  Bi18  1  0.02036717  0.94225877  0.24756610  1
  Bi  Bi19  1  0.97963277  0.05774137  0.75243283  1
