# generated using pymatgen
data_AlFeO3
_symmetry_space_group_name_H-M   'P 1'
_cell_length_a   5.04313517
_cell_length_b   8.65641268
_cell_length_c   9.40380933
_cell_angle_alpha   90.00000000
_cell_angle_beta   90.00000000
_cell_angle_gamma   90.00000000
_symmetry_Int_Tables_number   1
_chemical_formula_structural   AlFeO3
_chemical_formula_sum   'Al8 Fe8 O24'
_cell_volume   410.52761484
_cell_formula_units_Z   8
loop_
 _symmetry_equiv_pos_site_id
 _symmetry_equiv_pos_as_xyz
  1  'x, y, z'
loop_
 _atom_site_type_symbol
 _atom_site_label
 _atom_site_symmetry_multiplicity
 _atom_site_fract_x
 _atom_site_fract_y
 _atom_site_fract_z
 _atom_site_occupancy
  O  O0  1  0.99896973  0.32483064  0.94426739  1
  O  O1  1  0.00103056  0.67516943  0.44426718  1
  O  O2  1  0.50103071  0.82483068  0.44426718  1
  O  O3  1  0.49896958  0.17516939  0.94426739  1
  O  O4  1  0.34028661  0.32995000  0.67113734  1
  O  O5  1  0.65971368  0.67005007  0.17113713  1
  O  O6  1  0.15971353  0.82995004  0.17113713  1
  O  O7  1  0.84028676  0.17005003  0.67113734  1
  O  O8  1  0.64574427  0.33452213  0.19507407  1
  O  O9  1  0.35425602  0.66547794  0.69507321  1
  O  O10  1  0.85425617  0.83452217  0.69507321  1
  O  O11  1  0.14574412  0.16547790  0.19507407  1
  O  O12  1  0.16363608  0.49149154  0.20024588  1
  O  O13  1  0.83636422  0.50850853  0.70024609  1
  O  O14  1  0.33636407  0.99149157  0.70024609  1
  O  O15  1  0.66363623  0.00850850  0.20024588  1
  O  O16  1  0.98226573  0.32106668  0.41549370  1
  O  O17  1  0.01773258  0.67893339  0.91549285  1
  O  O18  1  0.51773273  0.82106672  0.91549285  1
  O  O19  1  0.48226558  0.17893335  0.41549370  1
  O  O20  1  0.99924083  0.00976737  0.42928440  1
  O  O21  1  0.50075961  0.50976740  0.92928354  1
  O  O22  1  0.00075946  0.99023270  0.92928354  1
  O  O23  1  0.49924069  0.49023267  0.42928440  1
  Al  Al24  1  0.31792173  0.33710060  0.30387668  1
  Al  Al25  1  0.68207856  0.66289947  0.80387690  1
  Al  Al26  1  0.18207841  0.83710064  0.80387690  1
  Al  Al27  1  0.81792188  0.16289943  0.30387668  1
  Al  Al28  1  0.66768567  0.34482410  0.00315896  1
  Al  Al29  1  0.33231463  0.65517481  0.50315811  1
  Al  Al30  1  0.83231477  0.84482414  0.50315811  1
  Al  Al31  1  0.16768552  0.15517593  0.00315896  1
  Fe  Fe32  1  0.16771277  0.46882049  0.80087681  1
  Fe  Fe33  1  0.83228752  0.53117958  0.30087660  1
  Fe  Fe34  1  0.33228738  0.96882053  0.30087660  1
  Fe  Fe35  1  0.66771093  0.03117954  0.80087681  1
  Fe  Fe36  1  0.68759637  0.35072510  0.57938593  1
  Fe  Fe37  1  0.31240392  0.64927497  0.07938572  1
  Fe  Fe38  1  0.81240208  0.85072513  0.07938572  1
  Fe  Fe39  1  0.18759623  0.14927494  0.57938593  1
