# generated using pymatgen
data_Cu4(PO4)3
_symmetry_space_group_name_H-M   'P 1'
_cell_length_a   8.56436355
_cell_length_b   8.56436355
_cell_length_c   7.33125378
_cell_angle_alpha   68.52950872
_cell_angle_beta   111.47049125
_cell_angle_gamma   90.82390985
_symmetry_Int_Tables_number   1
_chemical_formula_structural   Cu4(PO4)3
_chemical_formula_sum   'Cu8 P6 O24'
_cell_volume   461.23195592
_cell_formula_units_Z   2
loop_
 _symmetry_equiv_pos_site_id
 _symmetry_equiv_pos_as_xyz
  1  'x, y, z'
loop_
 _atom_site_type_symbol
 _atom_site_label
 _atom_site_symmetry_multiplicity
 _atom_site_fract_x
 _atom_site_fract_y
 _atom_site_fract_z
 _atom_site_occupancy
  O  O0  1  0.49004924  0.73426466  0.66773279  1
  O  O1  1  0.81286163  0.19345368  0.36914978  1
  O  O2  1  0.83823523  0.74443281  0.45380351  1
  O  O3  1  0.72959361  0.53346244  0.26158442  1
  O  O4  1  0.80654632  0.18713837  0.86914978  1
  O  O5  1  0.58541076  0.03983676  0.21670225  1
  O  O6  1  0.96016324  0.41458924  0.71670225  1
  O  O7  1  0.74443281  0.83823523  0.04619649  1
  O  O8  1  0.03983676  0.58541076  0.28329775  1
  O  O9  1  0.25556719  0.16176477  0.95380351  1
  O  O10  1  0.00937843  0.31323174  0.11311487  1
  O  O11  1  0.18713837  0.80654632  0.63085022  1
  O  O12  1  0.16176477  0.25556719  0.54619649  1
  O  O13  1  0.27040639  0.46653756  0.73841558  1
  O  O14  1  0.68676826  0.99062157  0.61311487  1
  O  O15  1  0.41458924  0.96016324  0.78329775  1
  O  O16  1  0.31323174  0.00937843  0.38688513  1
  O  O17  1  0.26573534  0.50995076  0.16773279  1
  O  O18  1  0.46653756  0.27040639  0.76158442  1
  O  O19  1  0.19345368  0.81286163  0.13085022  1
  O  O20  1  0.50995076  0.26573534  0.33226721  1
  O  O21  1  0.53346244  0.72959361  0.23841558  1
  O  O22  1  0.73426466  0.49004924  0.83226721  1
  O  O23  1  0.99062157  0.68676826  0.88688513  1
  P  P24  1  0.27434129  0.27434129  0.75000000  1
  P  P25  1  0.11952044  0.65418673  0.11518537  1
  P  P26  1  0.34581327  0.88047956  0.61518537  1
  P  P27  1  0.65418673  0.11952044  0.38481463  1
  P  P28  1  0.88047956  0.34581327  0.88481463  1
  P  P29  1  0.72565871  0.72565871  0.25000000  1
  Cu  Cu30  1  0.74363505  0.74363505  0.75000000  1
  Cu  Cu31  1  0.93388220  0.38294746  0.34193120  1
  Cu  Cu32  1  0.50575279  0.50575279  0.25000000  1
  Cu  Cu33  1  0.61705254  0.06611780  0.84193120  1
  Cu  Cu34  1  0.38294746  0.93388220  0.15806880  1
  Cu  Cu35  1  0.49424721  0.49424721  0.75000000  1
  Cu  Cu36  1  0.25636495  0.25636495  0.25000000  1
  Cu  Cu37  1  0.06611780  0.61705254  0.65806880  1
