# generated using pymatgen
data_NiH8(ClO2)2
_symmetry_space_group_name_H-M   'P 1'
_cell_length_a   5.98369635
_cell_length_b   9.39529654
_cell_length_c   10.98743891
_cell_angle_alpha   90.00000000
_cell_angle_beta   99.98934861
_cell_angle_gamma   90.00000000
_symmetry_Int_Tables_number   1
_chemical_formula_structural   NiH8(ClO2)2
_chemical_formula_sum   'Ni4 H32 Cl8 O16'
_cell_volume   608.33415339
_cell_formula_units_Z   4
loop_
 _symmetry_equiv_pos_site_id
 _symmetry_equiv_pos_as_xyz
  1  'x, y, z'
loop_
 _atom_site_type_symbol
 _atom_site_label
 _atom_site_symmetry_multiplicity
 _atom_site_fract_x
 _atom_site_fract_y
 _atom_site_fract_z
 _atom_site_occupancy
  H  H0  1  0.41493035  0.55991248  0.89964855  1
  H  H1  1  0.08506889  0.05991264  0.60035130  1
  H  H2  1  0.58506847  0.44008720  0.10035183  1
  H  H3  1  0.91493164  0.94008703  0.39964833  1
  H  H4  1  0.68063368  0.56811807  0.88804619  1
  H  H5  1  0.81936711  0.06811823  0.61195416  1
  H  H6  1  0.31936686  0.43188161  0.11195344  1
  H  H7  1  0.18063341  0.93188144  0.38804638  1
  H  H8  1  0.64684882  0.56156136  0.64388331  1
  H  H9  1  0.85315197  0.06156152  0.85611613  1
  H  H10  1  0.35315171  0.43843831  0.35611632  1
  H  H11  1  0.14684856  0.93843815  0.14388350  1
  H  H12  1  0.69291047  0.42538507  0.56324133  1
  H  H13  1  0.80708861  0.92538597  0.93675886  1
  H  H14  1  0.89084595  0.29978941  0.92337529  1
  H  H15  1  0.19291021  0.07461477  0.06324151  1
  H  H16  1  0.14938043  0.48648702  0.68228088  1
  H  H17  1  0.35062050  0.98648685  0.81771913  1
  H  H18  1  0.85062009  0.51351266  0.31771966  1
  H  H19  1  0.64938003  0.01351282  0.18228050  1
  H  H20  1  0.12126695  0.34359507  0.61051563  1
  H  H21  1  0.37873228  0.84359490  0.88948422  1
  H  H22  1  0.87873187  0.65640461  0.38948475  1
  H  H23  1  0.62126825  0.15640477  0.11051541  1
  H  H24  1  0.96575540  0.31030841  0.79204192  1
  H  H25  1  0.53424539  0.81030825  0.70795843  1
  H  H26  1  0.03424513  0.68969126  0.20795771  1
  H  H27  1  0.46575513  0.18969142  0.29204211  1
  H  H28  1  0.39084569  0.20021043  0.42337548  1
  H  H29  1  0.10915457  0.70021027  0.07662525  1
  H  H30  1  0.60915483  0.79978924  0.57662507  1
  H  H31  1  0.30709006  0.57461460  0.43675830  1
  O  O32  1  0.53885114  0.51293355  0.86739379  1
  O  O33  1  0.96114964  0.01293371  0.63260657  1
  O  O34  1  0.46114939  0.48706613  0.13260584  1
  O  O35  1  0.03885088  0.98706703  0.36739397  1
  O  O36  1  0.61585596  0.45934058  0.62954017  1
  O  O37  1  0.88414312  0.95934042  0.87046002  1
  O  O38  1  0.38414286  0.54065910  0.37046021  1
  O  O39  1  0.11585741  0.04065926  0.12953961  1
  O  O40  1  0.16921523  0.38222967  0.69526036  1
  O  O41  1  0.33078570  0.88222950  0.80474056  1
  O  O42  1  0.83078529  0.61777001  0.30474019  1
  O  O43  1  0.66921482  0.11777017  0.19525998  1
  O  O44  1  0.84799219  0.26975917  0.83555408  1
  O  O45  1  0.65200690  0.76975901  0.66444612  1
  O  O46  1  0.34799193  0.23024174  0.33555335  1
  O  O47  1  0.15200663  0.73024157  0.16444630  1
  Cl  Cl48  1  0.40658261  0.18589501  0.92850659  1
  Cl  Cl49  1  0.09341662  0.68589485  0.57149325  1
  Cl  Cl50  1  0.59341791  0.81410466  0.07149395  1
  Cl  Cl51  1  0.90658221  0.31410482  0.42850622  1
  Cl  Cl52  1  0.46795037  0.13747281  0.61437099  1
  Cl  Cl53  1  0.03204886  0.63747372  0.88562885  1
  Cl  Cl54  1  0.96794996  0.36252702  0.11437153  1
  Cl  Cl55  1  0.53205016  0.86252686  0.38562864  1
  Ni  Ni56  1  0.51340580  0.32960739  0.76202221  1
  Ni  Ni57  1  0.98659329  0.82960723  0.73797799  1
  Ni  Ni58  1  0.48659303  0.67039335  0.23797817  1
  Ni  Ni59  1  0.01340724  0.17039244  0.26202164  1
