# generated using pymatgen
data_HoMnO3
_symmetry_space_group_name_H-M   'P 1'
_cell_length_a   5.31153444
_cell_length_b   5.84635981
_cell_length_c   7.48184895
_cell_angle_alpha   90.00000000
_cell_angle_beta   90.00000000
_cell_angle_gamma   90.00000000
_symmetry_Int_Tables_number   1
_chemical_formula_structural   HoMnO3
_chemical_formula_sum   'Ho4 Mn4 O12'
_cell_volume   232.33491397
_cell_formula_units_Z   4
loop_
 _symmetry_equiv_pos_site_id
 _symmetry_equiv_pos_as_xyz
  1  'x, y, z'
loop_
 _atom_site_type_symbol
 _atom_site_label
 _atom_site_symmetry_multiplicity
 _atom_site_fract_x
 _atom_site_fract_y
 _atom_site_fract_z
 _atom_site_occupancy
  O  O0  1  0.70019803  0.32567748  0.44201689  1
  O  O1  1  0.20019887  0.17432212  0.55798278  1
  O  O2  1  0.79980135  0.82567708  0.05798228  1
  O  O3  1  0.29980219  0.67432348  0.94201738  1
  O  O4  1  0.29980219  0.67432348  0.55798278  1
  O  O5  1  0.79980135  0.82567708  0.44201689  1
  O  O6  1  0.20019887  0.17432212  0.94201738  1
  O  O7  1  0.70019803  0.32567748  0.05798228  1
  O  O8  1  0.12167390  0.45639912  0.24999959  1
  O  O9  1  0.62167306  0.04360224  0.75000008  1
  O  O10  1  0.87832632  0.54360184  0.75000008  1
  O  O11  1  0.37832526  0.95639872  0.24999959  1
  Mn  Mn12  1  0.49999916  0.00000000  0.50000049  1
  Mn  Mn13  1  0.00000000  0.49999960  0.50000049  1
  Mn  Mn14  1  0.00000000  0.49999960  0.00000000  1
  Mn  Mn15  1  0.49999916  0.00000000  0.00000000  1
  Ho  Ho16  1  0.01945520  0.91754728  0.75000008  1
  Ho  Ho17  1  0.51945626  0.58245328  0.24999959  1
  Ho  Ho18  1  0.48054396  0.41754768  0.75000008  1
  Ho  Ho19  1  0.98054502  0.08245368  0.24999959  1
