# generated using pymatgen
data_BaYbCo4O7
_symmetry_space_group_name_H-M   'P 1'
_cell_length_a   6.36052748
_cell_length_b   6.36052748
_cell_length_c   10.31114053
_cell_angle_alpha   90.00000000
_cell_angle_beta   90.00000000
_cell_angle_gamma   120.00000000
_symmetry_Int_Tables_number   1
_chemical_formula_structural   BaYbCo4O7
_chemical_formula_sum   'Ba2 Yb2 Co8 O14'
_cell_volume   361.26309993
_cell_formula_units_Z   2
loop_
 _symmetry_equiv_pos_site_id
 _symmetry_equiv_pos_as_xyz
  1  'x, y, z'
loop_
 _atom_site_type_symbol
 _atom_site_label
 _atom_site_symmetry_multiplicity
 _atom_site_fract_x
 _atom_site_fract_y
 _atom_site_fract_z
 _atom_site_occupancy
  O  O0  1  0.90864054  0.67543623  0.99949169  1
  O  O1  1  0.32456402  0.23320459  0.99949169  1
  O  O2  1  0.76679490  0.09136045  0.99949169  1
  O  O3  1  0.67543654  0.90864082  0.49949199  1
  O  O4  1  0.23320480  0.32456504  0.49949199  1
  O  O5  1  0.09135901  0.76679485  0.49949199  1
  O  O6  1  0.00000000  0.00000000  0.73460130  1
  O  O7  1  0.00000000  0.00000000  0.23460160  1
  O  O8  1  0.48895104  0.02143345  0.24874717  1
  O  O9  1  0.97856741  0.46751762  0.24874717  1
  O  O10  1  0.53248260  0.51105020  0.24874717  1
  O  O11  1  0.02143289  0.48895107  0.74874784  1
  O  O12  1  0.51104938  0.53248182  0.74874784  1
  O  O13  1  0.46751809  0.97856782  0.74874784  1
  Co  Co14  1  0.84908635  0.65788929  0.17783467  1
  Co  Co15  1  0.34211120  0.19119836  0.17783467  1
  Co  Co16  1  0.80880191  0.15091363  0.17783467  1
  Co  Co17  1  0.65788786  0.84908581  0.67783436  1
  Co  Co18  1  0.19119756  0.34211198  0.67783436  1
  Co  Co19  1  0.15091334  0.80880291  0.67783436  1
  Co  Co20  1  0.00000000  0.00000000  0.43495920  1
  Co  Co21  1  0.00000000  0.00000000  0.93495987  1
  Ba  Ba22  1  0.33333376  0.66666751  0.98090038  1
  Ba  Ba23  1  0.66666702  0.33333376  0.48089971  1
  Yb  Yb24  1  0.33333376  0.66666751  0.37201741  1
  Yb  Yb25  1  0.66666702  0.33333376  0.87201710  1
