# generated using pymatgen
data_Mg(CoS2)2
_symmetry_space_group_name_H-M   'P 1'
_cell_length_a   6.99668429
_cell_length_b   6.86128384
_cell_length_c   6.86172807
_cell_angle_alpha   89.16223514
_cell_angle_beta   120.61180982
_cell_angle_gamma   120.62450289
_symmetry_Int_Tables_number   1
_chemical_formula_structural   Mg(CoS2)2
_chemical_formula_sum   'Mg2 Co4 S8'
_cell_volume   230.24729204
_cell_formula_units_Z   2
loop_
 _symmetry_equiv_pos_site_id
 _symmetry_equiv_pos_as_xyz
  1  'x, y, z'
loop_
 _atom_site_type_symbol
 _atom_site_label
 _atom_site_symmetry_multiplicity
 _atom_site_fract_x
 _atom_site_fract_y
 _atom_site_fract_z
 _atom_site_occupancy
  Mg  Mg0  1  0.99999716  0.99999127  0.99999684  1
  Mg  Mg1  1  0.50002352  0.00001037  0.00001864  1
  Co  Co2  1  0.49999593  0.99999822  0.49999640  1
  Co  Co3  1  0.50001171  0.50000582  0.50001057  1
  Co  Co4  1  0.00000227  0.49999010  0.00000166  1
  Co  Co5  1  -0.00000051  0.49999289  0.49999960  1
  S  S6  1  0.03404308  0.73858501  0.26173854  1
  S  S7  1  0.46942895  0.73560273  0.70336583  1
  S  S8  1  0.46609730  0.73844315  0.26128891  1
  S  S9  1  0.96957919  0.70353374  0.73566578  1
  S  S10  1  0.53391059  0.26155247  0.73871746  1
  S  S11  1  0.53056545  0.26440224  0.29663724  1
  S  S12  1  0.03044710  0.29645908  0.26435253  1
  S  S13  1  0.96594525  0.26139692  0.73825099  1
