# generated using pymatgen
data_Zr9S2
_symmetry_space_group_name_H-M   'P 1'
_cell_length_a   9.79216422
_cell_length_b   9.79216422
_cell_length_c   11.91430105
_cell_angle_alpha   114.26399929
_cell_angle_beta   114.26399928
_cell_angle_gamma   89.99999997
_symmetry_Int_Tables_number   1
_chemical_formula_structural   Zr9S2
_chemical_formula_sum   'Zr36 S8'
_cell_volume   929.69015979
_cell_formula_units_Z   4
loop_
 _symmetry_equiv_pos_site_id
 _symmetry_equiv_pos_as_xyz
  1  'x, y, z'
loop_
 _atom_site_type_symbol
 _atom_site_label
 _atom_site_symmetry_multiplicity
 _atom_site_fract_x
 _atom_site_fract_y
 _atom_site_fract_z
 _atom_site_occupancy
  S  S0  1  0.39711746  0.14711746  0.25000000  1
  S  S1  1  0.60288254  0.39711746  0.75000000  1
  S  S2  1  0.14711746  0.85288254  0.75000000  1
  S  S3  1  0.85288254  0.60288254  0.25000000  1
  S  S4  1  0.60288254  0.85288254  0.75000000  1
  S  S5  1  0.39711746  0.60288254  0.25000000  1
  S  S6  1  0.85288254  0.14711746  0.25000000  1
  S  S7  1  0.14711746  0.39711746  0.75000000  1
  Zr  Zr8  1  0.30127249  0.69967221  0.60254498  1
  Zr  Zr9  1  0.40287277  0.30127249  0.10254498  1
  Zr  Zr10  1  0.69967221  0.30127249  0.10254498  1
  Zr  Zr11  1  0.69872751  0.30032779  0.39745502  1
  Zr  Zr12  1  0.69872751  0.59712723  0.39745502  1
  Zr  Zr13  1  0.59712723  0.69872751  0.89745502  1
  Zr  Zr14  1  0.30032779  0.69872751  0.89745502  1
  Zr  Zr15  1  0.30127249  0.40287277  0.60254498  1
  Zr  Zr16  1  0.56856642  0.64644801  0.13713283  1
  Zr  Zr17  1  0.99068482  0.56856642  0.63713283  1
  Zr  Zr18  1  0.64644801  0.56856642  0.63713283  1
  Zr  Zr19  1  0.43143358  0.35355199  0.86286717  1
  Zr  Zr20  1  0.43143358  0.00931518  0.86286717  1
  Zr  Zr21  1  0.00931518  0.43143358  0.36286717  1
  Zr  Zr22  1  0.35355199  0.43143358  0.36286717  1
  Zr  Zr23  1  0.56856642  0.99068482  0.13713283  1
  Zr  Zr24  1  0.14265016  0.11292821  0.28530032  1
  Zr  Zr25  1  0.67237211  0.14265016  0.78530032  1
  Zr  Zr26  1  0.11292821  0.14265016  0.78530032  1
  Zr  Zr27  1  0.85734984  0.88707179  0.71469968  1
  Zr  Zr28  1  0.85734984  0.32762789  0.71469968  1
  Zr  Zr29  1  0.32762789  0.85734984  0.21469968  1
  Zr  Zr30  1  0.88707179  0.85734984  0.21469968  1
  Zr  Zr31  1  0.14265016  0.67237211  0.28530032  1
  Zr  Zr32  1  0.00999444  0.25999444  0.01998888  1
  Zr  Zr33  1  0.25999444  0.00999444  0.51998888  1
  Zr  Zr34  1  0.99000556  0.74000556  0.98001112  1
  Zr  Zr35  1  0.74000556  0.99000556  0.48001112  1
  Zr  Zr36  1  0.17912806  0.50000000  0.00000000  1
  Zr  Zr37  1  0.00000000  0.17912806  0.50000000  1
  Zr  Zr38  1  0.50000000  0.82087194  0.50000000  1
  Zr  Zr39  1  0.82087194  0.00000000  0.00000000  1
  Zr  Zr40  1  0.82087194  0.50000000  0.00000000  1
  Zr  Zr41  1  0.00000000  0.82087194  0.50000000  1
  Zr  Zr42  1  0.50000000  0.17912806  0.50000000  1
  Zr  Zr43  1  0.17912806  0.00000000  0.00000000  1
