# generated using pymatgen
data_Ni(H2N)2
_symmetry_space_group_name_H-M   'P 1'
_cell_length_a   10.83044645
_cell_length_b   10.83044645
_cell_length_c   10.83044645
_cell_angle_alpha   90.00000000
_cell_angle_beta   90.00000000
_cell_angle_gamma   90.00000000
_symmetry_Int_Tables_number   1
_chemical_formula_structural   Ni(H2N)2
_chemical_formula_sum   'Ni18 H72 N36'
_cell_volume   1270.39588436
_cell_formula_units_Z   18
loop_
 _symmetry_equiv_pos_site_id
 _symmetry_equiv_pos_as_xyz
  1  'x, y, z'
loop_
 _atom_site_type_symbol
 _atom_site_label
 _atom_site_symmetry_multiplicity
 _atom_site_fract_x
 _atom_site_fract_y
 _atom_site_fract_z
 _atom_site_occupancy
  H  H0  1  0.00000000  0.92381783  0.19343269  1
  H  H1  1  0.00000000  0.07618217  0.80656731  1
  H  H2  1  0.00000000  0.92381783  0.80656731  1
  H  H3  1  0.07618217  0.80656731  0.00000000  1
  H  H4  1  0.80656731  0.00000000  0.92381783  1
  H  H5  1  0.80656731  0.00000000  0.07618217  1
  H  H6  1  0.92381783  0.19343269  0.00000000  1
  H  H7  1  0.19343269  0.00000000  0.92381783  1
  H  H8  1  0.92381783  0.80656731  0.00000000  1
  H  H9  1  0.07618217  0.19343269  0.00000000  1
  H  H10  1  0.19343269  0.00000000  0.07618217  1
  H  H11  1  0.00000000  0.07618217  0.19343269  1
  H  H12  1  0.50000000  0.69186392  0.07459827  1
  H  H13  1  0.50000000  0.30813608  0.92540173  1
  H  H14  1  0.50000000  0.69186392  0.92540173  1
  H  H15  1  0.30813608  0.92540173  0.50000000  1
  H  H16  1  0.92540173  0.50000000  0.69186392  1
  H  H17  1  0.92540173  0.50000000  0.30813608  1
  H  H18  1  0.69186392  0.07459827  0.50000000  1
  H  H19  1  0.07459827  0.50000000  0.69186392  1
  H  H20  1  0.69186392  0.92540173  0.50000000  1
  H  H21  1  0.30813608  0.07459827  0.50000000  1
  H  H22  1  0.07459827  0.50000000  0.30813608  1
  H  H23  1  0.50000000  0.30813608  0.07459827  1
  H  H24  1  0.20613862  0.21684628  0.59811786  1
  H  H25  1  0.20613862  0.78315372  0.40188214  1
  H  H26  1  0.79386138  0.21684628  0.40188214  1
  H  H27  1  0.78315372  0.40188214  0.20613862  1
  H  H28  1  0.40188214  0.79386138  0.21684628  1
  H  H29  1  0.40188214  0.20613862  0.78315372  1
  H  H30  1  0.21684628  0.59811786  0.20613862  1
  H  H31  1  0.59811786  0.20613862  0.21684628  1
  H  H32  1  0.21684628  0.40188214  0.79386138  1
  H  H33  1  0.78315372  0.59811786  0.79386138  1
  H  H34  1  0.59811786  0.79386138  0.78315372  1
  H  H35  1  0.79386138  0.78315372  0.59811786  1
  H  H36  1  0.79386138  0.78315372  0.40188214  1
  H  H37  1  0.79386138  0.21684628  0.59811786  1
  H  H38  1  0.20613862  0.78315372  0.59811786  1
  H  H39  1  0.21684628  0.59811786  0.79386138  1
  H  H40  1  0.59811786  0.20613862  0.78315372  1
  H  H41  1  0.59811786  0.79386138  0.21684628  1
  H  H42  1  0.78315372  0.40188214  0.79386138  1
  H  H43  1  0.40188214  0.79386138  0.78315372  1
  H  H44  1  0.78315372  0.59811786  0.20613862  1
  H  H45  1  0.21684628  0.40188214  0.20613862  1
  H  H46  1  0.40188214  0.20613862  0.21684628  1
  H  H47  1  0.20613862  0.21684628  0.40188214  1
  H  H48  1  0.09911356  0.22140513  0.70458629  1
  H  H49  1  0.09911356  0.77859487  0.29541371  1
  H  H50  1  0.90088644  0.22140513  0.29541371  1
  H  H51  1  0.77859487  0.29541371  0.09911356  1
  H  H52  1  0.29541371  0.90088644  0.22140513  1
  H  H53  1  0.29541371  0.09911356  0.77859487  1
  H  H54  1  0.09911356  0.22140513  0.29541371  1
  H  H55  1  0.29541371  0.09911356  0.22140513  1
  H  H56  1  0.22140513  0.29541371  0.09911356  1
  H  H57  1  0.77859487  0.70458629  0.09911356  1
  H  H58  1  0.29541371  0.90088644  0.77859487  1
  H  H59  1  0.77859487  0.29541371  0.90088644  1
  H  H60  1  0.70458629  0.90088644  0.22140513  1
  H  H61  1  0.70458629  0.09911356  0.77859487  1
  H  H62  1  0.22140513  0.70458629  0.90088644  1
  H  H63  1  0.09911356  0.77859487  0.70458629  1
  H  H64  1  0.90088644  0.22140513  0.70458629  1
  H  H65  1  0.90088644  0.77859487  0.29541371  1
  H  H66  1  0.90088644  0.77859487  0.70458629  1
  H  H67  1  0.70458629  0.90088644  0.77859487  1
  H  H68  1  0.77859487  0.70458629  0.90088644  1
  H  H69  1  0.22140513  0.29541371  0.90088644  1
  H  H70  1  0.70458629  0.09911356  0.22140513  1
  H  H71  1  0.22140513  0.70458629  0.09911356  1
  N  N72  1  0.75041589  0.00000000  0.00000000  1
  N  N73  1  0.00000000  0.00000000  0.75041589  1
  N  N74  1  0.00000000  0.75041589  0.00000000  1
  N  N75  1  0.00000000  0.00000000  0.24958411  1
  N  N76  1  0.00000000  0.24958411  0.00000000  1
  N  N77  1  0.24958411  0.00000000  0.00000000  1
  N  N78  1  0.75003681  0.00000000  0.50000000  1
  N  N79  1  0.00000000  0.50000000  0.75003681  1
  N  N80  1  0.50000000  0.75003681  0.00000000  1
  N  N81  1  0.00000000  0.50000000  0.24996319  1
  N  N82  1  0.50000000  0.24996319  0.00000000  1
  N  N83  1  0.24996319  0.00000000  0.50000000  1
  N  N84  1  0.12459242  0.17674463  0.62452780  1
  N  N85  1  0.12459242  0.82325537  0.37547220  1
  N  N86  1  0.87540758  0.17674463  0.37547220  1
  N  N87  1  0.82325537  0.37547220  0.12459242  1
  N  N88  1  0.37547220  0.87540758  0.17674463  1
  N  N89  1  0.37547220  0.12459242  0.82325537  1
  N  N90  1  0.17674463  0.62452780  0.12459242  1
  N  N91  1  0.62452780  0.12459242  0.17674463  1
  N  N92  1  0.17674463  0.37547220  0.87540758  1
  N  N93  1  0.82325537  0.62452780  0.87540758  1
  N  N94  1  0.62452780  0.87540758  0.82325537  1
  N  N95  1  0.87540758  0.82325537  0.62452780  1
  N  N96  1  0.87540758  0.82325537  0.37547220  1
  N  N97  1  0.87540758  0.17674463  0.62452780  1
  N  N98  1  0.12459242  0.82325537  0.62452780  1
  N  N99  1  0.17674463  0.62452780  0.87540758  1
  N  N100  1  0.62452780  0.12459242  0.82325537  1
  N  N101  1  0.62452780  0.87540758  0.17674463  1
  N  N102  1  0.82325537  0.37547220  0.87540758  1
  N  N103  1  0.37547220  0.87540758  0.82325537  1
  N  N104  1  0.82325537  0.62452780  0.12459242  1
  N  N105  1  0.17674463  0.37547220  0.12459242  1
  N  N106  1  0.37547220  0.12459242  0.17674463  1
  N  N107  1  0.12459242  0.17674463  0.37547220  1
  Ni  Ni108  1  0.81486525  0.50000000  0.00000000  1
  Ni  Ni109  1  0.50000000  0.00000000  0.81486525  1
  Ni  Ni110  1  0.00000000  0.81486525  0.50000000  1
  Ni  Ni111  1  0.50000000  0.00000000  0.18513475  1
  Ni  Ni112  1  0.00000000  0.18513475  0.50000000  1
  Ni  Ni113  1  0.18513475  0.50000000  0.00000000  1
  Ni  Ni114  1  0.00000000  0.63210830  0.13193014  1
  Ni  Ni115  1  0.00000000  0.36789170  0.86806986  1
  Ni  Ni116  1  0.00000000  0.63210830  0.86806986  1
  Ni  Ni117  1  0.36789170  0.86806986  0.00000000  1
  Ni  Ni118  1  0.86806986  0.00000000  0.63210830  1
  Ni  Ni119  1  0.86806986  0.00000000  0.36789170  1
  Ni  Ni120  1  0.63210830  0.13193014  0.00000000  1
  Ni  Ni121  1  0.13193014  0.00000000  0.63210830  1
  Ni  Ni122  1  0.63210830  0.86806986  0.00000000  1
  Ni  Ni123  1  0.36789170  0.13193014  0.00000000  1
  Ni  Ni124  1  0.13193014  0.00000000  0.36789170  1
  Ni  Ni125  1  0.00000000  0.36789170  0.13193014  1
