# generated using pymatgen
data_Na3TiCl6
_symmetry_space_group_name_H-M   'P 1'
_cell_length_a   6.76136325
_cell_length_b   7.12282672
_cell_length_c   9.92561021
_cell_angle_alpha   90.00000000
_cell_angle_beta   90.13721662
_cell_angle_gamma   90.00000000
_symmetry_Int_Tables_number   1
_chemical_formula_structural   Na3TiCl6
_chemical_formula_sum   'Na6 Ti2 Cl12'
_cell_volume   478.01620380
_cell_formula_units_Z   2
loop_
 _symmetry_equiv_pos_site_id
 _symmetry_equiv_pos_as_xyz
  1  'x, y, z'
loop_
 _atom_site_type_symbol
 _atom_site_label
 _atom_site_symmetry_multiplicity
 _atom_site_fract_x
 _atom_site_fract_y
 _atom_site_fract_z
 _atom_site_occupancy
  Na  Na0  1  0.47572085  0.08094973  0.75614196  1
  Na  Na1  1  0.02427915  0.58094973  0.74385804  1
  Na  Na2  1  0.00000000  0.00000000  0.50000000  1
  Na  Na3  1  0.50000000  0.50000000  0.00000000  1
  Na  Na4  1  0.52427915  0.91905027  0.24385804  1
  Na  Na5  1  0.97572085  0.41905027  0.25614196  1
  Cl  Cl6  1  0.62935723  0.45060038  0.72994484  1
  Cl  Cl7  1  0.79637756  0.67672037  0.43688189  1
  Cl  Cl8  1  0.70362244  0.17672037  0.06311811  1
  Cl  Cl9  1  0.20362244  0.32327963  0.56311811  1
  Cl  Cl10  1  0.15833885  0.28791267  0.93024717  1
  Cl  Cl11  1  0.34166115  0.78791267  0.56975283  1
  Cl  Cl12  1  0.84166115  0.71208733  0.06975283  1
  Cl  Cl13  1  0.65833885  0.21208733  0.43024717  1
  Cl  Cl14  1  0.37064277  0.54939962  0.27005516  1
  Cl  Cl15  1  0.12935723  0.04939962  0.22994484  1
  Cl  Cl16  1  0.29637756  0.82327963  0.93688189  1
  Cl  Cl17  1  0.87064277  0.95060038  0.77005516  1
  Ti  Ti18  1  0.50000000  0.50000000  0.50000000  1
  Ti  Ti19  1  0.00000000  0.00000000  0.00000000  1
