# generated using pymatgen
data_Li3Cr(PO4)2
_symmetry_space_group_name_H-M   'P 1'
_cell_length_a   4.92011835
_cell_length_b   8.75635351
_cell_length_c   6.48883817
_cell_angle_alpha   90.00000000
_cell_angle_beta   94.37758018
_cell_angle_gamma   90.00000000
_symmetry_Int_Tables_number   1
_chemical_formula_structural   Li3Cr(PO4)2
_chemical_formula_sum   'Li6 Cr2 P4 O16'
_cell_volume   278.73849957
_cell_formula_units_Z   2
loop_
 _symmetry_equiv_pos_site_id
 _symmetry_equiv_pos_as_xyz
  1  'x, y, z'
loop_
 _atom_site_type_symbol
 _atom_site_label
 _atom_site_symmetry_multiplicity
 _atom_site_fract_x
 _atom_site_fract_y
 _atom_site_fract_z
 _atom_site_occupancy
  Li  Li0  1  0.01579136  0.14033954  0.69196776  1
  Li  Li1  1  0.98420705  0.85965991  0.30803271  1
  Li  Li2  1  0.51579169  0.35966018  0.19196816  1
  Li  Li3  1  0.00000000  0.49999972  0.00000000  1
  Li  Li4  1  0.48420672  0.64033926  0.80803232  1
  Li  Li5  1  0.49999921  0.00000000  0.50000024  1
  O  O6  1  0.21598313  0.35598618  0.69221769  1
  O  O7  1  0.93122188  0.64138369  0.74946430  1
  O  O8  1  0.06877653  0.35861576  0.25053463  1
  O  O9  1  0.15446311  0.09748795  0.41109685  1
  O  O10  1  0.34553610  0.59748767  0.08890338  1
  O  O11  1  0.16941745  0.13481066  0.02443671  1
  O  O12  1  0.78401733  0.64401441  0.30778136  1
  O  O13  1  0.33058380  0.63481153  0.47556365  1
  O  O14  1  0.84553735  0.90251264  0.58890374  1
  O  O15  1  0.43122267  0.85861663  0.24946561  1
  O  O16  1  0.56877778  0.14138397  0.75053499  1
  O  O17  1  0.65446436  0.40251292  0.91109721  1
  O  O18  1  0.66941666  0.36518906  0.52443695  1
  O  O19  1  0.71598346  0.14401354  0.19221808  1
  O  O20  1  0.83058300  0.86518879  0.97556388  1
  O  O21  1  0.28401700  0.85598591  0.80778251  1
  P  P22  1  0.47201538  0.68122871  0.27705355  1
  P  P23  1  0.52798508  0.31877188  0.72294704  1
  P  P24  1  0.02798587  0.18122784  0.22294681  1
  P  P25  1  0.97201458  0.81877160  0.77705224  1
  Cr  Cr26  1  0.50000079  0.00000000  0.00000038  1
  Cr  Cr27  1  0.00000046  0.49999972  0.49999998  1
