# generated using pymatgen
data_RbAg7S4
_symmetry_space_group_name_H-M   'P 1'
_cell_length_a   8.52521015
_cell_length_b   11.21437606
_cell_length_c   11.21437606
_cell_angle_alpha   90.00000000
_cell_angle_beta   90.00000000
_cell_angle_gamma   90.00000000
_symmetry_Int_Tables_number   1
_chemical_formula_structural   RbAg7S4
_chemical_formula_sum   'Rb4 Ag28 S16'
_cell_volume   1072.14944322
_cell_formula_units_Z   4
loop_
 _symmetry_equiv_pos_site_id
 _symmetry_equiv_pos_as_xyz
  1  'x, y, z'
loop_
 _atom_site_type_symbol
 _atom_site_label
 _atom_site_symmetry_multiplicity
 _atom_site_fract_x
 _atom_site_fract_y
 _atom_site_fract_z
 _atom_site_occupancy
  S  S0  1  0.62440722  0.50183779  0.30455695  1
  S  S1  1  0.13275093  0.99295328  0.19203752  1
  S  S2  1  0.13275093  0.30796248  0.99295328  1
  S  S3  1  0.13275093  0.19203752  0.50704672  1
  S  S4  1  0.62440722  0.19544305  0.50183779  1
  S  S5  1  0.62440722  0.30455695  -0.00183779  1
  S  S6  1  0.62440722  -0.00183779  0.19544305  1
  S  S7  1  0.37559278  0.49816221  0.69544305  1
  S  S8  1  0.37559278  0.80455695  0.49816221  1
  S  S9  1  0.13275093  0.50704672  0.30796248  1
  S  S10  1  0.37559278  0.69544305  1.00183779  1
  S  S11  1  0.86724907  0.49295328  0.69203752  1
  S  S12  1  0.86724907  0.80796248  0.49295328  1
  S  S13  1  0.86724907  0.69203752  0.00704672  1
  S  S14  1  0.86724907  0.00704672  0.80796248  1
  S  S15  1  0.37559278  1.00183779  0.80455695  1
  Rb  Rb16  1  0.12428729  0.75000000  0.75000000  1
  Rb  Rb17  1  0.87571271  0.25000000  0.25000000  1
  Rb  Rb18  1  0.62367951  0.75000000  0.75000000  1
  Rb  Rb19  1  0.37632049  0.25000000  0.25000000  1
  Ag  Ag20  1  0.12303976  0.76893707  0.11288321  1
  Ag  Ag21  1  0.87696024  0.88711679  0.26893707  1
  Ag  Ag22  1  0.87696024  0.61288321  0.23106293  1
  Ag  Ag23  1  0.87696024  0.23106293  0.88711679  1
  Ag  Ag24  1  0.87696024  0.26893707  0.61288321  1
  Ag  Ag25  1  0.38368941  0.89217334  0.29034311  1
  Ag  Ag26  1  0.38368941  0.60782666  0.20965689  1
  Ag  Ag27  1  0.38368941  0.20965689  0.89217334  1
  Ag  Ag28  1  0.61631059  0.70965689  0.39217334  1
  Ag  Ag29  1  0.61631059  0.10782666  0.70965689  1
  Ag  Ag30  1  0.61631059  0.39217334  0.79034311  1
  Ag  Ag31  1  0.61631059  0.79034311  0.10782666  1
  Ag  Ag32  1  0.12303976  0.38711679  0.76893707  1
  Ag  Ag33  1  0.12303976  0.11288321  0.73106293  1
  Ag  Ag34  1  0.12303976  0.73106293  0.38711679  1
  Ag  Ag35  1  0.66134398  0.97757163  0.46158833  1
  Ag  Ag36  1  0.66134398  0.03841167  0.97757163  1
  Ag  Ag37  1  0.66134398  0.46158833  0.52242837  1
  Ag  Ag38  1  0.66134398  0.52242837  0.03841167  1
  Ag  Ag39  1  0.33865602  0.02242837  0.53841167  1
  Ag  Ag40  1  0.33865602  0.96158833  0.02242837  1
  Ag  Ag41  1  0.33865602  0.53841167  0.47757163  1
  Ag  Ag42  1  0.33865602  0.47757163  0.96158833  1
  Ag  Ag43  1  0.00000000  0.50000000  0.50000000  1
  Ag  Ag44  1  0.00000000  0.00000000  0.50000000  1
  Ag  Ag45  1  0.00000000  0.50000000  0.00000000  1
  Ag  Ag46  1  0.00000000  0.00000000  0.00000000  1
  Ag  Ag47  1  0.38368941  0.29034311  0.60782666  1
