# generated using pymatgen
data_Co2P5O16
_symmetry_space_group_name_H-M   'P 1'
_cell_length_a   18.96500835
_cell_length_b   6.80283563
_cell_length_c   5.09838196
_cell_angle_alpha   90.00000000
_cell_angle_beta   89.56010032
_cell_angle_gamma   90.00000000
_symmetry_Int_Tables_number   1
_chemical_formula_structural   Co2P5O16
_chemical_formula_sum   'Co4 P10 O32'
_cell_volume   657.75261677
_cell_formula_units_Z   2
loop_
 _symmetry_equiv_pos_site_id
 _symmetry_equiv_pos_as_xyz
  1  'x, y, z'
loop_
 _atom_site_type_symbol
 _atom_site_label
 _atom_site_symmetry_multiplicity
 _atom_site_fract_x
 _atom_site_fract_y
 _atom_site_fract_z
 _atom_site_occupancy
  O  O0  1  0.60919539  0.01014780  0.56244893  1
  O  O1  1  0.99276575  0.78232672  0.32965967  1
  O  O2  1  0.92565814  0.95111249  0.95959065  1
  O  O3  1  0.91760864  0.35939423  0.05996219  1
  O  O4  1  0.00723392  0.21767413  0.67034108  1
  O  O5  1  0.07434206  0.04888836  0.04040811  1
  O  O6  1  0.08239155  0.64060515  0.94003854  1
  O  O7  1  0.10919548  0.98985157  0.56244892  1
  O  O8  1  0.11653154  0.58352585  0.45710392  1
  O  O9  1  0.13305552  0.31039716  0.78109779  1
  O  O10  1  0.19621856  0.85385234  0.15277263  1
  O  O11  1  0.21206774  0.58874664  0.80126082  1
  O  O12  1  0.28793254  0.58874664  0.19873792  1
  O  O13  1  0.30378120  0.85385234  0.84722811  1
  O  O14  1  0.36694424  0.31039716  0.21890295  1
  O  O15  1  0.38346874  0.58352585  0.54289680  1
  O  O16  1  0.39080428  0.98985157  0.43755182  1
  O  O17  1  0.41760873  0.64060515  0.05996217  1
  O  O18  1  0.42565823  0.04888836  0.95959064  1
  O  O19  1  0.49276584  0.21767413  0.32965965  1
  O  O20  1  0.88346865  0.41647500  0.54289681  1
  O  O21  1  0.57434197  0.95111249  0.04040812  1
  O  O22  1  0.58239147  0.35939423  0.94003855  1
  O  O23  1  0.89080419  0.01014780  0.43755184  1
  O  O24  1  0.61653145  0.41647500  0.45710393  1
  O  O25  1  0.63305543  0.68960369  0.78109780  1
  O  O26  1  0.69621899  0.14614851  0.15277262  1
  O  O27  1  0.71206765  0.41125421  0.80126084  1
  O  O28  1  0.78793245  0.41125421  0.19873794  1
  O  O29  1  0.80378111  0.14614851  0.84722812  1
  O  O30  1  0.86694468  0.68960369  0.21890294  1
  O  O31  1  0.50723436  0.78232672  0.67034107  1
  P  P32  1  0.57720661  0.86947456  0.76282283  1
  P  P33  1  0.63028957  0.45786052  0.74388407  1
  P  P34  1  0.75000013  0.26215669  0.99999902  1
  P  P35  1  0.86971054  0.45786052  0.25611667  1
  P  P36  1  0.07720617  0.13052482  0.76282284  1
  P  P37  1  0.13028913  0.54213885  0.74388408  1
  P  P38  1  0.25000022  0.73784269  0.99999901  1
  P  P39  1  0.36971063  0.54213885  0.25611666  1
  P  P40  1  0.42279359  0.13052482  0.23717789  1
  P  P41  1  0.92279350  0.86947456  0.23717791  1
  Co  Co42  1  0.90555029  0.17975334  0.74602480  1
  Co  Co43  1  0.59444981  0.17975334  0.25397398  1
  Co  Co44  1  0.40555038  0.82024751  0.74602478  1
  Co  Co45  1  0.09444990  0.82024751  0.25397396  1
