# generated using pymatgen
data_Li3Mn2(PO4)3
_symmetry_space_group_name_H-M   'P 1'
_cell_length_a   4.85264350
_cell_length_b   4.85264337
_cell_length_c   19.12137320
_cell_angle_alpha   90.28453090
_cell_angle_beta   90.28453088
_cell_angle_gamma   68.60015357
_symmetry_Int_Tables_number   1
_chemical_formula_structural   Li3Mn2(PO4)3
_chemical_formula_sum   'Li6 Mn4 P6 O24'
_cell_volume   419.22209734
_cell_formula_units_Z   2
loop_
 _symmetry_equiv_pos_site_id
 _symmetry_equiv_pos_as_xyz
  1  'x, y, z'
loop_
 _atom_site_type_symbol
 _atom_site_label
 _atom_site_symmetry_multiplicity
 _atom_site_fract_x
 _atom_site_fract_y
 _atom_site_fract_z
 _atom_site_occupancy
  Li  Li0  1  0.32388946  0.32388946  0.57966419  1
  Li  Li1  1  0.99981012  0.99981012  0.83263429  1
  Li  Li2  1  0.00018988  0.00018988  0.50069871  1
  Li  Li3  1  0.67542813  0.67542813  0.42120373  1
  Li  Li4  1  0.32457187  0.32457187  0.91213027  1
  Li  Li5  1  0.67611054  0.67611054  0.75366881  1
  Mn  Mn6  1  0.00000000  -0.00000000  0.16666700  1
  Mn  Mn7  1  0.99946590  0.99946590  0.99837858  1
  Mn  Mn8  1  0.00053410  0.00053410  0.33495442  1
  Mn  Mn9  1  0.00000000  -0.00000000  0.66666700  1
  P  P10  1  0.65364335  0.65364335  0.25049246  1
  P  P11  1  0.34803200  0.34803200  0.41644543  1
  P  P12  1  0.64970109  0.64970109  0.58424379  1
  P  P13  1  0.35029891  0.35029891  0.74908921  1
  P  P14  1  0.65196800  0.65196800  0.91688757  1
  P  P15  1  0.34635665  0.34635665  0.08284154  1
  O  O16  1  0.76740334  0.76740334  0.18588530  1
  O  O17  1  0.75018052  0.75018052  0.84954736  1
  O  O18  1  0.24981948  0.24981948  0.48378564  1
  O  O19  1  0.30389023  0.76073945  0.58836554  1
  O  O20  1  0.76122137  0.30511068  0.92176869  1
  O  O21  1  0.76808134  0.76808134  0.98230114  1
  O  O22  1  0.22490828  0.69328043  0.08381591  1
  O  O23  1  0.69488932  0.23877863  0.41156531  1
  O  O24  1  0.30511068  0.76122137  0.92176869  1
  O  O25  1  0.75253196  0.75253196  0.51818258  1
  O  O26  1  0.24746804  0.24746804  0.81515042  1
  O  O27  1  0.23677883  0.23677883  0.68154410  1
  O  O28  1  0.69610977  0.23926055  0.74496746  1
  O  O29  1  0.30671957  0.77509172  0.24951709  1
  O  O30  1  0.76073945  0.30389023  0.58836554  1
  O  O31  1  0.77509172  0.30671957  0.24951709  1
  O  O32  1  0.23259666  0.23259666  0.14744770  1
  O  O33  1  0.24032513  0.24032513  0.01409748  1
  O  O34  1  0.76322117  0.76322117  0.65178990  1
  O  O35  1  0.23926055  0.69610977  0.74496746  1
  O  O36  1  0.69328043  0.22490828  0.08381591  1
  O  O37  1  0.23877863  0.69488932  0.41156531  1
  O  O38  1  0.23191866  0.23191866  0.35103286  1
  O  O39  1  0.75967487  0.75967487  0.31923552  1
