# generated using pymatgen
data_Li2CrP2O7
_symmetry_space_group_name_H-M   'P 1'
_cell_length_a   7.55347944
_cell_length_b   7.55347944
_cell_length_c   11.21997606
_cell_angle_alpha   89.72176478
_cell_angle_beta   90.27823525
_cell_angle_gamma   63.43406770
_symmetry_Int_Tables_number   1
_chemical_formula_structural   Li2CrP2O7
_chemical_formula_sum   'Li8 Cr4 P8 O28'
_cell_volume   572.54438409
_cell_formula_units_Z   4
loop_
 _symmetry_equiv_pos_site_id
 _symmetry_equiv_pos_as_xyz
  1  'x, y, z'
loop_
 _atom_site_type_symbol
 _atom_site_label
 _atom_site_symmetry_multiplicity
 _atom_site_fract_x
 _atom_site_fract_y
 _atom_site_fract_z
 _atom_site_occupancy
  Li  Li0  1  0.28511643  0.28750010  0.99983966  1
  Li  Li1  1  0.71488362  0.71249865  0.00016030  1
  Li  Li2  1  0.28750044  0.28511551  0.50016074  1
  Li  Li3  1  0.71404910  0.71404924  0.24999976  1
  Li  Li4  1  0.28736656  0.28736621  0.24999977  1
  Li  Li5  1  0.71249961  0.71488324  0.49983923  1
  Li  Li6  1  0.28595029  0.28595098  0.75000019  1
  Li  Li7  1  0.71263283  0.71263400  0.75000019  1
  O  O8  1  0.19815867  0.58050946  0.01473463  1
  O  O9  1  0.58050867  0.19815871  0.48526489  1
  O  O10  1  0.90288934  0.09524122  0.87425522  1
  O  O11  1  0.90475857  0.09711110  0.37425478  1
  O  O12  1  0.09524082  0.90288911  0.62574517  1
  O  O13  1  0.09711137  0.90475901  0.12574474  1
  O  O14  1  0.41949073  0.80184150  0.51473506  1
  O  O15  1  0.41756581  0.80290054  0.74129579  1
  O  O16  1  0.19702558  0.58103791  0.74244244  1
  O  O17  1  0.13064413  0.25596724  0.87457497  1
  O  O18  1  0.19709970  0.58243291  0.24129627  1
  O  O19  1  0.41896195  0.80297464  0.24244291  1
  O  O20  1  0.20150813  0.57758115  0.51580602  1
  O  O21  1  0.80297381  0.41896230  0.25755752  1
  O  O22  1  0.73812804  0.87084159  0.87449321  1
  O  O23  1  0.12915803  0.26187308  0.37449368  1
  O  O24  1  0.58243358  0.19709967  0.25870416  1
  O  O25  1  0.74403313  0.86935493  0.37457545  1
  O  O26  1  0.25596692  0.13064382  0.62542452  1
  O  O27  1  0.86935527  0.74403297  0.12542498  1
  O  O28  1  0.87084268  0.73812715  0.62550629  1
  O  O29  1  0.26187332  0.12915718  0.12550676  1
  O  O30  1  0.57758163  0.20150785  0.98419347  1
  O  O31  1  0.79849257  0.42241908  0.48419394  1
  O  O32  1  0.58103744  0.19702557  0.75755705  1
  O  O33  1  0.80290035  0.41756584  0.75870370  1
  O  O34  1  0.80184072  0.41949076  0.98526533  1
  O  O35  1  0.42241908  0.79849238  0.01580649  1
  P  P36  1  0.31062880  0.91298534  0.12750402  1
  P  P37  1  0.68937059  0.08701488  0.87249593  1
  P  P38  1  0.91298436  0.31062972  0.37249640  1
  P  P39  1  0.91377120  0.30741716  0.87300087  1
  P  P40  1  0.30741717  0.91376997  0.62699953  1
  P  P41  1  0.08622951  0.69258307  0.12699909  1
  P  P42  1  0.08701503  0.68937049  0.62750356  1
  P  P43  1  0.69258288  0.08622878  0.37300044  1
  Cr  Cr44  1  0.69900534  0.30070528  0.12160017  1
  Cr  Cr45  1  0.69929485  0.30099428  0.62159970  1
  Cr  Cr46  1  0.30070586  0.69900595  0.37840026  1
  Cr  Cr47  1  0.30099405  0.69929494  0.87840069  1
