# generated using pymatgen
data_Li4Fe5(P3O11)2
_symmetry_space_group_name_H-M   'P 1'
_cell_length_a   12.69862362
_cell_length_b   6.58567374
_cell_length_c   10.88060087
_cell_angle_alpha   90.00000000
_cell_angle_beta   103.56415959
_cell_angle_gamma   90.00000000
_symmetry_Int_Tables_number   1
_chemical_formula_structural   Li4Fe5(P3O11)2
_chemical_formula_sum   'Li8 Fe10 P12 O44'
_cell_volume   884.55372200
_cell_formula_units_Z   2
loop_
 _symmetry_equiv_pos_site_id
 _symmetry_equiv_pos_as_xyz
  1  'x, y, z'
loop_
 _atom_site_type_symbol
 _atom_site_label
 _atom_site_symmetry_multiplicity
 _atom_site_fract_x
 _atom_site_fract_y
 _atom_site_fract_z
 _atom_site_occupancy
  Li  Li0  1  0.18749320  0.14274849  0.56939096  1
  Li  Li1  1  0.81250692  0.85725211  0.43060916  1
  Li  Li2  1  0.66326239  0.47141827  0.11222064  1
  Li  Li3  1  0.81250644  0.64274726  0.93060864  1
  Li  Li4  1  0.66326274  0.02858203  0.61222034  1
  Li  Li5  1  0.33673738  0.97141857  0.38777977  1
  Li  Li6  1  0.18749367  0.35725181  0.06939056  1
  Li  Li7  1  0.33673773  0.52858232  0.88777948  1
  O  O8  1  0.27194604  0.79071714  0.94361285  1
  O  O9  1  0.83553604  0.58379167  0.74190967  1
  O  O10  1  0.82136704  0.55952425  0.45182363  1
  O  O11  1  0.72805408  0.20928345  0.05638727  1
  O  O12  1  0.83553569  0.91620770  0.24190996  1
  O  O13  1  0.83394327  0.54898390  0.16952790  1
  O  O14  1  0.99051893  0.80401623  0.85054770  1
  O  O15  1  0.98566851  0.72895281  0.63191963  1
  O  O16  1  0.99051940  0.69598315  0.35054730  1
  O  O17  1  0.98566816  0.77104809  0.13191901  1
  O  O18  1  0.01433195  0.22895251  0.86808111  1
  O  O19  1  0.00948071  0.30401745  0.64945282  1
  O  O20  1  0.01433161  0.27104779  0.36808049  1
  O  O21  1  0.00948119  0.19598285  0.14945242  1
  O  O22  1  0.16605684  0.45101517  0.83047222  1
  O  O23  1  0.16446442  0.08379138  0.75809016  1
  O  O24  1  0.17863308  0.44047634  0.54817649  1
  O  O25  1  0.83394362  0.95101547  0.66952760  1
  O  O26  1  0.16605650  0.04898360  0.33047160  1
  O  O27  1  0.16446407  0.41620892  0.25808954  1
  O  O28  1  0.25332376  0.75603849  0.67183754  1
  O  O29  1  0.17863273  0.05952396  0.04817678  1
  O  O30  1  0.27194569  0.70928223  0.44361223  1
  O  O31  1  0.38943848  0.23440622  0.93445397  1
  O  O32  1  0.25332423  0.74396088  0.17183806  1
  O  O33  1  0.35161599  0.11842817  0.63196455  1
  O  O34  1  0.38221431  0.49930917  0.62247919  1
  O  O35  1  0.46026797  0.76638417  0.86092167  1
  O  O36  1  0.38943813  0.26559255  0.43445334  1
  O  O37  1  0.35161565  0.38157213  0.13196484  1
  O  O38  1  0.38221396  0.00069172  0.12247948  1
  O  O39  1  0.46026845  0.73361520  0.36092128  1
  O  O40  1  0.53973167  0.26638539  0.63907884  1
  O  O41  1  0.61778615  0.99930887  0.87752064  1
  O  O42  1  0.64838447  0.61842847  0.86803527  1
  O  O43  1  0.61056198  0.73440652  0.56554677  1
  O  O44  1  0.53973214  0.23361491  0.13907844  1
  O  O45  1  0.61778580  0.50069142  0.37752093  1
  O  O46  1  0.74667636  0.24396211  0.32816258  1
  O  O47  1  0.74667588  0.25603819  0.82816206  1
  O  O48  1  0.61056164  0.76559285  0.06554615  1
  O  O49  1  0.72805442  0.29071684  0.55638789  1
  O  O50  1  0.82136739  0.94047512  0.95182333  1
  O  O51  1  0.64838412  0.88157243  0.36803557  1
  P  P52  1  0.26493656  0.60512723  0.56861337  1
  P  P53  1  0.26493621  0.89487366  0.06861366  1
  P  P54  1  0.41855597  0.27680038  0.57991856  1
  P  P55  1  0.09232807  0.23222957  0.27898042  1
  P  P56  1  0.58144450  0.77680068  0.92008218  1
  P  P57  1  0.41855562  0.22319992  0.07991794  1
  P  P58  1  0.58144415  0.72320021  0.42008156  1
  P  P59  1  0.73506390  0.10512694  0.93138646  1
  P  P60  1  0.73506356  0.39487336  0.43138675  1
  P  P61  1  0.90767204  0.76776950  0.72101970  1
  P  P62  1  0.09232842  0.26776920  0.77898012  1
  P  P63  1  0.90767170  0.73222987  0.22101999  1
  Fe  Fe64  1  0.86770291  0.24215013  0.21921812  1
  Fe  Fe65  1  0.86770325  0.25785017  0.71921782  1
  Fe  Fe66  1  0.65727382  0.01404500  0.19483647  1
  Fe  Fe67  1  0.65727334  0.48595529  0.69483687  1
  Fe  Fe68  1  0.34272678  0.51404378  0.30516325  1
  Fe  Fe69  1  0.34272630  0.98595559  0.80516365  1
  Fe  Fe70  1  0.13229686  0.74215042  0.28078229  1
  Fe  Fe71  1  0.00000000  0.00000000  0.00000000  1
  Fe  Fe72  1  0.13229721  0.75785047  0.78078200  1
  Fe  Fe73  1  0.00000035  0.50000030  0.49999971  1
