# generated using pymatgen
data_Mn2P3O10
_symmetry_space_group_name_H-M   'P 1'
_cell_length_a   4.74451841
_cell_length_b   8.69440984
_cell_length_c   9.11269220
_cell_angle_alpha   90.00000000
_cell_angle_beta   99.54729012
_cell_angle_gamma   90.00000000
_symmetry_Int_Tables_number   1
_chemical_formula_structural   Mn2P3O10
_chemical_formula_sum   'Mn4 P6 O20'
_cell_volume   370.69907485
_cell_formula_units_Z   2
loop_
 _symmetry_equiv_pos_site_id
 _symmetry_equiv_pos_as_xyz
  1  'x, y, z'
loop_
 _atom_site_type_symbol
 _atom_site_label
 _atom_site_symmetry_multiplicity
 _atom_site_fract_x
 _atom_site_fract_y
 _atom_site_fract_z
 _atom_site_occupancy
  Mn  Mn0  1  0.95708772  0.56235434  0.67512822  1
  Mn  Mn1  1  0.04291228  0.06235434  0.32487178  1
  Mn  Mn2  1  0.04291228  0.43764566  0.32487178  1
  Mn  Mn3  1  0.95708772  0.93764566  0.67512822  1
  P  P4  1  0.66258473  0.75000000  0.18100661  1
  P  P5  1  0.33741527  0.25000000  0.81899339  1
  P  P6  1  0.60492431  0.25000000  0.54283086  1
  P  P7  1  0.39507569  0.75000000  0.45716914  1
  P  P8  1  0.52745780  0.75000000  0.85500284  1
  P  P9  1  0.47254220  0.25000000  0.14499716  1
  O  O10  1  0.17249342  0.10242061  0.79877818  1
  O  O11  1  0.22928375  0.89837464  0.48160637  1
  O  O12  1  0.30143036  0.25000000  0.45009068  1
  O  O13  1  0.45938338  0.75000000  0.02334678  1
  O  O14  1  0.82750658  0.60242061  0.20122182  1
  O  O15  1  0.32051240  0.10208358  0.17106475  1
  O  O16  1  0.41795470  0.75000000  0.28408614  1
  O  O17  1  0.58204630  0.25000000  0.71591386  1
  O  O18  1  0.32051240  0.39791642  0.17106475  1
  O  O19  1  0.78795685  0.25000000  0.23758294  1
  O  O20  1  0.21204315  0.75000000  0.76241706  1
  O  O21  1  0.22928375  0.60162536  0.48160637  1
  O  O22  1  0.77071625  0.10162536  0.51839363  1
  O  O23  1  0.69856964  0.75000000  0.54990932  1
  O  O24  1  0.67948760  0.60208358  0.82893525  1
  O  O25  1  0.82750658  0.89757939  0.20122182  1
  O  O26  1  0.67948760  0.89791642  0.82893525  1
  O  O27  1  0.54061662  0.25000000  0.97665322  1
  O  O28  1  0.77071625  0.39837464  0.51839363  1
  O  O29  1  0.17249342  0.39757939  0.79877818  1
