# generated using pymatgen
data_Li3Fe(PO4)2
_symmetry_space_group_name_H-M   'P 1'
_cell_length_a   8.32943131
_cell_length_b   10.40492893
_cell_length_c   8.25421034
_cell_angle_alpha   90.00000000
_cell_angle_beta   105.36341655
_cell_angle_gamma   90.00000000
_symmetry_Int_Tables_number   1
_chemical_formula_structural   Li3Fe(PO4)2
_chemical_formula_sum   'Li12 Fe4 P8 O32'
_cell_volume   689.80493757
_cell_formula_units_Z   4
loop_
 _symmetry_equiv_pos_site_id
 _symmetry_equiv_pos_as_xyz
  1  'x, y, z'
loop_
 _atom_site_type_symbol
 _atom_site_label
 _atom_site_symmetry_multiplicity
 _atom_site_fract_x
 _atom_site_fract_y
 _atom_site_fract_z
 _atom_site_occupancy
  Li  Li0  1  0.09814379  0.66311109  0.60705027  1
  Li  Li1  1  0.91246391  0.33321191  0.40014440  1
  Li  Li2  1  0.84553436  0.84284672  0.35533271  1
  Li  Li3  1  0.78403385  0.57733825  0.54668729  1
  Li  Li4  1  0.71596572  0.07733837  0.45331243  1
  Li  Li5  1  0.16474779  0.15173493  0.64185180  1
  Li  Li6  1  0.15862582  0.35407125  0.17192565  1
  Li  Li7  1  0.34137452  0.85407114  0.82807491  1
  Li  Li8  1  0.33525130  0.65173481  0.35814844  1
  Li  Li9  1  0.40185654  0.16311121  0.39295030  1
  Li  Li10  1  0.58753566  0.83321179  0.59985532  1
  Li  Li11  1  0.65446645  0.34284684  0.64466856  1
  O  O12  1  0.05086863  0.16630057  0.13169912  1
  O  O13  1  0.99074020  0.53997867  0.72553126  1
  O  O14  1  0.91269801  0.65748700  0.38890218  1
  O  O15  1  0.99737133  0.94508211  0.24068787  1
  O  O16  1  0.00728454  0.06086576  0.75996435  1
  O  O17  1  0.08112613  0.32562417  0.62450972  1
  O  O18  1  0.00524597  0.45229181  0.26142118  1
  O  O19  1  0.11524219  0.84579099  0.68266011  1
  O  O20  1  0.19474810  0.38706535  0.92897089  1
  O  O21  1  0.38475690  0.34579110  0.31733892  1
  O  O22  1  0.10293319  0.67101577  0.19386975  1
  O  O23  1  0.19712581  0.10478665  0.42712119  1
  O  O24  1  0.30287328  0.60478653  0.57287905  1
  O  O25  1  0.80100408  0.61066741  0.08098002  1
  O  O26  1  0.44913171  0.66630045  0.86830144  1
  O  O27  1  0.30525224  0.88706523  0.07102967  1
  O  O28  1  0.88554513  0.14350628  0.35204339  1
  O  O29  1  0.49475313  0.95229169  0.73857906  1
  O  O30  1  0.50262823  0.44508223  0.75931185  1
  O  O31  1  0.41887421  0.82562501  0.37548963  1
  O  O32  1  0.58730155  0.15748711  0.61109755  1
  O  O33  1  0.49271455  0.56086660  0.24003467  1
  O  O34  1  0.50925937  0.03997878  0.27446846  1
  O  O35  1  0.61445568  0.64350616  0.64795666  1
  O  O36  1  0.69899549  0.11066752  0.91901970  1
  O  O37  1  0.56616523  0.35712975  0.11404225  1
  O  O38  1  0.61043154  0.83085152  0.18241868  1
  O  O39  1  0.69228272  0.40388695  0.42697675  1
  O  O40  1  0.80771684  0.90388683  0.57302298  1
  O  O41  1  0.88956928  0.33085164  0.81758258  1
  O  O42  1  0.93383434  0.85712963  0.88595747  1
  O  O43  1  0.39706590  0.17101588  0.80612927  1
  P  P44  1  0.54446749  0.09233233  0.76351804  1
  P  P45  1  0.46064937  0.90128973  0.23382818  1
  P  P46  1  0.53328223  0.41250239  0.27947379  1
  P  P47  1  0.96671733  0.91250227  0.72052594  1
  P  P48  1  0.03935097  0.40128984  0.76617239  1
  P  P49  1  0.03221890  0.09140753  0.29469412  1
  P  P50  1  0.46778019  0.59140742  0.70530612  1
  P  P51  1  0.95553332  0.59233222  0.23648322  1
  Fe  Fe52  1  0.91071250  0.16086717  0.90834206  1
  Fe  Fe53  1  0.58928706  0.66086705  0.09165767  1
  Fe  Fe54  1  0.41012238  0.33903530  0.90223975  1
  Fe  Fe55  1  0.08987671  0.83903519  0.09775928  1
