# generated using pymatgen
data_Ba3NiO4
_symmetry_space_group_name_H-M   'P 1'
_cell_length_a   7.24463808
_cell_length_b   7.24463808
_cell_length_c   7.24463808
_cell_angle_alpha   66.61914621
_cell_angle_beta   66.61914621
_cell_angle_gamma   66.61914623
_symmetry_Int_Tables_number   1
_chemical_formula_structural   Ba3NiO4
_chemical_formula_sum   'Ba6 Ni2 O8'
_cell_volume   307.15283678
_cell_formula_units_Z   2
loop_
 _symmetry_equiv_pos_site_id
 _symmetry_equiv_pos_as_xyz
  1  'x, y, z'
loop_
 _atom_site_type_symbol
 _atom_site_label
 _atom_site_symmetry_multiplicity
 _atom_site_fract_x
 _atom_site_fract_y
 _atom_site_fract_z
 _atom_site_occupancy
  O  O0  1  0.75000026  0.98275315  0.51724645  1
  O  O1  1  0.48275312  0.24999973  0.01724791  1
  O  O2  1  0.00000000  0.00000000  0.00000000  1
  O  O3  1  0.49999967  0.49999948  0.50000049  1
  O  O4  1  0.01724700  0.48275210  0.24999975  1
  O  O5  1  0.51724774  0.74999922  0.98275247  1
  O  O6  1  0.25000016  0.01724738  0.48275209  1
  O  O7  1  0.98275236  0.51724686  0.74999985  1
  Ni  Ni8  1  0.75000027  0.74999922  0.74999974  1
  Ni  Ni9  1  0.25000060  0.24999974  0.24999925  1
  Ba  Ba10  1  0.74999991  0.33509090  0.16491016  1
  Ba  Ba11  1  0.16491050  0.75000012  0.33508992  1
  Ba  Ba12  1  0.25000050  0.66490962  0.83508976  1
  Ba  Ba13  1  0.66491027  0.83508971  0.24999990  1
  Ba  Ba14  1  0.83508991  0.25000040  0.66491000  1
  Ba  Ba15  1  0.33509059  0.16490924  0.75000048  1
