# generated using pymatgen
data_LiNi(PO3)3
_symmetry_space_group_name_H-M   'P 1'
_cell_length_a   6.26853038
_cell_length_b   6.26853038
_cell_length_c   6.26853038
_cell_angle_alpha   107.11527544
_cell_angle_beta   107.11527538
_cell_angle_gamma   107.11527529
_symmetry_Int_Tables_number   1
_chemical_formula_structural   LiNi(PO3)3
_chemical_formula_sum   'Li1 Ni1 P3 O9'
_cell_volume   204.48798857
_cell_formula_units_Z   1
loop_
 _symmetry_equiv_pos_site_id
 _symmetry_equiv_pos_as_xyz
  1  'x, y, z'
loop_
 _atom_site_type_symbol
 _atom_site_label
 _atom_site_symmetry_multiplicity
 _atom_site_fract_x
 _atom_site_fract_y
 _atom_site_fract_z
 _atom_site_occupancy
  Li  Li0  1  0.36618888  0.36618889  0.36618864  1
  O  O1  1  0.63686836  0.27819566  0.87431756  1
  O  O2  1  0.27819675  0.87431718  0.63686772  1
  O  O3  1  0.08400660  0.37600303  0.12337442  1
  O  O4  1  0.64362224  0.90549512  0.96418537  1
  O  O5  1  0.90549538  0.96418505  0.64362221  1
  O  O6  1  0.12337431  0.08400533  0.37600229  1
  O  O7  1  0.96418589  0.64362241  0.90549560  1
  O  O8  1  0.37600254  0.12337397  0.08400581  1
  O  O9  1  0.87431746  0.63686724  0.27819555  1
  P  P10  1  0.48835805  0.04035374  0.91114562  1
  P  P11  1  0.04035313  0.91114415  0.48835734  1
  P  P12  1  0.91114411  0.48835719  0.04035241  1
  Ni  Ni13  1  0.99387558  0.99387603  0.99387658  1
