# generated using pymatgen
data_Co2RuO4
_symmetry_space_group_name_H-M   'P 1'
_cell_length_a   6.09183272
_cell_length_b   6.09183220
_cell_length_c   6.04301171
_cell_angle_alpha   60.26476075
_cell_angle_beta   60.26476181
_cell_angle_gamma   57.69318209
_symmetry_Int_Tables_number   1
_chemical_formula_structural   Co2RuO4
_chemical_formula_sum   'Co4 Ru2 O8'
_cell_volume   156.22684742
_cell_formula_units_Z   2
loop_
 _symmetry_equiv_pos_site_id
 _symmetry_equiv_pos_as_xyz
  1  'x, y, z'
loop_
 _atom_site_type_symbol
 _atom_site_label
 _atom_site_symmetry_multiplicity
 _atom_site_fract_x
 _atom_site_fract_y
 _atom_site_fract_z
 _atom_site_occupancy
  Co  Co0  1  0.01010155  0.01010155  0.98989845  1
  Co  Co1  1  0.23989845  0.23989845  0.26010155  1
  Co  Co2  1  0.62500000  0.62500000  0.12500000  1
  Co  Co3  1  0.62500000  0.62500000  0.62500000  1
  O  O4  1  0.37685269  0.37685269  0.38490421  1
  O  O5  1  0.37685269  0.37685269  0.86139041  1
  O  O6  1  0.36776776  0.83730155  0.39746535  1
  O  O7  1  0.83730155  0.36776776  0.39746535  1
  O  O8  1  0.41269845  0.88223224  0.85253465  1
  O  O9  1  0.88223224  0.41269845  0.85253465  1
  O  O10  1  0.87314731  0.87314731  0.38860959  1
  O  O11  1  0.87314731  0.87314731  0.86509579  1
  Ru  Ru12  1  0.12500000  0.62500000  0.62500000  1
  Ru  Ru13  1  0.62500000  0.12500000  0.62500000  1
