# generated using pymatgen
data_La5SmS8
_symmetry_space_group_name_H-M   'P 1'
_cell_length_a   7.53539624
_cell_length_b   7.53539664
_cell_length_c   7.53539729
_cell_angle_alpha   109.48380681
_cell_angle_beta   109.44604765
_cell_angle_gamma   109.48380773
_symmetry_Int_Tables_number   1
_chemical_formula_structural   La5SmS8
_chemical_formula_sum   'La5 Sm1 S8'
_cell_volume   329.37939457
_cell_formula_units_Z   1
loop_
 _symmetry_equiv_pos_site_id
 _symmetry_equiv_pos_as_xyz
  1  'x, y, z'
loop_
 _atom_site_type_symbol
 _atom_site_label
 _atom_site_symmetry_multiplicity
 _atom_site_fract_x
 _atom_site_fract_y
 _atom_site_fract_z
 _atom_site_occupancy
  La  La0  1  0.25102251  0.62756693  0.37726974  1
  La  La1  1  0.37500000  0.25000000  0.62500000  1
  La  La2  1  0.74970281  0.87243307  0.12345558  1
  La  La3  1  0.62273026  0.37375277  0.25029719  1
  La  La4  1  0.87654442  0.12624723  0.74897749  1
  Sm  Sm5  1  0.12500000  0.75000000  0.87500000  1
  S  S6  1  0.00123569  0.84804563  0.50269682  1
  S  S7  1  0.00244204  0.35517743  0.50424654  1
  S  S8  1  0.49575346  0.99819550  0.85093089  1
  S  S9  1  0.14906911  0.14482257  0.14726461  1
  S  S10  1  0.49730318  0.99853887  0.34534881  1
  S  S11  1  0.34680995  0.50146113  0.99876431  1
  S  S12  1  0.65465119  0.65195437  0.65319005  1
  S  S13  1  0.85273539  0.50180450  0.99755796  1
