# generated using pymatgen
data_Ag3(AsO4)2
_symmetry_space_group_name_H-M   'P 1'
_cell_length_a   5.97246822
_cell_length_b   5.97246822
_cell_length_c   5.97246822
_cell_angle_alpha   88.18321179
_cell_angle_beta   88.18321179
_cell_angle_gamma   88.18321179
_symmetry_Int_Tables_number   1
_chemical_formula_structural   Ag3(AsO4)2
_chemical_formula_sum   'Ag3 As2 O8'
_cell_volume   212.72555049
_cell_formula_units_Z   1
loop_
 _symmetry_equiv_pos_site_id
 _symmetry_equiv_pos_as_xyz
  1  'x, y, z'
loop_
 _atom_site_type_symbol
 _atom_site_label
 _atom_site_symmetry_multiplicity
 _atom_site_fract_x
 _atom_site_fract_y
 _atom_site_fract_z
 _atom_site_occupancy
  Ag  Ag0  1  0.48969192  0.74144436  1.00181060  1
  Ag  Ag1  1  0.74144436  1.00181060  0.48969192  1
  Ag  Ag2  1  1.00181060  0.48969192  0.74144436  1
  As  As3  1  -0.00262618  -0.00262618  -0.00262618  1
  As  As4  1  0.50206287  0.50206287  0.50206287  1
  O  O5  1  0.15664254  0.78854796  0.85510842  1
  O  O6  1  0.15334965  0.15334965  0.15334965  1
  O  O7  1  0.34055066  0.35429306  0.69329584  1
  O  O8  1  0.35429306  0.69329584  0.34055066  1
  O  O9  1  0.69329584  0.34055066  0.35429306  1
  O  O10  1  0.67582831  0.67582831  0.67582831  1
  O  O11  1  0.85510842  0.15664254  0.78854796  1
  O  O12  1  0.78854796  0.85510842  0.15664254  1
