# generated using pymatgen
data_Ca3SiO5
_symmetry_space_group_name_H-M   'P 1'
_cell_length_a   7.24725834
_cell_length_b   7.24725803
_cell_length_c   5.55459322
_cell_angle_alpha   90.00000000
_cell_angle_beta   90.00000000
_cell_angle_gamma   120.00000142
_symmetry_Int_Tables_number   1
_chemical_formula_structural   Ca3SiO5
_chemical_formula_sum   'Ca6 Si2 O10'
_cell_volume   252.65642801
_cell_formula_units_Z   2
loop_
 _symmetry_equiv_pos_site_id
 _symmetry_equiv_pos_as_xyz
  1  'x, y, z'
loop_
 _atom_site_type_symbol
 _atom_site_label
 _atom_site_symmetry_multiplicity
 _atom_site_fract_x
 _atom_site_fract_y
 _atom_site_fract_z
 _atom_site_occupancy
  Ca  Ca0  1  0.15108472  0.84891528  0.76560033  1
  Ca  Ca1  1  0.15108472  0.30216944  0.76560033  1
  Ca  Ca2  1  0.30216944  0.15108472  0.26560033  1
  Ca  Ca3  1  0.69783056  0.84891528  0.76560033  1
  Ca  Ca4  1  0.84891528  0.69783056  0.26560033  1
  Ca  Ca5  1  0.84891528  0.15108472  0.26560033  1
  O  O6  1  0.20931442  0.79068558  0.33575099  1
  O  O7  1  0.00000000  0.00000000  0.52426662  1
  O  O8  1  0.00000000  0.00000000  0.02426662  1
  O  O9  1  0.20931442  0.41862884  0.33575099  1
  O  O10  1  0.33333300  0.66666700  0.93454711  1
  O  O11  1  0.58137116  0.79068558  0.33575099  1
  O  O12  1  0.41862884  0.20931442  0.83575099  1
  O  O13  1  0.66666700  0.33333300  0.43454711  1
  O  O14  1  0.79068558  0.58137116  0.83575099  1
  O  O15  1  0.79068558  0.20931442  0.83575099  1
  Si  Si16  1  0.33333300  0.66666700  0.23579232  1
  Si  Si17  1  0.66666700  0.33333300  0.73579232  1
