# generated using pymatgen
data_PrGaO3
_symmetry_space_group_name_H-M   'P 1'
_cell_length_a   5.50864068
_cell_length_b   5.60953694
_cell_length_c   7.83722105
_cell_angle_alpha   90.00000000
_cell_angle_beta   90.00000000
_cell_angle_gamma   90.00000000
_symmetry_Int_Tables_number   1
_chemical_formula_structural   PrGaO3
_chemical_formula_sum   'Pr4 Ga4 O12'
_cell_volume   242.17736721
_cell_formula_units_Z   4
loop_
 _symmetry_equiv_pos_site_id
 _symmetry_equiv_pos_as_xyz
  1  'x, y, z'
loop_
 _atom_site_type_symbol
 _atom_site_label
 _atom_site_symmetry_multiplicity
 _atom_site_fract_x
 _atom_site_fract_y
 _atom_site_fract_z
 _atom_site_occupancy
  O  O0  1  0.71195588  0.28944559  0.45562900  1
  O  O1  1  0.21195588  0.21055441  0.54437100  1
  O  O2  1  0.78804412  0.78944559  0.04437100  1
  O  O3  1  0.28804412  0.71055441  0.95562900  1
  O  O4  1  0.28804412  0.71055441  0.54437100  1
  O  O5  1  0.78804412  0.78944559  0.45562900  1
  O  O6  1  0.21195588  0.21055441  0.95562900  1
  O  O7  1  0.71195588  0.28944559  0.04437100  1
  O  O8  1  0.08243094  0.48047690  0.25000000  1
  O  O9  1  0.58243094  0.01952310  0.75000000  1
  O  O10  1  0.41756906  0.98047690  0.25000000  1
  O  O11  1  0.91756906  0.51952310  0.75000000  1
  Ga  Ga12  1  0.50000000  0.00000000  0.50000000  1
  Ga  Ga13  1  0.00000000  0.50000000  0.50000000  1
  Ga  Ga14  1  0.00000000  0.50000000  0.00000000  1
  Ga  Ga15  1  0.50000000  0.00000000  0.00000000  1
  Pr  Pr16  1  0.01158888  0.95365416  0.75000000  1
  Pr  Pr17  1  0.51158888  0.54634584  0.25000000  1
  Pr  Pr18  1  0.48841112  0.45365416  0.75000000  1
  Pr  Pr19  1  0.98841112  0.04634584  0.25000000  1
