# generated using pymatgen
data_LiCu4(PO4)3
_symmetry_space_group_name_H-M   'P 1'
_cell_length_a   6.02545795
_cell_length_b   14.38277291
_cell_length_c   10.25601115
_cell_angle_alpha   90.00000000
_cell_angle_beta   90.00000000
_cell_angle_gamma   90.00000000
_symmetry_Int_Tables_number   1
_chemical_formula_structural   LiCu4(PO4)3
_chemical_formula_sum   'Li4 Cu16 P12 O48'
_cell_volume   888.81457513
_cell_formula_units_Z   4
loop_
 _symmetry_equiv_pos_site_id
 _symmetry_equiv_pos_as_xyz
  1  'x, y, z'
loop_
 _atom_site_type_symbol
 _atom_site_label
 _atom_site_symmetry_multiplicity
 _atom_site_fract_x
 _atom_site_fract_y
 _atom_site_fract_z
 _atom_site_occupancy
  Cu  Cu0  1  0.05301849  0.63351321  0.84879532  1
  Cu  Cu1  1  0.05301849  0.86648679  0.84879532  1
  Cu  Cu2  1  0.14588312  0.58584556  0.44111044  1
  Cu  Cu3  1  0.14588312  0.91415444  0.44111044  1
  Cu  Cu4  1  0.35411688  0.08584556  0.94111044  1
  Cu  Cu5  1  0.35411688  0.41415444  0.94111044  1
  Cu  Cu6  1  0.44698151  0.13351321  0.34879532  1
  Cu  Cu7  1  0.44698151  0.36648679  0.34879532  1
  Cu  Cu8  1  0.55301849  0.63351321  0.65120468  1
  Cu  Cu9  1  0.55301849  0.86648679  0.65120468  1
  Cu  Cu10  1  0.64588312  0.58584556  0.05888956  1
  Cu  Cu11  1  0.64588312  0.91415444  0.05888956  1
  Cu  Cu12  1  0.85411688  0.08584556  0.55888956  1
  Cu  Cu13  1  0.85411688  0.41415444  0.55888956  1
  Cu  Cu14  1  0.94698151  0.13351321  0.15120468  1
  Cu  Cu15  1  0.94698151  0.36648679  0.15120468  1
  Li  Li16  1  0.06278976  0.25000000  0.72696430  1
  Li  Li17  1  0.43721024  0.75000000  0.22696430  1
  Li  Li18  1  0.56278976  0.25000000  0.77303570  1
  Li  Li19  1  0.93721024  0.75000000  0.27303570  1
  O  O20  1  0.04184581  0.11298319  0.96781406  1
  O  O21  1  0.04184581  0.38701681  0.96781406  1
  O  O22  1  0.03826874  0.01246536  0.20309362  1
  O  O23  1  0.03826874  0.48753464  0.20309362  1
  O  O24  1  0.04438008  0.75000000  0.45525352  1
  O  O25  1  0.07418060  0.66026125  0.66262091  1
  O  O26  1  0.07418060  0.83973875  0.66262091  1
  O  O27  1  0.16195241  0.04836445  0.54518912  1
  O  O28  1  0.16195241  0.45163555  0.54518912  1
  O  O29  1  0.18647505  0.64675581  0.23743178  1
  O  O30  1  0.18647505  0.85324419  0.23743178  1
  O  O31  1  0.21518858  0.75000000  0.88672875  1
  O  O32  1  0.28481142  0.25000000  0.38672875  1
  O  O33  1  0.31352495  0.14675581  0.73743178  1
  O  O34  1  0.31352495  0.35324419  0.73743178  1
  O  O35  1  0.33804759  0.54836445  0.04518912  1
  O  O36  1  0.33804759  0.95163555  0.04518912  1
  O  O37  1  0.42581940  0.16026125  0.16262091  1
  O  O38  1  0.42581940  0.33973875  0.16262091  1
  O  O39  1  0.45561992  0.25000000  0.95525352  1
  O  O40  1  0.46173126  0.51246536  0.70309362  1
  O  O41  1  0.46173126  0.98753464  0.70309362  1
  O  O42  1  0.45815419  0.61298319  0.46781406  1
  O  O43  1  0.45815419  0.88701681  0.46781406  1
  O  O44  1  0.54184581  0.11298319  0.53218594  1
  O  O45  1  0.54184581  0.38701681  0.53218594  1
  O  O46  1  0.53826874  0.01246536  0.29690638  1
  O  O47  1  0.53826874  0.48753464  0.29690638  1
  O  O48  1  0.54438008  0.75000000  0.04474648  1
  O  O49  1  0.57418060  0.66026125  0.83737909  1
  O  O50  1  0.57418060  0.83973875  0.83737909  1
  O  O51  1  0.66195241  0.04836445  0.95481088  1
  O  O52  1  0.66195241  0.45163555  0.95481088  1
  O  O53  1  0.68647505  0.64675581  0.26256822  1
  O  O54  1  0.68647505  0.85324419  0.26256822  1
  O  O55  1  0.71518858  0.75000000  0.61327125  1
  O  O56  1  0.78481142  0.25000000  0.11327125  1
  O  O57  1  0.81352495  0.14675581  0.76256822  1
  O  O58  1  0.81352495  0.35324419  0.76256822  1
  O  O59  1  0.83804759  0.54836445  0.45481088  1
  O  O60  1  0.83804759  0.95163555  0.45481088  1
  O  O61  1  0.92581940  0.16026125  0.33737909  1
  O  O62  1  0.92581940  0.33973875  0.33737909  1
  O  O63  1  0.95561992  0.25000000  0.54474648  1
  O  O64  1  0.96173126  0.51246536  0.79690638  1
  O  O65  1  0.96173126  0.98753464  0.79690638  1
  O  O66  1  0.95815419  0.61298319  0.03218594  1
  O  O67  1  0.95815419  0.88701681  0.03218594  1
  P  P68  1  0.02010623  0.25000000  0.40047713  1
  P  P69  1  0.13463918  0.57274829  0.13375252  1
  P  P70  1  0.13463918  0.92725171  0.13375252  1
  P  P71  1  0.36536082  0.07274829  0.63375252  1
  P  P72  1  0.36536082  0.42725171  0.63375252  1
  P  P73  1  0.47989377  0.75000000  0.90047713  1
  P  P74  1  0.52010623  0.25000000  0.09952287  1
  P  P75  1  0.63463918  0.57274829  0.36624748  1
  P  P76  1  0.63463918  0.92725171  0.36624748  1
  P  P77  1  0.86536082  0.07274829  0.86624748  1
  P  P78  1  0.86536082  0.42725171  0.86624748  1
  P  P79  1  0.97989377  0.75000000  0.59952287  1
