# generated using pymatgen
data_Ca(NdTe2)2
_symmetry_space_group_name_H-M   'P 1'
_cell_length_a   8.29391458
_cell_length_b   8.29391507
_cell_length_c   8.29391482
_cell_angle_alpha   109.77016797
_cell_angle_beta   109.77016076
_cell_angle_gamma   108.87497101
_symmetry_Int_Tables_number   1
_chemical_formula_structural   Ca(NdTe2)2
_chemical_formula_sum   'Ca2 Nd4 Te8'
_cell_volume   439.15881418
_cell_formula_units_Z   2
loop_
 _symmetry_equiv_pos_site_id
 _symmetry_equiv_pos_as_xyz
  1  'x, y, z'
loop_
 _atom_site_type_symbol
 _atom_site_label
 _atom_site_symmetry_multiplicity
 _atom_site_fract_x
 _atom_site_fract_y
 _atom_site_fract_z
 _atom_site_occupancy
  Ca  Ca0  1  0.62500000  0.37500000  0.25000000  1
  Ca  Ca1  1  0.87500000  0.12500000  0.75000000  1
  Nd  Nd2  1  0.12436700  0.75000000  0.87436700  1
  Nd  Nd3  1  0.25000000  0.62436700  0.37436700  1
  Nd  Nd4  1  0.37563300  0.25000000  0.62563300  1
  Nd  Nd5  1  0.75000000  0.87563300  0.12563300  1
  Te  Te6  1  0.00314342  0.85590736  0.50254622  1
  Te  Te7  1  0.00059720  0.35336113  0.49745378  1
  Te  Te8  1  0.49685658  0.99940280  0.85276393  1
  Te  Te9  1  0.14409264  0.14663887  0.14723607  1
  Te  Te10  1  0.35590736  0.50314342  0.00254622  1
  Te  Te11  1  0.64663887  0.64409264  0.64723607  1
  Te  Te12  1  0.49940280  0.99685658  0.35276393  1
  Te  Te13  1  0.85336113  0.50059720  0.99745378  1
