# generated using pymatgen
data_Bi(PO3)4
_symmetry_space_group_name_H-M   'P 1'
_cell_length_a   7.18592186
_cell_length_b   8.96416269
_cell_length_c   9.00832914
_cell_angle_alpha   115.42574526
_cell_angle_beta   113.50647109
_cell_angle_gamma   66.37448896
_symmetry_Int_Tables_number   1
_chemical_formula_structural   Bi(PO3)4
_chemical_formula_sum   'Bi2 P8 O24'
_cell_volume   461.76131902
_cell_formula_units_Z   2
loop_
 _symmetry_equiv_pos_site_id
 _symmetry_equiv_pos_as_xyz
  1  'x, y, z'
loop_
 _atom_site_type_symbol
 _atom_site_label
 _atom_site_symmetry_multiplicity
 _atom_site_fract_x
 _atom_site_fract_y
 _atom_site_fract_z
 _atom_site_occupancy
  Bi  Bi0  1  0.20654756  0.25000957  0.24999625  1
  Bi  Bi1  1  0.79345244  0.74999043  0.75000375  1
  O  O2  1  0.19941255  0.07700883  0.76110355  1
  O  O3  1  0.31576610  0.34005134  0.84760362  1
  O  O4  1  0.13392552  0.57824213  0.71553028  1
  O  O5  1  -0.00338203  0.92171492  0.78444793  1
  O  O6  1  0.24232054  0.25966656  0.52633262  1
  O  O7  1  0.58134183  0.04667036  0.80908421  1
  O  O8  1  0.18104404  0.54663598  0.30906883  1
  O  O9  1  0.51537832  0.42300077  0.73895109  1
  O  O10  1  0.02441686  0.75970090  0.02630001  1
  O  O11  1  0.19175058  0.84002578  0.34757736  1
  O  O12  1  0.57783994  0.80101845  0.93302493  1
  O  O13  1  0.44579370  0.69898767  0.56696798  1
  O  O14  1  0.55420630  0.30101233  0.43303202  1
  O  O15  1  0.42216006  0.19898155  0.06697507  1
  O  O16  1  0.80824942  0.15997422  0.65242264  1
  O  O17  1  0.97558314  0.24029910  0.97369999  1
  O  O18  1  0.48462168  0.57699923  0.26104891  1
  O  O19  1  0.81895596  0.45336402  0.69093117  1
  O  O20  1  0.41865817  0.95332964  0.19091579  1
  O  O21  1  0.75767946  0.74033344  0.47366738  1
  O  O22  1  1.00338203  0.07828508  0.21555207  1
  O  O23  1  0.86607448  0.42175787  0.28446972  1
  O  O24  1  0.68423390  0.65994866  0.15239638  1
  O  O25  1  0.80058745  0.92299117  0.23889645  1
  P  P26  1  -0.00860529  0.09817968  0.80552593  1
  P  P27  1  0.39414744  0.15810255  0.88073178  1
  P  P28  1  0.28408652  0.40184345  0.69447778  1
  P  P29  1  0.32841545  0.65811059  0.38071517  1
  P  P30  1  0.67158455  0.34188941  0.61928483  1
  P  P31  1  0.71591348  0.59815655  0.30552222  1
  P  P32  1  0.60585256  0.84189745  0.11926822  1
  P  P33  1  1.00860529  0.90182032  0.19447407  1
