# generated using pymatgen
data_Li5SiAs3
_symmetry_space_group_name_H-M   'P 1'
_cell_length_a   8.55326733
_cell_length_b   12.76133452
_cell_length_c   10.45320379
_cell_angle_alpha   34.99515290
_cell_angle_beta   35.09064183
_cell_angle_gamma   59.67423317
_symmetry_Int_Tables_number   1
_chemical_formula_structural   Li5SiAs3
_chemical_formula_sum   'Li10 Si2 As6'
_cell_volume   325.41641471
_cell_formula_units_Z   2
loop_
 _symmetry_equiv_pos_site_id
 _symmetry_equiv_pos_as_xyz
  1  'x, y, z'
loop_
 _atom_site_type_symbol
 _atom_site_label
 _atom_site_symmetry_multiplicity
 _atom_site_fract_x
 _atom_site_fract_y
 _atom_site_fract_z
 _atom_site_occupancy
  As  As0  1  0.00000000  0.00000000  0.00000000  1
  As  As1  1  0.00854497  0.31406565  0.00133931  1
  As  As2  1  0.50000000  0.00000000  0.00000000  1
  As  As3  1  0.99145503  0.68593435  0.99866069  1
  As  As4  1  0.45342153  0.31406565  0.05646274  1
  As  As5  1  0.54657847  0.68593435  0.94353726  1
  Li  Li6  1  0.50193981  0.00000000  0.24806019  1
  Li  Li7  1  0.01613218  0.67425764  0.23683383  1
  Li  Li8  1  0.50818346  0.33266485  0.24688994  1
  Li  Li9  1  0.98386782  0.32574236  0.76316617  1
  Li  Li10  1  0.50004111  0.66733515  0.24488550  1
  Li  Li11  1  0.49806019  1.00000000  0.75193981  1
  Li  Li12  1  0.01257175  0.67425764  0.74039426  1
  Li  Li13  1  0.98742825  0.32574236  0.25960574  1
  Li  Li14  1  0.49995889  0.33266485  0.75511450  1
  Li  Li15  1  0.49181654  0.66733515  0.75311006  1
  Si  Si16  1  0.01313801  1.00000000  0.73686199  1
  Si  Si17  1  0.98686199  0.00000000  0.26313801  1
