# generated using pymatgen
data_BaLiLaTeO6
_symmetry_space_group_name_H-M   'P 1'
_cell_length_a   5.72315017
_cell_length_b   5.72315033
_cell_length_c   5.72315055
_cell_angle_alpha   59.99999851
_cell_angle_beta   60.00000225
_cell_angle_gamma   60.00000101
_symmetry_Int_Tables_number   1
_chemical_formula_structural   BaLiLaTeO6
_chemical_formula_sum   'Ba1 Li1 La1 Te1 O6'
_cell_volume   132.55327850
_cell_formula_units_Z   1
loop_
 _symmetry_equiv_pos_site_id
 _symmetry_equiv_pos_as_xyz
  1  'x, y, z'
loop_
 _atom_site_type_symbol
 _atom_site_label
 _atom_site_symmetry_multiplicity
 _atom_site_fract_x
 _atom_site_fract_y
 _atom_site_fract_z
 _atom_site_occupancy
  Ba  Ba0  1  0.75000000  0.75000000  0.75000000  1
  La  La1  1  0.25000000  0.25000000  0.25000000  1
  Li  Li2  1  0.00000000  0.00000000  0.00000000  1
  O  O3  1  0.25994330  0.25994330  0.74005670  1
  O  O4  1  0.25994330  0.74005670  0.25994330  1
  O  O5  1  0.74005670  0.25994330  0.25994330  1
  O  O6  1  0.25994330  0.74005670  0.74005670  1
  O  O7  1  0.74005670  0.25994330  0.74005670  1
  O  O8  1  0.74005670  0.74005670  0.25994330  1
  Te  Te9  1  0.50000000  0.50000000  0.50000000  1
