# generated using pymatgen
data_As2W2O11
_symmetry_space_group_name_H-M   'P 1'
_cell_length_a   6.57607779
_cell_length_b   8.37263449
_cell_length_c   16.64248593
_cell_angle_alpha   90.00000000
_cell_angle_beta   90.00000000
_cell_angle_gamma   90.00000000
_symmetry_Int_Tables_number   1
_chemical_formula_structural   As2W2O11
_chemical_formula_sum   'As8 W8 O44'
_cell_volume   916.32022573
_cell_formula_units_Z   4
loop_
 _symmetry_equiv_pos_site_id
 _symmetry_equiv_pos_as_xyz
  1  'x, y, z'
loop_
 _atom_site_type_symbol
 _atom_site_label
 _atom_site_symmetry_multiplicity
 _atom_site_fract_x
 _atom_site_fract_y
 _atom_site_fract_z
 _atom_site_occupancy
  O  O0  1  0.04903376  0.71367858  0.42939881  1
  O  O1  1  0.54903476  0.28632142  0.57060119  1
  O  O2  1  0.95096624  0.21367958  0.07060119  1
  O  O3  1  0.45096524  0.78632142  0.92939881  1
  O  O4  1  0.95096624  0.28632142  0.57060119  1
  O  O5  1  0.45096524  0.71367858  0.42939881  1
  O  O6  1  0.04903376  0.78632142  0.92939881  1
  O  O7  1  0.54903476  0.21367958  0.07060119  1
  O  O8  1  0.04910601  0.07467877  0.29474534  1
  O  O9  1  0.54910701  0.92532123  0.70525466  1
  O  O10  1  0.95089399  0.57467877  0.20525366  1
  O  O11  1  0.45089299  0.42532123  0.79474534  1
  O  O12  1  0.95089399  0.92532123  0.70525466  1
  O  O13  1  0.45089299  0.07467877  0.29474534  1
  O  O14  1  0.25000000  0.47041062  0.64523074  1
  O  O15  1  0.54910701  0.57467877  0.20525366  1
  O  O16  1  0.25000000  0.49452658  0.32049124  1
  O  O17  1  0.74999900  0.50547342  0.67950876  1
  O  O18  1  0.74999900  0.99452558  0.17950876  1
  O  O19  1  0.25000000  0.00547442  0.82049124  1
  O  O20  1  0.25000000  0.78780338  0.26399461  1
  O  O21  1  0.74999900  0.21219662  0.73600639  1
  O  O22  1  0.74999900  0.28780338  0.23600539  1
  O  O23  1  0.25000000  0.71219762  0.76399361  1
  O  O24  1  0.25000000  0.68451599  0.10686927  1
  O  O25  1  0.74999900  0.31548301  0.89312973  1
  O  O26  1  0.74999900  0.18451599  0.39313073  1
  O  O27  1  0.25000000  0.81548401  0.60687027  1
  O  O28  1  0.25000000  0.36525734  0.15835649  1
  O  O29  1  0.74999900  0.63474266  0.84164451  1
  O  O30  1  0.74999900  0.86525634  0.34164451  1
  O  O31  1  0.25000000  0.13474366  0.65835649  1
  O  O32  1  0.25000000  0.11333841  0.49433175  1
  O  O33  1  0.74999900  0.88666159  0.50566925  1
  O  O34  1  0.74999900  0.61333841  0.00566925  1
  O  O35  1  0.25000000  0.38666259  0.99433075  1
  O  O36  1  0.25000000  0.44548599  0.48415172  1
  O  O37  1  0.74999900  0.55451401  0.51584928  1
  O  O38  1  0.74999900  0.94548699  0.01584928  1
  O  O39  1  0.25000000  0.05451301  0.98415072  1
  O  O40  1  0.25000000  0.02959038  0.14523074  1
  O  O41  1  0.74999900  0.97041062  0.85476926  1
  O  O42  1  0.74999900  0.52958938  0.35476926  1
  O  O43  1  0.04910601  0.42532123  0.79474534  1
  As  As44  1  0.25000000  0.91238653  0.91090836  1
  As  As45  1  0.74999900  0.08761247  0.08909164  1
  As  As46  1  0.74999900  0.41238653  0.58909164  1
  As  As47  1  0.25000000  0.58761347  0.41090836  1
  As  As48  1  0.25000000  0.98903201  0.24396511  1
  As  As49  1  0.74999900  0.01096799  0.75603489  1
  As  As50  1  0.74999900  0.48903101  0.25603489  1
  As  As51  1  0.25000000  0.51096799  0.74396511  1
  W  W52  1  0.25000000  0.26878721  0.56272178  1
  W  W53  1  0.74999900  0.73121179  0.43727822  1
  W  W54  1  0.74999900  0.76878821  0.93727822  1
  W  W55  1  0.25000000  0.23121179  0.06272178  1
  W  W56  1  0.25000000  0.91894318  0.69675919  1
  W  W57  1  0.74999900  0.08105782  0.30324081  1
  W  W58  1  0.74999900  0.41894318  0.80324181  1
  W  W59  1  0.25000000  0.58105682  0.19675919  1
