# generated using pymatgen
data_Ba3Na2Ti3Nb2O15
_symmetry_space_group_name_H-M   'P 1'
_cell_length_a   4.02806574
_cell_length_b   20.11868768
_cell_length_c   5.68598658
_cell_angle_alpha   45.04466401
_cell_angle_beta   90.00000000
_cell_angle_gamma   90.00000000
_symmetry_Int_Tables_number   1
_chemical_formula_structural   Ba3Na2Ti3Nb2O15
_chemical_formula_sum   'Ba3 Na2 Ti3 Nb2 O15'
_cell_volume   326.08086537
_cell_formula_units_Z   1
loop_
 _symmetry_equiv_pos_site_id
 _symmetry_equiv_pos_as_xyz
  1  'x, y, z'
loop_
 _atom_site_type_symbol
 _atom_site_label
 _atom_site_symmetry_multiplicity
 _atom_site_fract_x
 _atom_site_fract_y
 _atom_site_fract_z
 _atom_site_occupancy
  Ba  Ba0  1  0.00000000  0.00181763  0.99545593  1
  Ba  Ba1  1  0.00000000  0.20000000  0.00000000  1
  Ba  Ba2  1  0.00000000  0.39818237  0.00454407  1
  Na  Na3  1  0.00000000  0.59734561  0.00663597  1
  Na  Na4  1  0.00000000  0.80265439  0.99336403  1
  Nb  Nb5  1  0.50000000  0.60123693  0.49690768  1
  Nb  Nb6  1  0.50000000  0.79876307  0.50309232  1
  O  O7  1  0.50000000  0.09957156  1.00053049  1
  O  O8  1  0.50000000  0.30042844  -0.00053049  1
  O  O9  1  0.50000000  0.09957156  0.50161172  1
  O  O10  1  0.50000000  0.50006238  -0.00038486  1
  O  O11  1  0.50000000  0.70000000  0.00000000  1
  O  O12  1  0.50000000  0.30042844  0.49838828  1
  O  O13  1  0.50000000  0.50006238  0.50007297  1
  O  O14  1  0.50000000  0.89993762  1.00038486  1
  O  O15  1  0.50000000  0.70000000  0.50000000  1
  O  O16  1  0.50000000  0.89993762  0.49992703  1
  O  O17  1  0.00000000  0.20000000  0.50000000  1
  O  O18  1  0.00000000  0.40132083  0.49669793  1
  O  O19  1  0.00000000  0.60118639  0.49703402  1
  O  O20  1  0.00000000  0.79881361  0.50296598  1
  O  O21  1  0.00000000  0.99867917  0.50330207  1
  Ti  Ti22  1  0.50000000  0.20000000  0.50000000  1
  Ti  Ti23  1  0.50000000  0.40208639  0.49478403  1
  Ti  Ti24  1  0.50000000  0.99791361  0.50521597  1
