# generated using pymatgen
data_Mg(TiS2)4
_symmetry_space_group_name_H-M   'P 1'
_cell_length_a   7.01583904
_cell_length_b   7.05508316
_cell_length_c   7.05508394
_cell_angle_alpha   60.00000101
_cell_angle_beta   59.81478710
_cell_angle_gamma   59.81478151
_symmetry_Int_Tables_number   1
_chemical_formula_structural   Mg(TiS2)4
_chemical_formula_sum   'Mg1 Ti4 S8'
_cell_volume   246.23366656
_cell_formula_units_Z   1
loop_
 _symmetry_equiv_pos_site_id
 _symmetry_equiv_pos_as_xyz
  1  'x, y, z'
loop_
 _atom_site_type_symbol
 _atom_site_label
 _atom_site_symmetry_multiplicity
 _atom_site_fract_x
 _atom_site_fract_y
 _atom_site_fract_z
 _atom_site_occupancy
  Mg  Mg0  1  0.50000000  0.00000000  0.00000000  1
  Ti  Ti1  1  0.00000000  0.50000000  0.50000000  1
  Ti  Ti2  1  0.50000000  0.50000000  0.00000000  1
  Ti  Ti3  1  0.50000000  0.50000000  0.50000000  1
  Ti  Ti4  1  0.50000000  0.00000000  0.50000000  1
  S  S5  1  0.24979600  0.25432000  0.25432000  1
  S  S6  1  0.24979600  0.25432000  0.74156400  1
  S  S7  1  0.24979600  0.74156400  0.25432000  1
  S  S8  1  0.73698200  0.25433900  0.25433900  1
  S  S9  1  0.26301800  0.74566100  0.74566100  1
  S  S10  1  0.75020400  0.74568000  0.25843600  1
  S  S11  1  0.75020400  0.25843600  0.74568000  1
  S  S12  1  0.75020400  0.74568000  0.74568000  1
