# generated using pymatgen
data_Ba23U8O48
_symmetry_space_group_name_H-M   'P 1'
_cell_length_a   13.05859712
_cell_length_b   13.05859697
_cell_length_c   13.05859628
_cell_angle_alpha   89.99617632
_cell_angle_beta   120.00220832
_cell_angle_gamma   120.00220688
_symmetry_Int_Tables_number   1
_chemical_formula_structural   Ba23U8O48
_chemical_formula_sum   'Ba23 U8 O48'
_cell_volume   1574.56301754
_cell_formula_units_Z   1
loop_
 _symmetry_equiv_pos_site_id
 _symmetry_equiv_pos_as_xyz
  1  'x, y, z'
loop_
 _atom_site_type_symbol
 _atom_site_label
 _atom_site_symmetry_multiplicity
 _atom_site_fract_x
 _atom_site_fract_y
 _atom_site_fract_z
 _atom_site_occupancy
  Ba  Ba0  1  0.50000000  0.00000000  0.00000000  1
  Ba  Ba1  1  0.73509978  0.10277566  0.36767588  1
  Ba  Ba2  1  0.73509978  0.36767588  0.10277566  1
  Ba  Ba3  1  0.00000000  0.50000000  0.50000000  1
  Ba  Ba4  1  0.50000000  0.00000000  0.50000000  1
  Ba  Ba5  1  0.00000000  0.00000000  0.50000000  1
  Ba  Ba6  1  0.00000000  0.50000000  0.00000000  1
  Ba  Ba7  1  0.26490022  0.36767588  0.63257610  1
  Ba  Ba8  1  0.26490022  0.63257610  0.36767588  1
  Ba  Ba9  1  0.78753901  0.89384251  0.10630349  1
  Ba  Ba10  1  0.78753901  0.10630349  0.89384251  1
  Ba  Ba11  1  0.78753901  0.89369651  0.68123552  1
  Ba  Ba12  1  0.78753901  0.68123552  0.89369651  1
  Ba  Ba13  1  0.21246099  0.31876448  0.10630349  1
  Ba  Ba14  1  0.21246099  0.10630349  0.31876448  1
  Ba  Ba15  1  0.50000000  0.50000000  0.50000000  1
  Ba  Ba16  1  0.21246099  0.89369651  0.10615749  1
  Ba  Ba17  1  0.21246099  0.10615749  0.89369651  1
  Ba  Ba18  1  0.73509978  0.36742390  0.63232412  1
  Ba  Ba19  1  0.73509978  0.63232412  0.36742390  1
  Ba  Ba20  1  0.50000000  0.50000000  0.00000000  1
  Ba  Ba21  1  0.26490022  0.63232412  0.89722434  1
  Ba  Ba22  1  0.26490022  0.89722434  0.63232412  1
  O  O23  1  0.00000000  0.86683126  0.86683126  1
  O  O24  1  0.00000000  0.64065231  0.86527506  1
  O  O25  1  1.00000000  0.86527506  0.64065231  1
  O  O26  1  0.00000000  0.86490903  0.35967637  1
  O  O27  1  0.00000000  0.35967637  0.86490903  1
  O  O28  1  1.00000000  0.63886192  0.63886192  1
  O  O29  1  0.22462275  0.86527506  0.86527506  1
  O  O30  1  0.00000000  0.13325540  0.86674460  1
  O  O31  1  0.00000000  0.63873836  0.36126164  1
  O  O32  1  1.00000000  0.86674460  0.13325540  1
  O  O33  1  1.00000000  0.36126164  0.63873836  1
  O  O34  1  0.00000000  0.36113808  0.36113808  1
  O  O35  1  1.00000000  0.13509097  0.64032363  1
  O  O36  1  1.00000000  0.64032363  0.13509097  1
  O  O37  1  0.22460489  0.86501033  0.35959456  1
  O  O38  1  0.22460489  0.35959456  0.86501033  1
  O  O39  1  0.27747673  0.63873836  0.63873836  1
  O  O40  1  0.50523267  0.86490903  0.86490903  1
  O  O41  1  0.00000000  0.13472494  0.35934769  1
  O  O42  1  1.00000000  0.35934769  0.13472494  1
  O  O43  1  0.50541578  0.64040544  0.86501033  1
  O  O44  1  0.50541578  0.86501033  0.64040544  1
  O  O45  1  1.00000000  0.13316874  0.13316874  1
  O  O46  1  0.22462275  0.35934769  0.35934769  1
  O  O47  1  0.27539455  0.63769727  0.13769727  1
  O  O48  1  0.27539455  0.13769727  0.63769727  1
  O  O49  1  0.50523267  0.64032363  0.64032363  1
  O  O50  1  0.50000000  0.86231264  0.36231264  1
  O  O51  1  0.50000000  0.36231264  0.86231264  1
  O  O52  1  0.73348919  0.86674460  0.86674460  1
  O  O53  1  0.50000000  0.63769727  0.36230273  1
  O  O54  1  0.50000000  0.13769727  0.86230273  1
  O  O55  1  0.50000000  0.86230273  0.13769727  1
  O  O56  1  0.50000000  0.36230273  0.63769727  1
  O  O57  1  0.26651081  0.13325540  0.13325540  1
  O  O58  1  0.50000000  0.13768736  0.63768736  1
  O  O59  1  0.49476733  0.35967637  0.35967637  1
  O  O60  1  0.50000000  0.63768736  0.13768736  1
  O  O61  1  0.72460545  0.36230273  0.86230273  1
  O  O62  1  0.77537725  0.64065231  0.64065231  1
  O  O63  1  0.72460545  0.86230273  0.36230273  1
  O  O64  1  0.49458422  0.13498967  0.35959456  1
  O  O65  1  0.49458422  0.35959456  0.13498967  1
  O  O66  1  0.49476733  0.13509097  0.13509097  1
  O  O67  1  0.77539511  0.13498967  0.64040544  1
  O  O68  1  0.77539511  0.64040544  0.13498967  1
  O  O69  1  0.72252327  0.36126164  0.36126164  1
  O  O70  1  0.77537725  0.13472494  0.13472494  1
  U  U71  1  0.50000000  0.25000000  0.75000000  1
  U  U72  1  0.49945320  0.74972660  0.74972660  1
  U  U73  1  1.00000000  0.25015873  0.25015873  1
  U  U74  1  1.00000000  0.74972660  0.25027340  1
  U  U75  1  0.00000000  0.25027340  0.74972660  1
  U  U76  1  0.50000000  0.75000000  0.25000000  1
  U  U77  1  0.00000000  0.74984127  0.74984127  1
  U  U78  1  0.50054680  0.25027340  0.25027340  1
