# generated using pymatgen
data_P2W3O13
_symmetry_space_group_name_H-M   'P 1'
_cell_length_a   5.41311679
_cell_length_b   12.32293872
_cell_length_c   16.00259637
_cell_angle_alpha   90.00000000
_cell_angle_beta   90.00000000
_cell_angle_gamma   90.00000000
_symmetry_Int_Tables_number   1
_chemical_formula_structural   P2W3O13
_chemical_formula_sum   'P8 W12 O52'
_cell_volume   1067.46129597
_cell_formula_units_Z   4
loop_
 _symmetry_equiv_pos_site_id
 _symmetry_equiv_pos_as_xyz
  1  'x, y, z'
loop_
 _atom_site_type_symbol
 _atom_site_label
 _atom_site_symmetry_multiplicity
 _atom_site_fract_x
 _atom_site_fract_y
 _atom_site_fract_z
 _atom_site_occupancy
  O  O0  1  0.25000000  0.45137377  0.23941962  1
  O  O1  1  0.74999900  0.54862623  0.76058038  1
  O  O2  1  0.25000000  0.95137377  0.26057938  1
  O  O3  1  0.74999900  0.04862623  0.73941962  1
  O  O4  1  0.74999900  0.16989894  0.22658038  1
  O  O5  1  0.25000000  0.83010106  0.77341862  1
  O  O6  1  0.74999900  0.66989894  0.27341962  1
  O  O7  1  0.25000000  0.33010106  0.72658038  1
  O  O8  1  0.49866173  0.81069186  0.16007175  1
  O  O9  1  0.99866273  0.18930814  0.83992825  1
  O  O10  1  0.00133727  0.31069186  0.33992825  1
  O  O11  1  0.50133827  0.68930814  0.66007175  1
  O  O12  1  0.50133827  0.18930814  0.83992825  1
  O  O13  1  0.00133727  0.81069186  0.16007175  1
  O  O14  1  0.99866273  0.68930814  0.66007175  1
  O  O15  1  0.49866173  0.31069186  0.33992825  1
  O  O16  1  0.48507263  0.57762991  0.14305619  1
  O  O17  1  0.51492637  0.42237009  0.85694381  1
  O  O18  1  0.01492637  0.07762991  0.35694381  1
  O  O19  1  0.51492637  0.92237009  0.64305619  1
  O  O20  1  0.25000000  0.37787116  0.48018371  1
  O  O21  1  0.74999900  0.62212884  0.51981629  1
  O  O22  1  0.25000000  0.87787116  0.01981629  1
  O  O23  1  0.74999900  0.12212884  0.98018371  1
  O  O24  1  0.74999900  0.20581490  0.46594133  1
  O  O25  1  0.25000000  0.79418510  0.53405867  1
  O  O26  1  0.74999900  0.70581490  0.03405867  1
  O  O27  1  0.25000000  0.29418510  0.96594133  1
  O  O28  1  0.74999900  0.07238271  0.58098081  1
  O  O29  1  0.25000000  0.92761729  0.41902019  1
  O  O30  1  0.74999900  0.57238271  0.91902019  1
  O  O31  1  0.25000000  0.42761729  0.08098081  1
  O  O32  1  0.51345477  0.24607747  0.59758485  1
  O  O33  1  0.01345577  0.75392253  0.40241515  1
  O  O34  1  0.98654323  0.74607747  0.90241415  1
  O  O35  1  0.48654423  0.25392253  0.09758485  1
  O  O36  1  0.48654423  0.75392253  0.40241515  1
  O  O37  1  0.98654323  0.24607747  0.59758485  1
  O  O38  1  0.01345577  0.25392253  0.09758485  1
  O  O39  1  0.51345477  0.74607747  0.90241415  1
  O  O40  1  0.50122820  0.47402643  0.61804674  1
  O  O41  1  0.00122920  0.52597357  0.38195326  1
  O  O42  1  0.99877080  0.97402643  0.88195326  1
  O  O43  1  0.49877180  0.02597357  0.11804674  1
  O  O44  1  0.49877180  0.52597357  0.38195326  1
  O  O45  1  0.99877080  0.47402643  0.61804674  1
  O  O46  1  0.00122920  0.02597357  0.11804674  1
  O  O47  1  0.50122820  0.97402643  0.88195326  1
  O  O48  1  0.48507263  0.07762991  0.35694381  1
  O  O49  1  0.98507363  0.92237009  0.64305619  1
  O  O50  1  0.01492637  0.57762991  0.14305619  1
  O  O51  1  0.98507363  0.42237009  0.85694381  1
  P  P52  1  0.74999900  0.19848667  0.56077364  1
  P  P53  1  0.25000000  0.80151333  0.43922636  1
  P  P54  1  0.74999900  0.69848667  0.93922636  1
  P  P55  1  0.25000000  0.30151333  0.06077364  1
  P  P56  1  0.25000000  0.01324054  0.34278451  1
  P  P57  1  0.74999900  0.98675946  0.65721449  1
  P  P58  1  0.25000000  0.51324054  0.15721449  1
  P  P59  1  0.74999900  0.48675946  0.84278451  1
  W  W60  1  0.74999900  0.13245191  0.10483783  1
  W  W61  1  0.25000000  0.36754809  0.60483783  1
  W  W62  1  0.74999900  0.63245191  0.39516217  1
  W  W63  1  0.25000000  0.86754809  0.89516317  1
  W  W64  1  0.74999900  0.08857252  0.86618766  1
  W  W65  1  0.25000000  0.91142748  0.13381234  1
  W  W66  1  0.74999900  0.58857252  0.63381234  1
  W  W67  1  0.25000000  0.41142748  0.36618766  1
  W  W68  1  0.25000000  0.30429542  0.83958672  1
  W  W69  1  0.74999900  0.69570458  0.16041228  1
  W  W70  1  0.25000000  0.80429542  0.66041328  1
  W  W71  1  0.74999900  0.19570458  0.33958772  1
