# generated using pymatgen
data_Fe6Ni9S20
_symmetry_space_group_name_H-M   'P 1'
_cell_length_a   6.67639991
_cell_length_b   6.57922547
_cell_length_c   32.90740999
_cell_angle_alpha   60.24042644
_cell_angle_beta   60.64108991
_cell_angle_gamma   60.63300192
_symmetry_Int_Tables_number   1
_chemical_formula_structural   Fe6Ni9S20
_chemical_formula_sum   'Fe12 Ni18 S40'
_cell_volume   1033.73442138
_cell_formula_units_Z   2
loop_
 _symmetry_equiv_pos_site_id
 _symmetry_equiv_pos_as_xyz
  1  'x, y, z'
loop_
 _atom_site_type_symbol
 _atom_site_label
 _atom_site_symmetry_multiplicity
 _atom_site_fract_x
 _atom_site_fract_y
 _atom_site_fract_z
 _atom_site_occupancy
  Fe  Fe0  1  0.11908794  0.12365880  0.22702544  1
  Fe  Fe1  1  0.49934417  0.49028764  0.10040550  1
  Fe  Fe2  1  0.50008753  0.01001194  0.10009472  1
  Fe  Fe3  1  0.50045438  0.49838141  0.30038191  1
  Fe  Fe4  1  0.50404555  0.48951565  0.40442058  1
  Fe  Fe5  1  0.50065907  0.49648024  0.49943831  1
  Fe  Fe6  1  0.50054006  0.00500763  0.49965485  1
  Fe  Fe7  1  0.49694300  0.50865700  0.59660501  1
  Fe  Fe8  1  0.50039578  0.50167367  0.69978629  1
  Fe  Fe9  1  0.50325721  0.48965299  0.80393750  1
  Fe  Fe10  1  0.50234724  0.48716957  0.89687117  1
  Fe  Fe11  1  0.50103822  0.02243320  0.89740310  1
  Ni  Ni12  1  0.12359213  0.12504394  0.02508775  1
  Ni  Ni13  1  0.50056919  0.49826737  0.20054866  1
  Ni  Ni14  1  0.12988399  0.12403228  0.42411169  1
  Ni  Ni15  1  0.99532851  0.50108485  0.10085599  1
  Ni  Ni16  1  0.88107371  0.87346144  0.17516358  1
  Ni  Ni17  1  0.50191356  0.99676660  0.30045427  1
  Ni  Ni18  1  0.11663758  0.12660174  0.62580325  1
  Ni  Ni19  1  0.99792480  0.49987931  0.30063472  1
  Ni  Ni20  1  0.88329044  0.87293920  0.37467088  1
  Ni  Ni21  1  0.13416519  0.12249810  0.82321170  1
  Ni  Ni22  1  -0.00258358  0.50107964  0.50024523  1
  Ni  Ni23  1  0.87503640  0.87515314  0.57560566  1
  Ni  Ni24  1  0.50047535  -0.00002203  0.69973737  1
  Ni  Ni25  1  0.00099592  0.49992652  0.69983750  1
  Ni  Ni26  1  0.88236197  0.87457608  0.77391078  1
  Ni  Ni27  1  0.49943453  0.50230551  -0.00098993  1
  Ni  Ni28  1  -0.00989913  0.50393924  0.89984282  1
  Ni  Ni29  1  0.88195610  0.87145891  0.97489527  1
  S  S30  1  0.25832367  0.25661158  0.05253582  1
  S  S31  1  0.25314266  0.25257747  0.14859854  1
  S  S32  1  0.25861653  0.72270238  0.05245320  1
  S  S33  1  0.72703052  0.25866873  0.05121601  1
  S  S34  1  0.27849130  0.74310878  0.14744080  1
  S  S35  1  0.25354909  0.25371916  0.25151835  1
  S  S36  1  0.73886806  0.27342743  0.14804499  1
  S  S37  1  0.73186623  0.74503929  0.05573837  1
  S  S38  1  0.26273825  0.26014984  0.34431684  1
  S  S39  1  0.25821523  0.73344967  0.25246606  1
  S  S40  1  0.73774333  0.74846371  0.14835137  1
  S  S41  1  0.73378803  0.25795731  0.25224605  1
  S  S42  1  0.28166183  0.72933930  0.35004701  1
  S  S43  1  0.25886043  0.25652315  0.45183382  1
  S  S44  1  0.73374689  0.27620326  0.34986660  1
  S  S45  1  0.74060162  0.73795942  0.25558840  1
  S  S46  1  0.25744682  0.72611614  0.45201938  1
  S  S47  1  0.25792974  0.25751061  0.54553910  1
  S  S48  1  0.73960675  0.73604121  0.35059835  1
  S  S49  1  0.73926134  0.24966020  0.45205758  1
  S  S50  1  0.26834942  0.74861430  0.54705933  1
  S  S51  1  0.26041387  0.26221939  0.65021499  1
  S  S52  1  0.73966074  0.27408608  0.54813806  1
  S  S53  1  0.73634589  0.74427840  0.45497433  1
  S  S54  1  0.26434623  0.26133778  0.74390184  1
  S  S55  1  0.26539961  0.72438142  0.65064720  1
  S  S56  1  0.73876245  0.74600917  0.54850349  1
  S  S57  1  0.71979376  0.26878036  0.65030391  1
  S  S58  1  0.25535228  0.26083107  0.85120623  1
  S  S59  1  0.27918639  0.73268059  0.74936163  1
  S  S60  1  0.73553358  0.27666938  0.74894365  1
  S  S61  1  0.25223753  0.26074771  0.94488327  1
  S  S62  1  0.74028304  0.73923498  0.65512448  1
  S  S63  1  0.25376578  0.72531064  0.85150953  1
  S  S64  1  0.74669837  0.25047976  0.84956866  1
  S  S65  1  0.74037463  0.73806217  0.74941746  1
  S  S66  1  0.28189451  0.74545116  0.94491786  1
  S  S67  1  0.73527790  0.27364946  0.94732209  1
  S  S68  1  0.72885546  0.74771039  0.85454637  1
  S  S69  1  0.73562342  0.75231557  0.94732740  1
