# generated using pymatgen
data_Al(Ni10B7)2
_symmetry_space_group_name_H-M   'P 1'
_cell_length_a   7.53571236
_cell_length_b   7.53571313
_cell_length_c   7.53571333
_cell_angle_alpha   60.00000355
_cell_angle_beta   60.00000017
_cell_angle_gamma   60.00000093
_symmetry_Int_Tables_number   1
_chemical_formula_structural   Al(Ni10B7)2
_chemical_formula_sum   'Al1 Ni20 B14'
_cell_volume   302.59242826
_cell_formula_units_Z   1
loop_
 _symmetry_equiv_pos_site_id
 _symmetry_equiv_pos_as_xyz
  1  'x, y, z'
loop_
 _atom_site_type_symbol
 _atom_site_label
 _atom_site_symmetry_multiplicity
 _atom_site_fract_x
 _atom_site_fract_y
 _atom_site_fract_z
 _atom_site_occupancy
  Ni  Ni0  1  0.66584312  0.00000000  0.00000000  1
  Ni  Ni1  1  1.00000000  1.00000000  0.66584312  1
  Ni  Ni2  1  0.66584312  0.33415688  0.00000000  1
  Ni  Ni3  1  1.00000000  0.66584312  0.33415688  1
  Ni  Ni4  1  0.00000000  0.33415688  0.66584312  1
  Ni  Ni5  1  1.00000000  0.66584312  1.00000000  1
  Ni  Ni6  1  0.66584312  0.00000000  0.33415688  1
  Ni  Ni7  1  0.33415688  0.66584312  1.00000000  1
  Ni  Ni8  1  0.00000000  0.33415688  0.00000000  1
  Ni  Ni9  1  0.33415688  1.00000000  0.66584312  1
  Ni  Ni10  1  0.00000000  0.00000000  0.33415688  1
  Ni  Ni11  1  0.33415688  1.00000000  1.00000000  1
  Ni  Ni12  1  0.62145177  0.62145177  0.62145177  1
  Ni  Ni13  1  0.37854823  0.37854823  0.86435530  1
  Ni  Ni14  1  0.86435530  0.37854823  0.37854823  1
  Ni  Ni15  1  0.37854823  0.86435530  0.37854823  1
  Ni  Ni16  1  0.13564470  0.62145177  0.62145177  1
  Ni  Ni17  1  0.62145177  0.13564470  0.62145177  1
  Ni  Ni18  1  0.62145177  0.62145177  0.13564470  1
  Ni  Ni19  1  0.37854823  0.37854823  0.37854823  1
  Al  Al20  1  0.00000000  0.00000000  0.00000000  1
  B  B21  1  0.72379575  0.27620425  0.27620425  1
  B  B22  1  0.72379575  0.72379575  0.27620425  1
  B  B23  1  0.27620425  0.27620425  0.72379575  1
  B  B24  1  0.72379575  0.27620425  0.72379575  1
  B  B25  1  0.27620425  0.72379575  0.27620425  1
  B  B26  1  0.27620425  0.72379575  0.72379575  1
  B  B27  1  0.18986977  0.18986977  0.18986977  1
  B  B28  1  0.81013023  0.81013023  0.56960931  1
  B  B29  1  0.56960931  0.81013023  0.81013023  1
  B  B30  1  0.81013023  0.56960931  0.81013023  1
  B  B31  1  0.43039069  0.18986977  0.18986977  1
  B  B32  1  0.18986977  0.43039069  0.18986977  1
  B  B33  1  0.18986977  0.18986977  0.43039069  1
  B  B34  1  0.81013023  0.81013023  0.81013023  1
