# generated using pymatgen
data_LiMnP2O7
_symmetry_space_group_name_H-M   'P 1'
_cell_length_a   5.27140270
_cell_length_b   7.06125343
_cell_length_c   8.07403639
_cell_angle_alpha   67.46300969
_cell_angle_beta   91.23460954
_cell_angle_gamma   95.58926428
_symmetry_Int_Tables_number   1
_chemical_formula_structural   LiMnP2O7
_chemical_formula_sum   'Li2 Mn2 P4 O14'
_cell_volume   276.22568801
_cell_formula_units_Z   2
loop_
 _symmetry_equiv_pos_site_id
 _symmetry_equiv_pos_as_xyz
  1  'x, y, z'
loop_
 _atom_site_type_symbol
 _atom_site_label
 _atom_site_symmetry_multiplicity
 _atom_site_fract_x
 _atom_site_fract_y
 _atom_site_fract_z
 _atom_site_occupancy
  Li  Li0  1  0.29781232  0.85338500  0.98694463  1
  Li  Li1  1  0.73202018  0.06428537  0.44099753  1
  O  O2  1  0.25869976  0.36250605  0.15581178  1
  O  O3  1  0.87030576  0.36033671  0.75949605  1
  O  O4  1  0.05177510  0.95923764  0.79395656  1
  O  O5  1  0.13415952  0.65992951  0.21472214  1
  O  O6  1  0.14922961  0.30507064  0.47493990  1
  O  O7  1  0.97165882  0.03957783  0.23380935  1
  O  O8  1  0.30382030  0.14026436  0.98211192  1
  O  O9  1  0.45278567  0.01556368  0.29861086  1
  O  O10  1  0.42991960  0.49369366  0.68336596  1
  O  O11  1  0.81806737  0.72377241  0.52011874  1
  O  O12  1  0.59150097  0.00130804  0.68637898  1
  O  O13  1  0.67407528  0.85447584  0.01799624  1
  O  O14  1  0.75499562  0.64378821  0.84575100  1
  O  O15  1  0.56202652  0.51669878  0.32612096  1
  P  P16  1  0.76610376  0.88007895  0.82901341  1
  P  P17  1  0.71896795  0.54387317  0.69548759  1
  P  P18  1  0.25108538  0.12562700  0.17426909  1
  P  P19  1  0.27504782  0.46794272  0.30232760  1
  Mn  Mn20  1  0.20711590  0.24746395  0.73123548  1
  Mn  Mn21  1  0.77837577  0.77362446  0.26819322  1
