# generated using pymatgen
data_U7(Te12O35)2
_symmetry_space_group_name_H-M   'P 1'
_cell_length_a   11.51770701
_cell_length_b   11.51770701
_cell_length_c   11.51770701
_cell_angle_alpha   90.42240622
_cell_angle_beta   90.42240622
_cell_angle_gamma   90.42240622
_symmetry_Int_Tables_number   1
_chemical_formula_structural   U7(Te12O35)2
_chemical_formula_sum   'U7 Te24 O70'
_cell_volume   1527.78589810
_cell_formula_units_Z   1
loop_
 _symmetry_equiv_pos_site_id
 _symmetry_equiv_pos_as_xyz
  1  'x, y, z'
loop_
 _atom_site_type_symbol
 _atom_site_label
 _atom_site_symmetry_multiplicity
 _atom_site_fract_x
 _atom_site_fract_y
 _atom_site_fract_z
 _atom_site_occupancy
  O  O0  1  0.08304731  0.60081066  0.17590773  1
  O  O1  1  0.07652267  0.91048501  0.68072893  1
  O  O2  1  0.09789069  0.85012754  0.12321388  1
  O  O3  1  0.09263539  0.90818989  0.41058766  1
  O  O4  1  0.09178385  0.41001071  0.59225296  1
  O  O5  1  0.09181011  0.58941234  0.90736461  1
  O  O6  1  0.09134266  0.65861995  0.61283256  1
  O  O7  1  0.09457181  0.17555613  0.41985117  1
  O  O8  1  0.08951499  0.31927107  0.92347733  1
  O  O9  1  0.11124293  0.40637670  0.34200324  1
  O  O10  1  0.12321388  0.09789069  0.85012754  1
  O  O11  1  0.15576420  0.60900438  0.41174247  1
  O  O12  1  0.14987246  0.87678612  0.90210931  1
  O  O13  1  0.17590773  0.08304731  0.60081066  1
  O  O14  1  0.17555613  0.41985117  0.09457181  1
  O  O15  1  0.20291117  0.20291117  0.20291117  1
  O  O16  1  0.23829149  0.27988408  0.71698955  1
  O  O17  1  0.27988408  0.71698955  0.23829149  1
  O  O18  1  0.28301045  0.76170851  0.72011592  1
  O  O19  1  0.32162187  0.57014613  0.59225861  1
  O  O20  1  0.31927107  0.92347733  0.08951499  1
  O  O21  1  0.34138005  0.38716744  0.90865734  1
  O  O22  1  0.34200324  0.11124293  0.40637670  1
  O  O23  1  0.39099562  0.58825753  0.84423580  1
  O  O24  1  0.38716744  0.90865734  0.34138005  1
  O  O25  1  0.40774139  0.67837813  0.42985387  1
  O  O26  1  0.39918934  0.82409227  0.91695269  1
  O  O27  1  0.41174247  0.15576420  0.60900438  1
  O  O28  1  0.40637670  0.34200324  0.11124293  1
  O  O29  1  0.41058766  0.09263539  0.90818989  1
  O  O30  1  0.40746154  0.40746154  0.40746154  1
  O  O31  1  0.41001071  0.59225296  0.09178385  1
  O  O32  1  0.40774704  0.90821615  0.58998929  1
  O  O33  1  0.41985117  0.09457181  0.17555613  1
  O  O34  1  0.42985387  0.40774139  0.67837813  1
  O  O35  1  0.57014613  0.59225861  0.32162187  1
  O  O36  1  0.58014883  0.90542819  0.82444387  1
  O  O37  1  0.59225296  0.09178385  0.41001071  1
  O  O38  1  0.59253846  0.59253846  0.59253846  1
  O  O39  1  0.58998929  0.40774704  0.90821615  1
  O  O40  1  0.58825753  0.84423580  0.39099562  1
  O  O41  1  0.58941234  0.90736461  0.09181011  1
  O  O42  1  0.59362330  0.65799676  0.88875707  1
  O  O43  1  0.60081066  0.17590773  0.08304731  1
  O  O44  1  0.59225861  0.32162187  0.57014613  1
  O  O45  1  0.60900438  0.41174247  0.15576420  1
  O  O46  1  0.61283256  0.09134266  0.65861995  1
  O  O47  1  0.65799676  0.88875707  0.59362330  1
  O  O48  1  0.65861995  0.61283256  0.09134266  1
  O  O49  1  0.68072893  0.07652267  0.91048501  1
  O  O50  1  0.67837813  0.42985387  0.40774139  1
  O  O51  1  0.71698955  0.23829149  0.27988408  1
  O  O52  1  0.72011592  0.28301045  0.76170851  1
  O  O53  1  0.76170851  0.72011592  0.28301045  1
  O  O54  1  0.79708883  0.79708883  0.79708883  1
  O  O55  1  0.82444387  0.58014883  0.90542819  1
  O  O56  1  0.82409227  0.91695269  0.39918934  1
  O  O57  1  0.85012754  0.12321388  0.09789069  1
  O  O58  1  0.84423580  0.39099562  0.58825753  1
  O  O59  1  0.88875707  0.59362330  0.65799676  1
  O  O60  1  0.87678612  0.90210931  0.14987246  1
  O  O61  1  0.91048501  0.68072893  0.07652267  1
  O  O62  1  0.90542819  0.82444387  0.58014883  1
  O  O63  1  0.90736461  0.09181011  0.58941234  1
  O  O64  1  0.90210931  0.14987246  0.87678612  1
  O  O65  1  0.90865734  0.34138005  0.38716744  1
  O  O66  1  0.90818989  0.41058766  0.09263539  1
  O  O67  1  0.90821615  0.58998929  0.40774704  1
  O  O68  1  0.92347733  0.08951499  0.31927107  1
  O  O69  1  0.91695269  0.39918934  0.82409227  1
  Te  Te70  1  0.04080730  0.25916067  0.28773773  1
  Te  Te71  1  0.02744473  0.23018735  0.79654804  1
  Te  Te72  1  0.21493082  0.54957961  0.26362894  1
  Te  Te73  1  0.20345196  0.97255527  0.76981265  1
  Te  Te74  1  0.23018735  0.79654804  0.02744473  1
  Te  Te75  1  0.24398726  0.71119929  0.55267921  1
  Te  Te76  1  0.25916067  0.28773773  0.04080730  1
  Te  Te77  1  0.26362894  0.21493082  0.54957961  1
  Te  Te78  1  0.28773773  0.04080730  0.25916067  1
  Te  Te79  1  0.28880071  0.44732079  0.75601274  1
  Te  Te80  1  0.44732079  0.75601274  0.28880071  1
  Te  Te81  1  0.45042039  0.73637106  0.78506918  1
  Te  Te82  1  0.54957961  0.26362894  0.21493082  1
  Te  Te83  1  0.55267921  0.24398726  0.71119929  1
  Te  Te84  1  0.71119929  0.55267921  0.24398726  1
  Te  Te85  1  0.71226227  0.95919270  0.74083933  1
  Te  Te86  1  0.73637106  0.78506918  0.45042039  1
  Te  Te87  1  0.74083933  0.71226227  0.95919270  1
  Te  Te88  1  0.75601274  0.28880071  0.44732079  1
  Te  Te89  1  0.76981265  0.20345196  0.97255527  1
  Te  Te90  1  0.79654804  0.02744473  0.23018735  1
  Te  Te91  1  0.78506918  0.45042039  0.73637106  1
  Te  Te92  1  0.95919270  0.74083933  0.71226227  1
  Te  Te93  1  0.97255527  0.76981265  0.20345196  1
  U  U94  1  0.00000000  0.00000000  0.50000000  1
  U  U95  1  0.50000000  0.50000000  0.50000000  1
  U  U96  1  0.50000000  0.00000000  0.50000000  1
  U  U97  1  0.50000000  0.50000000  0.00000000  1
  U  U98  1  0.50000000  0.00000000  0.00000000  1
  U  U99  1  0.00000000  0.50000000  0.50000000  1
  U  U100  1  0.00000000  0.50000000  0.00000000  1
