# generated using pymatgen
data_YCu(WO4)2
_symmetry_space_group_name_H-M   'P 1'
_cell_length_a   5.14828954
_cell_length_b   6.13994106
_cell_length_c   6.06807409
_cell_angle_alpha   108.69180801
_cell_angle_beta   113.91610751
_cell_angle_gamma   91.71920283
_symmetry_Int_Tables_number   1
_chemical_formula_structural   YCu(WO4)2
_chemical_formula_sum   'Y1 Cu1 W2 O8'
_cell_volume   163.23843626
_cell_formula_units_Z   1
loop_
 _symmetry_equiv_pos_site_id
 _symmetry_equiv_pos_as_xyz
  1  'x, y, z'
loop_
 _atom_site_type_symbol
 _atom_site_label
 _atom_site_symmetry_multiplicity
 _atom_site_fract_x
 _atom_site_fract_y
 _atom_site_fract_z
 _atom_site_occupancy
  O  O0  1  0.13873034  0.64621390  0.83962866  1
  O  O1  1  0.64408966  0.50820944  0.35392169  1
  O  O2  1  0.15942575  0.19520208  0.80092927  1
  O  O3  1  0.59758795  0.05303948  0.40740432  1
  O  O4  1  0.60465202  0.93772398  0.84511920  1
  O  O5  1  0.11030327  0.80026076  0.35950068  1
  O  O6  1  0.65180546  0.39315885  0.79196834  1
  O  O7  1  0.09001236  0.25132930  0.39847684  1
  Cu  Cu8  1  0.12555269  0.22394621  0.10022040  1
  Y  Y9  1  0.62455881  0.72308297  0.09962553  1
  W  W10  1  0.87426301  0.38924600  0.58807312  1
  W  W11  1  0.37501869  0.05708705  0.61123195  1
