# generated using pymatgen
data_Ta2CuO6
_symmetry_space_group_name_H-M   'P 1'
_cell_length_a   7.60506939
_cell_length_b   7.57343702
_cell_length_c   15.19424314
_cell_angle_alpha   90.00000000
_cell_angle_beta   90.00000000
_cell_angle_gamma   90.00000000
_symmetry_Int_Tables_number   1
_chemical_formula_structural   Ta2CuO6
_chemical_formula_sum   'Ta16 Cu8 O48'
_cell_volume   875.13543861
_cell_formula_units_Z   8
loop_
 _symmetry_equiv_pos_site_id
 _symmetry_equiv_pos_as_xyz
  1  'x, y, z'
loop_
 _atom_site_type_symbol
 _atom_site_label
 _atom_site_symmetry_multiplicity
 _atom_site_fract_x
 _atom_site_fract_y
 _atom_site_fract_z
 _atom_site_occupancy
  Cu  Cu0  1  0.00000000  0.00000000  0.25000000  1
  Cu  Cu1  1  0.00000000  0.50000000  0.00202641  1
  Cu  Cu2  1  0.00000000  0.50000000  0.25000000  1
  Cu  Cu3  1  0.00000000  0.50000000  0.49797359  1
  Cu  Cu4  1  0.00000000  0.00000000  0.75000000  1
  Cu  Cu5  1  0.50000000  0.00000000  0.99878534  1
  Cu  Cu6  1  0.50000000  0.00000000  0.50121466  1
  Cu  Cu7  1  0.50000000  0.00000000  0.75000000  1
  O  O8  1  0.00000000  0.30503131  0.08868884  1
  O  O9  1  0.00000000  0.30503131  0.41131116  1
  O  O10  1  0.00000000  0.30906889  0.59013185  1
  O  O11  1  0.00000000  0.69093111  0.59013185  1
  O  O12  1  0.00000000  0.30906889  0.90986815  1
  O  O13  1  0.18135521  0.00000000  0.34396437  1
  O  O14  1  0.18135521  0.00000000  0.15603563  1
  O  O15  1  0.17802867  0.00000000  0.84628243  1
  O  O16  1  0.17802867  0.00000000  0.65371757  1
  O  O17  1  0.18505454  0.31350632  0.25000000  1
  O  O18  1  0.18505454  0.68649368  0.25000000  1
  O  O19  1  0.20488335  0.29946385  0.75000000  1
  O  O20  1  0.20488335  0.70053615  0.75000000  1
  O  O21  1  0.31016162  0.18068797  0.99939674  1
  O  O22  1  0.31016162  0.18068797  0.50060326  1
  O  O23  1  0.31016162  0.81931203  0.99939674  1
  O  O24  1  0.31016162  0.81931203  0.50060326  1
  O  O25  1  0.29682411  0.50000000  0.10239263  1
  O  O26  1  0.30696439  0.50000000  0.60304154  1
  O  O27  1  0.29682411  0.50000000  0.39760737  1
  O  O28  1  0.30696439  0.50000000  0.89695846  1
  O  O29  1  0.50000000  0.20623693  0.15310615  1
  O  O30  1  0.50000000  0.18468638  0.65677688  1
  O  O31  1  0.50000000  0.20623693  0.34689385  1
  O  O32  1  0.50000000  0.79376307  0.15310615  1
  O  O33  1  0.50000000  0.79376307  0.34689385  1
  O  O34  1  0.50000000  0.18468638  0.84322312  1
  O  O35  1  0.50000000  0.81531362  0.65677688  1
  O  O36  1  0.50000000  0.81531362  0.84322312  1
  O  O37  1  0.70317589  0.50000000  0.10239263  1
  O  O38  1  0.70317589  0.50000000  0.39760737  1
  O  O39  1  0.69303561  0.50000000  0.60304154  1
  O  O40  1  0.69303561  0.50000000  0.89695846  1
  O  O41  1  0.68983838  0.18068797  0.99939674  1
  O  O42  1  0.68983838  0.81931203  0.99939674  1
  O  O43  1  0.68983838  0.18068797  0.50060326  1
  O  O44  1  0.68983838  0.81931203  0.50060326  1
  O  O45  1  0.81494546  0.31350632  0.25000000  1
  O  O46  1  0.81494546  0.68649368  0.25000000  1
  O  O47  1  0.79511665  0.29946385  0.75000000  1
  O  O48  1  0.79511665  0.70053615  0.75000000  1
  O  O49  1  0.81864479  0.00000000  0.15603563  1
  O  O50  1  0.81864479  0.00000000  0.34396437  1
  O  O51  1  0.82197133  0.00000000  0.84628243  1
  O  O52  1  0.82197133  0.00000000  0.65371757  1
  O  O53  1  0.00000000  0.69496869  0.08868884  1
  O  O54  1  0.00000000  0.69496869  0.41131116  1
  O  O55  1  0.00000000  0.69093111  0.90986815  1
  Ta  Ta56  1  0.25582153  0.74892282  0.12447387  1
  Ta  Ta57  1  0.25582153  0.74892282  0.37552613  1
  Ta  Ta58  1  0.24884574  0.74452068  0.62631355  1
  Ta  Ta59  1  0.25582153  0.25107718  0.37552613  1
  Ta  Ta60  1  0.24884574  0.25547932  0.87368645  1
  Ta  Ta61  1  0.24884574  0.74452068  0.87368645  1
  Ta  Ta62  1  0.25582153  0.25107718  0.12447387  1
  Ta  Ta63  1  0.24884574  0.25547932  0.62631355  1
  Ta  Ta64  1  0.74417847  0.74892282  0.37552613  1
  Ta  Ta65  1  0.75115426  0.74452068  0.87368645  1
  Ta  Ta66  1  0.74417847  0.25107718  0.12447387  1
  Ta  Ta67  1  0.74417847  0.25107718  0.37552613  1
  Ta  Ta68  1  0.74417847  0.74892282  0.12447387  1
  Ta  Ta69  1  0.75115426  0.25547932  0.62631355  1
  Ta  Ta70  1  0.75115426  0.25547932  0.87368645  1
  Ta  Ta71  1  0.75115426  0.74452068  0.62631355  1
