# generated using pymatgen
data_Al13Si5H14Cl(O17F2)2
_symmetry_space_group_name_H-M   'P 1'
_cell_length_a   9.89184983
_cell_length_b   9.94183924
_cell_length_c   9.98246061
_cell_angle_alpha   59.68112641
_cell_angle_beta   59.69798708
_cell_angle_gamma   59.71138569
_symmetry_Int_Tables_number   1
_chemical_formula_structural   Al13Si5H14Cl(O17F2)2
_chemical_formula_sum   'Al13 Si5 H14 Cl1 O34 F4'
_cell_volume   689.39108885
_cell_formula_units_Z   1
loop_
 _symmetry_equiv_pos_site_id
 _symmetry_equiv_pos_as_xyz
  1  'x, y, z'
loop_
 _atom_site_type_symbol
 _atom_site_label
 _atom_site_symmetry_multiplicity
 _atom_site_fract_x
 _atom_site_fract_y
 _atom_site_fract_z
 _atom_site_occupancy
  Al  Al0  1  0.06274776  0.76652543  0.39896164  1
  Al  Al1  1  0.06533266  0.40630299  0.76521696  1
  Al  Al2  1  0.41239692  0.06456435  0.75422575  1
  Al  Al3  1  0.40056750  0.77270990  0.06025740  1
  Al  Al4  1  0.06201766  0.76633214  0.77183757  1
  Al  Al5  1  0.75240187  0.06074960  0.40013782  1
  Al  Al6  1  0.76697991  0.40299332  0.06021334  1
  Al  Al7  1  0.40589899  0.76738254  0.76365649  1
  Al  Al8  1  0.76299495  0.05958336  0.78408382  1
  Al  Al9  1  0.76414632  0.76663938  0.06503884  1
  Al  Al10  1  0.76382453  0.40585456  0.76861707  1
  Al  Al11  1  0.76180356  0.76550610  0.40676701  1
  Al  Al12  1  0.74828218  0.75296695  0.74702559  1
  Cl  Cl13  1  0.50007675  0.49928260  0.50005364  1
  F  F14  1  0.08817443  0.82058319  0.54667013  1
  F  F15  1  0.54692950  0.54816165  0.09800813  1
  F  F16  1  0.55021862  0.80628806  0.09385542  1
  F  F17  1  0.55527233  0.09729361  0.80473109  1
  H  H18  1  0.35164341  0.34929714  0.64412922  1
  H  H19  1  0.35229422  0.64640338  0.34916125  1
  H  H20  1  0.62477219  0.34589205  0.34941686  1
  H  H21  1  0.34944738  0.64794949  0.65352643  1
  H  H22  1  0.62832405  0.34911605  0.67392072  1
  H  H23  1  0.63097339  0.66273761  0.35312407  1
  H  H24  1  0.95960080  1.01111922  0.51321466  1
  H  H25  1  0.03986814  0.51203185  0.93641826  1
  H  H26  1  0.85514131  0.20272258  0.47044904  1
  H  H27  1  0.85859439  0.47424827  0.18828115  1
  H  H28  1  0.48650612  0.49253006  0.93409634  1
  H  H29  1  0.53158624  0.94323344  0.53341684  1
  H  H30  1  0.86816982  0.47254278  0.47818758  1
  H  H31  1  0.06117532  0.50281659  0.50389844  1
  O  O32  1  0.00017139  1.00036805  0.27340174  1
  O  O33  1  0.00041921  0.27379794  0.00102400  1
  O  O34  1  0.27893035  0.00308456  0.00095262  1
  O  O35  1  0.99870739  0.72482990  0.00344886  1
  O  O36  1  0.99788765  1.00085711  0.72885174  1
  O  O37  1  0.16826437  0.18644048  0.19115215  1
  O  O38  1  0.17241815  0.45180564  0.18727827  1
  O  O39  1  0.99897321  0.27560886  0.72455493  1
  O  O40  1  1.00008815  0.72079713  0.27541630  1
  O  O41  1  0.16885941  0.18629690  0.45661199  1
  O  O42  1  0.44480399  0.18408848  0.18617284  1
  O  O43  1  0.27095366  0.00035569  0.72808334  1
  O  O44  1  0.27594924  0.71822924  0.00435263  1
  O  O45  1  0.09746503  0.54628897  0.54412586  1
  O  O46  1  0.71458385  0.00092050  0.00730129  1
  O  O47  1  0.08970707  0.54991486  0.81588665  1
  O  O48  1  0.28208929  0.27868049  0.72452132  1
  O  O49  1  0.28223012  0.72505422  0.27876779  1
  O  O50  1  0.72409390  -0.00139554  0.26962936  1
  O  O51  1  0.71511765  0.27628118  0.00430297  1
  O  O52  1  0.55368966  0.08391905  0.54959637  1
  O  O53  1  0.27857944  0.72696703  0.71425080  1
  O  O54  1  0.72223528  0.28073296  0.28025036  1
  O  O55  1  0.81772813  0.54270087  0.09588814  1
  O  O56  1  0.84352857  0.09328528  0.53320951  1
  O  O57  1  0.71700447  0.71658730  0.28238458  1
  O  O58  1  0.72231641  0.27861165  0.71656970  1
  O  O59  1  0.54045474  0.54246895  0.81702594  1
  O  O60  1  0.54855645  0.82565450  0.54957579  1
  O  O61  1  0.52448125  0.82285063  0.83272580  1
  O  O62  1  0.81233541  0.54259956  0.54480177  1
  O  O63  1  0.82035243  0.52713464  0.82704622  1
  O  O64  1  0.83157050  0.82379067  0.52344378  1
  O  O65  1  0.82130516  0.82962250  0.82422638  1
  Si  Si66  1  0.11542006  0.11348777  0.11341968  1
  Si  Si67  1  0.24299852  0.24896207  0.25485187  1
  Si  Si68  1  0.11339662  0.65613802  0.11580723  1
  Si  Si69  1  0.11324320  0.11420163  0.66069587  1
  Si  Si70  1  0.64892739  0.11562004  0.11779501  1
