# generated using pymatgen
data_Co(PO3)3
_symmetry_space_group_name_H-M   'P 1'
_cell_length_a   8.48394033
_cell_length_b   8.47725617
_cell_length_c   8.66673587
_cell_angle_alpha   90.00000000
_cell_angle_beta   90.00000000
_cell_angle_gamma   90.00000000
_symmetry_Int_Tables_number   1
_chemical_formula_structural   Co(PO3)3
_chemical_formula_sum   'Co4 P12 O36'
_cell_volume   623.31628488
_cell_formula_units_Z   4
loop_
 _symmetry_equiv_pos_site_id
 _symmetry_equiv_pos_as_xyz
  1  'x, y, z'
loop_
 _atom_site_type_symbol
 _atom_site_label
 _atom_site_symmetry_multiplicity
 _atom_site_fract_x
 _atom_site_fract_y
 _atom_site_fract_z
 _atom_site_occupancy
  O  O0  1  0.63469818  0.31278070  0.36267064  1
  O  O1  1  0.95560768  0.27908587  0.85252910  1
  O  O2  1  0.90415476  0.37675699  0.58228952  1
  O  O3  1  0.89801156  0.13109992  0.37732614  1
  O  O4  1  0.04439232  0.77908687  0.64746990  1
  O  O5  1  0.09584524  0.87675699  0.91771148  1
  O  O6  1  0.10198844  0.63109892  0.12267286  1
  O  O7  1  0.09827357  0.40801873  0.32357508  1
  O  O8  1  0.13469818  0.18721930  0.63732936  1
  O  O9  1  0.14312373  0.46733371  0.74379720  1
  O  O10  1  0.15754466  0.84053494  0.38796938  1
  O  O11  1  0.18925015  0.08002745  0.13861868  1
  O  O12  1  0.21548190  0.36359515  0.05547590  1
  O  O13  1  0.28451810  0.63640585  0.55547490  1
  O  O14  1  0.31075085  0.91997255  0.63861768  1
  O  O15  1  0.34245534  0.15946506  0.88796938  1
  O  O16  1  0.35687627  0.53266529  0.24379720  1
  O  O17  1  0.36530182  0.81277970  0.13733036  1
  O  O18  1  0.40172643  0.59198027  0.82357508  1
  O  O19  1  0.39801156  0.36890008  0.62267286  1
  O  O20  1  0.40415476  0.12324301  0.41771148  1
  O  O21  1  0.45560768  0.22091413  0.14746990  1
  O  O22  1  0.54439232  0.72091313  0.35253010  1
  O  O23  1  0.86530182  0.68721930  0.86267064  1
  O  O24  1  0.60198844  0.86890008  0.87732614  1
  O  O25  1  0.59827357  0.09198027  0.67642492  1
  O  O26  1  0.90172643  0.90801973  0.17642492  1
  O  O27  1  0.64312373  0.03266629  0.25620180  1
  O  O28  1  0.65754666  0.65946606  0.61203062  1
  O  O29  1  0.68925015  0.41997355  0.86138132  1
  O  O30  1  0.71548190  0.13640485  0.94452410  1
  O  O31  1  0.78451810  0.86359415  0.44452410  1
  O  O32  1  0.81075085  0.58002645  0.36138132  1
  O  O33  1  0.84245534  0.34053394  0.11203062  1
  O  O34  1  0.85687627  0.96733371  0.75620180  1
  O  O35  1  0.59584524  0.62324301  0.08228852  1
  P  P36  1  0.68123945  0.01240147  0.80885847  1
  P  P37  1  0.70362689  0.69081392  0.44905651  1
  P  P38  1  0.79637411  0.30918608  0.94905551  1
  P  P39  1  0.81875955  0.98759853  0.30885847  1
  P  P40  1  0.03215978  0.32168240  0.68873066  1
  P  P41  1  0.18123945  0.48759953  0.19114153  1
  P  P42  1  0.20362689  0.80918508  0.55094349  1
  P  P43  1  0.29637311  0.19081392  0.05094349  1
  P  P44  1  0.31876055  0.51240147  0.69114153  1
  P  P45  1  0.46784122  0.67831760  0.18873066  1
  P  P46  1  0.53215978  0.17831860  0.31126834  1
  P  P47  1  0.96784122  0.82168240  0.81126834  1
  Co  Co48  1  0.86760417  0.35849992  0.35278729  1
  Co  Co49  1  0.63239583  0.64150008  0.85278729  1
  Co  Co50  1  0.36760417  0.14149908  0.64721371  1
  Co  Co51  1  0.13239583  0.85850092  0.14721371  1
