# generated using pymatgen
data_Li2Co(PO3)4
_symmetry_space_group_name_H-M   'P 1'
_cell_length_a   7.36844821
_cell_length_b   7.30787728
_cell_length_c   5.15756982
_cell_angle_alpha   84.85999643
_cell_angle_beta   113.00718468
_cell_angle_gamma   110.84943974
_symmetry_Int_Tables_number   1
_chemical_formula_structural   Li2Co(PO3)4
_chemical_formula_sum   'Li2 Co1 P4 O12'
_cell_volume   238.49685209
_cell_formula_units_Z   1
loop_
 _symmetry_equiv_pos_site_id
 _symmetry_equiv_pos_as_xyz
  1  'x, y, z'
loop_
 _atom_site_type_symbol
 _atom_site_label
 _atom_site_symmetry_multiplicity
 _atom_site_fract_x
 _atom_site_fract_y
 _atom_site_fract_z
 _atom_site_occupancy
  Li  Li0  1  0.27499481  0.43783744  0.94163144  1
  Li  Li1  1  0.72500519  0.56216256  0.05836856  1
  O  O2  1  0.26318067  0.20770142  0.24933059  1
  O  O3  1  0.01487123  0.79702829  0.28226165  1
  O  O4  1  0.17700689  0.65333414  0.75734523  1
  O  O5  1  0.36645246  0.77357403  0.41261780  1
  O  O6  1  0.67643286  0.98635552  0.30735351  1
  O  O7  1  0.44136108  0.38119270  0.74979168  1
  O  O8  1  0.82299311  0.34666686  0.24265477  1
  O  O9  1  0.98512877  0.20297271  0.71773635  1
  O  O10  1  0.55863892  0.61880730  0.25020832  1
  O  O11  1  0.73681933  0.79229858  0.75066741  1
  O  O12  1  0.63354754  0.22642697  0.58738120  1
  O  O13  1  0.32356714  0.01364548  0.69264749  1
  P  P14  1  0.40765569  0.22090758  0.55894849  1
  P  P15  1  0.20741804  0.79370153  0.54075036  1
  P  P16  1  0.59234531  0.77909242  0.44105151  1
  P  P17  1  0.79258196  0.20629847  0.45925064  1
  Co  Co18  1  0.00000000  0.00000000  0.00000000  1
