# generated using pymatgen
data_CrP2O7
_symmetry_space_group_name_H-M   'P 1'
_cell_length_a   8.66884716
_cell_length_b   5.15878931
_cell_length_c   12.24072965
_cell_angle_alpha   90.00000000
_cell_angle_beta   76.42315536
_cell_angle_gamma   90.00000000
_symmetry_Int_Tables_number   1
_chemical_formula_structural   CrP2O7
_chemical_formula_sum   'Cr4 P8 O28'
_cell_volume   532.11770178
_cell_formula_units_Z   4
loop_
 _symmetry_equiv_pos_site_id
 _symmetry_equiv_pos_as_xyz
  1  'x, y, z'
loop_
 _atom_site_type_symbol
 _atom_site_label
 _atom_site_symmetry_multiplicity
 _atom_site_fract_x
 _atom_site_fract_y
 _atom_site_fract_z
 _atom_site_occupancy
  Cr  Cr0  1  0.73837765  0.25659132  0.53445610  1
  Cr  Cr1  1  0.23837765  0.24340868  0.03445610  1
  Cr  Cr2  1  0.26162235  0.74340868  0.46554390  1
  Cr  Cr3  1  0.76162235  0.75659132  0.96554390  1
  P  P4  1  0.92611953  0.76926772  0.38611719  1
  P  P5  1  0.42611953  0.73073228  0.88611719  1
  P  P6  1  0.07388047  0.23073228  0.61388281  1
  P  P7  1  0.57388047  0.26926772  0.11388281  1
  P  P8  1  0.02131229  0.75936993  0.13981923  1
  P  P9  1  0.52131229  0.74063007  0.63981923  1
  P  P10  1  0.97868771  0.24063007  0.86018077  1
  P  P11  1  0.47868771  0.25936993  0.36018077  1
  O  O12  1  0.07789914  0.26330983  0.94648681  1
  O  O13  1  0.09073187  0.03225914  0.14485149  1
  O  O14  1  0.59936445  0.22355909  0.23891480  1
  O  O15  1  0.57789914  0.23669017  0.44648681  1
  O  O16  1  0.64518690  0.95507028  0.62540981  1
  O  O17  1  0.31450799  0.91996680  0.95912316  1
  O  O18  1  0.11946957  0.94901354  0.58163511  1
  O  O19  1  0.59073187  0.46774086  0.64485149  1
  O  O20  1  0.40926813  0.53225914  0.35514851  1
  O  O21  1  0.40063555  0.77644091  0.76108520  1
  O  O22  1  0.39700227  0.22227670  0.12257352  1
  O  O23  1  0.60299773  0.77772330  0.87742648  1
  O  O24  1  0.68549201  0.08003320  0.04087684  1
  O  O25  1  0.89700227  0.27772330  0.62257352  1
  O  O26  1  0.90926813  0.96774086  0.85514851  1
  O  O27  1  0.38053043  0.44901354  0.91836489  1
  O  O28  1  0.88053043  0.05098646  0.41836489  1
  O  O29  1  0.10299773  0.72227670  0.37742648  1
  O  O30  1  0.35481310  0.04492972  0.37459019  1
  O  O31  1  0.85481310  0.45507028  0.87459019  1
  O  O32  1  0.09936445  0.27644091  0.73891480  1
  O  O33  1  0.81450799  0.58003320  0.45912316  1
  O  O34  1  0.92210086  0.73669017  0.05351319  1
  O  O35  1  0.18549201  0.41996680  0.54087684  1
  O  O36  1  0.61946957  0.55098646  0.08163511  1
  O  O37  1  0.14518690  0.54492972  0.12540981  1
  O  O38  1  0.42210086  0.76330983  0.55351319  1
  O  O39  1  0.90063555  0.72355909  0.26108520  1
