# generated using pymatgen
data_Co3(P2O7)2
_symmetry_space_group_name_H-M   'P 1'
_cell_length_a   7.31112370
_cell_length_b   7.93742658
_cell_length_c   9.39994264
_cell_angle_alpha   90.00000000
_cell_angle_beta   110.23313409
_cell_angle_gamma   90.00000000
_symmetry_Int_Tables_number   1
_chemical_formula_structural   Co3(P2O7)2
_chemical_formula_sum   'Co6 P8 O28'
_cell_volume   511.83221360
_cell_formula_units_Z   2
loop_
 _symmetry_equiv_pos_site_id
 _symmetry_equiv_pos_as_xyz
  1  'x, y, z'
loop_
 _atom_site_type_symbol
 _atom_site_label
 _atom_site_symmetry_multiplicity
 _atom_site_fract_x
 _atom_site_fract_y
 _atom_site_fract_z
 _atom_site_occupancy
  Co  Co0  1  0.00000000  0.00000000  0.50000000  1
  Co  Co1  1  0.19433905  0.62295067  0.52708489  1
  Co  Co2  1  0.00000000  0.50000000  0.00000000  1
  Co  Co3  1  0.19433905  0.87704933  0.02708489  1
  Co  Co4  1  0.80566095  0.12295067  0.97291511  1
  Co  Co5  1  0.80566095  0.37704933  0.47291511  1
  O  O6  1  0.00386435  0.71165851  0.87145817  1
  O  O7  1  0.02950414  0.08084754  0.88894007  1
  O  O8  1  0.12264191  0.38332891  0.87650071  1
  O  O9  1  0.00386435  0.78834149  0.37145817  1
  O  O10  1  0.02950414  0.41915246  0.38894007  1
  O  O11  1  0.12264191  0.11667109  0.37650071  1
  O  O12  1  0.32098660  0.15276873  0.81457938  1
  O  O13  1  0.36538493  0.84910022  0.90849282  1
  O  O14  1  0.26802772  0.90358035  0.62952647  1
  O  O15  1  0.38960212  0.49414203  0.68808209  1
  O  O16  1  0.32098660  0.34723127  0.31457938  1
  O  O17  1  0.36538493  0.65089978  0.40849282  1
  O  O18  1  0.26802772  0.59641965  0.12952647  1
  O  O19  1  0.61039788  0.99414203  0.81191791  1
  O  O20  1  0.38960212  0.00585797  0.18808209  1
  O  O21  1  0.73197228  0.40358035  0.87047353  1
  O  O22  1  0.63461507  0.34910022  0.59150718  1
  O  O23  1  0.67901340  0.65276873  0.68542062  1
  O  O24  1  0.61039788  0.50585797  0.31191791  1
  O  O25  1  0.73197228  0.09641965  0.37047353  1
  O  O26  1  0.63461507  0.15089978  0.09150718  1
  O  O27  1  0.67901340  0.84723127  0.18542062  1
  O  O28  1  0.87735809  0.88332891  0.62349929  1
  O  O29  1  0.97049586  0.58084754  0.61105993  1
  O  O30  1  0.99613565  0.21165851  0.62854183  1
  O  O31  1  0.87735809  0.61667109  0.12349929  1
  O  O32  1  0.97049586  0.91915246  0.11105993  1
  O  O33  1  0.99613565  0.28834149  0.12854183  1
  P  P34  1  0.10749777  0.21133867  0.80201739  1
  P  P35  1  0.10749777  0.28866133  0.30201739  1
  P  P36  1  0.39628093  0.96521891  0.78956211  1
  P  P37  1  0.39628093  0.53478109  0.28956211  1
  P  P38  1  0.60371907  0.46521891  0.71043789  1
  P  P39  1  0.60371907  0.03478109  0.21043789  1
  P  P40  1  0.89250223  0.71133867  0.69798261  1
  P  P41  1  0.89250223  0.78866133  0.19798261  1
