# generated using pymatgen
data_Na2Nb4O11
_symmetry_space_group_name_H-M   'P 1'
_cell_length_a   6.30625708
_cell_length_b   6.31281425
_cell_length_c   12.94178961
_cell_angle_alpha   75.91658639
_cell_angle_beta   75.89263599
_cell_angle_gamma   60.00222671
_symmetry_Int_Tables_number   1
_chemical_formula_structural   Na2Nb4O11
_chemical_formula_sum   'Na4 Nb8 O22'
_cell_volume   428.19324406
_cell_formula_units_Z   2
loop_
 _symmetry_equiv_pos_site_id
 _symmetry_equiv_pos_as_xyz
  1  'x, y, z'
loop_
 _atom_site_type_symbol
 _atom_site_label
 _atom_site_symmetry_multiplicity
 _atom_site_fract_x
 _atom_site_fract_y
 _atom_site_fract_z
 _atom_site_occupancy
  Nb  Nb0  1  0.25082046  0.11311250  0.24957792  1
  Nb  Nb1  1  0.61365924  0.38664457  0.25041569  1
  Nb  Nb2  1  0.74917954  0.88688750  0.75042208  1
  Nb  Nb3  1  0.38634076  0.61335543  0.74958431  1
  Nb  Nb4  1  0.88736302  0.74989714  0.24998548  1
  Nb  Nb5  1  0.11263698  0.25010286  0.75001452  1
  Nb  Nb6  1  0.50000000  0.00000000  0.50000000  1
  Nb  Nb7  1  0.00000000  0.50000000  0.00000000  1
  Na  Na8  1  0.66753493  0.16688668  0.99974081  1
  Na  Na9  1  0.83416694  0.33313682  0.50025984  1
  Na  Na10  1  0.33246507  0.83311332  0.00025919  1
  Na  Na11  1  0.16583306  0.66686318  0.49974016  1
  O  O12  1  0.25502154  0.06219579  0.40731614  1
  O  O13  1  0.72444578  0.43798672  0.09268569  1
  O  O14  1  0.74497846  0.93780421  0.59268386  1
  O  O15  1  0.27555422  0.56201328  0.90731431  1
  O  O16  1  0.24709565  0.22356904  0.09186759  1
  O  O17  1  0.56243820  0.27645101  0.40814667  1
  O  O18  1  0.75290435  0.77643096  0.90813241  1
  O  O19  1  0.43756180  0.72354899  0.59185333  1
  O  O20  1  0.77749222  0.75452973  0.40779276  1
  O  O21  1  0.93972192  0.74551203  0.09219656  1
  O  O22  1  0.22250778  0.24547027  0.59220724  1
  O  O23  1  0.06027808  0.25448797  0.90780344  1
  O  O24  1  0.00394652  0.99706380  0.24991142  1
  O  O25  1  0.25087801  0.50286708  0.25005003  1
  O  O26  1  0.99605348  0.00293620  0.75008858  1
  O  O27  1  0.74912199  0.49713292  0.74994997  1
  O  O28  1  0.59549119  0.09450110  0.21673981  1
  O  O29  1  0.90638609  0.40561081  0.28325635  1
  O  O30  1  0.40450881  0.90549890  0.78326019  1
  O  O31  1  0.09361391  0.59438919  0.71674365  1
  O  O32  1  0.49893500  0.75005500  0.25002072  1
  O  O33  1  0.50106500  0.24994500  0.74997928  1
