# generated using pymatgen
data_LiCo(PO3)3
_symmetry_space_group_name_H-M   'P 1'
_cell_length_a   6.54532499
_cell_length_b   7.41190762
_cell_length_c   6.84430870
_cell_angle_alpha   101.03787534
_cell_angle_beta   89.44664239
_cell_angle_gamma   87.31318209
_symmetry_Int_Tables_number   1
_chemical_formula_structural   LiCo(PO3)3
_chemical_formula_sum   'Li2 Co2 P6 O18'
_cell_volume   325.48077644
_cell_formula_units_Z   2
loop_
 _symmetry_equiv_pos_site_id
 _symmetry_equiv_pos_as_xyz
  1  'x, y, z'
loop_
 _atom_site_type_symbol
 _atom_site_label
 _atom_site_symmetry_multiplicity
 _atom_site_fract_x
 _atom_site_fract_y
 _atom_site_fract_z
 _atom_site_occupancy
  Li  Li0  1  0.14312889  0.18887870  0.43417375  1
  Li  Li1  1  0.85687111  0.81112130  0.56582625  1
  Co  Co2  1  0.15558554  0.14223194  0.91534895  1
  Co  Co3  1  0.84441446  0.85776806  0.08465105  1
  P  P4  1  0.14272717  0.55537581  0.78579404  1
  P  P5  1  0.85727283  0.44462419  0.21420596  1
  P  P6  1  0.64765721  0.19625478  0.43645942  1
  P  P7  1  0.66884051  0.21814581  0.88020180  1
  P  P8  1  0.35234279  0.80374522  0.56354058  1
  P  P9  1  0.33115949  0.78185419  0.11979820  1
  O  O10  1  0.54400615  0.81285303  0.06249748  1
  O  O11  1  0.45599385  0.18714697  0.93750252  1
  O  O12  1  0.43103643  0.15633864  0.39977528  1
  O  O13  1  0.95122814  0.68099759  0.80252326  1
  O  O14  1  0.04877186  0.31900241  0.19747674  1
  O  O15  1  0.68865410  0.27169922  0.66815990  1
  O  O16  1  0.87645472  0.64948622  0.27299483  1
  O  O17  1  0.16271919  0.92647840  0.09760937  1
  O  O18  1  0.31134590  0.72830078  0.33184010  1
  O  O19  1  0.18109613  0.94650855  0.64070876  1
  O  O20  1  0.56896357  0.84366136  0.60022472  1
  O  O21  1  0.12354528  0.35051378  0.72700517  1
  O  O22  1  0.69437746  0.38725154  0.36462073  1
  O  O23  1  0.81890387  0.05349145  0.35929124  1
  O  O24  1  0.83728081  0.07352160  0.90239063  1
  O  O25  1  0.30562254  0.61274846  0.63537927  1
  O  O26  1  0.73849357  0.41168695  0.00694157  1
  O  O27  1  0.26150643  0.58831305  0.99305843  1
