# generated using pymatgen
data_LiNi(PO3)3
_symmetry_space_group_name_H-M   'P 1'
_cell_length_a   6.49476555
_cell_length_b   7.30234674
_cell_length_c   6.83222892
_cell_angle_alpha   101.47349377
_cell_angle_beta   89.37330215
_cell_angle_gamma   87.19956502
_symmetry_Int_Tables_number   1
_chemical_formula_structural   LiNi(PO3)3
_chemical_formula_sum   'Li2 Ni2 P6 O18'
_cell_volume   317.10726569
_cell_formula_units_Z   2
loop_
 _symmetry_equiv_pos_site_id
 _symmetry_equiv_pos_as_xyz
  1  'x, y, z'
loop_
 _atom_site_type_symbol
 _atom_site_label
 _atom_site_symmetry_multiplicity
 _atom_site_fract_x
 _atom_site_fract_y
 _atom_site_fract_z
 _atom_site_occupancy
  Li  Li0  1  0.13949614  0.17473112  0.42240321  1
  Li  Li1  1  0.86050386  0.82526888  0.57759679  1
  Ni  Ni2  1  0.14948323  0.13936978  0.91323894  1
  Ni  Ni3  1  0.85051677  0.86063022  0.08676106  1
  O  O4  1  0.05161065  0.32212368  0.19099569  1
  O  O5  1  0.11999109  0.34148054  0.72803222  1
  O  O6  1  0.17507214  0.94464130  0.63515391  1
  O  O7  1  0.16496304  0.93027922  0.09713005  1
  O  O8  1  0.27246052  0.58733443  0.98420743  1
  O  O9  1  0.29464519  0.60348632  0.62094397  1
  O  O10  1  0.32296650  0.72837721  0.32534202  1
  O  O11  1  0.43407482  0.15767710  0.39030041  1
  O  O12  1  0.44940378  0.18032065  0.94437418  1
  O  O13  1  0.55059622  0.81967935  0.05562582  1
  O  O14  1  0.56592518  0.84232290  0.60969959  1
  O  O15  1  0.67703350  0.27162279  0.67465798  1
  O  O16  1  0.70535481  0.39651368  0.37905603  1
  O  O17  1  0.72753948  0.41266557  0.01579257  1
  O  O18  1  0.83503696  0.06972078  0.90286995  1
  O  O19  1  0.82492786  0.05535870  0.36484609  1
  O  O20  1  0.88000891  0.65851946  0.27196778  1
  O  O21  1  0.94838935  0.67787632  0.80900431  1
  P  P22  1  0.14103503  0.55015488  0.78372935  1
  P  P23  1  0.33881025  0.78442234  0.11423981  1
  P  P24  1  0.35038935  0.80056437  0.56072655  1
  P  P25  1  0.64961065  0.19943563  0.43927345  1
  P  P26  1  0.66118975  0.21557766  0.88576019  1
  P  P27  1  0.85896497  0.44984512  0.21627065  1
