# generated using pymatgen
data_USn
_symmetry_space_group_name_H-M   'P 1'
_cell_length_a   3.11099506
_cell_length_b   3.11109588
_cell_length_c   5.48086368
_cell_angle_alpha   89.99010149
_cell_angle_beta   90.01034929
_cell_angle_gamma   120.00424300
_symmetry_Int_Tables_number   1
_chemical_formula_structural   USn
_chemical_formula_sum   'U1 Sn1'
_cell_volume   45.93817830
_cell_formula_units_Z   1
loop_
 _symmetry_equiv_pos_site_id
 _symmetry_equiv_pos_as_xyz
  1  'x, y, z'
loop_
 _atom_site_type_symbol
 _atom_site_label
 _atom_site_symmetry_multiplicity
 _atom_site_fract_x
 _atom_site_fract_y
 _atom_site_fract_z
 _atom_site_occupancy
  U  U0  1  0.33333309  0.66666825  0.24999924  1
  Sn  Sn1  1  0.66666691  0.33333075  0.74999876  1
