# generated using pymatgen
data_LiVPO5
_symmetry_space_group_name_H-M   'P 1'
_cell_length_a   7.25166710
_cell_length_b   10.46496709
_cell_length_c   4.97630070
_cell_angle_alpha   89.99973319
_cell_angle_beta   110.42324189
_cell_angle_gamma   90.00019874
_symmetry_Int_Tables_number   1
_chemical_formula_structural   LiVPO5
_chemical_formula_sum   'Li4 V4 P4 O20'
_cell_volume   353.90529040
_cell_formula_units_Z   4
loop_
 _symmetry_equiv_pos_site_id
 _symmetry_equiv_pos_as_xyz
  1  'x, y, z'
loop_
 _atom_site_type_symbol
 _atom_site_label
 _atom_site_symmetry_multiplicity
 _atom_site_fract_x
 _atom_site_fract_y
 _atom_site_fract_z
 _atom_site_occupancy
  Li  Li0  1  0.16411967  0.10511462  0.12667813  1
  Li  Li1  1  0.33587987  0.60511600  0.37332180  1
  Li  Li2  1  0.66412113  0.39488500  0.62667820  1
  Li  Li3  1  0.83588033  0.89488538  0.87332187  1
  O  O4  1  0.46561576  0.27710982  0.82102313  1
  O  O5  1  0.15559947  0.57289013  0.95537396  1
  O  O6  1  1.00083012  0.95909880  0.26716989  1
  O  O7  1  0.15797099  0.42964367  0.48287525  1
  O  O8  1  0.15198031  0.30950481  0.03549828  1
  O  O9  1  0.34440413  0.07289130  0.54462920  1
  O  O10  1  0.34802168  0.80950354  0.46450058  1
  O  O11  1  0.03438197  0.77710612  0.67898051  1
  O  O12  1  0.50082952  0.54090073  0.76716806  1
  O  O13  1  0.34203138  0.92964252  0.01712732  1
  O  O14  1  0.65796962  0.07035748  0.98287368  1
  O  O15  1  0.49917148  0.45909927  0.23283294  1
  O  O16  1  0.96561703  0.22289488  0.32101849  1
  O  O17  1  0.65197932  0.19049646  0.53549942  1
  O  O18  1  0.65559687  0.92710870  0.45537080  1
  O  O19  1  0.84802069  0.69049519  0.96450172  1
  O  O20  1  0.84203001  0.57035633  0.51712475  1
  O  O21  1  -0.00083012  0.04090120  0.73283011  1
  O  O22  1  0.84440153  0.42710987  0.04462704  1
  O  O23  1  0.53438524  0.72289118  0.17897787  1
  P  P24  1  0.02735405  0.35003944  0.22533756  1
  P  P25  1  0.52735480  0.14995495  0.72533470  1
  P  P26  1  0.47264620  0.85004505  0.27466530  1
  P  P27  1  0.97264495  0.64996056  0.77466244  1
  V  V28  1  0.17996044  0.92235076  0.60024248  1
  V  V29  1  0.32003829  0.42235117  0.89975700  1
  V  V30  1  0.67996271  0.57764883  0.10024300  1
  V  V31  1  0.82004056  0.07764924  0.39975752  1
