# generated using pymatgen
data_LiMn(PO3)4
_symmetry_space_group_name_H-M   'P 1'
_cell_length_a   5.30557408
_cell_length_b   10.44368604
_cell_length_c   10.44367196
_cell_angle_alpha   72.49258597
_cell_angle_beta   99.35412024
_cell_angle_gamma   99.35396950
_symmetry_Int_Tables_number   1
_chemical_formula_structural   LiMn(PO3)4
_chemical_formula_sum   'Li2 Mn2 P8 O24'
_cell_volume   540.55182315
_cell_formula_units_Z   2
loop_
 _symmetry_equiv_pos_site_id
 _symmetry_equiv_pos_as_xyz
  1  'x, y, z'
loop_
 _atom_site_type_symbol
 _atom_site_label
 _atom_site_symmetry_multiplicity
 _atom_site_fract_x
 _atom_site_fract_y
 _atom_site_fract_z
 _atom_site_occupancy
  Li  Li0  1  0.46869108  0.40449463  0.40448807  1
  Li  Li1  1  0.53130879  0.59551219  0.59550560  1
  O  O2  1  0.37343763  0.28871219  0.91603187  1
  O  O3  1  0.98353914  0.16024823  0.55534714  1
  O  O4  1  0.01644381  0.83974986  0.44465630  1
  O  O5  1  0.01646133  0.44465207  0.83974918  1
  O  O6  1  0.00000056  0.23281248  0.76718747  1
  O  O7  1  0.00000086  0.76719694  0.23280314  1
  O  O8  1  0.22539223  0.66631056  0.92962020  1
  O  O9  1  0.22538431  0.92962323  0.66630643  1
  O  O10  1  0.31838325  0.43890557  0.67379497  1
  O  O11  1  0.31839038  0.67380043  0.43889465  1
  O  O12  1  0.98355524  0.55534538  0.16025216  1
  O  O13  1  0.37343163  0.91603624  0.28870550  1
  O  O14  1  0.57309864  0.85305150  0.85303563  1
  O  O15  1  0.33964143  0.10662176  0.39208208  1
  O  O16  1  0.33965481  0.39208172  0.10661833  1
  O  O17  1  0.66036050  0.60791657  0.89337688  1
  O  O18  1  0.77460915  0.07037830  0.33369189  1
  O  O19  1  0.42690241  0.14696411  0.14694894  1
  O  O20  1  0.62656439  0.08396732  0.71128750  1
  O  O21  1  0.62656956  0.71129517  0.08396346  1
  O  O22  1  0.68161607  0.32620565  0.56109646  1
  O  O23  1  0.68160938  0.56110578  0.32619995  1
  O  O24  1  0.77461160  0.33369169  0.07037864  1
  O  O25  1  0.66034289  0.89338243  0.60792014  1
  P  P26  1  0.82053275  0.63472303  0.20837986  1
  P  P27  1  0.82053216  0.20838284  0.63471960  1
  P  P28  1  0.17946601  0.36528067  0.79161800  1
  P  P29  1  0.17947051  0.79161857  0.36527742  1
  P  P30  1  0.51594343  0.69687395  0.93640462  1
  P  P31  1  0.48405483  0.06359684  0.30312753  1
  P  P32  1  0.48406486  0.30312297  0.06359164  1
  P  P33  1  0.51593648  0.93640743  0.69687599  1
  Mn  Mn34  1  -0.00003594  0.00000840  0.50007268  1
  Mn  Mn35  1  0.00003984  0.49992131  0.99999105  1
