# generated using pymatgen
data_LiMo(PO3)4
_symmetry_space_group_name_H-M   'P 1'
_cell_length_a   7.45333478
_cell_length_b   8.72736806
_cell_length_c   9.40533274
_cell_angle_alpha   114.33896808
_cell_angle_beta   113.34265568
_cell_angle_gamma   64.72208867
_symmetry_Int_Tables_number   1
_chemical_formula_structural   LiMo(PO3)4
_chemical_formula_sum   'Li2 Mo2 P8 O24'
_cell_volume   485.70439829
_cell_formula_units_Z   2
loop_
 _symmetry_equiv_pos_site_id
 _symmetry_equiv_pos_as_xyz
  1  'x, y, z'
loop_
 _atom_site_type_symbol
 _atom_site_label
 _atom_site_symmetry_multiplicity
 _atom_site_fract_x
 _atom_site_fract_y
 _atom_site_fract_z
 _atom_site_occupancy
  Li  Li0  1  0.30804908  0.75000000  0.75000000  1
  Li  Li1  1  0.69195192  0.25000000  0.25000000  1
  O  O2  1  0.50191935  0.80688957  0.95529887  1
  O  O3  1  0.01880110  0.23509879  0.99675390  1
  O  O4  1  0.76373740  0.92650112  0.21144061  1
  O  O5  1  0.98119790  0.76490121  0.00324510  1
  O  O6  1  0.59664011  0.98230941  0.77727386  1
  O  O7  1  0.14145588  0.80172472  0.30469325  1
  O  O8  1  0.02001819  0.92875336  0.78776578  1
  O  O9  1  0.63848735  0.69827428  0.19530575  1
  O  O10  1  0.74285500  0.73509879  0.49675490  1
  O  O11  1  0.35351005  0.69311143  0.54470213  1
  O  O12  1  0.23626360  0.07349988  0.78855839  1
  O  O13  1  0.47879591  0.57349888  0.28855839  1
  O  O14  1  0.19832334  0.48230941  0.27727386  1
  O  O15  1  0.16100678  0.57124664  0.71223522  1
  O  O16  1  0.83899322  0.42875336  0.28776578  1
  O  O17  1  0.80167566  0.51769059  0.72272514  1
  O  O18  1  0.40335889  0.01769059  0.22272514  1
  O  O19  1  0.49807965  0.19311143  0.04470213  1
  O  O20  1  0.64648895  0.30688857  0.45529887  1
  O  O21  1  0.25714700  0.26490021  0.50324510  1
  O  O22  1  0.36151165  0.30172572  0.80469325  1
  O  O23  1  0.97998181  0.07124664  0.21223522  1
  O  O24  1  0.85854412  0.19827428  0.69530475  1
  O  O25  1  0.52120309  0.42650112  0.71144161  1
  P  P26  1  0.02985148  0.11256941  0.83036133  1
  P  P27  1  0.44384820  0.12926163  0.86555948  1
  P  P28  1  0.97014852  0.88743059  0.16963767  1
  P  P29  1  0.55615080  0.87073737  0.13443952  1
  P  P30  1  0.29244965  0.62926163  0.36555948  1
  P  P31  1  0.70755135  0.37073837  0.63444052  1
  P  P32  1  0.31205957  0.38742959  0.66963867  1
  P  P33  1  0.68793943  0.61257041  0.33036233  1
  Mo  Mo34  1  0.86384447  0.75000000  0.75000000  1
  Mo  Mo35  1  0.13615653  0.25000000  0.25000000  1
