# generated using pymatgen
data_TiZn2O4
_symmetry_space_group_name_H-M   'P 1'
_cell_length_a   6.07598448
_cell_length_b   6.07598448
_cell_length_c   8.51563605
_cell_angle_alpha   90.00000000
_cell_angle_beta   90.00000000
_cell_angle_gamma   90.00000000
_symmetry_Int_Tables_number   1
_chemical_formula_structural   TiZn2O4
_chemical_formula_sum   'Ti4 Zn8 O16'
_cell_volume   314.37673815
_cell_formula_units_Z   4
loop_
 _symmetry_equiv_pos_site_id
 _symmetry_equiv_pos_as_xyz
  1  'x, y, z'
loop_
 _atom_site_type_symbol
 _atom_site_label
 _atom_site_symmetry_multiplicity
 _atom_site_fract_x
 _atom_site_fract_y
 _atom_site_fract_z
 _atom_site_occupancy
  Zn  Zn0  1  0.25275739  0.25275739  0.37500000  1
  Zn  Zn1  1  0.74724261  0.25275739  0.62500000  1
  Zn  Zn2  1  0.25275739  0.74724261  0.12500000  1
  Zn  Zn3  1  0.74724261  0.74724261  0.87500000  1
  Zn  Zn4  1  0.00000000  0.24489371  0.00000000  1
  Zn  Zn5  1  0.75510629  0.00000000  0.25000000  1
  Zn  Zn6  1  0.24489371  0.00000000  0.75000000  1
  Zn  Zn7  1  0.00000000  0.75510629  0.50000000  1
  Ti  Ti8  1  0.50000000  0.23927593  0.00000000  1
  Ti  Ti9  1  0.76072407  0.50000000  0.25000000  1
  Ti  Ti10  1  0.23927593  0.50000000  0.75000000  1
  Ti  Ti11  1  0.50000000  0.76072407  0.50000000  1
  O  O12  1  0.97386283  0.73428236  0.24933106  1
  O  O13  1  0.26571764  0.97386283  0.49933106  1
  O  O14  1  0.73428236  0.02613717  -0.00066894  1
  O  O15  1  0.97386283  0.26571764  0.25066894  1
  O  O16  1  0.02613717  0.73428236  0.75066894  1
  O  O17  1  0.02613717  0.26571764  0.74933106  1
  O  O18  1  0.73428236  0.97386283  0.50066894  1
  O  O19  1  0.26571764  0.02613717  1.00066894  1
  O  O20  1  0.51422019  0.26633246  0.23197443  1
  O  O21  1  0.73366754  0.51422019  0.48197443  1
  O  O22  1  0.26633246  0.48577981  0.98197443  1
  O  O23  1  0.51422019  0.73366754  0.26802557  1
  O  O24  1  0.48577981  0.26633246  0.76802557  1
  O  O25  1  0.48577981  0.73366754  0.73197443  1
  O  O26  1  0.26633246  0.51422019  0.51802557  1
  O  O27  1  0.73366754  0.48577981  0.01802557  1
