# generated using pymatgen
data_Rh2O3
_symmetry_space_group_name_H-M   'P 1'
_cell_length_a   5.57731715
_cell_length_b   5.57731709
_cell_length_c   5.57731659
_cell_angle_alpha   55.69034076
_cell_angle_beta   55.69034118
_cell_angle_gamma   55.69034105
_symmetry_Int_Tables_number   1
_chemical_formula_structural   Rh2O3
_chemical_formula_sum   'Rh4 O6'
_cell_volume   110.41122201
_cell_formula_units_Z   2
loop_
 _symmetry_equiv_pos_site_id
 _symmetry_equiv_pos_as_xyz
  1  'x, y, z'
loop_
 _atom_site_type_symbol
 _atom_site_label
 _atom_site_symmetry_multiplicity
 _atom_site_fract_x
 _atom_site_fract_y
 _atom_site_fract_z
 _atom_site_occupancy
  Rh  Rh0  1  0.34943533  0.34943533  0.34943533  1
  Rh  Rh1  1  0.15056467  0.15056467  0.15056467  1
  Rh  Rh2  1  0.65056467  0.65056467  0.65056467  1
  Rh  Rh3  1  0.84943533  0.84943533  0.84943533  1
  O  O4  1  0.54959735  0.95040265  0.25000000  1
  O  O5  1  0.25000000  0.54959735  0.95040265  1
  O  O6  1  0.95040265  0.25000000  0.54959735  1
  O  O7  1  0.45040265  0.04959735  0.75000000  1
  O  O8  1  0.75000000  0.45040265  0.04959735  1
  O  O9  1  0.04959735  0.75000000  0.45040265  1
