# generated using pymatgen
data_SrGd2Al2O7
_symmetry_space_group_name_H-M   'P 1'
_cell_length_a   3.74420227
_cell_length_b   3.74417599
_cell_length_c   10.27586949
_cell_angle_alpha   100.49542029
_cell_angle_beta   100.49701087
_cell_angle_gamma   89.99999498
_symmetry_Int_Tables_number   1
_chemical_formula_structural   SrGd2Al2O7
_chemical_formula_sum   'Sr1 Gd2 Al2 O7'
_cell_volume   139.19416009
_cell_formula_units_Z   1
loop_
 _symmetry_equiv_pos_site_id
 _symmetry_equiv_pos_as_xyz
  1  'x, y, z'
loop_
 _atom_site_type_symbol
 _atom_site_label
 _atom_site_symmetry_multiplicity
 _atom_site_fract_x
 _atom_site_fract_y
 _atom_site_fract_z
 _atom_site_occupancy
  O  O0  1  0.89553980  0.39556294  0.79107961  1
  O  O1  1  0.39554013  0.89556601  0.79108026  1
  Al  Al2  1  0.09511867  0.09509890  0.19023733  1
  O  O3  1  0.10446012  0.60443662  0.20892023  1
  Al  Al4  1  0.90488136  0.90490145  0.80976273  1
  O  O5  1  0.60445974  0.10443376  0.20891948  1
  Sr  Sr6  1  0.50000019  0.50000001  1.00000038  1
  Gd  Gd7  1  0.68173354  0.68172923  0.36346707  1
  Gd  Gd8  1  0.31826655  0.31827264  0.63653310  1
  O  O9  1  0.79615969  0.79618399  0.59231938  1
  O  O10  1  0.20384024  0.20381342  0.40768048  1
  O  O11  1  -0.00000002  0.00000101  -0.00000004  1
