# generated using pymatgen
data_MoP2O7
_symmetry_space_group_name_H-M   'P 1'
_cell_length_a   8.39494527
_cell_length_b   8.39494527
_cell_length_c   8.39494527
_cell_angle_alpha   90.00000000
_cell_angle_beta   90.00000000
_cell_angle_gamma   90.00000000
_symmetry_Int_Tables_number   1
_chemical_formula_structural   MoP2O7
_chemical_formula_sum   'Mo4 P8 O28'
_cell_volume   591.63465849
_cell_formula_units_Z   4
loop_
 _symmetry_equiv_pos_site_id
 _symmetry_equiv_pos_as_xyz
  1  'x, y, z'
loop_
 _atom_site_type_symbol
 _atom_site_label
 _atom_site_symmetry_multiplicity
 _atom_site_fract_x
 _atom_site_fract_y
 _atom_site_fract_z
 _atom_site_occupancy
  Mo  Mo0  1  0.00000000  0.00000000  0.00000000  1
  Mo  Mo1  1  0.50000000  0.00000000  0.50000000  1
  Mo  Mo2  1  0.50000000  0.50000000  0.00000000  1
  Mo  Mo3  1  0.00000000  0.50000000  0.50000000  1
  P  P4  1  0.39078718  0.39078718  0.39078718  1
  P  P5  1  0.10921282  0.60921282  0.89078718  1
  P  P6  1  0.89078718  0.10921282  0.60921282  1
  P  P7  1  0.60921282  0.89078718  0.10921282  1
  P  P8  1  0.60921282  0.60921282  0.60921282  1
  P  P9  1  0.89078718  0.39078718  0.10921282  1
  P  P10  1  0.10921282  0.89078718  0.39078718  1
  P  P11  1  0.39078718  0.10921282  0.89078718  1
  O  O12  1  0.50000000  0.50000000  0.50000000  1
  O  O13  1  0.00000000  0.50000000  0.00000000  1
  O  O14  1  0.00000000  0.00000000  0.50000000  1
  O  O15  1  0.50000000  0.00000000  0.00000000  1
  O  O16  1  0.21960830  0.08646493  0.94395784  1
  O  O17  1  0.94395784  0.21960830  0.08646493  1
  O  O18  1  0.08646493  0.94395784  0.21960830  1
  O  O19  1  0.41353507  0.05604216  0.71960830  1
  O  O20  1  0.44395784  0.28039170  0.91353507  1
  O  O21  1  0.91353507  0.44395784  0.28039170  1
  O  O22  1  0.55604216  0.78039170  0.58646493  1
  O  O23  1  0.05604216  0.71960830  0.41353507  1
  O  O24  1  0.58646493  0.55604216  0.78039170  1
  O  O25  1  0.71960830  0.41353507  0.05604216  1
  O  O26  1  0.78039170  0.58646493  0.55604216  1
  O  O27  1  0.28039170  0.91353507  0.44395784  1
  O  O28  1  0.78039170  0.91353507  0.05604216  1
  O  O29  1  0.05604216  0.78039170  0.91353507  1
  O  O30  1  0.91353507  0.05604216  0.78039170  1
  O  O31  1  0.58646493  0.94395784  0.28039170  1
  O  O32  1  0.55604216  0.71960830  0.08646493  1
  O  O33  1  0.08646493  0.55604216  0.71960830  1
  O  O34  1  0.44395784  0.21960830  0.41353507  1
  O  O35  1  0.94395784  0.28039170  0.58646493  1
  O  O36  1  0.41353507  0.44395784  0.21960830  1
  O  O37  1  0.28039170  0.58646493  0.94395784  1
  O  O38  1  0.21960830  0.41353507  0.44395784  1
  O  O39  1  0.71960830  0.08646493  0.55604216  1
