# generated using pymatgen
data_Na2Zr(MoO4)3
_symmetry_space_group_name_H-M   'P 1'
_cell_length_a   5.16865973
_cell_length_b   10.15280130
_cell_length_c   10.15299575
_cell_angle_alpha   68.40703650
_cell_angle_beta   80.67106378
_cell_angle_gamma   80.67038577
_symmetry_Int_Tables_number   1
_chemical_formula_structural   Na2Zr(MoO4)3
_chemical_formula_sum   'Na4 Zr2 Mo6 O24'
_cell_volume   485.79223557
_cell_formula_units_Z   2
loop_
 _symmetry_equiv_pos_site_id
 _symmetry_equiv_pos_as_xyz
  1  'x, y, z'
loop_
 _atom_site_type_symbol
 _atom_site_label
 _atom_site_symmetry_multiplicity
 _atom_site_fract_x
 _atom_site_fract_y
 _atom_site_fract_z
 _atom_site_occupancy
  O  O0  1  0.90585402  0.79056718  0.41918102  1
  O  O1  1  0.59414269  0.58081911  0.20943188  1
  O  O2  1  0.09414598  0.20943282  0.58081798  1
  O  O3  1  0.40585531  0.41917989  0.79056812  1
  O  O4  1  0.26355527  0.92801146  0.50049069  1
  O  O5  1  0.23644115  0.49951173  0.07198348  1
  O  O6  1  0.73644573  0.07198854  0.49951031  1
  O  O7  1  0.76355885  0.50048827  0.92801652  1
  O  O8  1  0.38422815  0.61010265  0.52652242  1
  O  O9  1  0.11577145  0.47347781  0.38989709  1
  O  O10  1  0.61577185  0.38989735  0.47347758  1
  O  O11  1  0.88422855  0.52652219  0.61010391  1
  O  O12  1  0.56958979  0.13176852  0.02482368  1
  O  O13  1  0.93039004  0.97519222  0.86823399  1
  O  O14  1  0.43041021  0.86823248  0.97517632  1
  O  O15  1  0.06960996  0.02480678  0.13176701  1
  O  O16  1  0.98285189  0.27546579  0.81549160  1
  O  O17  1  0.51714368  0.18451052  0.72453781  1
  O  O18  1  0.92105601  0.73717228  0.71213774  1
  O  O19  1  0.48285632  0.81549048  0.27546319  1
  O  O20  1  0.42106065  0.71213328  0.73717337  1
  O  O21  1  0.07894399  0.26282772  0.28786326  1
  O  O22  1  0.57893935  0.28786672  0.26282563  1
  O  O23  1  0.01714811  0.72453421  0.18450940  1
  Na  Na24  1  0.12612955  0.28645220  0.03071175  1
  Na  Na25  1  0.37386846  0.96928935  0.71354732  1
  Na  Na26  1  0.87387045  0.71354780  0.96928825  1
  Na  Na27  1  0.62613154  0.03071065  0.28645168  1
  Zr  Zr28  1  0.25000083  0.37591932  0.62407957  1
  Zr  Zr29  1  0.74999917  0.62408068  0.37592043  1
  Mo  Mo30  1  0.13479454  0.76624906  0.54999552  1
  Mo  Mo31  1  0.36521112  0.44999981  0.23375654  1
  Mo  Mo32  1  0.86520546  0.23375194  0.45000448  1
  Mo  Mo33  1  0.63478888  0.55000019  0.76624346  1
  Mo  Mo34  1  0.24998849  0.85956870  0.14044168  1
  Mo  Mo35  1  0.75001151  0.14043130  0.85955832  1
