# generated using pymatgen
data_TlCu5Se3
_symmetry_space_group_name_H-M   'P 1'
_cell_length_a   3.94778838
_cell_length_b   12.92435920
_cell_length_c   12.92435920
_cell_angle_alpha   90.00000000
_cell_angle_beta   90.00000000
_cell_angle_gamma   90.00000000
_symmetry_Int_Tables_number   1
_chemical_formula_structural   TlCu5Se3
_chemical_formula_sum   'Tl4 Cu20 Se12'
_cell_volume   659.43486296
_cell_formula_units_Z   4
loop_
 _symmetry_equiv_pos_site_id
 _symmetry_equiv_pos_as_xyz
  1  'x, y, z'
loop_
 _atom_site_type_symbol
 _atom_site_label
 _atom_site_symmetry_multiplicity
 _atom_site_fract_x
 _atom_site_fract_y
 _atom_site_fract_z
 _atom_site_occupancy
  Tl  Tl0  1  0.00000000  0.10724480  0.10724480  1
  Tl  Tl1  1  0.50000000  0.39275520  0.60724480  1
  Tl  Tl2  1  0.50000000  0.60724480  0.39275520  1
  Tl  Tl3  1  0.00000000  0.89275520  0.89275520  1
  Cu  Cu4  1  0.00000000  0.81989872  0.18010128  1
  Cu  Cu5  1  0.50000000  0.31989872  0.31989872  1
  Cu  Cu6  1  0.50000000  0.68010128  0.68010128  1
  Cu  Cu7  1  0.00000000  0.18010128  0.81989872  1
  Cu  Cu8  1  0.00000000  0.21277087  0.42072467  1
  Cu  Cu9  1  0.50000000  0.07927533  0.71277087  1
  Cu  Cu10  1  0.50000000  0.92072467  0.28722913  1
  Cu  Cu11  1  0.00000000  0.78722913  0.57927533  1
  Cu  Cu12  1  0.50000000  0.71277087  0.07927533  1
  Cu  Cu13  1  0.50000000  0.28722913  0.92072467  1
  Cu  Cu14  1  0.00000000  0.42072467  0.21277087  1
  Cu  Cu15  1  0.00000000  0.57927533  0.78722913  1
  Cu  Cu16  1  0.00000000  0.01422997  0.39712362  1
  Cu  Cu17  1  0.50000000  0.10287638  0.51422997  1
  Cu  Cu18  1  0.50000000  0.89712362  0.48577003  1
  Cu  Cu19  1  0.00000000  0.98577003  0.60287638  1
  Cu  Cu20  1  0.50000000  0.51422997  0.10287638  1
  Cu  Cu21  1  0.50000000  0.48577003  0.89712362  1
  Cu  Cu22  1  0.00000000  0.39712362  0.01422997  1
  Cu  Cu23  1  0.00000000  0.60287638  0.98577003  1
  Se  Se24  1  0.00000000  0.39886828  0.39886828  1
  Se  Se25  1  0.50000000  0.10113172  0.89886828  1
  Se  Se26  1  0.50000000  0.89886828  0.10113172  1
  Se  Se27  1  0.00000000  0.60113172  0.60113172  1
  Se  Se28  1  0.00000000  0.61824428  0.17501578  1
  Se  Se29  1  0.50000000  0.32498422  0.11824428  1
  Se  Se30  1  0.50000000  0.67501578  0.88175572  1
  Se  Se31  1  0.00000000  0.38175572  0.82498422  1
  Se  Se32  1  0.50000000  0.11824428  0.32498422  1
  Se  Se33  1  0.50000000  0.88175572  0.67501578  1
  Se  Se34  1  0.00000000  0.17501578  0.61824428  1
  Se  Se35  1  0.00000000  0.82498422  0.38175572  1
