# generated using pymatgen
data_Zn4Cu5(TeO6)3
_symmetry_space_group_name_H-M   'P 1'
_cell_length_a   8.75317327
_cell_length_b   8.75317364
_cell_length_c   10.52292346
_cell_angle_alpha   84.62132448
_cell_angle_beta   84.62132441
_cell_angle_gamma   61.11008957
_symmetry_Int_Tables_number   1
_chemical_formula_structural   Zn4Cu5(TeO6)3
_chemical_formula_sum   'Zn8 Cu10 Te6 O36'
_cell_volume   701.71362208
_cell_formula_units_Z   2
loop_
 _symmetry_equiv_pos_site_id
 _symmetry_equiv_pos_as_xyz
  1  'x, y, z'
loop_
 _atom_site_type_symbol
 _atom_site_label
 _atom_site_symmetry_multiplicity
 _atom_site_fract_x
 _atom_site_fract_y
 _atom_site_fract_z
 _atom_site_occupancy
  Zn  Zn0  1  0.86891850  0.53517637  0.33164382  1
  Zn  Zn1  1  0.48105986  0.55778022  0.21140350  1
  Zn  Zn2  1  0.46482363  0.13108150  0.66835618  1
  Zn  Zn3  1  0.44221978  0.51894014  0.78859650  1
  Zn  Zn4  1  0.16601445  0.87301111  0.71146525  1
  Zn  Zn5  1  0.14385212  0.26054746  0.83156445  1
  Zn  Zn6  1  0.73945254  0.85614788  0.16843555  1
  Zn  Zn7  1  0.12698889  0.83398555  0.28853475  1
  Cu  Cu8  1  0.79048427  0.50997827  0.98580433  1
  Cu  Cu9  1  0.11838021  0.18215580  0.48574651  1
  Cu  Cu10  1  0.33388429  0.33919916  0.30309274  1
  Cu  Cu11  1  0.94754550  0.72564544  0.80305218  1
  Cu  Cu12  1  0.66080084  0.66611571  0.69690726  1
  Cu  Cu13  1  0.97383965  0.02616035  1.00000000  1
  Cu  Cu14  1  0.63468581  0.36531419  0.50000000  1
  Cu  Cu15  1  0.27435456  0.05245450  0.19694782  1
  Cu  Cu16  1  0.81784420  0.88161979  0.51425349  1
  Cu  Cu17  1  0.49002173  0.20951573  0.01419567  1
  Te  Te18  1  0.45431725  0.86163627  0.94828525  1
  Te  Te19  1  0.80404584  0.19581954  0.25003318  1
  Te  Te20  1  0.80418046  0.19595416  0.74996682  1
  Te  Te21  1  0.46985722  0.84583275  0.44827661  1
  Te  Te22  1  0.15416725  0.53014278  0.55172339  1
  Te  Te23  1  0.13836373  0.54568275  0.05171475  1
  O  O24  1  0.39423707  0.08188596  0.84898918  1
  O  O25  1  0.70440894  0.43885880  0.80075079  1
  O  O26  1  0.57206787  0.62379165  0.54884583  1
  O  O27  1  0.73841052  0.11579856  0.41549602  1
  O  O28  1  0.56114120  0.29559106  0.19924921  1
  O  O29  1  0.88420144  0.26158948  0.58450398  1
  O  O30  1  0.38378302  0.76717111  0.31865459  1
  O  O31  1  0.03205966  0.11219914  0.82549799  1
  O  O32  1  0.57624939  0.27984764  0.67423015  1
  O  O33  1  0.08358406  0.41899489  0.42084041  1
  O  O34  1  0.55377497  0.64137954  0.05186921  1
  O  O35  1  0.52495560  0.97261898  0.07913995  1
  O  O36  1  0.90384014  0.95310587  0.69922262  1
  O  O37  1  0.69261704  0.74190901  0.86246088  1
  O  O38  1  0.35862046  0.44622503  0.94813079  1
  O  O39  1  0.22429425  0.62454113  0.18133609  1
  O  O40  1  0.05449970  0.75038961  0.44815200  1
  O  O41  1  0.25809099  0.30738296  0.13753912  1
  O  O42  1  0.37620835  0.42793213  0.45115417  1
  O  O43  1  0.24961039  0.94550030  0.55184800  1
  O  O44  1  0.69013223  0.78557546  0.34901830  1
  O  O45  1  0.91581678  0.64978469  0.63756661  1
  O  O46  1  0.88780086  0.96794034  0.17450201  1
  O  O47  1  0.37545887  0.77570575  0.81866391  1
  O  O48  1  0.03611600  0.76775238  0.95125749  1
  O  O49  1  0.72390128  0.13045664  0.91521644  1
  O  O50  1  0.02738102  0.47504440  0.92086005  1
  O  O51  1  0.23282889  0.61621698  0.68134541  1
  O  O52  1  0.04689413  0.09615986  0.30077738  1
  O  O53  1  0.35021531  0.08418322  0.36243339  1
  O  O54  1  0.21442454  0.30986777  0.65098170  1
  O  O55  1  0.86954336  0.27609872  0.08478356  1
  O  O56  1  0.72015236  0.42375061  0.32576985  1
  O  O57  1  0.58100511  0.91641594  0.57915959  1
  O  O58  1  0.23224762  0.96388400  0.04874251  1
  O  O59  1  0.91811404  0.60576293  0.15101082  1
