# generated using pymatgen
data_Ba5Fe5O14
_symmetry_space_group_name_H-M   'P 1'
_cell_length_a   5.89832429
_cell_length_b   5.89832395
_cell_length_c   24.71525769
_cell_angle_alpha   90.00000000
_cell_angle_beta   90.00000000
_cell_angle_gamma   120.30346171
_symmetry_Int_Tables_number   1
_chemical_formula_structural   Ba5Fe5O14
_chemical_formula_sum   'Ba10 Fe10 O28'
_cell_volume   742.36396522
_cell_formula_units_Z   2
loop_
 _symmetry_equiv_pos_site_id
 _symmetry_equiv_pos_as_xyz
  1  'x, y, z'
loop_
 _atom_site_type_symbol
 _atom_site_label
 _atom_site_symmetry_multiplicity
 _atom_site_fract_x
 _atom_site_fract_y
 _atom_site_fract_z
 _atom_site_occupancy
  Ba  Ba0  1  0.33294372  0.66705628  0.96109850  1
  Ba  Ba1  1  0.66705628  0.33294372  0.46109850  1
  Ba  Ba2  1  0.66705628  0.33294372  0.03890150  1
  Ba  Ba3  1  0.33294372  0.66705628  0.53890150  1
  Ba  Ba4  1  0.96559852  0.03440148  0.75000000  1
  Ba  Ba5  1  0.03440148  0.96559852  0.25000000  1
  Ba  Ba6  1  0.65494678  0.34505322  0.86093069  1
  Ba  Ba7  1  0.34505322  0.65494678  0.36093069  1
  Ba  Ba8  1  0.34505322  0.65494678  0.13906931  1
  Ba  Ba9  1  0.65494678  0.34505322  0.63906931  1
  Fe  Fe10  1  0.98939696  0.01060304  0.89315646  1
  Fe  Fe11  1  0.01060304  0.98939696  0.39315646  1
  Fe  Fe12  1  0.01060304  0.98939696  0.10684354  1
  Fe  Fe13  1  0.98939696  0.01060304  0.60684354  1
  Fe  Fe14  1  0.00000000  0.00000000  0.00000000  1
  Fe  Fe15  1  0.00000000  0.00000000  0.50000000  1
  Fe  Fe16  1  0.31846088  0.68153912  0.82163706  1
  Fe  Fe17  1  0.68153912  0.31846088  0.32163706  1
  Fe  Fe18  1  0.68153912  0.31846088  0.17836294  1
  Fe  Fe19  1  0.31846088  0.68153912  0.67836294  1
  O  O20  1  0.37689180  0.62310820  0.75000000  1
  O  O21  1  0.62310820  0.37689180  0.25000000  1
  O  O22  1  0.70621638  0.29378362  0.75000000  1
  O  O23  1  0.29378362  0.70621638  0.25000000  1
  O  O24  1  0.84841358  0.15158642  0.95593415  1
  O  O25  1  0.15158642  0.84841358  0.45593415  1
  O  O26  1  0.15158642  0.84841358  0.04406585  1
  O  O27  1  0.84841358  0.15158642  0.54406585  1
  O  O28  1  0.84854559  0.70769839  0.95095366  1
  O  O29  1  0.15145441  0.29230161  0.45095366  1
  O  O30  1  0.70769839  0.84854559  0.04904634  1
  O  O31  1  0.29230161  0.15145441  0.54904634  1
  O  O32  1  0.15145441  0.29230161  0.04904634  1
  O  O33  1  0.84854559  0.70769839  0.54904634  1
  O  O34  1  0.29230161  0.15145441  0.95095366  1
  O  O35  1  0.70769839  0.84854559  0.45095366  1
  O  O36  1  0.65082732  0.85747610  0.85488166  1
  O  O37  1  0.34917268  0.14252390  0.35488166  1
  O  O38  1  0.85747610  0.65082732  0.14511834  1
  O  O39  1  0.14252390  0.34917268  0.64511834  1
  O  O40  1  0.34917268  0.14252390  0.14511834  1
  O  O41  1  0.65082732  0.85747610  0.64511834  1
  O  O42  1  0.14252390  0.34917268  0.85488166  1
  O  O43  1  0.85747610  0.65082732  0.35488166  1
  O  O44  1  0.13945675  0.86054325  0.84056271  1
  O  O45  1  0.86054325  0.13945675  0.34056271  1
  O  O46  1  0.86054325  0.13945675  0.15943729  1
  O  O47  1  0.13945675  0.86054325  0.65943729  1
