# generated using pymatgen
data_La2O3
_symmetry_space_group_name_H-M   'P 1'
_cell_length_a   3.79809692
_cell_length_b   7.62222395
_cell_length_c   9.22427403
_cell_angle_alpha   99.97615766
_cell_angle_beta   90.00000000
_cell_angle_gamma   104.42699701
_symmetry_Int_Tables_number   1
_chemical_formula_structural   La2O3
_chemical_formula_sum   'La6 O9'
_cell_volume   254.44999614
_cell_formula_units_Z   3
loop_
 _symmetry_equiv_pos_site_id
 _symmetry_equiv_pos_as_xyz
  1  'x, y, z'
loop_
 _atom_site_type_symbol
 _atom_site_label
 _atom_site_symmetry_multiplicity
 _atom_site_fract_x
 _atom_site_fract_y
 _atom_site_fract_z
 _atom_site_occupancy
  La  La0  1  0.30956784  0.61913569  0.86166328  1
  La  La1  1  0.63448645  0.26897289  0.49252603  1
  La  La2  1  0.69043216  0.38086431  0.13833672  1
  La  La3  1  0.03295200  0.06590400  0.81201054  1
  La  La4  1  0.36551355  0.73102711  0.50747397  1
  La  La5  1  0.96704800  0.93409600  0.18798946  1
  O  O6  1  0.20029932  0.40059865  0.62729915  1
  O  O7  1  0.12812136  0.25624272  0.28634731  1
  O  O8  1  0.52584123  0.05168246  0.65664987  1
  O  O9  1  0.17592828  0.35185656  0.97485125  1
  O  O10  1  0.82407172  0.64814344  0.02514875  1
  O  O11  1  0.79970068  0.59940135  0.37270085  1
  O  O12  1  0.47415877  0.94831754  0.34335013  1
  O  O13  1  0.87187864  0.74375728  0.71365269  1
  O  O14  1  0.50000000  0.00000000  0.00000000  1
