# generated using pymatgen
data_CuHgSBr
_symmetry_space_group_name_H-M   'P 1'
_cell_length_a   4.09921924
_cell_length_b   10.16259971
_cell_length_c   19.05441351
_cell_angle_alpha   90.00000000
_cell_angle_beta   90.00000000
_cell_angle_gamma   90.00000000
_symmetry_Int_Tables_number   1
_chemical_formula_structural   CuHgSBr
_chemical_formula_sum   'Cu8 Hg8 S8 Br8'
_cell_volume   793.78255834
_cell_formula_units_Z   8
loop_
 _symmetry_equiv_pos_site_id
 _symmetry_equiv_pos_as_xyz
  1  'x, y, z'
loop_
 _atom_site_type_symbol
 _atom_site_label
 _atom_site_symmetry_multiplicity
 _atom_site_fract_x
 _atom_site_fract_y
 _atom_site_fract_z
 _atom_site_occupancy
  Cu  Cu0  1  0.00000000  0.93563951  0.08855795  1
  Cu  Cu1  1  0.00000000  0.56436049  0.58855795  1
  Cu  Cu2  1  0.00000000  0.41744561  0.88494417  1
  Cu  Cu3  1  0.00000000  0.58255439  0.11505583  1
  Cu  Cu4  1  0.00000000  0.91744561  0.61505583  1
  Cu  Cu5  1  0.00000000  0.08255439  0.38494417  1
  Cu  Cu6  1  0.00000000  0.43563951  0.41144205  1
  Cu  Cu7  1  0.00000000  0.06436049  0.91144205  1
  Hg  Hg8  1  0.50000000  0.01453581  0.75762911  1
  Hg  Hg9  1  0.50000000  0.24713524  0.61025253  1
  Hg  Hg10  1  0.50000000  0.98546419  0.24237089  1
  Hg  Hg11  1  0.50000000  0.48546419  0.25762911  1
  Hg  Hg12  1  0.50000000  0.51453581  0.74237089  1
  Hg  Hg13  1  0.50000000  0.74713524  0.88974747  1
  Hg  Hg14  1  0.50000000  0.25286476  0.11025253  1
  Hg  Hg15  1  0.50000000  0.75286476  0.38974747  1
  S  S16  1  0.50000000  0.48806094  0.61462929  1
  S  S17  1  0.50000000  0.00966485  0.62945390  1
  S  S18  1  0.50000000  0.99033515  0.37054610  1
  S  S19  1  0.50000000  0.98806094  0.88537071  1
  S  S20  1  0.50000000  0.49033515  0.12945390  1
  S  S21  1  0.50000000  0.50966485  0.87054610  1
  S  S22  1  0.50000000  0.01193906  0.11462929  1
  S  S23  1  0.50000000  0.51193906  0.38537071  1
  Br  Br24  1  0.00000000  0.73974830  0.01512337  1
  Br  Br25  1  0.00000000  0.74483356  0.22642397  1
  Br  Br26  1  0.00000000  0.75516644  0.72642397  1
  Br  Br27  1  0.00000000  0.26025170  0.98487663  1
  Br  Br28  1  0.00000000  0.76025170  0.51512337  1
  Br  Br29  1  0.00000000  0.25516644  0.77357603  1
  Br  Br30  1  0.00000000  0.24483356  0.27357603  1
  Br  Br31  1  0.00000000  0.23974830  0.48487663  1
