# generated using pymatgen
data_InBiO3
_symmetry_space_group_name_H-M   'P 1'
_cell_length_a   5.71046191
_cell_length_b   6.05481919
_cell_length_c   8.41845545
_cell_angle_alpha   90.00000000
_cell_angle_beta   90.00000000
_cell_angle_gamma   90.00000000
_symmetry_Int_Tables_number   1
_chemical_formula_structural   InBiO3
_chemical_formula_sum   'In4 Bi4 O12'
_cell_volume   291.07495281
_cell_formula_units_Z   4
loop_
 _symmetry_equiv_pos_site_id
 _symmetry_equiv_pos_as_xyz
  1  'x, y, z'
loop_
 _atom_site_type_symbol
 _atom_site_label
 _atom_site_symmetry_multiplicity
 _atom_site_fract_x
 _atom_site_fract_y
 _atom_site_fract_z
 _atom_site_occupancy
  In  In0  1  -0.00049019  0.50058218  0.48480288  1
  In  In1  1  1.00049019  0.49941782  0.98480288  1
  In  In2  1  0.49950981  0.99941782  0.98480288  1
  In  In3  1  0.50049019  0.00058218  0.48480288  1
  Bi  Bi4  1  0.99832163  0.93883118  0.20697293  1
  Bi  Bi5  1  0.50167837  0.43883118  0.20697293  1
  Bi  Bi6  1  0.49832163  0.56116882  0.70697293  1
  Bi  Bi7  1  0.00167837  0.06116882  0.70697293  1
  O  O8  1  0.80221773  0.79293494  0.56508065  1
  O  O9  1  0.11629386  0.44912663  0.74238673  1
  O  O10  1  0.88370614  0.55087337  0.24238673  1
  O  O11  1  0.15916693  0.16188765  0.47105681  1
  O  O12  1  0.65916693  0.33811235  0.97105681  1
  O  O13  1  0.34083307  0.66188765  0.47105681  1
  O  O14  1  0.84083307  0.83811235  0.97105681  1
  O  O15  1  0.61629386  0.05087337  0.24238673  1
  O  O16  1  0.19778227  0.20706506  0.06508065  1
  O  O17  1  0.69778227  0.29293494  0.56508065  1
  O  O18  1  0.38370614  0.94912663  0.74238673  1
  O  O19  1  0.30221773  0.70706506  0.06508065  1
