# generated using pymatgen
data_Hg3Au
_symmetry_space_group_name_H-M   'P 1'
_cell_length_a   5.94765127
_cell_length_b   5.94765061
_cell_length_c   6.23701872
_cell_angle_alpha   90.00000000
_cell_angle_beta   90.00000000
_cell_angle_gamma   119.99999397
_symmetry_Int_Tables_number   1
_chemical_formula_structural   Hg3Au
_chemical_formula_sum   'Hg6 Au2'
_cell_volume   191.07270440
_cell_formula_units_Z   2
loop_
 _symmetry_equiv_pos_site_id
 _symmetry_equiv_pos_as_xyz
  1  'x, y, z'
loop_
 _atom_site_type_symbol
 _atom_site_label
 _atom_site_symmetry_multiplicity
 _atom_site_fract_x
 _atom_site_fract_y
 _atom_site_fract_z
 _atom_site_occupancy
  Hg  Hg0  1  0.16743304  0.33486607  0.25000100  1
  Hg  Hg1  1  0.66513293  0.83256596  0.25000100  1
  Hg  Hg2  1  0.16743204  0.83256596  0.25000100  1
  Hg  Hg3  1  0.83256496  0.66513193  0.75000000  1
  Hg  Hg4  1  0.33486707  0.16743404  0.75000000  1
  Hg  Hg5  1  0.83256696  0.16743404  0.75000000  1
  Au  Au6  1  0.33333300  0.66666600  0.75000000  1
  Au  Au7  1  0.66666600  0.33333300  0.25000100  1
