# generated using pymatgen
data_SrBNO
_symmetry_space_group_name_H-M   'P 1'
_cell_length_a   6.67153730
_cell_length_b   7.91509928
_cell_length_c   11.96248714
_cell_angle_alpha   90.00000000
_cell_angle_beta   91.70347781
_cell_angle_gamma   90.00000000
_symmetry_Int_Tables_number   1
_chemical_formula_structural   SrBNO
_chemical_formula_sum   'Sr12 B12 N12 O12'
_cell_volume   631.41049092
_cell_formula_units_Z   12
loop_
 _symmetry_equiv_pos_site_id
 _symmetry_equiv_pos_as_xyz
  1  'x, y, z'
loop_
 _atom_site_type_symbol
 _atom_site_label
 _atom_site_symmetry_multiplicity
 _atom_site_fract_x
 _atom_site_fract_y
 _atom_site_fract_z
 _atom_site_occupancy
  Sr  Sr0  1  0.64604323  0.86449602  0.60599835  1
  Sr  Sr1  1  0.38966392  0.62214194  0.82379364  1
  Sr  Sr2  1  0.88966392  0.87785806  0.32379364  1
  Sr  Sr3  1  0.11033608  0.12214194  0.67620636  1
  Sr  Sr4  1  0.61033608  0.37785806  0.17620636  1
  Sr  Sr5  1  0.85395677  0.36449602  0.89400165  1
  Sr  Sr6  1  0.64408192  0.38790370  0.61292585  1
  Sr  Sr7  1  0.35395677  0.13550398  0.39400165  1
  Sr  Sr8  1  0.35591808  0.61209630  0.38707415  1
  Sr  Sr9  1  0.14604323  0.63550398  0.10599835  1
  Sr  Sr10  1  0.14408192  0.11209630  0.11292585  1
  Sr  Sr11  1  0.85591808  0.88790370  0.88707415  1
  B  B12  1  0.70731518  0.72271215  0.10535898  1
  B  B13  1  0.20997756  0.46792871  0.61217089  1
  B  B14  1  0.44755885  0.87402123  0.20564426  1
  B  B15  1  0.20731518  0.77728785  0.60535898  1
  B  B16  1  0.70997756  0.03207129  0.11217089  1
  B  B17  1  0.79268482  0.22271215  0.39464102  1
  B  B18  1  0.29002244  0.96792871  0.88782911  1
  B  B19  1  0.79002244  0.53207129  0.38782911  1
  B  B20  1  0.05244115  0.37402123  0.29435574  1
  B  B21  1  0.29268482  0.27728785  0.89464102  1
  B  B22  1  0.94755885  0.62597877  0.70564426  1
  B  B23  1  0.55244115  0.12597877  0.79435574  1
  N  N24  1  0.32965296  0.62303888  0.60072307  1
  N  N25  1  0.02975657  0.78952221  0.67385243  1
  N  N26  1  0.82965296  0.87696112  0.10072307  1
  N  N27  1  0.53152447  0.03941651  0.18020653  1
  N  N28  1  0.47024343  0.28952221  0.82614757  1
  N  N29  1  0.46847553  0.96058349  0.81979347  1
  N  N30  1  0.67034704  0.37696112  0.39927693  1
  N  N31  1  0.96847553  0.53941651  0.31979347  1
  N  N32  1  0.17034704  0.12303888  0.89927693  1
  N  N33  1  0.03152447  0.46058349  0.68020653  1
  N  N34  1  0.97024343  0.21047779  0.32614757  1
  N  N35  1  0.52975657  0.71047779  0.17385243  1
  O  O36  1  0.27130605  0.91526892  0.53988905  1
  O  O37  1  0.72869395  0.08473108  0.46011095  1
  O  O38  1  0.71969874  0.67553117  0.44405724  1
  O  O39  1  0.78030126  0.17553117  0.05594276  1
  O  O40  1  0.24133573  0.37258857  0.24009745  1
  O  O41  1  0.21969874  0.82446883  0.94405724  1
  O  O42  1  0.22869395  0.41526892  0.96011095  1
  O  O43  1  0.28030126  0.32446883  0.55594276  1
  O  O44  1  0.75866427  0.62741143  0.75990255  1
  O  O45  1  0.74133573  0.12741143  0.74009745  1
  O  O46  1  0.25866427  0.87258857  0.25990255  1
  O  O47  1  0.77130605  0.58473108  0.03988905  1
