# generated using pymatgen
data_Cu3SbS3
_symmetry_space_group_name_H-M   'P 1'
_cell_length_a   7.84357133
_cell_length_b   10.26946967
_cell_length_c   13.40463275
_cell_angle_alpha   90.00000000
_cell_angle_beta   89.73385764
_cell_angle_gamma   90.00000000
_symmetry_Int_Tables_number   1
_chemical_formula_structural   Cu3SbS3
_chemical_formula_sum   'Cu24 Sb8 S24'
_cell_volume   1079.72237575
_cell_formula_units_Z   8
loop_
 _symmetry_equiv_pos_site_id
 _symmetry_equiv_pos_as_xyz
  1  'x, y, z'
loop_
 _atom_site_type_symbol
 _atom_site_label
 _atom_site_symmetry_multiplicity
 _atom_site_fract_x
 _atom_site_fract_y
 _atom_site_fract_z
 _atom_site_occupancy
  Cu  Cu0  1  0.80501897  0.40235938  0.08059478  1
  Cu  Cu1  1  0.30710371  0.10418672  0.17009605  1
  Cu  Cu2  1  0.06136005  0.96053858  0.86457987  1
  Cu  Cu3  1  0.15747154  0.09789752  0.70180723  1
  Cu  Cu4  1  0.06136005  0.53946142  0.36457987  1
  Cu  Cu5  1  0.93863995  0.03946142  0.13542013  1
  Cu  Cu6  1  0.80501897  0.09764062  0.58059478  1
  Cu  Cu7  1  0.56550110  0.52906594  0.89916148  1
  Cu  Cu8  1  0.69289629  0.60418672  0.32990395  1
  Cu  Cu9  1  0.93863995  0.46053858  0.63542013  1
  Cu  Cu10  1  0.84252846  0.90210248  0.29819277  1
  Cu  Cu11  1  0.65122050  0.39890925  0.54759873  1
  Cu  Cu12  1  0.43449890  0.02906594  0.60083852  1
  Cu  Cu13  1  0.34877950  0.60109075  0.45240127  1
  Cu  Cu14  1  0.84252846  0.59789752  0.79819277  1
  Cu  Cu15  1  0.43449890  0.47093406  0.10083852  1
  Cu  Cu16  1  0.34877950  0.89890925  0.95240127  1
  Cu  Cu17  1  0.19498103  0.90235938  0.41940522  1
  Cu  Cu18  1  0.56550110  0.97093406  0.39916148  1
  Cu  Cu19  1  0.19498103  0.59764062  0.91940522  1
  Cu  Cu20  1  0.30710371  0.39581328  0.67009605  1
  Cu  Cu21  1  0.15747154  0.40210248  0.20180723  1
  Cu  Cu22  1  0.69289629  0.89581328  0.82990395  1
  Cu  Cu23  1  0.65122050  0.10109075  0.04759873  1
  Sb  Sb24  1  0.21343836  0.24506198  0.44475617  1
  Sb  Sb25  1  0.71698857  0.25284545  0.30446707  1
  Sb  Sb26  1  0.78656164  0.74506198  0.05524383  1
  Sb  Sb27  1  0.28301143  0.74715455  0.69553293  1
  Sb  Sb28  1  0.21343836  0.25493802  0.94475617  1
  Sb  Sb29  1  0.28301143  0.75284545  0.19553293  1
  Sb  Sb30  1  0.71698857  0.24715455  0.80446707  1
  Sb  Sb31  1  0.78656164  0.75493802  0.55524383  1
  S  S32  1  0.94921837  0.24500977  0.67323491  1
  S  S33  1  0.81786099  0.43393649  0.41177788  1
  S  S34  1  0.31730190  0.06959702  0.84067187  1
  S  S35  1  0.55442551  0.74989464  0.92606938  1
  S  S36  1  0.55442551  0.75010536  0.42606938  1
  S  S37  1  0.82623665  0.43000144  0.91257266  1
  S  S38  1  0.18213901  0.56606351  0.58822212  1
  S  S39  1  0.81786099  0.06606351  0.91177788  1
  S  S40  1  0.17376335  0.56999856  0.08742734  1
  S  S41  1  0.67054410  0.93346269  0.66435989  1
  S  S42  1  0.17376335  0.93000144  0.58742734  1
  S  S43  1  0.32945590  0.43346269  0.83564011  1
  S  S44  1  0.67054410  0.56653731  0.16435989  1
  S  S45  1  0.68269810  0.56959702  0.65932813  1
  S  S46  1  0.18213901  0.93393649  0.08822212  1
  S  S47  1  0.82623665  0.06999856  0.41257266  1
  S  S48  1  0.05078163  0.74500977  0.82676509  1
  S  S49  1  0.44557449  0.25010536  0.07393062  1
  S  S50  1  0.44557449  0.24989464  0.57393062  1
  S  S51  1  0.05078163  0.75499023  0.32676509  1
  S  S52  1  0.31730190  0.43040298  0.34067187  1
  S  S53  1  0.32945590  0.06653731  0.33564011  1
  S  S54  1  0.94921837  0.25499023  0.17323491  1
  S  S55  1  0.68269810  0.93040298  0.15932813  1
