# generated using pymatgen
data_K3SbN3(O3F)3
_symmetry_space_group_name_H-M   'P 1'
_cell_length_a   7.54336649
_cell_length_b   9.15076973
_cell_length_c   9.15076913
_cell_angle_alpha   101.78816804
_cell_angle_beta   90.00000000
_cell_angle_gamma   90.00000000
_symmetry_Int_Tables_number   1
_chemical_formula_structural   K3SbN3(O3F)3
_chemical_formula_sum   'K6 Sb2 N6 O18 F6'
_cell_volume   618.33384676
_cell_formula_units_Z   2
loop_
 _symmetry_equiv_pos_site_id
 _symmetry_equiv_pos_as_xyz
  1  'x, y, z'
loop_
 _atom_site_type_symbol
 _atom_site_label
 _atom_site_symmetry_multiplicity
 _atom_site_fract_x
 _atom_site_fract_y
 _atom_site_fract_z
 _atom_site_occupancy
  K  K0  1  0.77348957  0.02903080  0.38505627  1
  K  K1  1  0.27348957  0.97096920  0.61494373  1
  K  K2  1  0.27348957  0.38505627  0.02903080  1
  K  K3  1  0.00506032  0.40330064  0.59669936  1
  K  K4  1  0.50506032  0.59669936  0.40330064  1
  K  K5  1  0.77348957  0.61494373  0.97096920  1
  Sb  Sb6  1  0.84879485  0.13742445  0.86257555  1
  Sb  Sb7  1  0.34879485  0.86257555  0.13742445  1
  N  N8  1  0.75456452  0.79332152  0.68627424  1
  N  N9  1  0.25456452  0.68627424  0.79332152  1
  N  N10  1  0.25456452  0.20667848  0.31372576  1
  N  N11  1  0.75456452  0.31372576  0.20667848  1
  N  N12  1  0.48356900  0.29708501  0.70291499  1
  N  N13  1  0.98356900  0.70291499  0.29708501  1
  O  O14  1  0.56567540  0.20880250  0.60089129  1
  O  O15  1  0.36344564  0.78951934  0.85431413  1
  O  O16  1  0.24775702  0.34737949  0.34826694  1
  O  O17  1  0.15733050  0.12667177  0.37677269  1
  O  O18  1  0.86344564  0.21048066  0.14568587  1
  O  O19  1  0.36344564  0.14568587  0.21048066  1
  O  O20  1  0.65733050  0.87332823  0.62322731  1
  O  O21  1  0.65733050  0.37677269  0.12667177  1
  O  O22  1  0.06567540  0.60089129  0.20880250  1
  O  O23  1  0.56567540  0.39910871  0.79119750  1
  O  O24  1  0.74775702  0.65262051  0.65173306  1
  O  O25  1  0.86344564  0.85431413  0.78951934  1
  O  O26  1  0.31752531  0.28025161  0.71974839  1
  O  O27  1  0.24775702  0.65173306  0.65262051  1
  O  O28  1  0.74775702  0.34826694  0.34737949  1
  O  O29  1  0.15733050  0.62322731  0.87332823  1
  O  O30  1  0.06567540  0.79119750  0.39910871  1
  O  O31  1  0.81752531  0.71974839  0.28025161  1
  F  F32  1  0.08746025  0.08173218  0.91826782  1
  F  F33  1  0.58746025  0.91826782  0.08173218  1
  F  F34  1  0.94773249  0.34518410  0.88492901  1
  F  F35  1  0.44773249  0.88492901  0.34518410  1
  F  F36  1  0.44773249  0.65481590  0.11507099  1
  F  F37  1  0.94773249  0.11507099  0.65481590  1
