# generated using pymatgen
data_MnTl2As2S5
_symmetry_space_group_name_H-M   'P 1'
_cell_length_a   7.71853582
_cell_length_b   8.74238522
_cell_length_c   17.07858830
_cell_angle_alpha   90.00000000
_cell_angle_beta   90.00000000
_cell_angle_gamma   116.19600951
_symmetry_Int_Tables_number   1
_chemical_formula_structural   MnTl2As2S5
_chemical_formula_sum   'Mn4 Tl8 As8 S20'
_cell_volume   1034.06832000
_cell_formula_units_Z   4
loop_
 _symmetry_equiv_pos_site_id
 _symmetry_equiv_pos_as_xyz
  1  'x, y, z'
loop_
 _atom_site_type_symbol
 _atom_site_label
 _atom_site_symmetry_multiplicity
 _atom_site_fract_x
 _atom_site_fract_y
 _atom_site_fract_z
 _atom_site_occupancy
  Mn  Mn0  1  0.60297392  0.50000000  0.75000000  1
  Mn  Mn1  1  0.39702608  0.50000000  0.25000000  1
  Mn  Mn2  1  0.10297392  0.50000000  0.75000000  1
  Mn  Mn3  1  0.89702608  0.50000000  0.25000000  1
  Tl  Tl4  1  0.35055723  0.70111447  0.00000000  1
  Tl  Tl5  1  0.85055723  0.70111447  0.50000000  1
  Tl  Tl6  1  0.91194951  0.00000000  0.68091405  1
  Tl  Tl7  1  0.64944277  0.29888553  0.00000000  1
  Tl  Tl8  1  0.08805049  0.00000000  0.31908595  1
  Tl  Tl9  1  0.14944277  0.29888553  0.50000000  1
  Tl  Tl10  1  0.58805049  0.00000000  0.18091405  1
  Tl  Tl11  1  0.41194951  0.00000000  0.81908595  1
  As  As12  1  0.64856732  0.23349527  0.60716788  1
  As  As13  1  0.58492795  0.23349527  0.39283212  1
  As  As14  1  0.85143268  0.76650473  0.10716788  1
  As  As15  1  0.08492795  0.23349527  0.10716788  1
  As  As16  1  0.35143268  0.76650473  0.39283212  1
  As  As17  1  0.14856732  0.23349527  0.89283212  1
  As  As18  1  0.91507205  0.76650473  0.89283212  1
  As  As19  1  0.41507205  0.76650473  0.60716788  1
  S  S20  1  0.60958024  0.56100660  0.89627463  1
  S  S21  1  0.74463227  0.27504595  0.73525714  1
  S  S22  1  0.53041369  0.27504595  0.26474286  1
  S  S23  1  0.84468283  0.00000000  0.88045094  1
  S  S24  1  0.54857364  0.43899340  0.60372537  1
  S  S25  1  0.03041369  0.27504595  0.23525714  1
  S  S26  1  0.34468283  0.00000000  0.61954906  1
  S  S27  1  0.95142636  0.56100660  0.10372537  1
  S  S28  1  0.04857364  0.43899340  0.89627463  1
  S  S29  1  0.15531717  0.00000000  0.11954906  1
  S  S30  1  0.45142636  0.56100660  0.39627463  1
  S  S31  1  0.24463227  0.27504595  0.76474286  1
  S  S32  1  0.65531717  0.00000000  0.38045094  1
  S  S33  1  0.75536773  0.72495405  0.23525714  1
  S  S34  1  0.46958631  0.72495405  0.73525714  1
  S  S35  1  0.89041976  0.43899340  0.39627463  1
  S  S36  1  0.39041976  0.43899340  0.10372537  1
  S  S37  1  0.10958024  0.56100660  0.60372537  1
  S  S38  1  0.25536773  0.72495405  0.26474286  1
  S  S39  1  0.96958631  0.72495405  0.76474286  1
