# generated using pymatgen
data_AlPO4
_symmetry_space_group_name_H-M   'P 1'
_cell_length_a   18.90773798
_cell_length_b   18.90773841
_cell_length_c   8.69464097
_cell_angle_alpha   90.00000000
_cell_angle_beta   90.00000000
_cell_angle_gamma   119.99999924
_symmetry_Int_Tables_number   1
_chemical_formula_structural   AlPO4
_chemical_formula_sum   'Al18 P18 O72'
_cell_volume   2691.91565946
_cell_formula_units_Z   18
loop_
 _symmetry_equiv_pos_site_id
 _symmetry_equiv_pos_as_xyz
  1  'x, y, z'
loop_
 _atom_site_type_symbol
 _atom_site_label
 _atom_site_symmetry_multiplicity
 _atom_site_fract_x
 _atom_site_fract_y
 _atom_site_fract_z
 _atom_site_occupancy
  Al  Al0  1  0.58727031  0.00000000  0.68527957  1
  Al  Al1  1  0.33867826  0.50896903  0.17160853  1
  Al  Al2  1  1.00000000  0.41272969  0.18527957  1
  Al  Al3  1  0.50896903  0.33867826  0.17160853  1
  Al  Al4  1  0.41272969  0.41272969  0.68527957  1
  Al  Al5  1  0.17029077  0.50896903  0.67160853  1
  Al  Al6  1  0.66132174  0.49103097  0.67160853  1
  Al  Al7  1  0.50896903  0.17029077  0.67160853  1
  Al  Al8  1  0.00000000  0.58727031  0.68527957  1
  Al  Al9  1  0.82970923  0.49103097  0.17160853  1
  Al  Al10  1  0.58727031  0.58727031  0.18527957  1
  Al  Al11  1  0.33867826  0.82970923  0.67160853  1
  Al  Al12  1  0.17029077  0.66132174  0.17160853  1
  Al  Al13  1  0.49103097  0.66132174  0.67160853  1
  Al  Al14  1  0.41272969  0.00000000  0.18527957  1
  Al  Al15  1  0.82970923  0.33867826  0.67160853  1
  Al  Al16  1  0.49103097  0.82970923  0.17160853  1
  Al  Al17  1  0.66132174  0.17029077  0.17160853  1
  P  P18  1  0.50047488  0.17394329  0.29703126  1
  P  P19  1  0.17394329  0.50047488  0.29703126  1
  P  P20  1  0.00000000  0.57473599  0.31082693  1
  P  P21  1  0.82605671  0.32653160  0.29703126  1
  P  P22  1  1.00000000  0.42526401  0.81082693  1
  P  P23  1  0.32653160  0.82605671  0.29703126  1
  P  P24  1  0.49952512  0.67346840  0.29703126  1
  P  P25  1  0.57473599  0.00000000  0.31082693  1
  P  P26  1  0.50047488  0.32653160  0.79703126  1
  P  P27  1  0.17394329  0.67346840  0.79703126  1
  P  P28  1  0.42526401  0.00000000  0.81082693  1
  P  P29  1  0.67346840  0.49952512  0.29703126  1
  P  P30  1  0.67346840  0.17394329  0.79703126  1
  P  P31  1  0.42526401  0.42526401  0.31082693  1
  P  P32  1  0.82605671  0.49952512  0.79703126  1
  P  P33  1  0.32653160  0.50047488  0.79703126  1
  P  P34  1  0.57473599  0.57473599  0.81082693  1
  P  P35  1  0.49952512  0.82605671  0.79703126  1
  O  O36  1  0.57057382  0.64717063  0.74056461  1
  O  O37  1  0.50484388  0.50484388  0.27627002  1
  O  O38  1  0.24447403  0.75335999  0.24968201  1
  O  O39  1  0.50888596  0.75552597  0.24968201  1
  O  O40  1  0.92340319  0.35282937  0.74056461  1
  O  O41  1  0.57844498  0.18290163  0.22230552  1
  O  O42  1  0.32939803  0.42375030  0.74385420  1
  O  O43  1  0.50484388  0.00000000  0.77627002  1
  O  O44  1  0.42375030  0.09435226  0.24385420  1
  O  O45  1  0.35282937  0.92340319  0.74056461  1
  O  O46  1  0.90564774  0.57624970  0.74385420  1
  O  O47  1  0.49206906  0.82688868  0.97207286  1
  O  O48  1  0.18290163  0.60445665  0.72230552  1
  O  O49  1  0.42942618  0.35282937  0.24056461  1
  O  O50  1  0.57057382  0.92340319  0.24056461  1
  O  O51  1  0.41491446  0.41491446  0.48538552  1
  O  O52  1  0.24664001  0.75552597  0.74968201  1
  O  O53  1  0.75552597  0.24664001  0.74968201  1
  O  O54  1  0.35282937  0.42942618  0.24056461  1
  O  O55  1  0.42155502  0.81709837  0.72230552  1
  O  O56  1  0.09435226  0.42375030  0.24385420  1
  O  O57  1  0.50793094  0.17311132  0.47207286  1
  O  O58  1  0.90564774  0.32939803  0.24385420  1
  O  O59  1  0.07659681  0.42942618  0.74056461  1
  O  O60  1  0.42375030  0.32939803  0.74385420  1
  O  O61  1  0.66518038  0.17311132  0.97207286  1
  O  O62  1  0.82688868  0.49206906  0.97207286  1
  O  O63  1  0.58508554  0.00000000  0.48538552  1
  O  O64  1  0.57844498  0.39554335  0.72230552  1
  O  O65  1  0.41491446  0.00000000  0.98538552  1
  O  O66  1  0.92340319  0.57057382  0.24056461  1
  O  O67  1  0.60445665  0.42155502  0.22230552  1
  O  O68  1  0.81709837  0.39554335  0.22230552  1
  O  O69  1  0.49111404  0.24447403  0.74968201  1
  O  O70  1  0.33481962  0.50793094  0.97207286  1
  O  O71  1  1.00000000  0.41491446  0.98538552  1
  O  O72  1  0.39554335  0.81709837  0.22230552  1
  O  O73  1  0.33481962  0.82688868  0.47207286  1
  O  O74  1  0.60445665  0.18290163  0.72230552  1
  O  O75  1  0.50888596  0.75335999  0.74968201  1
  O  O76  1  0.81709837  0.42155502  0.72230552  1
  O  O77  1  0.49515612  0.49515612  0.77627002  1
  O  O78  1  0.67060197  0.09435226  0.74385420  1
  O  O79  1  0.50793094  0.33481962  0.97207286  1
  O  O80  1  0.24447403  0.49111404  0.74968201  1
  O  O81  1  0.17311132  0.50793094  0.47207286  1
  O  O82  1  0.75335999  0.24447403  0.24968201  1
  O  O83  1  0.09435226  0.67060197  0.74385420  1
  O  O84  1  0.57624970  0.67060197  0.24385420  1
  O  O85  1  0.49515612  0.00000000  0.27627002  1
  O  O86  1  0.07659681  0.64717063  0.24056461  1
  O  O87  1  0.42942618  0.07659681  0.74056461  1
  O  O88  1  0.49111404  0.24664001  0.24968201  1
  O  O89  1  0.00000000  0.50484388  0.77627002  1
  O  O90  1  0.64717063  0.57057382  0.74056461  1
  O  O91  1  0.49206906  0.66518038  0.47207286  1
  O  O92  1  0.18290163  0.57844498  0.22230552  1
  O  O93  1  0.66518038  0.49206906  0.47207286  1
  O  O94  1  0.82688868  0.33481962  0.47207286  1
  O  O95  1  0.32939803  0.90564774  0.24385420  1
  O  O96  1  0.17311132  0.66518038  0.97207286  1
  O  O97  1  0.24664001  0.49111404  0.24968201  1
  O  O98  1  0.42155502  0.60445665  0.22230552  1
  O  O99  1  1.00000000  0.49515612  0.27627002  1
  O  O100  1  0.57624970  0.90564774  0.74385420  1
  O  O101  1  0.00000000  0.58508554  0.48538552  1
  O  O102  1  0.64717063  0.07659681  0.24056461  1
  O  O103  1  0.39554335  0.57844498  0.72230552  1
  O  O104  1  0.58508554  0.58508554  0.98538552  1
  O  O105  1  0.75552597  0.50888596  0.24968201  1
  O  O106  1  0.67060197  0.57624970  0.24385420  1
  O  O107  1  0.75335999  0.50888596  0.74968201  1
