# generated using pymatgen
data_Sn2PCO6
_symmetry_space_group_name_H-M   'P 1'
_cell_length_a   4.82773332
_cell_length_b   6.03335758
_cell_length_c   22.84682580
_cell_angle_alpha   90.00000000
_cell_angle_beta   97.27119363
_cell_angle_gamma   90.00000000
_symmetry_Int_Tables_number   1
_chemical_formula_structural   Sn2PCO6
_chemical_formula_sum   'Sn8 P4 C4 O24'
_cell_volume   660.11800767
_cell_formula_units_Z   4
loop_
 _symmetry_equiv_pos_site_id
 _symmetry_equiv_pos_as_xyz
  1  'x, y, z'
loop_
 _atom_site_type_symbol
 _atom_site_label
 _atom_site_symmetry_multiplicity
 _atom_site_fract_x
 _atom_site_fract_y
 _atom_site_fract_z
 _atom_site_occupancy
  Sn  Sn0  1  0.43485393  0.15011116  0.68398911  1
  Sn  Sn1  1  0.16830837  0.12926412  0.93007740  1
  Sn  Sn2  1  0.83169163  0.87073588  0.06992260  1
  Sn  Sn3  1  0.06514607  0.65011116  0.81601089  1
  Sn  Sn4  1  0.56514607  0.84988884  0.31601089  1
  Sn  Sn5  1  0.93485393  0.34988884  0.18398911  1
  Sn  Sn6  1  0.33169163  0.62926412  0.56992260  1
  Sn  Sn7  1  0.66830837  0.37073588  0.43007740  1
  P  P8  1  0.39908386  0.73579860  0.17252758  1
  P  P9  1  0.10091614  0.23579860  0.32747242  1
  P  P10  1  0.60091614  0.26420140  0.82747242  1
  P  P11  1  0.89908386  0.76420140  0.67252758  1
  C  C12  1  0.91679934  0.91585878  0.47895722  1
  C  C13  1  0.08320066  0.08414122  0.52104278  1
  C  C14  1  0.58320066  0.41585878  0.02104278  1
  C  C15  1  0.41679934  0.58414122  0.97895722  1
  O  O16  1  0.42595760  0.19240522  0.33682061  1
  O  O17  1  0.97679455  0.59305918  0.72229323  1
  O  O18  1  0.28634113  0.01107165  0.55662568  1
  O  O19  1  0.78634113  0.48892835  0.05662568  1
  O  O20  1  0.03434736  -0.00583876  0.68695018  1
  O  O21  1  0.02320545  0.40694082  0.27770677  1
  O  O22  1  -0.00598924  0.71586033  0.48317457  1
  O  O23  1  0.52320545  0.09305918  0.77770677  1
  O  O24  1  0.71365887  0.98892835  0.44337432  1
  O  O25  1  0.97059784  0.66527693  0.61347878  1
  O  O26  1  0.47059784  0.83472307  0.11347878  1
  O  O27  1  1.00598924  0.28413967  0.51682543  1
  O  O28  1  0.57404240  0.80759478  0.66317939  1
  O  O29  1  0.92595760  0.30759478  0.83682061  1
  O  O30  1  0.53434736  0.50583876  0.18695018  1
  O  O31  1  0.46565264  0.49416124  0.81304982  1
  O  O32  1  0.96565264  1.00583876  0.31304982  1
  O  O33  1  0.47679455  0.90694082  0.22229323  1
  O  O34  1  0.21365887  0.51107165  0.94337432  1
  O  O35  1  0.07404240  0.69240522  0.16317939  1
  O  O36  1  0.49401076  0.78413967  0.98317457  1
  O  O37  1  0.52940216  0.16527693  0.88652122  1
  O  O38  1  0.02940216  0.33472307  0.38652122  1
  O  O39  1  0.50598924  0.21586033  0.01682543  1
