# generated using pymatgen
data_CuGeO3
_symmetry_space_group_name_H-M   'P 1'
_cell_length_a   8.71446972
_cell_length_b   9.88079362
_cell_length_c   11.91176523
_cell_angle_alpha   90.00000000
_cell_angle_beta   90.00000000
_cell_angle_gamma   90.00000000
_symmetry_Int_Tables_number   1
_chemical_formula_structural   CuGeO3
_chemical_formula_sum   'Cu16 Ge16 O48'
_cell_volume   1025.67298950
_cell_formula_units_Z   16
loop_
 _symmetry_equiv_pos_site_id
 _symmetry_equiv_pos_as_xyz
  1  'x, y, z'
loop_
 _atom_site_type_symbol
 _atom_site_label
 _atom_site_symmetry_multiplicity
 _atom_site_fract_x
 _atom_site_fract_y
 _atom_site_fract_z
 _atom_site_occupancy
  Cu  Cu0  1  0.50000000  0.50000000  0.74790871  1
  Cu  Cu1  1  0.50000000  0.00000000  -0.00000000  1
  Cu  Cu2  1  0.50000000  0.50000000  0.50000000  1
  Cu  Cu3  1  -0.00000000  0.50000000  0.24771844  1
  Cu  Cu4  1  0.50000000  0.00000000  0.24771844  1
  Cu  Cu5  1  -0.00000000  0.00000000  0.00000000  1
  Cu  Cu6  1  0.50000000  -0.00000000  0.50000000  1
  Cu  Cu7  1  0.50000000  0.50000000  0.25209129  1
  Cu  Cu8  1  -0.00000000  0.00000000  0.25209129  1
  Cu  Cu9  1  -0.00000000  0.00000000  0.74790871  1
  Cu  Cu10  1  0.50000000  0.00000000  0.75228156  1
  Cu  Cu11  1  0.50000000  0.50000000  -0.00000000  1
  Cu  Cu12  1  -0.00000000  0.50000000  0.75228156  1
  Cu  Cu13  1  -0.00000000  0.50000000  0.50000000  1
  Cu  Cu14  1  -0.00000000  0.50000000  0.00000000  1
  Cu  Cu15  1  -0.00000000  0.00000000  0.50000000  1
  Ge  Ge16  1  0.75043884  0.20378283  0.87492520  1
  Ge  Ge17  1  0.25148305  0.29651718  0.62507695  1
  Ge  Ge18  1  0.24956116  0.79621717  0.12507480  1
  Ge  Ge19  1  0.74956116  0.70378283  0.12507480  1
  Ge  Ge20  1  0.24851695  0.79651718  0.37492305  1
  Ge  Ge21  1  0.24851695  0.79651718  0.62507695  1
  Ge  Ge22  1  0.75043884  0.20378283  0.12507480  1
  Ge  Ge23  1  0.74851695  0.70348282  0.62507695  1
  Ge  Ge24  1  0.25043884  0.29621717  0.87492520  1
  Ge  Ge25  1  0.74851695  0.70348282  0.37492305  1
  Ge  Ge26  1  0.25043884  0.29621717  0.12507480  1
  Ge  Ge27  1  0.74956116  0.70378283  0.87492520  1
  Ge  Ge28  1  0.25148305  0.29651718  0.37492305  1
  Ge  Ge29  1  0.24956116  0.79621717  0.87492520  1
  Ge  Ge30  1  0.75148305  0.20348282  0.37492305  1
  Ge  Ge31  1  0.75148305  0.20348282  0.62507695  1
  O  O32  1  0.07997457  0.39356651  0.12412550  1
  O  O33  1  0.74809958  0.80487539  0.00000000  1
  O  O34  1  0.91503659  0.09976857  0.12589909  1
  O  O35  1  0.75034438  0.30525936  0.75001249  1
  O  O36  1  0.08882020  0.40310355  0.62597465  1
  O  O37  1  0.25130788  0.69525691  0.50000000  1
  O  O38  1  0.24869212  0.19525691  0.50000000  1
  O  O39  1  0.08882020  0.40310355  0.37402535  1
  O  O40  1  0.75130788  0.80474309  0.50000000  1
  O  O41  1  0.92002543  0.60643349  0.87587450  1
  O  O42  1  0.92345311  0.10850126  0.37564168  1
  O  O43  1  0.07654689  0.89149874  0.37564168  1
  O  O44  1  0.58882020  0.09689645  0.37402535  1
  O  O45  1  0.92002543  0.60643349  0.12412550  1
  O  O46  1  0.57997457  0.10643349  0.87587450  1
  O  O47  1  0.57654689  0.60850126  0.62435832  1
  O  O48  1  0.75034438  0.30525936  0.24998651  1
  O  O49  1  0.57654689  0.60850126  0.37564168  1
  O  O50  1  0.91503659  0.09976857  0.87410091  1
  O  O51  1  0.58496341  0.59976857  0.87410091  1
  O  O52  1  0.08496341  0.90023143  0.87410091  1
  O  O53  1  0.75190042  0.30487539  0.00000000  1
  O  O54  1  0.74869212  0.30474309  0.50000000  1
  O  O55  1  0.74965562  0.80525936  0.75001249  1
  O  O56  1  0.42002543  0.89356651  0.12412550  1
  O  O57  1  0.42345311  0.39149874  0.37564168  1
  O  O58  1  0.74965562  0.80525936  0.24998651  1
  O  O59  1  0.25190042  0.19512461  -0.00000000  1
  O  O60  1  0.25034438  0.19474064  0.24998651  1
  O  O61  1  0.92345311  0.10850126  0.62435832  1
  O  O62  1  0.42002543  0.89356651  0.87587450  1
  O  O63  1  0.24965562  0.69474064  0.75001249  1
  O  O64  1  0.58882020  0.09689645  0.62597465  1
  O  O65  1  0.08496341  0.90023143  0.12589909  1
  O  O66  1  0.91117980  0.59689645  0.62597465  1
  O  O67  1  0.41117980  0.90310355  0.37402535  1
  O  O68  1  0.41503659  0.40023143  0.87410091  1
  O  O69  1  0.07997457  0.39356651  0.87587450  1
  O  O70  1  0.24809958  0.69512461  -0.00000000  1
  O  O71  1  0.57997457  0.10643349  0.12412550  1
  O  O72  1  0.91117980  0.59689645  0.37402535  1
  O  O73  1  0.07654689  0.89149874  0.62435832  1
  O  O74  1  0.25034438  0.19474064  0.75001249  1
  O  O75  1  0.41117980  0.90310355  0.62597465  1
  O  O76  1  0.42345311  0.39149874  0.62435832  1
  O  O77  1  0.58496341  0.59976857  0.12589909  1
  O  O78  1  0.24965562  0.69474064  0.24998651  1
  O  O79  1  0.41503659  0.40023143  0.12589909  1
