# generated using pymatgen
data_CuSb2BrO3
_symmetry_space_group_name_H-M   'P 1'
_cell_length_a   8.04508610
_cell_length_b   8.04508688
_cell_length_c   19.34685541
_cell_angle_alpha   90.03140260
_cell_angle_beta   90.03140080
_cell_angle_gamma   120.17214246
_symmetry_Int_Tables_number   1
_chemical_formula_structural   CuSb2BrO3
_chemical_formula_sum   'Cu8 Sb16 Br8 O24'
_cell_volume   1082.54569354
_cell_formula_units_Z   8
loop_
 _symmetry_equiv_pos_site_id
 _symmetry_equiv_pos_as_xyz
  1  'x, y, z'
loop_
 _atom_site_type_symbol
 _atom_site_label
 _atom_site_symmetry_multiplicity
 _atom_site_fract_x
 _atom_site_fract_y
 _atom_site_fract_z
 _atom_site_occupancy
  Cu  Cu0  1  0.96906417  0.97565228  0.71707888  1
  Cu  Cu1  1  0.51028320  0.51684818  0.71698856  1
  Cu  Cu2  1  0.97565228  0.96906417  0.21707888  1
  Cu  Cu3  1  0.00043147  0.48871654  0.78488130  1
  Cu  Cu4  1  0.49972485  0.98843262  0.70986450  1
  Cu  Cu5  1  0.98843262  0.49972485  0.20986450  1
  Cu  Cu6  1  0.51684818  0.51028320  0.21698856  1
  Cu  Cu7  1  0.48871654  0.00043147  0.28488130  1
  Sb  Sb8  1  0.17184215  0.30700680  0.41828174  1
  Sb  Sb9  1  0.81558143  0.13127012  0.57660191  1
  Sb  Sb10  1  0.67090952  0.35149425  0.07690464  1
  Sb  Sb11  1  0.81991638  0.65999946  0.92172942  1
  Sb  Sb12  1  0.35149425  0.67090952  0.57690464  1
  Sb  Sb13  1  0.15818492  0.32283978  0.07429064  1
  Sb  Sb14  1  0.31485166  0.62927635  0.91885621  1
  Sb  Sb15  1  0.32283978  0.15818492  0.57429064  1
  Sb  Sb16  1  0.30700680  0.17184215  0.91828174  1
  Sb  Sb17  1  0.65999946  0.81991638  0.42172942  1
  Sb  Sb18  1  0.13127012  0.81558143  0.07660191  1
  Sb  Sb19  1  0.81081259  0.66901490  0.57818033  1
  Sb  Sb20  1  0.66901490  0.81081259  0.07818033  1
  Sb  Sb21  1  0.62927635  0.31485166  0.41885621  1
  Sb  Sb22  1  0.85247230  0.17037528  0.91865205  1
  Sb  Sb23  1  0.17037528  0.85247230  0.41865205  1
  Br  Br24  1  0.83147938  0.65454902  0.27252359  1
  Br  Br25  1  0.33089627  0.15475066  0.22154243  1
  Br  Br26  1  0.65938689  0.32734037  0.74784679  1
  Br  Br27  1  0.82897511  0.16080873  0.24834695  1
  Br  Br28  1  0.16080873  0.82897511  0.74834695  1
  Br  Br29  1  0.32734037  0.65938689  0.24784679  1
  Br  Br30  1  0.65454902  0.83147938  0.77252359  1
  Br  Br31  1  0.15475066  0.33089627  0.72154243  1
  O  O32  1  0.78371604  0.69524559  0.47636284  1
  O  O33  1  0.58013710  0.53623314  0.10565317  1
  O  O34  1  0.03662896  0.44752599  0.88961783  1
  O  O35  1  0.90738917  0.20216517  0.02097399  1
  O  O36  1  0.94649515  0.53902135  0.10594563  1
  O  O37  1  0.57330133  0.28136127  0.52097425  1
  O  O38  1  0.28136127  0.57330133  0.02097425  1
  O  O39  1  0.03288860  0.07855401  0.89502228  1
  O  O40  1  0.41169716  0.70087313  0.47605571  1
  O  O41  1  0.78201499  0.06867765  0.47597141  1
  O  O42  1  0.53902135  0.94649515  0.60594563  1
  O  O43  1  0.44752599  0.03662896  0.38961783  1
  O  O44  1  0.07855401  0.03288860  0.39502228  1
  O  O45  1  0.90394652  0.94509259  0.60561030  1
  O  O46  1  0.40426049  0.44703315  0.89498740  1
  O  O47  1  0.44703315  0.40426049  0.39498740  1
  O  O48  1  0.69524559  0.78371604  0.97636284  1
  O  O49  1  0.28294607  0.19584276  0.02164724  1
  O  O50  1  0.06867765  0.78201499  0.97597141  1
  O  O51  1  0.20216517  0.90738917  0.52097399  1
  O  O52  1  0.70087313  0.41169716  0.97605571  1
  O  O53  1  0.19584276  0.28294607  0.52164724  1
  O  O54  1  0.94509259  0.90394652  0.10561030  1
  O  O55  1  0.53623314  0.58013710  0.60565317  1
