# generated using pymatgen
data_K3Fe5F15
_symmetry_space_group_name_H-M   'P 1'
_cell_length_a   4.05592534
_cell_length_b   12.87270227
_cell_length_c   12.92316501
_cell_angle_alpha   90.00000000
_cell_angle_beta   90.00000000
_cell_angle_gamma   90.00000000
_symmetry_Int_Tables_number   1
_chemical_formula_structural   K3Fe5F15
_chemical_formula_sum   'K6 Fe10 F30'
_cell_volume   674.72774121
_cell_formula_units_Z   2
loop_
 _symmetry_equiv_pos_site_id
 _symmetry_equiv_pos_as_xyz
  1  'x, y, z'
loop_
 _atom_site_type_symbol
 _atom_site_label
 _atom_site_symmetry_multiplicity
 _atom_site_fract_x
 _atom_site_fract_y
 _atom_site_fract_z
 _atom_site_occupancy
  K  K0  1  0.96022355  0.82486456  0.67534866  1
  K  K1  1  0.96022355  0.17513544  0.32465134  1
  K  K2  1  0.96022355  0.67513544  0.17534866  1
  K  K3  1  0.96022355  0.32486456  0.82465134  1
  K  K4  1  0.96107032  0.50000000  0.50000000  1
  K  K5  1  0.96107032  0.00000000  0.00000000  1
  Fe  Fe6  1  0.46082797  0.42354616  0.28713439  1
  Fe  Fe7  1  0.46082797  0.57645384  0.71286561  1
  Fe  Fe8  1  0.46082797  0.07645384  0.78713439  1
  Fe  Fe9  1  0.46082797  0.92354616  0.21286561  1
  Fe  Fe10  1  0.46098035  0.28699142  0.57640668  1
  Fe  Fe11  1  0.46098035  0.71300858  0.42359332  1
  Fe  Fe12  1  0.46098035  0.21300858  0.07640668  1
  Fe  Fe13  1  0.46098035  0.78699142  0.92359332  1
  Fe  Fe14  1  0.45853262  0.00000000  0.50000000  1
  Fe  Fe15  1  0.45853262  0.50000000  0.00000000  1
  F  F16  1  0.46257378  0.35883547  0.43001273  1
  F  F17  1  0.46257378  0.64116453  0.56998727  1
  F  F18  1  0.46257378  0.14116453  0.93001273  1
  F  F19  1  0.46257378  0.85883547  0.06998727  1
  F  F20  1  0.46246216  0.43104413  0.64137847  1
  F  F21  1  0.46246216  0.56895587  0.35862153  1
  F  F22  1  0.46246216  0.06895587  0.14137847  1
  F  F23  1  0.46246216  0.93104413  0.85862153  1
  F  F24  1  0.45849667  0.15270117  0.49268692  1
  F  F25  1  0.45849667  0.84729883  0.50731308  1
  F  F26  1  0.45849667  0.34729883  0.99268692  1
  F  F27  1  0.45849667  0.65270117  0.00731308  1
  F  F28  1  0.45819961  0.49352529  0.84620531  1
  F  F29  1  0.45819961  0.50647471  0.15379469  1
  F  F30  1  0.45819961  0.00647471  0.34620531  1
  F  F31  1  0.45819961  0.99352529  0.65379469  1
  F  F32  1  0.95849179  0.50000000  0.00000000  1
  F  F33  1  0.95849179  0.00000000  0.50000000  1
  F  F34  1  0.96104428  0.79108702  0.92375142  1
  F  F35  1  0.96104428  0.20891298  0.07624858  1
  F  F36  1  0.96104428  0.70891298  0.42375142  1
  F  F37  1  0.96104428  0.29108702  0.57624858  1
  F  F38  1  0.46077035  0.22332672  0.72377017  1
  F  F39  1  0.46077035  0.77667328  0.27622983  1
  F  F40  1  0.46077035  0.27667328  0.22377017  1
  F  F41  1  0.46077035  0.72332672  0.77622983  1
  F  F42  1  0.96087341  0.92342026  0.20864097  1
  F  F43  1  0.96087341  0.07657974  0.79135903  1
  F  F44  1  0.96087341  0.57657974  0.70864097  1
  F  F45  1  0.96087341  0.42342026  0.29135903  1
