# generated using pymatgen
data_S
_symmetry_space_group_name_H-M   'P 1'
_cell_length_a   9.02143291
_cell_length_b   16.27005758
_cell_length_c   20.32062352
_cell_angle_alpha   90.00000000
_cell_angle_beta   90.00000000
_cell_angle_gamma   90.00000000
_symmetry_Int_Tables_number   1
_chemical_formula_structural   S
_chemical_formula_sum   S88
_cell_volume   2982.64553231
_cell_formula_units_Z   88
loop_
 _symmetry_equiv_pos_site_id
 _symmetry_equiv_pos_as_xyz
  1  'x, y, z'
loop_
 _atom_site_type_symbol
 _atom_site_label
 _atom_site_symmetry_multiplicity
 _atom_site_fract_x
 _atom_site_fract_y
 _atom_site_fract_z
 _atom_site_occupancy
  S  S0  1  0.98218274  0.41386364  0.60720240  1
  S  S1  1  0.28672015  0.25813267  0.02411726  1
  S  S2  1  0.66008021  0.08358416  0.90551809  1
  S  S3  1  0.47834898  0.16127260  0.78061030  1
  S  S4  1  0.90413113  0.42825579  0.01368880  1
  S  S5  1  0.45941122  0.85590735  0.60558498  1
  S  S6  1  0.58692226  0.17857205  0.37287835  1
  S  S7  1  0.54372432  0.58207327  0.85924122  1
  S  S8  1  0.64454067  0.71969398  0.11556013  1
  S  S9  1  0.42234154  0.22167834  0.31217415  1
  S  S10  1  0.92983714  0.53093073  0.57462790  1
  S  S11  1  0.54178796  0.44900923  0.05632658  1
  S  S12  1  0.45627568  0.08207327  0.85924122  1
  S  S13  1  0.54372432  0.91792673  0.35924122  1
  S  S14  1  0.26985811  0.88156244  0.07022728  1
  S  S15  1  0.33991979  0.58358416  0.90551809  1
  S  S16  1  0.14384265  0.96950211  0.27174642  1
  S  S17  1  0.07016286  0.46906927  0.07462790  1
  S  S18  1  0.52165102  0.83872740  0.28061030  1
  S  S19  1  0.03840672  0.39162553  0.28048939  1
  S  S20  1  0.57765846  0.72167834  0.31217415  1
  S  S21  1  0.73014189  0.38156244  0.07022728  1
  S  S22  1  0.76054895  0.36882257  0.81654964  1
  S  S23  1  0.07016286  0.03093073  0.57462790  1
  S  S24  1  0.26985811  0.61843756  0.57022728  1
  S  S25  1  0.95489226  0.33336197  0.52967995  1
  S  S26  1  0.76054895  0.13117743  0.31654964  1
  S  S27  1  0.03840672  0.10837447  0.78048939  1
  S  S28  1  0.49549410  0.47241100  0.63715284  1
  S  S29  1  0.94964570  0.30214063  0.83058462  1
  S  S30  1  0.90413113  0.07174421  0.51368880  1
  S  S31  1  0.54178796  0.05099077  0.55632658  1
  S  S32  1  0.85615735  0.03049789  0.77174642  1
  S  S33  1  0.45627568  0.41792673  0.35924122  1
  S  S34  1  0.35545933  0.21969398  0.11556013  1
  S  S35  1  0.92983714  0.96906927  0.07462790  1
  S  S36  1  0.96159328  0.89162553  0.28048939  1
  S  S37  1  0.15697582  0.16748130  0.98199331  1
  S  S38  1  0.49549410  0.02758900  0.13715284  1
  S  S39  1  0.15697582  0.33251870  0.48199331  1
  S  S40  1  0.45941122  0.64409265  0.10558498  1
  S  S41  1  0.20959286  0.00710721  0.36385214  1
  S  S42  1  0.50450590  0.52758900  0.13715284  1
  S  S43  1  0.41307774  0.82142795  0.87287835  1
  S  S44  1  0.98768152  0.27568552  0.24929426  1
  S  S45  1  0.41307774  0.67857205  0.37287835  1
  S  S46  1  0.01231848  0.72431448  0.74929426  1
  S  S47  1  0.09586887  0.57174421  0.51368880  1
  S  S48  1  0.01781726  0.91386364  0.60720240  1
  S  S49  1  0.05035430  0.69785937  0.33058462  1
  S  S50  1  0.04510774  0.83336197  0.52967995  1
  S  S51  1  0.66008021  0.41641584  0.40551809  1
  S  S52  1  0.50450590  0.97241100  0.63715284  1
  S  S53  1  0.64454067  0.78030602  0.61556013  1
  S  S54  1  0.01781726  0.58613636  0.10720240  1
  S  S55  1  0.96159328  0.60837447  0.78048939  1
  S  S56  1  0.52165102  0.66127260  0.78061030  1
  S  S57  1  0.73014189  0.11843756  0.57022728  1
  S  S58  1  0.84302418  0.66748130  0.98199331  1
  S  S59  1  0.54058878  0.14409265  0.10558498  1
  S  S60  1  0.85615735  0.46950211  0.27174642  1
  S  S61  1  0.42234154  0.27832166  0.81217415  1
  S  S62  1  0.58692226  0.32142795  0.87287835  1
  S  S63  1  0.35545933  0.28030602  0.61556013  1
  S  S64  1  0.71327985  0.74186733  0.52411726  1
  S  S65  1  0.71327985  0.75813267  0.02411726  1
  S  S66  1  0.94964570  0.19785937  0.33058462  1
  S  S67  1  0.98768152  0.22431448  0.74929426  1
  S  S68  1  0.45821204  0.55099077  0.55632658  1
  S  S69  1  0.09586887  0.92825579  0.01368880  1
  S  S70  1  0.33991979  0.91641584  0.40551809  1
  S  S71  1  0.45821204  0.94900923  0.05632658  1
  S  S72  1  0.79040714  0.50710721  0.36385214  1
  S  S73  1  0.23945105  0.86882257  0.81654964  1
  S  S74  1  0.01231848  0.77568552  0.24929426  1
  S  S75  1  0.28672015  0.24186733  0.52411726  1
  S  S76  1  0.79040714  0.99289279  0.86385214  1
  S  S77  1  0.04510774  0.66663803  0.02967995  1
  S  S78  1  0.14384265  0.53049789  0.77174642  1
  S  S79  1  0.57765846  0.77832166  0.81217415  1
  S  S80  1  0.20959286  0.49289279  0.86385214  1
  S  S81  1  0.98218274  0.08613636  0.10720240  1
  S  S82  1  0.47834898  0.33872740  0.28061030  1
  S  S83  1  0.23945105  0.63117743  0.31654964  1
  S  S84  1  0.05035430  0.80214063  0.83058462  1
  S  S85  1  0.84302418  0.83251870  0.48199331  1
  S  S86  1  0.95489226  0.16663803  0.02967995  1
  S  S87  1  0.54058878  0.35590735  0.60558498  1
