# generated using pymatgen
data_BaLa4Cu5O12
_symmetry_space_group_name_H-M   'P 1'
_cell_length_a   3.88443271
_cell_length_b   8.71731294
_cell_length_c   8.72902452
_cell_angle_alpha   90.00217876
_cell_angle_beta   90.00000000
_cell_angle_gamma   90.00000000
_symmetry_Int_Tables_number   1
_chemical_formula_structural   BaLa4Cu5O12
_chemical_formula_sum   'Ba1 La4 Cu5 O12'
_cell_volume   295.58061778
_cell_formula_units_Z   1
loop_
 _symmetry_equiv_pos_site_id
 _symmetry_equiv_pos_as_xyz
  1  'x, y, z'
loop_
 _atom_site_type_symbol
 _atom_site_label
 _atom_site_symmetry_multiplicity
 _atom_site_fract_x
 _atom_site_fract_y
 _atom_site_fract_z
 _atom_site_occupancy
  Ba  Ba0  1  0.50000000  0.50000000  0.50000000  1
  La  La1  1  0.50000000  0.70137933  0.12608101  1
  La  La2  1  0.50000000  0.29862067  0.87391899  1
  La  La3  1  0.50000000  0.87494760  0.70158999  1
  La  La4  1  0.50000000  0.12505240  0.29841001  1
  Cu  Cu5  1  0.00000000  0.59396081  0.83437438  1
  Cu  Cu6  1  0.00000000  0.00000000  -0.00000000  1
  Cu  Cu7  1  0.00000000  0.16471909  0.59397316  1
  Cu  Cu8  1  0.00000000  0.83528091  0.40602684  1
  Cu  Cu9  1  0.00000000  0.40603919  0.16562562  1
  O  O10  1  0.50000000  0.15181650  0.58976658  1
  O  O11  1  -0.00000000  0.60496930  0.26599596  1
  O  O12  1  0.00000000  0.05489245  0.78711160  1
  O  O13  1  -0.00000000  0.94510755  0.21288840  1
  O  O14  1  -0.00000000  0.73678872  0.60561008  1
  O  O15  1  -0.00000000  0.21386908  0.05375895  1
  O  O16  1  -0.00000000  0.39503070  0.73400404  1
  O  O17  1  0.50000000  0.58873006  0.84744090  1
  O  O18  1  0.50000000  0.84818450  0.41023342  1
  O  O19  1  0.50000000  0.41126994  0.15255910  1
  O  O20  1  -0.00000000  0.26321128  0.39438992  1
  O  O21  1  -0.00000000  0.78613092  0.94624105  1
