# generated using pymatgen
data_AlCuAsO5
_symmetry_space_group_name_H-M   'P 1'
_cell_length_a   5.72510110
_cell_length_b   7.44807102
_cell_length_c   10.35546586
_cell_angle_alpha   90.00000000
_cell_angle_beta   90.00000000
_cell_angle_gamma   100.59836865
_symmetry_Int_Tables_number   1
_chemical_formula_structural   AlCuAsO5
_chemical_formula_sum   'Al4 Cu4 As4 O20'
_cell_volume   434.03412708
_cell_formula_units_Z   4
loop_
 _symmetry_equiv_pos_site_id
 _symmetry_equiv_pos_as_xyz
  1  'x, y, z'
loop_
 _atom_site_type_symbol
 _atom_site_label
 _atom_site_symmetry_multiplicity
 _atom_site_fract_x
 _atom_site_fract_y
 _atom_site_fract_z
 _atom_site_occupancy
  Al  Al0  1  0.06339984  0.85322382  0.67808958  1
  Al  Al1  1  0.93660016  0.14677618  0.32191042  1
  Al  Al2  1  0.56339984  0.85322382  0.82191042  1
  Al  Al3  1  0.43660016  0.14677618  0.17808958  1
  Cu  Cu4  1  0.40814564  0.46021989  0.35703035  1
  Cu  Cu5  1  0.90814564  0.46021989  0.14296965  1
  Cu  Cu6  1  0.59185436  0.53978011  0.64296965  1
  Cu  Cu7  1  0.09185436  0.53978011  0.85703035  1
  As  As8  1  0.07771796  0.27367438  0.60908759  1
  As  As9  1  0.42228204  0.72632562  0.10908759  1
  As  As10  1  0.57771796  0.27367438  0.89091241  1
  As  As11  1  0.92228204  0.72632562  0.39091241  1
  O  O12  1  0.37369829  0.90621790  0.20113397  1
  O  O13  1  0.65038864  0.62000376  0.46105310  1
  O  O14  1  0.73353818  0.23386992  0.22226441  1
  O  O15  1  0.88502035  0.19761719  0.48600394  1
  O  O16  1  0.76646182  0.76613008  0.72226441  1
  O  O17  1  0.45401247  0.43053330  0.80479968  1
  O  O18  1  0.34961136  0.37999624  0.53894690  1
  O  O19  1  0.84961136  0.37999624  0.96105310  1
  O  O20  1  0.54598753  0.56946670  0.19520032  1
  O  O21  1  0.11497965  0.80238281  0.51399606  1
  O  O22  1  0.87369829  0.90621790  0.29886603  1
  O  O23  1  0.62630171  0.09378210  0.79886603  1
  O  O24  1  0.95401247  0.43053330  0.69520032  1
  O  O25  1  0.38502035  0.19761719  0.01399606  1
  O  O26  1  0.12630171  0.09378210  0.70113397  1
  O  O27  1  0.04598753  0.56946670  0.30479968  1
  O  O28  1  0.26646182  0.76613008  0.77773559  1
  O  O29  1  0.23353818  0.23386992  0.27773559  1
  O  O30  1  0.15038864  0.62000376  0.03894690  1
  O  O31  1  0.61497965  0.80238281  0.98600394  1
