# generated using pymatgen
data_Rb2Tb3AlF16
_symmetry_space_group_name_H-M   'P 1'
_cell_length_a   7.81081337
_cell_length_b   7.81081342
_cell_length_c   12.76574649
_cell_angle_alpha   90.00000000
_cell_angle_beta   90.00000000
_cell_angle_gamma   119.99999982
_symmetry_Int_Tables_number   1
_chemical_formula_structural   Rb2Tb3AlF16
_chemical_formula_sum   'Rb4 Tb6 Al2 F32'
_cell_volume   674.48046087
_cell_formula_units_Z   2
loop_
 _symmetry_equiv_pos_site_id
 _symmetry_equiv_pos_as_xyz
  1  'x, y, z'
loop_
 _atom_site_type_symbol
 _atom_site_label
 _atom_site_symmetry_multiplicity
 _atom_site_fract_x
 _atom_site_fract_y
 _atom_site_fract_z
 _atom_site_occupancy
  Tb  Tb0  1  0.16717957  0.83282043  0.75000000  1
  Tb  Tb1  1  0.83282043  0.16717957  0.25000000  1
  Tb  Tb2  1  0.16717957  0.33435913  0.75000000  1
  Tb  Tb3  1  0.33435913  0.16717957  0.25000000  1
  Tb  Tb4  1  0.66564087  0.83282043  0.75000000  1
  Tb  Tb5  1  0.83282043  0.66564087  0.25000000  1
  Rb  Rb6  1  0.33333300  0.66666700  0.43579217  1
  Rb  Rb7  1  0.66666700  0.33333300  0.56420783  1
  Rb  Rb8  1  0.66666700  0.33333300  0.93579217  1
  Rb  Rb9  1  0.33333300  0.66666700  0.06420783  1
  Al  Al10  1  0.00000000  0.00000000  0.00000000  1
  Al  Al11  1  0.00000000  0.00000000  0.50000000  1
  F  F12  1  0.18268635  0.81731365  0.25000000  1
  F  F13  1  0.54992398  0.09984796  0.15430894  1
  F  F14  1  0.09984796  0.54992398  0.65430894  1
  F  F15  1  0.22423380  0.11211690  0.07985247  1
  F  F16  1  0.22423380  0.11211690  0.42014753  1
  F  F17  1  0.18268635  0.36537270  0.25000000  1
  F  F18  1  0.45007602  0.90015204  0.65430894  1
  F  F19  1  0.54992398  0.45007602  0.34569106  1
  F  F20  1  0.11211690  0.22423380  0.57985247  1
  F  F21  1  0.77576620  0.88788310  0.57985247  1
  F  F22  1  0.81731365  0.18268635  0.75000000  1
  F  F23  1  0.88788310  0.11211690  0.42014753  1
  F  F24  1  0.54992398  0.09984796  0.34569106  1
  F  F25  1  0.90015204  0.45007602  0.34569106  1
  F  F26  1  0.11211690  0.88788310  0.57985247  1
  F  F27  1  0.11211690  0.88788310  0.92014753  1
  F  F28  1  0.63462730  0.81731365  0.25000000  1
  F  F29  1  0.90015204  0.45007602  0.15430894  1
  F  F30  1  0.77576620  0.88788310  0.92014753  1
  F  F31  1  0.11211690  0.22423380  0.92014753  1
  F  F32  1  0.45007602  0.54992398  0.84569106  1
  F  F33  1  0.88788310  0.77576620  0.07985247  1
  F  F34  1  0.09984796  0.54992398  0.84569106  1
  F  F35  1  0.45007602  0.90015204  0.84569106  1
  F  F36  1  0.45007602  0.54992398  0.65430894  1
  F  F37  1  0.36537270  0.18268635  0.75000000  1
  F  F38  1  0.88788310  0.11211690  0.07985247  1
  F  F39  1  0.54992398  0.45007602  0.15430894  1
  F  F40  1  0.81731365  0.63462730  0.75000000  1
  F  F41  1  0.00000000  0.00000000  0.75000000  1
  F  F42  1  0.88788310  0.77576620  0.42014753  1
  F  F43  1  0.00000000  0.00000000  0.25000000  1
