# generated using pymatgen
data_CeCrS2O
_symmetry_space_group_name_H-M   'P 1'
_cell_length_a   3.77807233
_cell_length_b   5.95918342
_cell_length_c   8.02688678
_cell_angle_alpha   90.20389363
_cell_angle_beta   90.00000000
_cell_angle_gamma   108.48133593
_symmetry_Int_Tables_number   1
_chemical_formula_structural   CeCrS2O
_chemical_formula_sum   'Ce2 Cr2 S4 O2'
_cell_volume   171.39770192
_cell_formula_units_Z   2
loop_
 _symmetry_equiv_pos_site_id
 _symmetry_equiv_pos_as_xyz
  1  'x, y, z'
loop_
 _atom_site_type_symbol
 _atom_site_label
 _atom_site_symmetry_multiplicity
 _atom_site_fract_x
 _atom_site_fract_y
 _atom_site_fract_z
 _atom_site_occupancy
  Ce  Ce0  1  0.26529885  0.53059770  0.79320439  1
  Ce  Ce1  1  0.73466233  0.46932367  0.20643064  1
  Cr  Cr2  1  0.00000024  0.00000048  0.99995761  1
  Cr  Cr3  1  0.49996109  0.99992319  0.50013194  1
  S  S4  1  0.54877626  0.09755251  0.79752838  1
  S  S5  1  0.14122197  0.28244395  0.46504008  1
  S  S6  1  0.85867201  0.71734302  0.53518879  1
  S  S7  1  0.45136057  0.90272214  0.20255140  1
  O  O8  1  0.82636895  0.65273791  0.93299787  1
  O  O9  1  0.17367771  0.34735543  0.06696891  1
