# generated using pymatgen
data_Zr7(NO2)4
_symmetry_space_group_name_H-M   'P 1'
_cell_length_a   8.97187399
_cell_length_b   9.68205432
_cell_length_c   9.63292552
_cell_angle_alpha   120.55903529
_cell_angle_beta   89.49091634
_cell_angle_gamma   90.54589570
_symmetry_Int_Tables_number   1
_chemical_formula_structural   Zr7(NO2)4
_chemical_formula_sum   'Zr21 N12 O24'
_cell_volume   720.51143874
_cell_formula_units_Z   3
loop_
 _symmetry_equiv_pos_site_id
 _symmetry_equiv_pos_as_xyz
  1  'x, y, z'
loop_
 _atom_site_type_symbol
 _atom_site_label
 _atom_site_symmetry_multiplicity
 _atom_site_fract_x
 _atom_site_fract_y
 _atom_site_fract_z
 _atom_site_occupancy
  Zr  Zr0  1  0.65690282  0.04315147  0.25661817  1
  Zr  Zr1  1  0.00591205  0.00318346  0.01049445  1
  Zr  Zr2  1  0.35057900  0.24924545  0.21650586  1
  Zr  Zr3  1  0.67697957  0.45015639  0.36548724  1
  Zr  Zr4  1  0.67261133  0.33651068  0.67714362  1
  Zr  Zr5  1  0.98493368  0.88222441  0.28021520  1
  Zr  Zr6  1  0.31423099  0.06763760  0.45676380  1
  Zr  Zr7  1  0.32357810  0.37646339  0.92327688  1
  Zr  Zr8  1  0.65160587  0.21554880  0.94688616  1
  Zr  Zr9  1  0.33927040  0.66985078  0.34380382  1
  Zr  Zr10  1  0.01027432  0.11680641  0.69881714  1
  Zr  Zr11  1  0.01695416  0.27474740  0.40133366  1
  Zr  Zr12  1  0.68360109  0.60807053  0.06799303  1
  Zr  Zr13  1  0.31829101  0.54889183  0.61355408  1
  Zr  Zr14  1  0.35024134  0.94139717  0.73466397  1
  Zr  Zr15  1  0.68388153  0.91590977  0.54983402  1
  Zr  Zr16  1  0.01725543  0.58257780  0.88317822  1
  Zr  Zr17  1  0.64759391  0.73429730  0.79009355  1
  Zr  Zr18  1  0.34363484  0.78348292  0.03216033  1
  Zr  Zr19  1  0.99026051  0.70985034  0.58997252  1
  Zr  Zr20  1  0.98088977  0.40097704  0.12343474  1
  N  N21  1  0.39778653  0.78020029  0.81750995  1
  N  N22  1  0.22156027  0.70929773  0.55063459  1
  N  N23  1  0.77385493  0.14909759  0.69990785  1
  N  N24  1  0.55487646  0.37596507  0.88397604  1
  N  N25  1  0.73114075  0.44686974  0.15083824  1
  N  N26  1  0.10720248  0.81577630  0.03324051  1
  N  N27  1  0.44055071  0.48243949  0.36656365  1
  N  N28  1  0.06445871  0.11353936  0.48417729  1
  N  N29  1  0.88820596  0.04264517  0.21731731  1
  N  N30  1  0.11560235  0.22245514  0.17756846  1
  N  N31  1  0.78226904  0.55579818  0.84423394  1
  N  N32  1  0.44890563  0.88915030  0.51091764  1
  O  O33  1  0.60609667  0.96247875  0.78857664  1
  O  O34  1  0.61259894  0.82652944  0.03809601  1
  O  O35  1  0.71899173  0.69246111  0.54679765  1
  O  O36  1  0.88315378  0.17484357  0.97356374  1
  O  O37  1  0.94597710  0.49320379  0.37144198  1
  O  O38  1  0.72927703  0.85159515  0.30454857  1
  O  O39  1  0.60481671  0.20279118  0.17820558  1
  O  O40  1  0.39591448  0.18490072  0.97121298  1
  O  O41  1  0.06264848  0.51826468  0.63790060  1
  O  O42  1  0.21651314  0.84152591  0.30688416  1
  O  O43  1  0.11419376  0.98234042  0.79125318  1
  O  O44  1  0.88213969  0.80866537  0.81256696  1
  O  O45  1  0.05222801  0.35912304  0.88014249  1
  O  O46  1  0.27146138  0.53611511  0.84490229  1
  O  O47  1  0.93941669  0.62915757  0.12191805  1
  O  O48  1  0.93810702  0.86946176  0.51154705  1
  O  O49  1  0.38563618  0.02579571  0.21347385  1
  O  O50  1  0.54984191  0.50818889  0.64023009  1
  O  O51  1  0.27276499  0.29581807  0.45523642  1
  O  O52  1  0.78088204  0.31573626  0.45795289  1
  O  O53  1  0.21548700  0.47534392  0.14588166  1
  O  O54  1  0.27922800  0.15985905  0.70477189  1
  O  O55  1  0.44760086  0.64909047  0.12464995  1
  O  O56  1  0.54882888  0.14199471  0.47922939  1
