# generated using pymatgen
data_SbH18C3(NCl2)3
_symmetry_space_group_name_H-M   'P 1'
_cell_length_a   8.15506263
_cell_length_b   13.09243258
_cell_length_c   15.40869670
_cell_angle_alpha   96.81032889
_cell_angle_beta   90.00000000
_cell_angle_gamma   90.00000000
_symmetry_Int_Tables_number   1
_chemical_formula_structural   SbH18C3(NCl2)3
_chemical_formula_sum   'Sb4 H72 C12 N12 Cl24'
_cell_volume   1633.57234882
_cell_formula_units_Z   4
loop_
 _symmetry_equiv_pos_site_id
 _symmetry_equiv_pos_as_xyz
  1  'x, y, z'
loop_
 _atom_site_type_symbol
 _atom_site_label
 _atom_site_symmetry_multiplicity
 _atom_site_fract_x
 _atom_site_fract_y
 _atom_site_fract_z
 _atom_site_occupancy
  Sb  Sb0  1  0.16554492  0.59703985  0.72243304  1
  Sb  Sb1  1  0.83445508  0.40296015  0.27756696  1
  Sb  Sb2  1  0.33445508  0.09703985  0.22243304  1
  Sb  Sb3  1  0.66554492  0.90296015  0.77756696  1
  H  H4  1  0.68982902  0.05971324  0.35426950  1
  H  H5  1  0.36492840  0.67733177  0.36365489  1
  H  H6  1  0.93938978  0.60827540  0.17134099  1
  H  H7  1  0.47713120  0.58966611  0.93431491  1
  H  H8  1  0.67265594  0.19888668  0.96556767  1
  H  H9  1  0.27752033  0.28190617  0.86894206  1
  H  H10  1  0.81017098  0.55971324  0.85426950  1
  H  H11  1  0.10699759  0.33183857  0.43657886  1
  H  H12  1  0.41918493  0.20062176  0.67106583  1
  H  H13  1  0.14783561  0.82510813  0.54612713  1
  H  H14  1  0.13397245  0.91590868  0.91146683  1
  H  H15  1  0.72247967  0.71809383  0.13105794  1
  H  H16  1  0.82734406  0.69888668  0.46556767  1
  H  H17  1  0.52286880  0.41033389  0.06568509  1
  H  H18  1  0.39336672  0.28268683  0.42463449  1
  H  H19  1  0.92715201  0.71379987  0.24687179  1
  H  H20  1  0.56061022  0.10827540  0.67134099  1
  H  H21  1  0.86433715  0.09302669  0.30427983  1
  H  H22  1  0.77752033  0.21809383  0.63105794  1
  H  H23  1  0.63507160  0.32266823  0.63634511  1
  H  H24  1  0.84326607  0.04846342  0.48843128  1
  H  H25  1  0.56315694  0.61932049  0.48643467  1
  H  H26  1  0.64783561  0.67489187  0.95387287  1
  H  H27  1  0.39300241  0.83183857  0.93657886  1
  H  H28  1  0.35139184  0.92517233  0.01731526  1
  H  H29  1  0.36602755  0.41590868  0.41146683  1
  H  H30  1  0.15526997  0.02480980  0.66122641  1
  H  H31  1  0.63566285  0.59302669  0.80427983  1
  H  H32  1  0.06061022  0.39172460  0.82865901  1
  H  H33  1  0.91918493  0.29937824  0.82893417  1
  H  H34  1  0.10663328  0.78268683  0.92463449  1
  H  H35  1  0.36433715  0.40697331  0.19572017  1
  H  H36  1  0.89300241  0.66816143  0.56342114  1
  H  H37  1  0.31017098  0.94028676  0.64573050  1
  H  H38  1  0.85216439  0.17489187  0.45387287  1
  H  H39  1  0.97713120  0.91033389  0.56568509  1
  H  H40  1  0.42715201  0.78620013  0.25312821  1
  H  H41  1  0.43938978  0.89172460  0.32865901  1
  H  H42  1  0.63397245  0.58409132  0.58853317  1
  H  H43  1  0.43684306  0.38067951  0.51356533  1
  H  H44  1  0.65526997  0.47519020  0.83877359  1
  H  H45  1  0.85139184  0.57482767  0.48268474  1
  H  H46  1  0.08081507  0.70062176  0.17106583  1
  H  H47  1  0.15673393  0.95153658  0.51156872  1
  H  H48  1  0.22247967  0.78190617  0.36894206  1
  H  H49  1  0.35216439  0.32510813  0.04612713  1
  H  H50  1  0.64860816  0.07482767  0.98268474  1
  H  H51  1  0.06315694  0.88067951  0.01356533  1
  H  H52  1  0.60663328  0.71731317  0.57536551  1
  H  H53  1  0.02286880  0.08966611  0.43431491  1
  H  H54  1  0.14860816  0.42517233  0.51731526  1
  H  H55  1  0.13507160  0.17733177  0.86365489  1
  H  H56  1  0.38842878  0.78536303  0.44576926  1
  H  H57  1  0.65673393  0.54846342  0.98843128  1
  H  H58  1  0.17265594  0.30111332  0.53443233  1
  H  H59  1  0.57284799  0.21379987  0.74687179  1
  H  H60  1  0.13566285  0.90697331  0.69572017  1
  H  H61  1  0.34326607  0.45153658  0.01156872  1
  H  H62  1  0.58081507  0.79937824  0.32893417  1
  H  H63  1  0.84473003  0.97519020  0.33877359  1
  H  H64  1  0.61157122  0.21463697  0.55423074  1
  H  H65  1  0.34473003  0.52480980  0.16122641  1
  H  H66  1  0.88842878  0.71463697  0.05423074  1
  H  H67  1  0.18982902  0.44028676  0.14573050  1
  H  H68  1  0.86602755  0.08409132  0.08853317  1
  H  H69  1  0.93684306  0.11932049  0.98643467  1
  H  H70  1  0.07284799  0.28620013  0.75312821  1
  H  H71  1  0.89336672  0.21731317  0.07536551  1
  H  H72  1  0.86492840  0.82266823  0.13634511  1
  H  H73  1  0.11157122  0.28536303  0.94576926  1
  H  H74  1  0.32734406  0.80111332  0.03443233  1
  H  H75  1  0.60699759  0.16816143  0.06342114  1
  C  C76  1  0.38914473  0.40559986  0.06125159  1
  C  C77  1  0.64206094  0.64170490  0.54278104  1
  C  C78  1  0.35065577  0.76066968  0.37838361  1
  C  C79  1  0.85793906  0.14170490  0.04278104  1
  C  C80  1  0.88914473  0.09440014  0.43874841  1
  C  C81  1  0.11085527  0.90559986  0.56125159  1
  C  C82  1  0.35793906  0.35829510  0.45721896  1
  C  C83  1  0.14934423  0.26066968  0.87838361  1
  C  C84  1  0.64934423  0.23933032  0.62161639  1
  C  C85  1  0.14206094  0.85829510  0.95721896  1
  C  C86  1  0.61085527  0.59440014  0.93874841  1
  C  C87  1  0.85065577  0.73933032  0.12161639  1
  N  N88  1  0.18543030  0.35349674  0.48827419  1
  N  N89  1  0.81456970  0.64650326  0.51172581  1
  N  N90  1  0.68543030  0.14650326  0.01172581  1
  N  N91  1  0.18245041  0.94678688  0.64717085  1
  N  N92  1  0.31754959  0.44678688  0.14717085  1
  N  N93  1  0.81754959  0.05321312  0.35282915  1
  N  N94  1  0.68245041  0.55321312  0.85282915  1
  N  N95  1  0.54398380  0.18754853  0.68188393  1
  N  N96  1  0.95601620  0.68754853  0.18188393  1
  N  N97  1  0.31456970  0.85349674  0.98827419  1
  N  N98  1  0.45601620  0.81245147  0.31811607  1
  N  N99  1  0.04398380  0.31245147  0.81811607  1
  Cl  Cl100  1  0.86662194  0.04946780  0.78251953  1
  Cl  Cl101  1  0.93943804  0.76442949  0.71665790  1
  Cl  Cl102  1  0.43229655  0.02147658  0.82664263  1
  Cl  Cl103  1  0.21606996  0.60970164  0.55786286  1
  Cl  Cl104  1  0.16031442  0.19263454  0.63242050  1
  Cl  Cl105  1  0.07540429  0.55982406  0.88811468  1
  Cl  Cl106  1  0.28393004  0.10970164  0.05786286  1
  Cl  Cl107  1  0.71606996  0.89029836  0.94213714  1
  Cl  Cl108  1  0.92459571  0.44017594  0.11188532  1
  Cl  Cl109  1  0.36662194  0.45053220  0.71748047  1
  Cl  Cl110  1  0.83968558  0.80736546  0.36757950  1
  Cl  Cl111  1  0.56770345  0.97852342  0.17335737  1
  Cl  Cl112  1  0.43943804  0.73557051  0.78334210  1
  Cl  Cl113  1  0.06770345  0.52147658  0.32664263  1
  Cl  Cl114  1  0.13337806  0.95053220  0.21748047  1
  Cl  Cl115  1  0.33968558  0.69263454  0.13242050  1
  Cl  Cl116  1  0.06056196  0.23557051  0.28334210  1
  Cl  Cl117  1  0.56056196  0.26442949  0.21665790  1
  Cl  Cl118  1  0.93229655  0.47852342  0.67335737  1
  Cl  Cl119  1  0.63337806  0.54946780  0.28251953  1
  Cl  Cl120  1  0.66031442  0.30736546  0.86757950  1
  Cl  Cl121  1  0.57540429  0.94017594  0.61188532  1
  Cl  Cl122  1  0.42459571  0.05982406  0.38811468  1
  Cl  Cl123  1  0.78393004  0.39029836  0.44213714  1
