# generated using pymatgen
data_YV2O4
_symmetry_space_group_name_H-M   'P 1'
_cell_length_a   6.36043868
_cell_length_b   6.36043890
_cell_length_c   6.36547550
_cell_angle_alpha   117.99346159
_cell_angle_beta   120.96117338
_cell_angle_gamma   90.88199397
_symmetry_Int_Tables_number   1
_chemical_formula_structural   YV2O4
_chemical_formula_sum   'Y2 V4 O8'
_cell_volume   183.42585923
_cell_formula_units_Z   2
loop_
 _symmetry_equiv_pos_site_id
 _symmetry_equiv_pos_as_xyz
  1  'x, y, z'
loop_
 _atom_site_type_symbol
 _atom_site_label
 _atom_site_symmetry_multiplicity
 _atom_site_fract_x
 _atom_site_fract_y
 _atom_site_fract_z
 _atom_site_occupancy
  Y  Y0  1  -0.00000000  0.50000100  0.00000100  1
  Y  Y1  1  0.00000100  -0.00000000  0.50000000  1
  V  V2  1  0.37277751  0.62277751  0.75000000  1
  V  V3  1  0.62722249  0.37722349  0.25000000  1
  V  V4  1  0.50000100  -0.00000000  0.50000000  1
  V  V5  1  -0.00000000  -0.00000000  0.00000000  1
  O  O6  1  0.74453423  0.75157169  0.50800296  1
  O  O7  1  0.74356873  0.23653226  0.99199904  1
  O  O8  1  0.24270289  0.24363241  0.99828311  1
  O  O9  1  0.25546577  0.24842831  0.49199804  1
  O  O10  1  0.25465070  0.75558022  0.49828211  1
  O  O11  1  0.25643127  0.76346874  0.00800296  1
  O  O12  1  0.74534830  0.24441878  0.50171689  1
  O  O13  1  0.75729711  0.75636859  0.00171689  1
