# generated using pymatgen
data_RbNb3CuCl9
_symmetry_space_group_name_H-M   'P 1'
_cell_length_a   9.45572412
_cell_length_b   9.47459410
_cell_length_c   9.47075829
_cell_angle_alpha   119.70891638
_cell_angle_beta   95.73010143
_cell_angle_gamma   105.57744083
_symmetry_Int_Tables_number   1
_chemical_formula_structural   RbNb3CuCl9
_chemical_formula_sum   'Rb2 Nb6 Cu2 Cl18'
_cell_volume   681.81287982
_cell_formula_units_Z   2
loop_
 _symmetry_equiv_pos_site_id
 _symmetry_equiv_pos_as_xyz
  1  'x, y, z'
loop_
 _atom_site_type_symbol
 _atom_site_label
 _atom_site_symmetry_multiplicity
 _atom_site_fract_x
 _atom_site_fract_y
 _atom_site_fract_z
 _atom_site_occupancy
  Rb  Rb0  1  0.33460002  0.47525653  0.26123018  1
  Rb  Rb1  1  0.66539998  0.52474347  0.73876982  1
  Nb  Nb2  1  0.13320451  0.89744501  0.34287865  1
  Nb  Nb3  1  0.86205889  0.74943899  0.42322443  1
  Nb  Nb4  1  0.85928111  0.98177526  0.30347517  1
  Nb  Nb5  1  0.86679549  0.10255499  0.65712135  1
  Nb  Nb6  1  0.13794111  0.25056101  0.57677557  1
  Nb  Nb7  1  0.14071889  0.01822474  0.69652483  1
  Cu  Cu8  1  0.63183858  0.18669930  0.05482659  1
  Cu  Cu9  1  0.36816142  0.81330070  0.94517341  1
  Cl  Cl10  1  0.67606958  0.42735132  0.32323514  1
  Cl  Cl11  1  0.66974751  0.95034463  0.04715897  1
  Cl  Cl12  1  0.32818185  0.31915343  0.82437693  1
  Cl  Cl13  1  0.67181815  0.68084657  0.17562307  1
  Cl  Cl14  1  0.30323771  0.76488426  0.14753947  1
  Cl  Cl15  1  0.67875459  0.09806020  0.45230443  1
  Cl  Cl16  1  0.32393042  0.57264868  0.67676486  1
  Cl  Cl17  1  0.99480613  0.58470842  0.22822236  1
  Cl  Cl18  1  0.67950931  0.82353240  0.59463155  1
  Cl  Cl19  1  0.69676229  0.23511574  0.85246053  1
  Cl  Cl20  1  0.00141722  0.72729512  0.64290015  1
  Cl  Cl21  1  0.00953915  0.14285135  0.91699756  1
  Cl  Cl22  1  0.99858278  0.27270488  0.35709985  1
  Cl  Cl23  1  0.32049069  0.17646760  0.40536845  1
  Cl  Cl24  1  0.33025249  0.04965537  0.95284103  1
  Cl  Cl25  1  0.00519387  0.41529158  0.77177764  1
  Cl  Cl26  1  0.99046085  0.85714865  0.08300244  1
  Cl  Cl27  1  0.32124541  0.90193980  0.54769557  1
