# generated using pymatgen
data_Mg8B5IN10
_symmetry_space_group_name_H-M   'P 1'
_cell_length_a   9.39005664
_cell_length_b   10.03256836
_cell_length_c   10.03256824
_cell_angle_alpha   68.52682206
_cell_angle_beta   62.09603558
_cell_angle_gamma   62.09604301
_symmetry_Int_Tables_number   1
_chemical_formula_structural   Mg8B5IN10
_chemical_formula_sum   'Mg16 B10 I2 N20'
_cell_volume   724.93106124
_cell_formula_units_Z   2
loop_
 _symmetry_equiv_pos_site_id
 _symmetry_equiv_pos_as_xyz
  1  'x, y, z'
loop_
 _atom_site_type_symbol
 _atom_site_label
 _atom_site_symmetry_multiplicity
 _atom_site_fract_x
 _atom_site_fract_y
 _atom_site_fract_z
 _atom_site_occupancy
  Mg  Mg0  1  0.60481895  0.89518243  0.89520289  1
  Mg  Mg1  1  0.75110346  1.00001162  0.49999080  1
  Mg  Mg2  1  0.31572040  0.68430942  0.68429755  1
  Mg  Mg3  1  0.81572040  0.68429755  0.68430942  1
  Mg  Mg4  1  0.54594481  0.27527024  0.72473450  1
  Mg  Mg5  1  0.89518105  0.10479711  0.10481757  1
  Mg  Mg6  1  0.24889654  -0.00001162  0.50000920  1
  Mg  Mg7  1  0.39518105  0.10481757  0.10479711  1
  Mg  Mg8  1  0.74889654  0.50000920  0.99998838  1
  Mg  Mg9  1  0.95405519  0.27526550  0.72472976  1
  Mg  Mg10  1  0.68427960  0.31569058  0.31570245  1
  Mg  Mg11  1  0.04594481  0.72473450  0.27527024  1
  Mg  Mg12  1  0.45405519  0.72472976  0.27526550  1
  Mg  Mg13  1  0.18427960  0.31570245  0.31569058  1
  Mg  Mg14  1  0.25110346  0.49999080  0.00001162  1
  Mg  Mg15  1  0.10481895  0.89520289  0.89518243  1
  B  B16  1  0.45566355  0.89613490  0.69245133  1
  B  B17  1  0.75000000  0.09670939  0.90329061  1
  B  B18  1  0.11414564  0.78625525  0.48546206  1
  B  B19  1  0.61414564  0.48546206  0.78625525  1
  B  B20  1  0.54433645  0.10386510  0.30754867  1
  B  B21  1  0.25000000  0.90329061  0.09670939  1
  B  B22  1  0.95566355  0.69245133  0.89613490  1
  B  B23  1  0.88585436  0.21374475  0.51453794  1
  B  B24  1  0.38585436  0.51453794  0.21374475  1
  B  B25  1  0.04433645  0.30754867  0.10386510  1
  I  I26  1  0.75000000  0.65246303  0.34753697  1
  I  I27  1  0.25000000  0.34753697  0.65246303  1
  N  N28  1  0.24139683  0.51799510  0.21259348  1
  N  N29  1  0.25860317  0.78740652  0.48200490  1
  N  N30  1  0.31429979  0.89331074  0.69320642  1
  N  N31  1  0.75860317  0.48200490  0.78740652  1
  N  N32  1  0.40081043  0.10669363  0.30678911  1
  N  N33  1  0.68570021  0.10668926  0.30679358  1
  N  N34  1  0.97199453  0.78741414  0.48200147  1
  N  N35  1  0.74139683  0.21259348  0.51799510  1
  N  N36  1  0.89269400  0.09928486  0.90072133  1
  N  N37  1  0.52800547  0.51799853  0.21258586  1
  N  N38  1  0.47199453  0.48200147  0.78741414  1
  N  N39  1  0.09918957  0.69321089  0.89330637  1
  N  N40  1  0.18570021  0.30679358  0.10668926  1
  N  N41  1  0.81429979  0.69320642  0.89331074  1
  N  N42  1  0.39269400  0.90072133  0.09928486  1
  N  N43  1  0.90081043  0.30678911  0.10669363  1
  N  N44  1  0.60730600  0.09927867  0.90071514  1
  N  N45  1  0.59918957  0.89330637  0.69321089  1
  N  N46  1  0.02800547  0.21258586  0.51799853  1
  N  N47  1  0.10730600  0.90071514  0.09927867  1
