# generated using pymatgen
data_TaPNCl7
_symmetry_space_group_name_H-M   'P 1'
_cell_length_a   6.90363799
_cell_length_b   11.72491123
_cell_length_c   15.19363601
_cell_angle_alpha   90.00000000
_cell_angle_beta   100.29186269
_cell_angle_gamma   90.00000000
_symmetry_Int_Tables_number   1
_chemical_formula_structural   TaPNCl7
_chemical_formula_sum   'Ta4 P4 N4 Cl28'
_cell_volume   1210.05428010
_cell_formula_units_Z   4
loop_
 _symmetry_equiv_pos_site_id
 _symmetry_equiv_pos_as_xyz
  1  'x, y, z'
loop_
 _atom_site_type_symbol
 _atom_site_label
 _atom_site_symmetry_multiplicity
 _atom_site_fract_x
 _atom_site_fract_y
 _atom_site_fract_z
 _atom_site_occupancy
  Ta  Ta0  1  0.59935186  0.91990352  0.61968317  1
  Ta  Ta1  1  0.09935186  0.58009648  0.11968317  1
  Ta  Ta2  1  0.90064814  0.41990352  0.88031683  1
  Ta  Ta3  1  0.40064814  0.08009648  0.38031683  1
  P  P4  1  0.55167036  0.07046407  0.18230738  1
  P  P5  1  0.44832964  0.92953593  0.81769262  1
  P  P6  1  0.94832964  0.57046407  0.31769262  1
  P  P7  1  0.05167036  0.42953593  0.68230738  1
  N  N8  1  0.99897338  0.60481686  0.22566826  1
  N  N9  1  0.50102662  0.10481686  0.27433174  1
  N  N10  1  0.00102662  0.39518314  0.77433174  1
  N  N11  1  0.49897338  0.89518314  0.72566826  1
  Cl  Cl12  1  0.26599344  0.90050760  0.33697513  1
  Cl  Cl13  1  0.80114107  0.47793933  0.04121898  1
  Cl  Cl14  1  0.30114107  0.02206067  0.54121898  1
  Cl  Cl15  1  0.69885893  0.97793933  0.45878102  1
  Cl  Cl16  1  0.90757928  0.83533014  0.65231016  1
  Cl  Cl17  1  0.32020286  0.00844134  0.09758378  1
  Cl  Cl18  1  0.73400656  0.09949240  0.66302487  1
  Cl  Cl19  1  0.09242072  0.16466986  0.34768984  1
  Cl  Cl20  1  0.96799778  0.74545495  0.04377709  1
  Cl  Cl21  1  0.46799778  0.75454505  0.54377709  1
  Cl  Cl22  1  0.59242072  0.33533014  0.84768984  1
  Cl  Cl23  1  0.65167853  0.19927036  0.11785907  1
  Cl  Cl24  1  0.67979714  0.99155866  0.90241622  1
  Cl  Cl25  1  0.82020286  0.49155866  0.59758378  1
  Cl  Cl26  1  0.19885893  0.52206067  0.95878102  1
  Cl  Cl27  1  0.53200222  0.24545495  0.45622291  1
  Cl  Cl28  1  0.23400656  0.40050760  0.16302487  1
  Cl  Cl29  1  0.17979714  0.50844134  0.40241622  1
  Cl  Cl30  1  0.15167853  0.30072964  0.61785907  1
  Cl  Cl31  1  0.40757928  0.66466986  0.15231016  1
  Cl  Cl32  1  0.24189588  0.04997348  0.80951167  1
  Cl  Cl33  1  0.76599344  0.59949240  0.83697513  1
  Cl  Cl34  1  0.84832147  0.69927036  0.38214093  1
  Cl  Cl35  1  0.25810412  0.54997348  0.69048833  1
  Cl  Cl36  1  0.03200222  0.25454505  0.95622291  1
  Cl  Cl37  1  0.75810412  0.95002652  0.19048833  1
  Cl  Cl38  1  0.34832147  0.80072964  0.88214093  1
  Cl  Cl39  1  0.74189588  0.45002652  0.30951167  1
