# generated using pymatgen
data_NiH2SeO5
_symmetry_space_group_name_H-M   'P 1'
_cell_length_a   5.16393468
_cell_length_b   5.16395235
_cell_length_c   8.19855065
_cell_angle_alpha   110.43026643
_cell_angle_beta   110.43033384
_cell_angle_gamma   88.75045374
_symmetry_Int_Tables_number   1
_chemical_formula_structural   NiH2SeO5
_chemical_formula_sum   'Ni2 H4 Se2 O10'
_cell_volume   190.73613116
_cell_formula_units_Z   2
loop_
 _symmetry_equiv_pos_site_id
 _symmetry_equiv_pos_as_xyz
  1  'x, y, z'
loop_
 _atom_site_type_symbol
 _atom_site_label
 _atom_site_symmetry_multiplicity
 _atom_site_fract_x
 _atom_site_fract_y
 _atom_site_fract_z
 _atom_site_occupancy
  Ni  Ni0  1  -0.00000240  0.50001392  0.99994004  1
  Ni  Ni1  1  0.50003453  -0.00000137  0.49994219  1
  H  H2  1  0.73367218  0.99364079  0.00200944  1
  H  H3  1  0.00637141  0.26633407  0.49801922  1
  H  H4  1  0.99364023  0.73367234  0.50201058  1
  H  H5  1  0.26633249  0.00637050  0.99801876  1
  Se  Se6  1  0.55971871  0.44026077  0.24999301  1
  Se  Se7  1  0.44025827  0.55972187  0.74999223  1
  O  O8  1  0.23818926  0.20041275  0.06744779  1
  O  O9  1  0.74203341  0.35410143  0.10877041  1
  O  O10  1  0.31794017  0.68202333  0.24999280  1
  O  O11  1  0.64590894  0.25797791  0.39125482  1
  O  O12  1  0.79959059  0.76179331  0.43256949  1
  O  O13  1  0.20041157  0.23819066  0.56744408  1
  O  O14  1  0.35409506  0.74202997  0.60876735  1
  O  O15  1  0.68202943  0.31794735  0.74999799  1
  O  O16  1  0.25797920  0.64591289  0.89125602  1
  O  O17  1  0.76179496  0.79959551  0.93257480  1
