# generated using pymatgen
data_RuCl3
_symmetry_space_group_name_H-M   'P 1'
_cell_length_a   6.05994157
_cell_length_b   6.05994120
_cell_length_c   19.91745744
_cell_angle_alpha   90.00000000
_cell_angle_beta   90.00000000
_cell_angle_gamma   120.00000197
_symmetry_Int_Tables_number   1
_chemical_formula_structural   RuCl3
_chemical_formula_sum   'Ru6 Cl18'
_cell_volume   633.43399573
_cell_formula_units_Z   6
loop_
 _symmetry_equiv_pos_site_id
 _symmetry_equiv_pos_as_xyz
  1  'x, y, z'
loop_
 _atom_site_type_symbol
 _atom_site_label
 _atom_site_symmetry_multiplicity
 _atom_site_fract_x
 _atom_site_fract_y
 _atom_site_fract_z
 _atom_site_occupancy
  Ru  Ru0  1  0.55551079  0.11102158  0.16666700  1
  Ru  Ru1  1  0.88897842  0.44448921  0.50000000  1
  Ru  Ru2  1  0.55551079  0.44448921  0.83333300  1
  Ru  Ru3  1  0.22207979  0.44415957  0.16666700  1
  Ru  Ru4  1  0.55584043  0.77792021  0.50000000  1
  Ru  Ru5  1  0.22207979  0.77792021  0.83333300  1
  Cl  Cl6  1  0.53598662  0.75842879  0.76613378  1
  Cl  Cl7  1  0.88870465  0.75823943  0.90065103  1
  Cl  Cl8  1  0.53574165  0.11115995  0.90063938  1
  Cl  Cl9  1  0.86953478  0.75823943  0.43268197  1
  Cl  Cl10  1  0.22244217  0.46401338  0.43280078  1
  Cl  Cl11  1  0.88870465  0.13046522  0.09934897  1
  Cl  Cl12  1  0.53598662  0.77755783  0.23386622  1
  Cl  Cl13  1  0.88884005  0.46425835  0.76602662  1
  Cl  Cl14  1  0.24157121  0.46401338  0.90053222  1
  Cl  Cl15  1  0.57541830  0.46425835  0.56730638  1
  Cl  Cl16  1  0.86953478  0.11129535  0.56731803  1
  Cl  Cl17  1  0.22244217  0.75842879  0.56719922  1
  Cl  Cl18  1  0.24176057  0.13046522  0.23398503  1
  Cl  Cl19  1  0.57541830  0.11115995  0.43269362  1
  Cl  Cl20  1  0.88884004  0.42458170  0.23397338  1
  Cl  Cl21  1  0.53574165  0.42458170  0.09936062  1
  Cl  Cl22  1  0.24176057  0.11129535  0.76601497  1
  Cl  Cl23  1  0.24157121  0.77755783  0.09946778  1
