# generated using pymatgen
data_Li3Fe2(PO4)3
_symmetry_space_group_name_H-M   'P 1'
_cell_length_a   8.75240768
_cell_length_b   8.75240719
_cell_length_c   8.67384088
_cell_angle_alpha   57.96836901
_cell_angle_beta   122.03162919
_cell_angle_gamma   119.35509304
_symmetry_Int_Tables_number   1
_chemical_formula_structural   Li3Fe2(PO4)3
_chemical_formula_sum   'Li6 Fe4 P6 O24'
_cell_volume   456.91748475
_cell_formula_units_Z   2
loop_
 _symmetry_equiv_pos_site_id
 _symmetry_equiv_pos_as_xyz
  1  'x, y, z'
loop_
 _atom_site_type_symbol
 _atom_site_label
 _atom_site_symmetry_multiplicity
 _atom_site_fract_x
 _atom_site_fract_y
 _atom_site_fract_z
 _atom_site_occupancy
  Li  Li0  1  0.23540724  0.83971950  0.75390307  1
  Li  Li1  1  0.16028050  0.76459276  0.25390307  1
  Li  Li2  1  0.00000000  0.50000000  0.00000000  1
  Li  Li3  1  0.83971950  0.23540724  0.74609693  1
  Li  Li4  1  0.50000000  0.00000000  0.50000000  1
  Li  Li5  1  0.76459276  0.16028050  0.24609693  1
  Fe  Fe6  1  0.63732608  0.85195994  0.93242557  1
  Fe  Fe7  1  0.14804006  0.36267392  0.43242557  1
  Fe  Fe8  1  0.85195994  0.63732608  0.56757443  1
  Fe  Fe9  1  0.36267392  0.14804006  0.06757443  1
  P  P10  1  0.25534194  0.55997679  0.72733919  1
  P  P11  1  0.95519791  0.95519791  0.75000000  1
  P  P12  1  0.44002321  0.74465806  0.22733919  1
  P  P13  1  0.55997679  0.25534194  0.77266081  1
  P  P14  1  0.04480209  0.04480209  0.25000000  1
  P  P15  1  0.74465806  0.44002321  0.27266081  1
  O  O16  1  0.12219344  0.98600275  0.93695743  1
  O  O17  1  0.01399725  0.87780656  0.43695743  1
  O  O18  1  0.09941166  0.56116729  0.76463798  1
  O  O19  1  0.40789782  0.75405857  0.72377878  1
  O  O20  1  0.18657961  0.55368770  0.52552542  1
  O  O21  1  0.76972446  0.94738506  0.74167132  1
  O  O22  1  0.32307584  0.38902402  0.89092314  1
  O  O23  1  0.43883271  0.90058834  0.26463798  1
  O  O24  1  0.24594143  0.59210218  0.22377878  1
  O  O25  1  0.44631230  0.81342039  0.02552542  1
  O  O26  1  0.38902402  0.32307584  0.60907686  1
  O  O27  1  0.05261494  0.23027554  0.24167132  1
  O  O28  1  0.94738506  0.76972446  0.75832868  1
  O  O29  1  0.61097598  0.67692416  0.39092314  1
  O  O30  1  0.55368770  0.18657961  0.97447458  1
  O  O31  1  0.75405857  0.40789782  0.77622122  1
  O  O32  1  0.56116729  0.09941166  0.73536202  1
  O  O33  1  0.67692416  0.61097598  0.10907686  1
  O  O34  1  0.23027554  0.05261494  0.25832868  1
  O  O35  1  0.81342039  0.44631230  0.47447458  1
  O  O36  1  0.59210218  0.24594143  0.27622122  1
  O  O37  1  0.90058834  0.43883271  0.23536202  1
  O  O38  1  0.98600275  0.12219344  0.56304257  1
  O  O39  1  0.87780656  0.01399725  0.06304257  1
