# generated using pymatgen
data_S
_symmetry_space_group_name_H-M   'P 1'
_cell_length_a   13.61825396
_cell_length_b   14.01928077
_cell_length_c   19.11073674
_cell_angle_alpha   108.77939699
_cell_angle_beta   90.00000000
_cell_angle_gamma   90.00000000
_symmetry_Int_Tables_number   1
_chemical_formula_structural   S
_chemical_formula_sum   S104
_cell_volume   3454.35386533
_cell_formula_units_Z   104
loop_
 _symmetry_equiv_pos_site_id
 _symmetry_equiv_pos_as_xyz
  1  'x, y, z'
loop_
 _atom_site_type_symbol
 _atom_site_label
 _atom_site_symmetry_multiplicity
 _atom_site_fract_x
 _atom_site_fract_y
 _atom_site_fract_z
 _atom_site_occupancy
  S  S0  1  0.19768088  0.64630042  0.26778379  1
  S  S1  1  0.55812202  0.40050507  0.72625500  1
  S  S2  1  0.33692782  0.70873308  0.88154141  1
  S  S3  1  0.32575379  0.04042026  0.76029431  1
  S  S4  1  0.70033448  0.77513819  0.37986443  1
  S  S5  1  0.55914339  0.26339561  0.73697184  1
  S  S6  1  0.35037477  0.20701389  0.10567452  1
  S  S7  1  0.65939053  0.07976976  0.86999792  1
  S  S8  1  0.39160709  0.24334965  0.01324283  1
  S  S9  1  0.78691875  0.53469920  0.47135786  1
  S  S10  1  0.95490818  0.37957146  0.90969496  1
  S  S11  1  0.20479139  0.53488775  0.75114230  1
  S  S12  1  0.36954715  0.09403899  0.55885661  1
  S  S13  1  0.17424621  0.04042026  0.26029431  1
  S  S14  1  0.99458255  0.33231573  0.99339051  1
  S  S15  1  0.04509182  0.62042854  0.09030504  1
  S  S16  1  0.40126799  0.92552661  0.78221648  1
  S  S17  1  0.96195620  0.27492772  0.34897735  1
  S  S18  1  0.29966552  0.22486181  0.62013557  1
  S  S19  1  0.86954715  0.90596101  0.94114339  1
  S  S20  1  0.05812202  0.59949493  0.77374500  1
  S  S21  1  0.05914339  0.73660439  0.76302816  1
  S  S22  1  0.82067060  0.99744807  0.26011956  1
  S  S23  1  0.45490818  0.62042854  0.59030504  1
  S  S24  1  0.32067060  0.00255193  0.23988044  1
  S  S25  1  0.89160709  0.75665035  0.48675717  1
  S  S26  1  0.53804380  0.27492772  0.84897735  1
  S  S27  1  0.67932940  0.99744807  0.76011956  1
  S  S28  1  0.84060947  0.07976976  0.36999792  1
  S  S29  1  0.94085661  0.26339561  0.23697184  1
  S  S30  1  0.30231912  0.64630042  0.76778379  1
  S  S31  1  0.40731481  0.10527686  0.45677989  1
  S  S32  1  0.54509182  0.37957146  0.40969496  1
  S  S33  1  0.19675957  0.31655514  0.86996610  1
  S  S34  1  0.10468166  0.94289985  0.39360774  1
  S  S35  1  0.22440741  0.45273851  0.41943964  1
  S  S36  1  0.90126799  0.07447339  0.71778352  1
  S  S37  1  0.91705802  0.60393221  0.45746638  1
  S  S38  1  0.33087015  0.76808866  0.11784520  1
  S  S39  1  0.82575379  0.95957974  0.73970569  1
  S  S40  1  0.14962523  0.20701389  0.60567452  1
  S  S41  1  0.07126650  0.34317797  0.82615398  1
  S  S42  1  0.20033448  0.22486181  0.12013557  1
  S  S43  1  0.67424621  0.95957974  0.23970569  1
  S  S44  1  0.69768088  0.35369958  0.23221621  1
  S  S45  1  0.71308125  0.53469920  0.97135786  1
  S  S46  1  0.60839291  0.75665035  0.98675717  1
  S  S47  1  0.46195620  0.72507228  0.15102265  1
  S  S48  1  0.03804380  0.72507228  0.65102265  1
  S  S49  1  0.92873350  0.65682203  0.17384602  1
  S  S50  1  0.69675957  0.68344486  0.63003390  1
  S  S51  1  0.16307218  0.70873308  0.38154141  1
  S  S52  1  0.16912985  0.76808866  0.61784520  1
  S  S53  1  0.15939053  0.92023024  0.63000208  1
  S  S54  1  0.09873201  0.92552661  0.28221648  1
  S  S55  1  0.85037477  0.79298611  0.39432548  1
  S  S56  1  0.50541745  0.33231573  0.49339051  1
  S  S57  1  0.96012025  0.17770206  0.96840251  1
  S  S58  1  0.79520861  0.46511225  0.24885770  1
  S  S59  1  0.60468166  0.05710015  0.10639226  1
  S  S60  1  0.57126650  0.65682203  0.67384602  1
  S  S61  1  0.28323025  0.85247326  0.91066786  1
  S  S62  1  0.77559259  0.54726149  0.58056036  1
  S  S63  1  0.66307218  0.29126692  0.11845859  1
  S  S64  1  0.59268519  0.89472314  0.54322011  1
  S  S65  1  0.44187798  0.59949493  0.27374500  1
  S  S66  1  0.83087015  0.23191134  0.38215480  1
  S  S67  1  0.21676975  0.85247326  0.41066786  1
  S  S68  1  0.94187798  0.40050507  0.22625500  1
  S  S69  1  0.72440741  0.54726149  0.08056036  1
  S  S70  1  0.71676975  0.14752674  0.08933214  1
  S  S71  1  0.00541745  0.66768427  0.00660949  1
  S  S72  1  0.46012025  0.82229794  0.53159749  1
  S  S73  1  0.28691875  0.46530080  0.02864214  1
  S  S74  1  0.03987975  0.82229794  0.03159749  1
  S  S75  1  0.44085661  0.73660439  0.26302816  1
  S  S76  1  0.21308125  0.46530080  0.52864214  1
  S  S77  1  0.41705802  0.39606779  0.04253362  1
  S  S78  1  0.42873350  0.34317797  0.32615398  1
  S  S79  1  0.80324043  0.68344486  0.13003390  1
  S  S80  1  0.09268519  0.10527686  0.95677989  1
  S  S81  1  0.64962523  0.79298611  0.89432548  1
  S  S82  1  0.10839291  0.24334965  0.51324283  1
  S  S83  1  0.30324043  0.31655514  0.36996610  1
  S  S84  1  0.63045285  0.90596101  0.44114339  1
  S  S85  1  0.80231912  0.35369958  0.73221621  1
  S  S86  1  0.34060947  0.92023024  0.13000208  1
  S  S87  1  0.53987975  0.17770206  0.46840251  1
  S  S88  1  0.29520861  0.53488775  0.25114230  1
  S  S89  1  0.27559259  0.45273851  0.91943964  1
  S  S90  1  0.13045285  0.09403899  0.05885661  1
  S  S91  1  0.90731481  0.89472314  0.04322011  1
  S  S92  1  0.17932940  0.00255193  0.73988044  1
  S  S93  1  0.83692782  0.29126692  0.61845859  1
  S  S94  1  0.78323025  0.14752674  0.58933214  1
  S  S95  1  0.89531834  0.05710015  0.60639226  1
  S  S96  1  0.66912985  0.23191134  0.88215480  1
  S  S97  1  0.70479139  0.46511225  0.74885770  1
  S  S98  1  0.39531834  0.94289985  0.89360774  1
  S  S99  1  0.58294198  0.60393221  0.95746638  1
  S  S100  1  0.59873201  0.07447339  0.21778352  1
  S  S101  1  0.79966552  0.77513819  0.87986443  1
  S  S102  1  0.08294198  0.39606779  0.54253362  1
  S  S103  1  0.49458255  0.66768427  0.50660949  1
