# generated using pymatgen
data_V2Cu3O8
_symmetry_space_group_name_H-M   'P 1'
_cell_length_a   6.29153146
_cell_length_b   6.65809564
_cell_length_c   8.03949043
_cell_angle_alpha   90.00000000
_cell_angle_beta   90.00000000
_cell_angle_gamma   108.91539109
_symmetry_Int_Tables_number   1
_chemical_formula_structural   V2Cu3O8
_chemical_formula_sum   'V4 Cu6 O16'
_cell_volume   318.58497239
_cell_formula_units_Z   2
loop_
 _symmetry_equiv_pos_site_id
 _symmetry_equiv_pos_as_xyz
  1  'x, y, z'
loop_
 _atom_site_type_symbol
 _atom_site_label
 _atom_site_symmetry_multiplicity
 _atom_site_fract_x
 _atom_site_fract_y
 _atom_site_fract_z
 _atom_site_occupancy
  V  V0  1  0.74881717  0.85233245  0.38396700  1
  V  V1  1  0.74881717  0.35233245  0.11603300  1
  V  V2  1  0.25118283  0.64766755  0.88396700  1
  V  V3  1  0.25118283  0.14766755  0.61603300  1
  Cu  Cu4  1  0.26444936  0.39257031  0.24147961  1
  Cu  Cu5  1  0.00000000  0.00000000  0.00000000  1
  Cu  Cu6  1  0.26444936  0.89257031  0.25852039  1
  Cu  Cu7  1  0.73555064  0.10742969  0.74147961  1
  Cu  Cu8  1  0.73555064  0.60742969  0.75852039  1
  Cu  Cu9  1  0.00000000  0.50000000  0.50000000  1
  O  O10  1  0.77191465  0.14202352  0.98658342  1
  O  O11  1  0.24735774  0.93701808  0.49344053  1
  O  O12  1  0.50364588  0.23389387  0.72332694  1
  O  O13  1  0.22808535  0.35797648  0.48658342  1
  O  O14  1  0.97679226  0.94947252  0.23563325  1
  O  O15  1  0.75264226  0.56298192  0.99344053  1
  O  O16  1  0.49635412  0.76610613  0.27667306  1
  O  O17  1  0.24735774  0.43701808  0.00655947  1
  O  O18  1  0.22808535  0.85797648  0.01341658  1
  O  O19  1  0.49635412  0.26610613  0.22332694  1
  O  O20  1  0.77191465  0.64202352  0.51341658  1
  O  O21  1  0.75264226  0.06298192  0.50655947  1
  O  O22  1  0.50364588  0.73389387  0.77667306  1
  O  O23  1  0.97679226  0.44947252  0.26436675  1
  O  O24  1  0.02320774  0.55052748  0.73563325  1
  O  O25  1  0.02320774  0.05052748  0.76436675  1
