# generated using pymatgen
data_SiO2
_symmetry_space_group_name_H-M   'P 1'
_cell_length_a   8.70571002
_cell_length_b   8.70571002
_cell_length_c   27.85680924
_cell_angle_alpha   90.00000000
_cell_angle_beta   90.00000000
_cell_angle_gamma   90.00000000
_symmetry_Int_Tables_number   1
_chemical_formula_structural   SiO2
_chemical_formula_sum   'Si40 O80'
_cell_volume   2111.25049475
_cell_formula_units_Z   40
loop_
 _symmetry_equiv_pos_site_id
 _symmetry_equiv_pos_as_xyz
  1  'x, y, z'
loop_
 _atom_site_type_symbol
 _atom_site_label
 _atom_site_symmetry_multiplicity
 _atom_site_fract_x
 _atom_site_fract_y
 _atom_site_fract_z
 _atom_site_occupancy
  Si  Si0  1  0.99574847  0.81700060  0.06987038  1
  Si  Si1  1  0.68299940  0.99574847  0.06987038  1
  Si  Si2  1  0.81700060  0.50425153  0.06987038  1
  Si  Si3  1  0.99574847  0.68299940  0.43012962  1
  Si  Si4  1  0.50425153  0.81700060  0.43012962  1
  Si  Si5  1  0.50425153  0.68299940  0.06987038  1
  Si  Si6  1  0.81700060  0.99574847  0.43012962  1
  Si  Si7  1  0.68299940  0.50425153  0.43012962  1
  Si  Si8  1  0.00425153  0.18299940  0.93012962  1
  Si  Si9  1  0.31700060  0.00425153  0.93012962  1
  Si  Si10  1  0.18299940  0.49574847  0.93012962  1
  Si  Si11  1  0.00425153  0.31700060  0.56987038  1
  Si  Si12  1  0.49574847  0.18299940  0.56987038  1
  Si  Si13  1  0.49574847  0.31700060  0.93012962  1
  Si  Si14  1  0.18299940  0.00425153  0.56987038  1
  Si  Si15  1  0.31700060  0.49574847  0.56987038  1
  Si  Si16  1  0.81843550  0.50370277  0.18108866  1
  Si  Si17  1  0.99629723  0.81843550  0.18108866  1
  Si  Si18  1  0.50370277  0.68156450  0.18108866  1
  Si  Si19  1  0.81843550  0.99629723  0.31891134  1
  Si  Si20  1  0.68156450  0.50370277  0.31891134  1
  Si  Si21  1  0.68156450  0.99629723  0.18108866  1
  Si  Si22  1  0.50370277  0.81843550  0.31891134  1
  Si  Si23  1  0.99629723  0.68156450  0.31891134  1
  Si  Si24  1  0.18156450  0.49629723  0.81891134  1
  Si  Si25  1  0.00370277  0.18156450  0.81891134  1
  Si  Si26  1  0.49629723  0.31843550  0.81891134  1
  Si  Si27  1  0.18156450  0.00370277  0.68108866  1
  Si  Si28  1  0.31843550  0.49629723  0.68108866  1
  Si  Si29  1  0.31843550  0.00370277  0.81891134  1
  Si  Si30  1  0.49629723  0.18156450  0.68108866  1
  Si  Si31  1  0.00370277  0.31843550  0.68108866  1
  Si  Si32  1  0.25000000  0.75000000  0.00000000  1
  Si  Si33  1  0.75000000  0.25000000  0.00000000  1
  Si  Si34  1  0.25000000  0.75000000  0.50000000  1
  Si  Si35  1  0.75000000  0.25000000  0.50000000  1
  Si  Si36  1  0.25000000  0.75000000  0.25000000  1
  Si  Si37  1  0.75000000  0.25000000  0.25000000  1
  Si  Si38  1  0.75000000  0.25000000  0.75000000  1
  Si  Si39  1  0.25000000  0.75000000  0.75000000  1
  O  O40  1  0.13821783  0.85403241  0.03406204  1
  O  O41  1  0.64596759  0.13821783  0.03406204  1
  O  O42  1  0.85403241  0.36178217  0.03406204  1
  O  O43  1  0.13821783  0.64596759  0.46593796  1
  O  O44  1  0.36178217  0.85403241  0.46593796  1
  O  O45  1  0.36178217  0.64596759  0.03406204  1
  O  O46  1  0.85403241  0.13821783  0.46593796  1
  O  O47  1  0.64596759  0.36178217  0.46593796  1
  O  O48  1  0.86178217  0.14596759  0.96593796  1
  O  O49  1  0.35403241  0.86178217  0.96593796  1
  O  O50  1  0.14596759  0.63821783  0.96593796  1
  O  O51  1  0.86178217  0.35403241  0.53406204  1
  O  O52  1  0.63821783  0.14596759  0.53406204  1
  O  O53  1  0.63821783  0.35403241  0.96593796  1
  O  O54  1  0.14596759  0.86178217  0.53406204  1
  O  O55  1  0.35403241  0.63821783  0.53406204  1
  O  O56  1  0.93787656  0.64223514  0.05954553  1
  O  O57  1  0.85776486  0.93787656  0.05954553  1
  O  O58  1  0.64223514  0.56212344  0.05954553  1
  O  O59  1  0.93787656  0.85776486  0.44045447  1
  O  O60  1  0.56212344  0.64223514  0.44045447  1
  O  O61  1  0.56212344  0.85776486  0.05954553  1
  O  O62  1  0.64223514  0.93787656  0.44045447  1
  O  O63  1  0.85776486  0.56212344  0.44045447  1
  O  O64  1  0.06212344  0.35776486  0.94045447  1
  O  O65  1  0.14223514  0.06212344  0.94045447  1
  O  O66  1  0.35776486  0.43787656  0.94045447  1
  O  O67  1  0.06212344  0.14223514  0.55954553  1
  O  O68  1  0.43787656  0.35776486  0.55954553  1
  O  O69  1  0.43787656  0.14223514  0.94045447  1
  O  O70  1  0.35776486  0.06212344  0.55954553  1
  O  O71  1  0.14223514  0.43787656  0.55954553  1
  O  O72  1  0.05177710  0.83318714  0.12544353  1
  O  O73  1  0.66681286  0.05177710  0.12544353  1
  O  O74  1  0.83318714  0.44822290  0.12544353  1
  O  O75  1  0.05177710  0.66681286  0.37455647  1
  O  O76  1  0.44822290  0.83318714  0.37455647  1
  O  O77  1  0.44822290  0.66681286  0.12544353  1
  O  O78  1  0.83318714  0.05177710  0.37455647  1
  O  O79  1  0.66681286  0.44822290  0.37455647  1
  O  O80  1  0.94822290  0.16681286  0.87455647  1
  O  O81  1  0.33318714  0.94822290  0.87455647  1
  O  O82  1  0.16681286  0.55177710  0.87455647  1
  O  O83  1  0.94822290  0.33318714  0.62544353  1
  O  O84  1  0.55177710  0.16681286  0.62544353  1
  O  O85  1  0.55177710  0.33318714  0.87455647  1
  O  O86  1  0.16681286  0.94822290  0.62544353  1
  O  O87  1  0.33318714  0.55177710  0.62544353  1
  O  O88  1  0.35913681  0.85755404  0.28399345  1
  O  O89  1  0.64244596  0.35913681  0.28399345  1
  O  O90  1  0.85755404  0.14086319  0.28399345  1
  O  O91  1  0.35913681  0.64244596  0.21600655  1
  O  O92  1  0.14086319  0.85755404  0.21600655  1
  O  O93  1  0.14086319  0.64244596  0.28399345  1
  O  O94  1  0.85755404  0.35913681  0.21600655  1
  O  O95  1  0.64244596  0.14086319  0.21600655  1
  O  O96  1  0.64086319  0.14244596  0.71600655  1
  O  O97  1  0.35755404  0.64086319  0.71600655  1
  O  O98  1  0.14244596  0.85913681  0.71600655  1
  O  O99  1  0.64086319  0.35755404  0.78399345  1
  O  O100  1  0.85913681  0.14244596  0.78399345  1
  O  O101  1  0.85913681  0.35755404  0.71600655  1
  O  O102  1  0.14244596  0.64086319  0.78399345  1
  O  O103  1  0.35755404  0.85913681  0.78399345  1
  O  O104  1  0.93816621  0.64323836  0.19171975  1
  O  O105  1  0.85676164  0.93816621  0.19171975  1
  O  O106  1  0.64323836  0.56183379  0.19171975  1
  O  O107  1  0.93816621  0.85676164  0.30828025  1
  O  O108  1  0.56183379  0.64323836  0.30828025  1
  O  O109  1  0.56183379  0.85676164  0.19171975  1
  O  O110  1  0.64323836  0.93816621  0.30828025  1
  O  O111  1  0.85676164  0.56183379  0.30828025  1
  O  O112  1  0.06183379  0.35676164  0.80828025  1
  O  O113  1  0.14323836  0.06183379  0.80828025  1
  O  O114  1  0.35676164  0.43816621  0.80828025  1
  O  O115  1  0.06183379  0.14323836  0.69171975  1
  O  O116  1  0.43816621  0.35676164  0.69171975  1
  O  O117  1  0.43816621  0.14323836  0.80828025  1
  O  O118  1  0.35676164  0.06183379  0.69171975  1
  O  O119  1  0.14323836  0.43816621  0.69171975  1
