# generated using pymatgen
data_NaCoPO4
_symmetry_space_group_name_H-M   'P 1'
_cell_length_a   5.86134655
_cell_length_b   10.03430603
_cell_length_c   11.14787435
_cell_angle_alpha   90.00000000
_cell_angle_beta   90.00000000
_cell_angle_gamma   92.81280451
_symmetry_Int_Tables_number   1
_chemical_formula_structural   NaCoPO4
_chemical_formula_sum   'Na8 Co8 P8 O32'
_cell_volume   654.86721912
_cell_formula_units_Z   8
loop_
 _symmetry_equiv_pos_site_id
 _symmetry_equiv_pos_as_xyz
  1  'x, y, z'
loop_
 _atom_site_type_symbol
 _atom_site_label
 _atom_site_symmetry_multiplicity
 _atom_site_fract_x
 _atom_site_fract_y
 _atom_site_fract_z
 _atom_site_occupancy
  Na  Na0  1  0.87474755  0.62459343  0.63204812  1
  Na  Na1  1  0.12525245  0.37540657  0.36795188  1
  Na  Na2  1  0.62064626  0.86885946  0.15349269  1
  Na  Na3  1  0.62064626  0.36885946  0.34650731  1
  Na  Na4  1  0.37935374  0.63114054  0.65349269  1
  Na  Na5  1  0.87474755  0.12459343  0.86795188  1
  Na  Na6  1  0.37935374  0.13114054  0.84650731  1
  Na  Na7  1  0.12525245  0.87540657  0.13204812  1
  Co  Co8  1  0.65243410  0.00070233  0.62194699  1
  Co  Co9  1  0.34756590  0.99929767  0.37805301  1
  Co  Co10  1  0.88975913  0.26620690  0.10453446  1
  Co  Co11  1  0.88975913  0.76620690  0.39546554  1
  Co  Co12  1  0.65243410  0.50070233  0.87805301  1
  Co  Co13  1  0.34756590  0.49929767  0.12194699  1
  Co  Co14  1  0.11024087  0.23379310  0.60453446  1
  Co  Co15  1  0.11024087  0.73379310  0.89546554  1
  P  P16  1  0.12473270  0.91404618  0.63671127  1
  P  P17  1  0.87526730  0.58595382  0.13671127  1
  P  P18  1  0.62441708  0.32799738  0.61502722  1
  P  P19  1  0.87526730  0.08595382  0.36328873  1
  P  P20  1  0.37558292  0.67200262  0.38497278  1
  P  P21  1  0.62441708  0.82799738  0.88497278  1
  P  P22  1  0.12473270  0.41404618  0.86328873  1
  P  P23  1  0.37558292  0.17200262  0.11502722  1
  O  O24  1  0.61774968  0.94901068  0.79821759  1
  O  O25  1  0.09439312  0.12346757  0.43960962  1
  O  O26  1  0.84481509  0.34664685  0.53525524  1
  O  O27  1  0.65739565  0.07568575  0.44315577  1
  O  O28  1  0.09439312  0.62346757  0.06039038  1
  O  O29  1  0.84883014  0.69792147  0.22868728  1
  O  O30  1  0.08820209  0.55123024  0.80294334  1
  O  O31  1  0.34260435  0.42431425  0.94315577  1
  O  O32  1  0.36464584  0.30528235  0.18669137  1
  O  O33  1  0.40762974  0.32609087  0.53303981  1
  O  O34  1  0.91179791  0.44876976  0.19705666  1
  O  O35  1  0.36464584  0.80528235  0.31330863  1
  O  O36  1  0.63535416  0.69471765  0.81330863  1
  O  O37  1  0.90560688  0.87653243  0.56039038  1
  O  O38  1  0.38225032  0.05098932  0.20178241  1
  O  O39  1  0.15116986  0.30207853  0.77131272  1
  O  O40  1  0.40762974  0.82609087  0.96696019  1
  O  O41  1  0.63535416  0.19471765  0.68669137  1
  O  O42  1  0.61774968  0.44901068  0.70178241  1
  O  O43  1  0.08820209  0.05123024  0.69705666  1
  O  O44  1  0.59237026  0.67390913  0.46696019  1
  O  O45  1  0.90560688  0.37653243  0.93960962  1
  O  O46  1  0.91179791  0.94876976  0.30294334  1
  O  O47  1  0.15518491  0.15335315  0.03525524  1
  O  O48  1  0.38225032  0.55098932  0.29821759  1
  O  O49  1  0.15518491  0.65335315  0.46474476  1
  O  O50  1  0.59237026  0.17390913  0.03303981  1
  O  O51  1  0.84883014  0.19792147  0.27131272  1
  O  O52  1  0.65739565  0.57568575  0.05684423  1
  O  O53  1  0.84481509  0.84664685  0.96474476  1
  O  O54  1  0.34260435  0.92431425  0.55684423  1
  O  O55  1  0.15116986  0.80207853  0.72868728  1
