# generated using pymatgen
data_Ni2GeP
_symmetry_space_group_name_H-M   'P 1'
_cell_length_a   5.01047145
_cell_length_b   6.00461824
_cell_length_c   14.07701043
_cell_angle_alpha   90.00000000
_cell_angle_beta   90.00000000
_cell_angle_gamma   90.00000000
_symmetry_Int_Tables_number   1
_chemical_formula_structural   Ni2GeP
_chemical_formula_sum   'Ni16 Ge8 P8'
_cell_volume   423.52048899
_cell_formula_units_Z   8
loop_
 _symmetry_equiv_pos_site_id
 _symmetry_equiv_pos_as_xyz
  1  'x, y, z'
loop_
 _atom_site_type_symbol
 _atom_site_label
 _atom_site_symmetry_multiplicity
 _atom_site_fract_x
 _atom_site_fract_y
 _atom_site_fract_z
 _atom_site_occupancy
  Ni  Ni0  1  0.99118223  0.79212192  0.57393750  1
  Ni  Ni1  1  0.49118223  0.70787808  0.57393750  1
  Ni  Ni2  1  0.49334180  0.21834943  0.19130920  1
  Ni  Ni3  1  0.50665820  0.28165057  0.69130920  1
  Ni  Ni4  1  0.49118223  0.20787808  0.92606250  1
  Ni  Ni5  1  0.50665820  0.78165057  0.80869080  1
  Ni  Ni6  1  0.00665820  0.71834943  0.80869080  1
  Ni  Ni7  1  0.99118223  0.29212192  0.92606250  1
  Ni  Ni8  1  0.00881777  0.70787808  0.07393750  1
  Ni  Ni9  1  0.99334180  0.28165057  0.19130920  1
  Ni  Ni10  1  0.50881777  0.29212192  0.42606250  1
  Ni  Ni11  1  0.50881777  0.79212192  0.07393750  1
  Ni  Ni12  1  0.99334180  0.78165057  0.30869080  1
  Ni  Ni13  1  0.49334180  0.71834943  0.30869080  1
  Ni  Ni14  1  0.00665820  0.21834943  0.69130920  1
  Ni  Ni15  1  0.00881777  0.20787808  0.42606250  1
  Ge  Ge16  1  0.70227999  0.40709384  0.05981876  1
  Ge  Ge17  1  0.79772001  0.90709384  0.94018124  1
  Ge  Ge18  1  0.79772001  0.40709384  0.55981876  1
  Ge  Ge19  1  0.70227999  0.90709384  0.44018124  1
  Ge  Ge20  1  0.20227999  0.09290616  0.05981876  1
  Ge  Ge21  1  0.29772001  0.09290616  0.55981876  1
  Ge  Ge22  1  0.29772001  0.59290616  0.94018124  1
  Ge  Ge23  1  0.20227999  0.59290616  0.44018124  1
  P  P24  1  0.29238641  0.06690981  0.31644422  1
  P  P25  1  0.70761359  0.43309019  0.81644422  1
  P  P26  1  0.79238641  0.43309019  0.31644422  1
  P  P27  1  0.79238641  0.93309019  0.18355578  1
  P  P28  1  0.20761359  0.56690981  0.68355578  1
  P  P29  1  0.29238641  0.56690981  0.18355578  1
  P  P30  1  0.20761359  0.06690981  0.81644422  1
  P  P31  1  0.70761359  0.93309019  0.68355578  1
