# generated using pymatgen
data_CaCu(Si2O5)2
_symmetry_space_group_name_H-M   'P 1'
_cell_length_a   7.37272823
_cell_length_b   7.37272823
_cell_length_c   15.42744083
_cell_angle_alpha   90.00000000
_cell_angle_beta   90.00000000
_cell_angle_gamma   90.00000000
_symmetry_Int_Tables_number   1
_chemical_formula_structural   CaCu(Si2O5)2
_chemical_formula_sum   'Ca4 Si16 Cu4 O40'
_cell_volume   838.59127645
_cell_formula_units_Z   4
loop_
 _symmetry_equiv_pos_site_id
 _symmetry_equiv_pos_as_xyz
  1  'x, y, z'
loop_
 _atom_site_type_symbol
 _atom_site_label
 _atom_site_symmetry_multiplicity
 _atom_site_fract_x
 _atom_site_fract_y
 _atom_site_fract_z
 _atom_site_occupancy
  O  O0  1  0.00495245  0.35106323  0.58266351  1
  O  O1  1  0.49504755  0.14893677  0.58266351  1
  O  O2  1  0.85106323  0.50495245  0.91733649  1
  O  O3  1  0.35106323  0.49504755  0.58266351  1
  O  O4  1  0.14893677  0.00495245  0.58266351  1
  O  O5  1  0.99504755  0.85106323  0.91733649  1
  O  O6  1  0.50495245  0.64893677  0.91733649  1
  O  O7  1  0.64893677  0.99504755  0.91733649  1
  O  O8  1  0.99504755  0.64893677  0.41733649  1
  O  O9  1  0.50495245  0.85106323  0.41733649  1
  O  O10  1  0.14893677  0.49504755  0.08266351  1
  O  O11  1  0.64893677  0.50495245  0.41733649  1
  O  O12  1  0.85106323  0.99504755  0.41733649  1
  O  O13  1  0.00495245  0.14893677  0.08266351  1
  O  O14  1  0.49504755  0.35106323  0.08266351  1
  O  O15  1  0.99720264  0.29350561  0.37307831  1
  O  O16  1  0.35106323  0.00495245  0.08266351  1
  O  O17  1  0.49720264  0.79350561  0.62692169  1
  O  O18  1  0.20649439  0.50279736  0.87307831  1
  O  O19  1  0.70649439  0.49720264  0.62692169  1
  O  O20  1  0.79350561  0.00279736  0.62692169  1
  O  O21  1  0.99720264  0.20649439  0.87307831  1
  O  O22  1  0.50279736  0.29350561  0.87307831  1
  O  O23  1  0.29350561  0.99720264  0.87307831  1
  O  O24  1  0.46016550  0.96016550  0.25000000  1
  O  O25  1  0.53983450  0.46016550  0.25000000  1
  O  O26  1  0.96016550  0.03983450  0.25000000  1
  O  O27  1  0.03983450  0.53983450  0.25000000  1
  O  O28  1  0.53983450  0.03983450  0.75000000  1
  O  O29  1  0.46016550  0.53983450  0.75000000  1
  O  O30  1  0.03983450  0.96016550  0.75000000  1
  O  O31  1  0.96016550  0.46016550  0.75000000  1
  O  O32  1  0.70649439  0.00279736  0.12692169  1
  O  O33  1  0.49720264  0.70649439  0.12692169  1
  O  O34  1  0.00279736  0.79350561  0.12692169  1
  O  O35  1  0.20649439  0.99720264  0.37307831  1
  O  O36  1  0.29350561  0.50279736  0.37307831  1
  O  O37  1  0.79350561  0.49720264  0.12692169  1
  O  O38  1  0.50279736  0.20649439  0.37307831  1
  O  O39  1  0.00279736  0.70649439  0.62692169  1
  Si  Si40  1  0.92607616  0.50188369  0.64797204  1
  Si  Si41  1  0.57392384  0.99811631  0.64797204  1
  Si  Si42  1  0.00188369  0.42607616  0.85202796  1
  Si  Si43  1  0.50188369  0.57392384  0.64797204  1
  Si  Si44  1  0.99811631  0.92607616  0.64797204  1
  Si  Si45  1  0.07392384  0.00188369  0.85202796  1
  Si  Si46  1  0.42607616  0.49811631  0.85202796  1
  Si  Si47  1  0.49811631  0.07392384  0.85202796  1
  Si  Si48  1  0.07392384  0.49811631  0.35202796  1
  Si  Si49  1  0.42607616  0.00188369  0.35202796  1
  Si  Si50  1  0.99811631  0.57392384  0.14797204  1
  Si  Si51  1  0.49811631  0.42607616  0.35202796  1
  Si  Si52  1  0.00188369  0.07392384  0.35202796  1
  Si  Si53  1  0.92607616  0.99811631  0.14797204  1
  Si  Si54  1  0.57392384  0.50188369  0.14797204  1
  Si  Si55  1  0.50188369  0.92607616  0.14797204  1
  Ca  Ca56  1  0.25000000  0.75000000  0.50000000  1
  Ca  Ca57  1  0.75000000  0.25000000  0.50000000  1
  Ca  Ca58  1  0.75000000  0.25000000  0.00000000  1
  Ca  Ca59  1  0.25000000  0.75000000  0.00000000  1
  Cu  Cu60  1  0.25000000  0.25000000  0.58391860  1
  Cu  Cu61  1  0.75000000  0.75000000  0.91608140  1
  Cu  Cu62  1  0.75000000  0.75000000  0.41608140  1
  Cu  Cu63  1  0.25000000  0.25000000  0.08391860  1
