# generated using pymatgen
data_V2PbO6
_symmetry_space_group_name_H-M   'P 1'
_cell_length_a   3.67847875
_cell_length_b   9.96348686
_cell_length_c   13.08921256
_cell_angle_alpha   90.00000000
_cell_angle_beta   90.00000000
_cell_angle_gamma   90.00000000
_symmetry_Int_Tables_number   1
_chemical_formula_structural   V2PbO6
_chemical_formula_sum   'V8 Pb4 O24'
_cell_volume   479.72585365
_cell_formula_units_Z   4
loop_
 _symmetry_equiv_pos_site_id
 _symmetry_equiv_pos_as_xyz
  1  'x, y, z'
loop_
 _atom_site_type_symbol
 _atom_site_label
 _atom_site_symmetry_multiplicity
 _atom_site_fract_x
 _atom_site_fract_y
 _atom_site_fract_z
 _atom_site_occupancy
  V  V0  1  0.25000000  0.24078407  0.40926404  1
  V  V1  1  0.25000000  0.00421633  0.62725670  1
  V  V2  1  0.75000000  0.99578367  0.37274330  1
  V  V3  1  0.75000000  0.75921593  0.59073596  1
  V  V4  1  0.75000000  0.25921593  0.90926404  1
  V  V5  1  0.25000000  0.50421633  0.87274330  1
  V  V6  1  0.25000000  0.74078407  0.09073596  1
  V  V7  1  0.75000000  0.49578367  0.12725670  1
  Pb  Pb8  1  0.75000000  0.86988378  0.88070867  1
  Pb  Pb9  1  0.25000000  0.63011622  0.38070867  1
  Pb  Pb10  1  0.75000000  0.36988378  0.61929133  1
  Pb  Pb11  1  0.25000000  0.13011622  0.11929133  1
  O  O12  1  0.75000000  0.02287328  0.24631628  1
  O  O13  1  0.75000000  0.19116681  0.43139106  1
  O  O14  1  0.75000000  0.60729862  0.52419733  1
  O  O15  1  0.75000000  0.46711407  0.91007563  1
  O  O16  1  0.75000000  0.69116681  0.06860894  1
  O  O17  1  0.75000000  0.82663658  0.39549100  1
  O  O18  1  0.25000000  0.30883319  0.93139106  1
  O  O19  1  0.25000000  0.97712672  0.75368372  1
  O  O20  1  0.75000000  0.72171997  0.71267547  1
  O  O21  1  0.75000000  0.10729862  0.97580267  1
  O  O22  1  0.25000000  0.39270138  0.47580267  1
  O  O23  1  0.75000000  0.22171997  0.78732453  1
  O  O24  1  0.25000000  0.47712672  0.74631628  1
  O  O25  1  0.25000000  0.80883319  0.56860894  1
  O  O26  1  0.25000000  0.89270138  0.02419733  1
  O  O27  1  0.25000000  0.77828003  0.21267547  1
  O  O28  1  0.25000000  0.67336342  0.89549100  1
  O  O29  1  0.75000000  0.52287328  0.25368372  1
  O  O30  1  0.25000000  0.27828003  0.28732453  1
  O  O31  1  0.75000000  0.32663658  0.10450900  1
  O  O32  1  0.25000000  0.53288593  0.08992437  1
  O  O33  1  0.75000000  0.96711407  0.58992437  1
  O  O34  1  0.25000000  0.17336342  0.60450900  1
  O  O35  1  0.25000000  0.03288593  0.41007563  1
