# generated using pymatgen
data_Y2BeO4
_symmetry_space_group_name_H-M   'P 1'
_cell_length_a   3.56306662
_cell_length_b   10.02650022
_cell_length_c   10.47543971
_cell_angle_alpha   90.00000000
_cell_angle_beta   90.00000000
_cell_angle_gamma   90.00000000
_symmetry_Int_Tables_number   1
_chemical_formula_structural   Y2BeO4
_chemical_formula_sum   'Y8 Be4 O16'
_cell_volume   374.23600809
_cell_formula_units_Z   4
loop_
 _symmetry_equiv_pos_site_id
 _symmetry_equiv_pos_as_xyz
  1  'x, y, z'
loop_
 _atom_site_type_symbol
 _atom_site_label
 _atom_site_symmetry_multiplicity
 _atom_site_fract_x
 _atom_site_fract_y
 _atom_site_fract_z
 _atom_site_occupancy
  Be  Be0  1  0.25000000  0.12585954  0.69314839  1
  Be  Be1  1  0.75000000  0.87414046  0.30685161  1
  Be  Be2  1  0.75000000  0.62585954  0.80685161  1
  Be  Be3  1  0.25000000  0.37414046  0.19314839  1
  O  O4  1  0.25000000  0.15048341  0.54535308  1
  O  O5  1  0.75000000  0.84951659  0.45464692  1
  O  O6  1  0.75000000  0.65048341  0.95464692  1
  O  O7  1  0.25000000  0.34951659  0.04535308  1
  O  O8  1  0.25000000  0.24588478  0.27769696  1
  O  O9  1  0.75000000  0.75411522  0.72230304  1
  O  O10  1  0.75000000  0.74588478  0.22230304  1
  O  O11  1  0.25000000  0.25411522  0.77769696  1
  O  O12  1  0.75000000  0.01691279  0.25231666  1
  O  O13  1  0.25000000  0.98308721  0.74768334  1
  O  O14  1  0.25000000  0.51691279  0.24768334  1
  O  O15  1  0.75000000  0.48308721  0.75231666  1
  O  O16  1  0.75000000  0.11363464  0.98658427  1
  O  O17  1  0.25000000  0.88636536  0.01341573  1
  O  O18  1  0.25000000  0.61363464  0.51341573  1
  O  O19  1  0.75000000  0.38636536  0.48658427  1
  Y  Y20  1  0.25000000  0.41218929  0.61744001  1
  Y  Y21  1  0.75000000  0.58781071  0.38255999  1
  Y  Y22  1  0.75000000  0.91218929  0.88255999  1
  Y  Y23  1  0.25000000  0.08781071  0.11744001  1
  Y  Y24  1  0.25000000  0.82062412  0.59037795  1
  Y  Y25  1  0.75000000  0.17937588  0.40962205  1
  Y  Y26  1  0.75000000  0.32062412  0.90962205  1
  Y  Y27  1  0.25000000  0.67937588  0.09037795  1
