# generated using pymatgen
data_Mn(GaS2)2
_symmetry_space_group_name_H-M   'P 1'
_cell_length_a   6.44441907
_cell_length_b   12.39767278
_cell_length_c   13.06592379
_cell_angle_alpha   115.35019884
_cell_angle_beta   99.04049193
_cell_angle_gamma   100.83049079
_symmetry_Int_Tables_number   1
_chemical_formula_structural   Mn(GaS2)2
_chemical_formula_sum   'Mn6 Ga12 S24'
_cell_volume   892.77784878
_cell_formula_units_Z   6
loop_
 _symmetry_equiv_pos_site_id
 _symmetry_equiv_pos_as_xyz
  1  'x, y, z'
loop_
 _atom_site_type_symbol
 _atom_site_label
 _atom_site_symmetry_multiplicity
 _atom_site_fract_x
 _atom_site_fract_y
 _atom_site_fract_z
 _atom_site_occupancy
  Mn  Mn0  1  0.46359710  0.21641536  0.43399915  1
  Mn  Mn1  1  0.11979084  0.86938891  0.74000030  1
  Mn  Mn2  1  0.53674073  0.78383905  0.56498262  1
  Mn  Mn3  1  0.70532896  0.95688930  0.91244279  1
  Mn  Mn4  1  0.29541901  0.04326454  0.08699687  1
  Mn  Mn5  1  0.87822740  0.12777580  0.25727847  1
  Ga  Ga6  1  0.29342848  0.67196281  0.91935666  1
  Ga  Ga7  1  0.45388017  0.83312664  0.25218109  1
  Ga  Ga8  1  0.30087408  0.41751947  0.25081959  1
  Ga  Ga9  1  0.71039502  0.32880495  0.08044756  1
  Ga  Ga10  1  0.03414449  0.88725469  0.40246785  1
  Ga  Ga11  1  0.12943660  0.24606693  0.91846662  1
  Ga  Ga12  1  0.96997126  0.11560244  0.59969449  1
  Ga  Ga13  1  0.87242598  0.51823990  0.40228931  1
  Ga  Ga14  1  0.13078589  0.48573936  0.59839558  1
  Ga  Ga15  1  0.55094459  0.16621985  0.74856589  1
  Ga  Ga16  1  0.70205407  0.58109984  0.74824675  1
  Ga  Ga17  1  0.87119733  0.75087841  0.08073888  1
  S  S18  1  0.74667321  0.74342451  0.23741424  1
  S  S19  1  0.25723389  0.25653780  0.76445947  1
  S  S20  1  0.42663224  0.41404485  0.60321483  1
  S  S21  1  0.67093060  0.15019276  0.08820348  1
  S  S22  1  0.59610375  0.59103016  0.91816456  1
  S  S23  1  0.07963818  0.05996904  0.91052071  1
  S  S24  1  0.01068352  0.50802678  0.76434164  1
  S  S25  1  0.25610615  0.23860724  0.26377933  1
  S  S26  1  0.82485195  0.32567878  0.91808124  1
  S  S27  1  0.99199359  0.49265178  0.23577105  1
  S  S28  1  0.91705250  0.91174945  0.56906382  1
  S  S29  1  0.92205119  0.93688755  0.08750689  1
  S  S30  1  0.08653580  0.09045444  0.43309217  1
  S  S31  1  0.40480361  0.40688828  0.08069739  1
  S  S32  1  0.33192686  0.84951693  0.91025747  1
  S  S33  1  0.84543625  0.34533356  0.43313826  1
  S  S34  1  0.57065751  0.58464929  0.39913342  1
  S  S35  1  0.49651975  0.97516453  0.73619984  1
  S  S36  1  0.32469688  0.81049439  0.39700564  1
  S  S37  1  0.50894955  0.02475500  0.26466681  1
  S  S38  1  0.74336342  0.76003273  0.73561844  1
  S  S39  1  0.15803677  0.65912297  0.56766133  1
  S  S40  1  0.18033679  0.67514080  0.08176963  1
  S  S41  1  0.67138501  0.18502912  0.60013684  1
