# generated using pymatgen
data_K6Cd4Sn3Se13
_symmetry_space_group_name_H-M   'P 1'
_cell_length_a   10.34080356
_cell_length_b   10.34080356
_cell_length_c   10.34080356
_cell_angle_alpha   94.97985352
_cell_angle_beta   94.97985352
_cell_angle_gamma   94.97985352
_symmetry_Int_Tables_number   1
_chemical_formula_structural   K6Cd4Sn3Se13
_chemical_formula_sum   'K6 Cd4 Sn3 Se13'
_cell_volume   1092.46356393
_cell_formula_units_Z   1
loop_
 _symmetry_equiv_pos_site_id
 _symmetry_equiv_pos_as_xyz
  1  'x, y, z'
loop_
 _atom_site_type_symbol
 _atom_site_label
 _atom_site_symmetry_multiplicity
 _atom_site_fract_x
 _atom_site_fract_y
 _atom_site_fract_z
 _atom_site_occupancy
  K  K0  1  0.36707791  0.79460585  0.36707791  1
  K  K1  1  0.79460585  0.36707791  0.36707791  1
  K  K2  1  0.36707791  0.36707791  0.79460585  1
  K  K3  1  0.99849306  0.99849306  0.57858149  1
  K  K4  1  0.99849306  0.57858149  0.99849306  1
  K  K5  1  0.57858149  0.99849306  0.99849306  1
  Se  Se6  1  0.68309461  0.97253768  0.39055740  1
  Se  Se7  1  0.69007392  0.69007392  0.69007392  1
  Se  Se8  1  0.56823679  0.27910100  0.56823679  1
  Se  Se9  1  0.56823679  0.56823679  0.27910100  1
  Se  Se10  1  0.27910100  0.56823679  0.56823679  1
  Se  Se11  1  0.81089308  0.81089308  0.06970922  1
  Se  Se12  1  0.06970922  0.81089308  0.81089308  1
  Se  Se13  1  0.81089308  0.06970922  0.81089308  1
  Se  Se14  1  0.68309461  0.39055740  0.97253768  1
  Se  Se15  1  0.97253768  0.68309461  0.39055740  1
  Se  Se16  1  0.39055740  0.97253768  0.68309461  1
  Se  Se17  1  0.39055740  0.68309461  0.97253768  1
  Se  Se18  1  0.97253768  0.39055740  0.68309461  1
  Cd  Cd19  1  0.52859055  0.52859055  0.52859055  1
  Cd  Cd20  1  0.63595803  0.63595803  0.93249940  1
  Cd  Cd21  1  0.93249940  0.63595803  0.63595803  1
  Cd  Cd22  1  0.63595803  0.93249940  0.63595803  1
  Sn  Sn23  1  0.75416538  0.29437067  0.75416538  1
  Sn  Sn24  1  0.75416538  0.75416538  0.29437067  1
  Sn  Sn25  1  0.29437067  0.75416538  0.75416538  1
