# generated using pymatgen
data_Er4Si2S3O7
_symmetry_space_group_name_H-M   'P 1'
_cell_length_a   10.67867345
_cell_length_b   10.67867345
_cell_length_c   10.67867344
_cell_angle_alpha   101.14590389
_cell_angle_beta   113.78751759
_cell_angle_gamma   113.78751762
_symmetry_Int_Tables_number   1
_chemical_formula_structural   Er4Si2S3O7
_chemical_formula_sum   'Er16 Si8 S12 O28'
_cell_volume   922.87600781
_cell_formula_units_Z   4
loop_
 _symmetry_equiv_pos_site_id
 _symmetry_equiv_pos_as_xyz
  1  'x, y, z'
loop_
 _atom_site_type_symbol
 _atom_site_label
 _atom_site_symmetry_multiplicity
 _atom_site_fract_x
 _atom_site_fract_y
 _atom_site_fract_z
 _atom_site_occupancy
  O  O0  1  0.25000000  0.39988761  0.14988761  1
  O  O1  1  0.75000000  0.14988761  0.39988761  1
  O  O2  1  0.75000000  0.60011239  0.85011239  1
  O  O3  1  0.25000000  0.85011239  0.60011239  1
  O  O4  1  0.01627835  0.82603271  0.34231106  1
  O  O5  1  0.48372165  0.82603271  0.80975436  1
  O  O6  1  0.48372165  0.65768894  0.17396729  1
  O  O7  1  0.98372165  0.80975436  0.82603271  1
  O  O8  1  0.51627835  0.34231106  0.82603271  1
  O  O9  1  0.51627835  0.17396729  0.19024564  1
  O  O10  1  0.98372165  0.17396729  0.65768894  1
  O  O11  1  0.01627835  0.19024564  0.17396729  1
  O  O12  1  0.76702372  0.91675344  0.43256122  1
  O  O13  1  0.73297628  0.16553750  0.14972972  1
  O  O14  1  0.73297628  0.56743878  0.08324656  1
  O  O15  1  0.98419222  0.14972972  0.91675344  1
  O  O16  1  0.51580778  0.43256122  0.16553750  1
  O  O17  1  0.51580778  0.08324656  0.85027028  1
  O  O18  1  0.98419222  0.83446250  0.56743878  1
  O  O19  1  0.76702372  0.85027028  0.83446250  1
  O  O20  1  0.23297628  0.08324656  0.56743878  1
  O  O21  1  0.26702372  0.83446250  0.85027028  1
  O  O22  1  0.26702372  0.43256122  0.91675344  1
  O  O23  1  0.01580778  0.85027028  0.08324656  1
  O  O24  1  0.48419222  0.56743878  0.83446250  1
  O  O25  1  0.48419222  0.91675344  0.14972972  1
  O  O26  1  0.01580778  0.16553750  0.43256122  1
  O  O27  1  0.23297628  0.14972972  0.16553750  1
  Si  Si28  1  0.37520089  0.90444477  0.77964566  1
  Si  Si29  1  0.12479911  0.90444477  0.52924387  1
  Si  Si30  1  0.12479911  0.22035434  0.09555523  1
  Si  Si31  1  0.62479911  0.52924387  0.90444477  1
  Si  Si32  1  0.87520089  0.77964566  0.90444477  1
  Si  Si33  1  0.87520089  0.09555523  0.47075613  1
  Si  Si34  1  0.62479911  0.09555523  0.22035434  1
  Si  Si35  1  0.37520089  0.47075613  0.09555523  1
  S  S36  1  0.25000000  0.12500000  0.87500000  1
  S  S37  1  0.75000000  0.87500000  0.12500000  1
  S  S38  1  0.75000000  0.37500000  0.62500000  1
  S  S39  1  0.25000000  0.62500000  0.37500000  1
  S  S40  1  0.85433723  0.50000000  0.35433723  1
  S  S41  1  0.85433723  0.35433723  0.00000000  1
  S  S42  1  0.64566277  0.64566277  0.50000000  1
  S  S43  1  0.64566277  0.00000000  0.64566277  1
  S  S44  1  0.14566277  0.50000000  0.64566277  1
  S  S45  1  0.14566277  0.64566277  0.00000000  1
  S  S46  1  0.35433723  0.35433723  0.50000000  1
  S  S47  1  0.35433723  0.00000000  0.35433723  1
  Er  Er48  1  0.09482288  0.04741144  0.29741144  1
  Er  Er49  1  0.25000000  0.29741144  0.70258856  1
  Er  Er50  1  0.25000000  0.95258856  0.04741144  1
  Er  Er51  1  0.40517712  0.70258856  0.95258856  1
  Er  Er52  1  0.90517712  0.95258856  0.70258856  1
  Er  Er53  1  0.75000000  0.70258856  0.29741144  1
  Er  Er54  1  0.75000000  0.04741144  0.95258856  1
  Er  Er55  1  0.59482288  0.29741144  0.04741144  1
  Er  Er56  1  0.01454172  0.65882430  0.17336602  1
  Er  Er57  1  0.48545828  0.65882430  0.64428258  1
  Er  Er58  1  0.48545828  0.82663398  0.34117570  1
  Er  Er59  1  0.98545828  0.64428258  0.65882430  1
  Er  Er60  1  0.51454172  0.17336602  0.65882430  1
  Er  Er61  1  0.51454172  0.34117570  0.35571742  1
  Er  Er62  1  0.98545828  0.34117570  0.82663398  1
  Er  Er63  1  0.01454172  0.35571742  0.34117570  1
