# generated using pymatgen
data_Na4Pu(MoO4)4
_symmetry_space_group_name_H-M   'P 1'
_cell_length_a   10.04376565
_cell_length_b   10.04376584
_cell_length_c   10.04376574
_cell_angle_alpha   106.53204638
_cell_angle_beta   110.96050078
_cell_angle_gamma   110.96049613
_symmetry_Int_Tables_number   1
_chemical_formula_structural   Na4Pu(MoO4)4
_chemical_formula_sum   'Na8 Pu2 Mo8 O32'
_cell_volume   778.42258551
_cell_formula_units_Z   2
loop_
 _symmetry_equiv_pos_site_id
 _symmetry_equiv_pos_as_xyz
  1  'x, y, z'
loop_
 _atom_site_type_symbol
 _atom_site_label
 _atom_site_symmetry_multiplicity
 _atom_site_fract_x
 _atom_site_fract_y
 _atom_site_fract_z
 _atom_site_occupancy
  Na  Na0  1  0.86979706  0.23852048  0.82397304  1
  Na  Na1  1  0.36979706  0.54582402  0.63127658  1
  Na  Na2  1  0.08545256  0.13127658  0.26147952  1
  Na  Na3  1  0.91454744  0.86872342  0.73852048  1
  Na  Na4  1  0.41454744  0.67602696  0.04582402  1
  Na  Na5  1  0.58545256  0.32397304  0.95417598  1
  Na  Na6  1  0.13020294  0.76147952  0.17602696  1
  Na  Na7  1  0.63020294  0.45417598  0.36872342  1
  Pu  Pu8  1  0.25000000  0.87500000  0.62500000  1
  Pu  Pu9  1  0.75000000  0.12500000  0.37500000  1
  Mo  Mo10  1  0.02582488  0.55373653  0.71731130  1
  Mo  Mo11  1  0.16357477  0.21731130  0.69148642  1
  Mo  Mo12  1  0.52582488  0.80851358  0.47208835  1
  Mo  Mo13  1  0.83642523  0.78268870  0.30851358  1
  Mo  Mo14  1  0.33642523  0.02791165  0.05373653  1
  Mo  Mo15  1  0.47417512  0.19148642  0.52791165  1
  Mo  Mo16  1  0.66357477  0.97208835  0.94626347  1
  Mo  Mo17  1  0.97417512  0.44626347  0.28268870  1
  O  O18  1  0.42841283  0.78721438  0.59477700  1
  O  O19  1  0.56492953  0.76847269  0.90296567  1
  O  O20  1  0.20648093  0.99933677  0.13772822  1
  O  O21  1  0.36160856  0.29285585  0.49933677  1
  O  O22  1  0.36550702  0.70354316  0.26847269  1
  O  O23  1  0.33640176  0.97721082  0.46620670  1
  O  O24  1  0.13449298  0.40296567  0.33803614  1
  O  O25  1  0.06492953  0.16196386  0.79645684  1
  O  O26  1  0.63449298  0.29645684  0.73152731  1
  O  O27  1  0.98899587  0.85919094  0.52278918  1
  O  O28  1  0.57158717  0.21278562  0.40522300  1
  O  O29  1  0.83640176  0.37019506  0.35919094  1
  O  O30  1  0.43507047  0.23152731  0.09703433  1
  O  O31  1  0.01100413  0.14080906  0.47721082  1
  O  O32  1  0.07158717  0.66636417  0.35880155  1
  O  O33  1  0.63839144  0.70714415  0.50066323  1
  O  O34  1  0.86550702  0.59703433  0.66196386  1
  O  O35  1  0.93507047  0.83803614  0.20354316  1
  O  O36  1  0.92841283  0.33363583  0.64119845  1
  O  O37  1  0.13839144  0.63772822  0.93124729  1
  O  O38  1  0.79351907  0.00066323  0.86227178  1
  O  O39  1  0.69243738  0.85880155  0.28721438  1
  O  O40  1  0.19243738  0.90522300  0.83363583  1
  O  O41  1  0.66359824  0.02278918  0.53379330  1
  O  O42  1  0.86160856  0.36227178  0.06875271  1
  O  O43  1  0.29351907  0.43124729  0.79285585  1
  O  O44  1  0.70648093  0.56875271  0.20714415  1
  O  O45  1  0.16359824  0.62980494  0.64080906  1
  O  O46  1  0.48899587  0.96620670  0.12980494  1
  O  O47  1  0.51100413  0.03379330  0.87019506  1
  O  O48  1  0.30756262  0.14119845  0.71278562  1
  O  O49  1  0.80756262  0.09477700  0.16636417  1
