# generated using pymatgen
data_Ba(H8O5)2
_symmetry_space_group_name_H-M   'P 1'
_cell_length_a   6.42158884
_cell_length_b   6.38798190
_cell_length_c   11.79486249
_cell_angle_alpha   91.31511954
_cell_angle_beta   92.62861488
_cell_angle_gamma   90.57725463
_symmetry_Int_Tables_number   1
_chemical_formula_structural   Ba(H8O5)2
_chemical_formula_sum   'Ba2 H32 O20'
_cell_volume   483.17056714
_cell_formula_units_Z   2
loop_
 _symmetry_equiv_pos_site_id
 _symmetry_equiv_pos_as_xyz
  1  'x, y, z'
loop_
 _atom_site_type_symbol
 _atom_site_label
 _atom_site_symmetry_multiplicity
 _atom_site_fract_x
 _atom_site_fract_y
 _atom_site_fract_z
 _atom_site_occupancy
  Ba  Ba0  1  0.00618595  0.00537899  0.50593384  1
  Ba  Ba1  1  0.00206438  0.00263999  0.99248534  1
  H  H2  1  0.26640101  0.38800907  0.38585674  1
  H  H3  1  0.03048678  0.45414102  0.37914105  1
  H  H4  1  0.84846908  0.67490363  0.28842122  1
  H  H5  1  0.70356934  0.60304082  0.39241440  1
  H  H6  1  0.60855645  0.28243026  0.38637043  1
  H  H7  1  0.53503441  0.04817961  0.36728251  1
  H  H8  1  0.39284810  0.72751661  0.39347217  1
  H  H9  1  0.27513502  0.83254415  0.28744565  1
  H  H10  1  0.77853897  0.27982402  0.78419058  1
  H  H11  1  0.71017882  0.40077944  0.89724123  1
  H  H12  1  0.27321448  0.60189533  0.90013001  1
  H  H13  1  0.04113721  0.54135143  0.85782516  1
  H  H14  1  0.39158933  0.28128086  0.90011769  1
  H  H15  1  0.27729256  0.22075815  0.78177702  1
  H  H16  1  0.59001920  0.72354443  0.90133675  1
  H  H17  1  0.53898845  0.95525177  0.85744157  1
  H  H18  1  0.73753020  0.59957030  0.60068374  1
  H  H19  1  0.84682268  0.69807596  0.71321027  1
  H  H20  1  0.29632548  0.39962597  0.60544491  1
  H  H21  1  0.07108764  0.44652250  0.64939503  1
  H  H22  1  0.32151731  0.81954573  0.71466433  1
  H  H23  1  0.42066220  0.72414774  0.60433023  1
  H  H24  1  0.61706886  0.28933058  0.60436519  1
  H  H25  1  0.57123895  0.06008769  0.64953869  1
  H  H26  1  0.29128937  0.61703979  0.11298476  1
  H  H27  1  0.05906662  0.55866411  0.13800802  1
  H  H28  1  0.73299393  0.40176336  0.11420760  1
  H  H29  1  0.88087235  0.29245720  0.21089336  1
  H  H30  1  0.66916468  0.90102031  0.21626746  1
  H  H31  1  0.61112217  0.72177787  0.11473348  1
  H  H32  1  0.40034901  0.28431118  0.11170436  1
  H  H33  1  0.46323112  0.04712945  0.11858592  1
  O  O34  1  0.50233052  0.51505266  0.42776923  1
  O  O35  1  0.50380591  0.50411248  0.95155153  1
  O  O36  1  0.51532152  0.51080447  0.55447670  1
  O  O37  1  0.51859654  0.51195928  0.07843904  1
  O  O38  1  0.12163275  0.33001963  0.37426228  1
  O  O39  1  0.85034269  0.66240683  0.37080525  1
  O  O40  1  0.66261795  0.13858566  0.36865014  1
  O  O41  1  0.32893209  0.86496148  0.36564508  1
  O  O42  1  0.83456228  0.33775046  0.85857736  1
  O  O43  1  0.14218937  0.66053375  0.86325186  1
  O  O44  1  0.32371784  0.15951026  0.85523018  1
  O  O45  1  0.65172166  0.85078144  0.86460873  1
  O  O46  1  0.87710510  0.65598802  0.63525351  1
  O  O47  1  0.17627348  0.33382442  0.64443804  1
  O  O48  1  0.36002687  0.85818949  0.63817515  1
  O  O49  1  0.68387225  0.16699202  0.64460361  1
  O  O50  1  0.15668272  0.68084144  0.13723130  1
  O  O51  1  0.87935568  0.34525900  0.13358236  1
  O  O52  1  0.68082309  0.86805915  0.13554773  1
  O  O53  1  0.34113057  0.14008272  0.12015420  1
