# generated using pymatgen
data_Hg2ClO
_symmetry_space_group_name_H-M   'P 1'
_cell_length_a   7.09091215
_cell_length_b   7.24682803
_cell_length_c   9.82463865
_cell_angle_alpha   105.62755456
_cell_angle_beta   89.13267046
_cell_angle_gamma   118.90578592
_symmetry_Int_Tables_number   1
_chemical_formula_structural   Hg2ClO
_chemical_formula_sum   'Hg8 Cl4 O4'
_cell_volume   421.63656244
_cell_formula_units_Z   4
loop_
 _symmetry_equiv_pos_site_id
 _symmetry_equiv_pos_as_xyz
  1  'x, y, z'
loop_
 _atom_site_type_symbol
 _atom_site_label
 _atom_site_symmetry_multiplicity
 _atom_site_fract_x
 _atom_site_fract_y
 _atom_site_fract_z
 _atom_site_occupancy
  Hg  Hg0  1  0.80207913  0.09153672  0.88868479  1
  Hg  Hg1  1  0.28333354  0.09130942  0.38771918  1
  Hg  Hg2  1  0.28974385  -0.00003493  0.74796490  1
  Hg  Hg3  1  0.70963217  0.99967903  0.24945815  1
  Hg  Hg4  1  0.00060168  0.50012116  0.49857245  1
  Hg  Hg5  1  0.19811323  0.90876662  0.10901749  1
  Hg  Hg6  1  0.71690711  0.90985258  0.60991412  1
  Hg  Hg7  1  0.49886520  0.49988120  0.99870837  1
  Cl  Cl8  1  0.63738661  0.63795778  0.37285486  1
  Cl  Cl9  1  0.00029139  0.64007685  0.87399909  1
  Cl  Cl10  1  0.99880276  0.35980936  0.12403497  1
  Cl  Cl11  1  0.36264158  0.36241403  0.62506045  1
  O  O12  1  0.79244088  0.17087421  0.46285498  1
  O  O13  1  0.20898429  0.82934731  0.53450732  1
  O  O14  1  0.39382159  0.17201029  0.96187237  1
  O  O15  1  0.60365500  0.82768736  0.03565552  1
