# generated using pymatgen
data_ReH3O5
_symmetry_space_group_name_H-M   'P 1'
_cell_length_a   7.66506767
_cell_length_b   7.86572722
_cell_length_c   7.94775366
_cell_angle_alpha   137.13985169
_cell_angle_beta   139.11994434
_cell_angle_gamma   61.49851428
_symmetry_Int_Tables_number   1
_chemical_formula_structural   ReH3O5
_chemical_formula_sum   'Re2 H6 O10'
_cell_volume   210.10474885
_cell_formula_units_Z   2
loop_
 _symmetry_equiv_pos_site_id
 _symmetry_equiv_pos_as_xyz
  1  'x, y, z'
loop_
 _atom_site_type_symbol
 _atom_site_label
 _atom_site_symmetry_multiplicity
 _atom_site_fract_x
 _atom_site_fract_y
 _atom_site_fract_z
 _atom_site_occupancy
  Re  Re0  1  0.36262444  0.13413800  0.24552844  1
  Re  Re1  1  0.61253432  0.86912198  0.73549305  1
  H  H2  1  0.89700135  0.52422773  0.27744885  1
  H  H3  1  0.92090259  0.58944312  0.14278043  1
  H  H4  1  0.92691315  0.81859925  0.44726058  1
  H  H5  1  0.10317422  0.38125754  0.84436832  1
  H  H6  1  0.13068821  0.51377905  0.77570744  1
  H  H7  1  0.32325118  0.28779587  0.79601587  1
  O  O8  1  0.84550830  0.63671632  0.23128976  1
  O  O9  1  0.13850082  0.35634543  0.73135114  1
  O  O10  1  0.68882623  0.31701722  0.59892323  1
  O  O11  1  0.20590392  0.07967071  0.89299704  1
  O  O12  1  0.55739010  0.17425059  0.85121071  1
  O  O13  1  0.82284518  0.74157444  0.65510261  1
  O  O14  1  0.29979072  0.66263208  0.37099809  1
  O  O15  1  0.76296966  0.89126004  0.05777123  1
  O  O16  1  0.39465198  0.84339495  0.14891250  1
  O  O17  1  0.16399364  0.29326269  0.34592970  1
