# generated using pymatgen
data_Ca(H8O5)2
_symmetry_space_group_name_H-M   'P 1'
_cell_length_a   6.23380505
_cell_length_b   6.16485417
_cell_length_c   11.41764619
_cell_angle_alpha   90.00989417
_cell_angle_beta   83.10711165
_cell_angle_gamma   89.88600967
_symmetry_Int_Tables_number   1
_chemical_formula_structural   Ca(H8O5)2
_chemical_formula_sum   'Ca2 H32 O20'
_cell_volume   435.61350502
_cell_formula_units_Z   2
loop_
 _symmetry_equiv_pos_site_id
 _symmetry_equiv_pos_as_xyz
  1  'x, y, z'
loop_
 _atom_site_type_symbol
 _atom_site_label
 _atom_site_symmetry_multiplicity
 _atom_site_fract_x
 _atom_site_fract_y
 _atom_site_fract_z
 _atom_site_occupancy
  Ca  Ca0  1  0.01625516  0.99280879  0.51602596  1
  Ca  Ca1  1  0.02169000  0.00923581  0.01634698  1
  H  H2  1  0.06890938  0.38575754  0.36588138  1
  H  H3  1  0.31020964  0.36356010  0.39802342  1
  H  H4  1  0.91675003  0.72697522  0.29688318  1
  H  H5  1  0.73057633  0.63834756  0.39604636  1
  H  H6  1  0.68110561  0.04079984  0.35372193  1
  H  H7  1  0.65262084  0.29045372  0.39419070  1
  H  H8  1  0.32112356  0.86223940  0.30492863  1
  H  H9  1  0.39674613  0.70815940  0.40417469  1
  H  H10  1  0.91962067  0.27379525  0.79712391  1
  H  H11  1  0.73356264  0.36153536  0.89661413  1
  H  H12  1  0.06859566  0.61740698  0.86729655  1
  H  H13  1  0.31045763  0.63689442  0.89924551  1
  H  H14  1  0.33337660  0.13557397  0.80490625  1
  H  H15  1  0.40094841  0.29146772  0.90525752  1
  H  H16  1  0.68032489  0.95955562  0.85658978  1
  H  H17  1  0.65321541  0.70922134  0.89484667  1
  H  H18  1  0.81037154  0.72944944  0.71614704  1
  H  H19  1  0.71287285  0.61308608  0.60683547  1
  H  H20  1  0.25444628  0.37336186  0.61150579  1
  H  H21  1  0.00974164  0.44421035  0.63085433  1
  H  H22  1  0.25296676  0.81498723  0.72527291  1
  H  H23  1  0.37410739  0.71893881  0.60779571  1
  H  H24  1  0.61080890  0.26411152  0.60224887  1
  H  H25  1  0.54774308  0.02033651  0.63058204  1
  H  H26  1  0.01501124  0.55938359  0.13191481  1
  H  H27  1  0.25959767  0.62907105  0.11311159  1
  H  H28  1  0.81535190  0.27290998  0.21624190  1
  H  H29  1  0.71772359  0.38994554  0.10724496  1
  H  H30  1  0.61701971  0.73851301  0.10377683  1
  H  H31  1  0.55296750  0.98218257  0.13178197  1
  H  H32  1  0.25551557  0.18752959  0.22548798  1
  H  H33  1  0.37907236  0.28346468  0.10866209  1
  O  O34  1  0.51098334  0.49049310  0.43660252  1
  O  O35  1  0.51222399  0.50968375  0.93748156  1
  O  O36  1  0.49317923  0.49397071  0.56809813  1
  O  O37  1  0.49680650  0.50734801  0.06894469  1
  O  O38  1  0.18480852  0.27988938  0.36879835  1
  O  O39  1  0.87102809  0.72226155  0.38186938  1
  O  O40  1  0.76084374  0.17654642  0.35736861  1
  O  O41  1  0.33144014  0.85652904  0.38894682  1
  O  O42  1  0.87421895  0.27758207  0.88214032  1
  O  O43  1  0.18539839  0.72174221  0.87017794  1
  O  O44  1  0.33737416  0.14276937  0.88945746  1
  O  O45  1  0.76027370  0.82304549  0.85753371  1
  O  O46  1  0.84973560  0.67574308  0.63331262  1
  O  O47  1  0.10390954  0.31301231  0.63365247  1
  O  O48  1  0.30154185  0.85813885  0.64202218  1
  O  O49  1  0.67336204  0.12021729  0.62410262  1
  O  O50  1  0.10902581  0.69011344  0.13525802  1
  O  O51  1  0.85507903  0.32788095  0.13378608  1
  O  O52  1  0.67954103  0.88293338  0.12413204  1
  O  O53  1  0.30622877  0.14419575  0.14236165  1
