# generated using pymatgen
data_SrTeO3
_symmetry_space_group_name_H-M   'P 1'
_cell_length_a   5.95548934
_cell_length_b   9.20074468
_cell_length_c   12.31902862
_cell_angle_alpha   69.53382215
_cell_angle_beta   89.95409263
_cell_angle_gamma   90.82729948
_symmetry_Int_Tables_number   1
_chemical_formula_structural   SrTeO3
_chemical_formula_sum   'Sr6 Te6 O18'
_cell_volume   632.33401570
_cell_formula_units_Z   6
loop_
 _symmetry_equiv_pos_site_id
 _symmetry_equiv_pos_as_xyz
  1  'x, y, z'
loop_
 _atom_site_type_symbol
 _atom_site_label
 _atom_site_symmetry_multiplicity
 _atom_site_fract_x
 _atom_site_fract_y
 _atom_site_fract_z
 _atom_site_occupancy
  Sr  Sr0  1  0.95383107  0.44886849  0.11025242  1
  Sr  Sr1  1  0.45523900  0.79043444  0.54726093  1
  Sr  Sr2  1  0.47325708  0.76651836  0.03152947  1
  Sr  Sr3  1  0.50199323  0.08109924  0.21225023  1
  Sr  Sr4  1  0.99722393  0.74085824  0.28601935  1
  Sr  Sr5  1  0.01282418  0.77291805  0.78816054  1
  Te  Te6  1  0.00260098  0.47526092  0.62258095  1
  Te  Te7  1  0.50362616  0.45546824  0.90722211  1
  Te  Te8  1  0.47788860  0.46464416  0.32645209  1
  Te  Te9  1  0.99456716  0.00709297  0.00770076  1
  Te  Te10  1  0.53354247  0.05506760  0.68298763  1
  Te  Te11  1  0.97972552  0.05089447  0.39333607  1
  O  O12  1  0.49115047  0.26439620  0.32236106  1
  O  O13  1  0.28188292  0.94872652  0.65092974  1
  O  O14  1  0.22061616  0.92303353  0.38177965  1
  O  O15  1  0.54865411  0.97084669  0.84477351  1
  O  O16  1  0.73193829  0.91781066  0.64401171  1
  O  O17  1  0.22961984  0.94923164  0.11871955  1
  O  O18  1  0.75122426  0.90679247  0.38309293  1
  O  O19  1  0.75293334  0.92512726  0.11255440  1
  O  O20  1  0.24781515  0.56060677  0.21864286  1
  O  O21  1  0.25424409  0.54076259  0.95767151  1
  O  O22  1  0.60130499  0.30542854  0.04561246  1
  O  O23  1  0.97807971  0.17796784  0.23597912  1
  O  O24  1  0.12496703  0.54787855  0.47009702  1
  O  O25  1  0.04301451  0.83065143  0.96712756  1
  O  O26  1  0.18229527  0.60562693  0.68168646  1
  O  O27  1  0.71372756  0.57064703  0.22077915  1
  O  O28  1  0.71324687  0.60633882  0.91873167  1
  O  O29  1  0.11276707  0.27910335  0.69409607  1
