# generated using pymatgen
data_NaPO3
_symmetry_space_group_name_H-M   'P 1'
_cell_length_a   6.33173026
_cell_length_b   9.96281467
_cell_length_c   9.96281521
_cell_angle_alpha   84.20459105
_cell_angle_beta   71.47199724
_cell_angle_gamma   71.47199784
_symmetry_Int_Tables_number   1
_chemical_formula_structural   NaPO3
_chemical_formula_sum   'Na8 P8 O24'
_cell_volume   565.01183527
_cell_formula_units_Z   8
loop_
 _symmetry_equiv_pos_site_id
 _symmetry_equiv_pos_as_xyz
  1  'x, y, z'
loop_
 _atom_site_type_symbol
 _atom_site_label
 _atom_site_symmetry_multiplicity
 _atom_site_fract_x
 _atom_site_fract_y
 _atom_site_fract_z
 _atom_site_occupancy
  Na  Na0  1  0.49083138  0.25488860  0.56053401  1
  Na  Na1  1  0.75428002  0.43946599  0.75488860  1
  Na  Na2  1  0.94863461  0.06053401  0.74511140  1
  Na  Na3  1  0.05136539  0.93946599  0.25488860  1
  Na  Na4  1  0.24571998  0.56053401  0.24511140  1
  Na  Na5  1  0.30625399  0.24511140  0.93946599  1
  Na  Na6  1  0.69374601  0.75488860  0.06053401  1
  Na  Na7  1  0.50916862  0.74511140  0.43946599  1
  P  P8  1  0.56435394  0.93007029  0.71341712  1
  P  P9  1  0.99442423  0.71341712  0.56992971  1
  P  P10  1  0.72222894  0.21341712  0.06992971  1
  P  P11  1  0.27777106  0.78658288  0.93007029  1
  P  P12  1  0.20784135  0.56992971  0.78658288  1
  P  P13  1  0.00557577  0.28658288  0.43007029  1
  P  P14  1  0.79215865  0.43007029  0.21341712  1
  P  P15  1  0.43564606  0.06992971  0.28658288  1
  O  O16  1  0.47687820  0.91951097  0.24821030  1
  O  O17  1  0.89638917  0.24821030  0.58048903  1
  O  O18  1  0.35540053  0.41951097  0.74821030  1
  O  O19  1  0.93437640  0.11543292  0.10077808  1
  O  O20  1  0.54980931  0.10077808  0.38456708  1
  O  O21  1  0.15058739  0.38456708  0.39922192  1
  O  O22  1  0.63149371  0.36262325  0.15797319  1
  O  O23  1  0.10361083  0.75178970  0.41951097  1
  O  O24  1  0.36850629  0.63737675  0.84202681  1
  O  O25  1  0.45019069  0.89922192  0.61543292  1
  O  O26  1  0.27491150  0.74821030  0.08048903  1
  O  O27  1  0.15209015  0.13737675  0.34202681  1
  O  O28  1  0.96484553  0.60077808  0.88456708  1
  O  O29  1  0.84941261  0.61543292  0.60077808  1
  O  O30  1  0.72508850  0.25178970  0.91951097  1
  O  O31  1  0.50588304  0.84202681  0.86262325  1
  O  O32  1  0.21053310  0.65797319  0.63737675  1
  O  O33  1  0.06562360  0.88456708  0.89922192  1
  O  O34  1  0.52312180  0.08048903  0.75178970  1
  O  O35  1  0.64459947  0.58048903  0.25178970  1
  O  O36  1  0.49411696  0.15797319  0.13737675  1
  O  O37  1  0.03515447  0.39922192  0.11543292  1
  O  O38  1  0.78946690  0.34202681  0.36262325  1
  O  O39  1  0.84790985  0.86262325  0.65797319  1
