# generated using pymatgen
data_Zr2CoH5
_symmetry_space_group_name_H-M   'P 1'
_cell_length_a   6.93140181
_cell_length_b   6.93140181
_cell_length_c   5.69157423
_cell_angle_alpha   90.00000000
_cell_angle_beta   90.00000000
_cell_angle_gamma   90.00000000
_symmetry_Int_Tables_number   1
_chemical_formula_structural   Zr2CoH5
_chemical_formula_sum   'Zr8 Co4 H20'
_cell_volume   273.44787651
_cell_formula_units_Z   4
loop_
 _symmetry_equiv_pos_site_id
 _symmetry_equiv_pos_as_xyz
  1  'x, y, z'
loop_
 _atom_site_type_symbol
 _atom_site_label
 _atom_site_symmetry_multiplicity
 _atom_site_fract_x
 _atom_site_fract_y
 _atom_site_fract_z
 _atom_site_occupancy
  Zr  Zr0  1  0.08857763  0.91142237  0.25000000  1
  Zr  Zr1  1  0.41142237  0.91142237  0.75000000  1
  Zr  Zr2  1  0.08857763  0.58857763  0.75000000  1
  Zr  Zr3  1  0.41142237  0.58857763  0.25000000  1
  Zr  Zr4  1  0.91142237  0.08857763  0.75000000  1
  Zr  Zr5  1  0.58857763  0.08857763  0.25000000  1
  Zr  Zr6  1  0.91142237  0.41142237  0.25000000  1
  Zr  Zr7  1  0.58857763  0.41142237  0.75000000  1
  Co  Co8  1  0.75000000  0.75000000  0.49032056  1
  Co  Co9  1  0.75000000  0.75000000  0.99032056  1
  Co  Co10  1  0.25000000  0.25000000  0.50967944  1
  Co  Co11  1  0.25000000  0.25000000  0.00967944  1
  H  H12  1  0.75000000  0.25000000  0.50000000  1
  H  H13  1  0.75000000  0.25000000  0.00000000  1
  H  H14  1  0.25000000  0.75000000  0.00000000  1
  H  H15  1  0.25000000  0.75000000  0.50000000  1
  H  H16  1  0.66608592  0.53639774  0.42799748  1
  H  H17  1  0.83391408  0.53639774  0.92799748  1
  H  H18  1  0.66608592  0.96360226  0.92799748  1
  H  H19  1  0.83391408  0.96360226  0.42799748  1
  H  H20  1  0.53639774  0.66608592  0.92799748  1
  H  H21  1  0.96360226  0.66608592  0.42799748  1
  H  H22  1  0.53639774  0.83391408  0.42799748  1
  H  H23  1  0.96360226  0.83391408  0.92799748  1
  H  H24  1  0.33391408  0.46360226  0.57200252  1
  H  H25  1  0.16608592  0.46360226  0.07200252  1
  H  H26  1  0.33391408  0.03639774  0.07200252  1
  H  H27  1  0.16608592  0.03639774  0.57200252  1
  H  H28  1  0.46360226  0.33391408  0.07200252  1
  H  H29  1  0.03639774  0.33391408  0.57200252  1
  H  H30  1  0.46360226  0.16608592  0.57200252  1
  H  H31  1  0.03639774  0.16608592  0.07200252  1
