# generated using pymatgen
data_Fe21(WC3)2
_symmetry_space_group_name_H-M   'P 1'
_cell_length_a   7.40756547
_cell_length_b   7.40652496
_cell_length_c   7.40749917
_cell_angle_alpha   60.00179156
_cell_angle_beta   60.00295717
_cell_angle_gamma   60.00458541
_symmetry_Int_Tables_number   1
_chemical_formula_structural   Fe21(WC3)2
_chemical_formula_sum   'Fe21 W2 C6'
_cell_volume   287.39369566
_cell_formula_units_Z   1
loop_
 _symmetry_equiv_pos_site_id
 _symmetry_equiv_pos_as_xyz
  1  'x, y, z'
loop_
 _atom_site_type_symbol
 _atom_site_label
 _atom_site_symmetry_multiplicity
 _atom_site_fract_x
 _atom_site_fract_y
 _atom_site_fract_z
 _atom_site_occupancy
  Fe  Fe0  1  0.61639315  0.61635423  0.15093284  1
  Fe  Fe1  1  0.38366351  0.38367850  0.38363349  1
  Fe  Fe2  1  0.66172527  -0.00002573  0.33828315  1
  Fe  Fe3  1  0.99996175  -0.00000494  0.33828418  1
  Fe  Fe4  1  0.33829834  -0.00001771  0.66171377  1
  Fe  Fe5  1  0.33831185  0.00000208  0.99994726  1
  Fe  Fe6  1  -0.00000101  0.33829375  0.00000371  1
  Fe  Fe7  1  0.66172693  0.00000525  0.00001499  1
  Fe  Fe8  1  0.00001007  0.33823486  0.66172262  1
  Fe  Fe9  1  0.33829153  0.66175333  0.99993936  1
  Fe  Fe10  1  0.61635511  0.15096631  0.61638116  1
  Fe  Fe11  1  -0.00001605  0.66172538  0.00000853  1
  Fe  Fe12  1  0.61636357  0.61630538  0.61637141  1
  Fe  Fe13  1  0.15091623  0.61633481  0.61641842  1
  Fe  Fe14  1  0.00001253  0.00001296  0.99998962  1
  Fe  Fe15  1  0.00001875  0.00000367  0.66173792  1
  Fe  Fe16  1  0.38369193  0.84899477  0.38363184  1
  Fe  Fe17  1  0.84903124  0.38368572  0.38362844  1
  Fe  Fe18  1  0.66172184  0.33824000  0.00000476  1
  Fe  Fe19  1  -0.00006548  0.66176251  0.33827887  1
  Fe  Fe20  1  0.38364834  0.38366345  0.84903582  1
  W  W21  1  0.24996403  0.25003111  0.24996681  1
  W  W22  1  0.74998086  0.74997973  0.75005114  1
  C  C23  1  0.28027958  0.71972127  0.28028640  1
  C  C24  1  0.28028177  0.28021292  0.71973865  1
  C  C25  1  0.28026118  0.71978813  0.71973190  1
  C  C26  1  0.71972081  0.28025026  0.28028331  1
  C  C27  1  0.71974120  0.71976840  0.28026305  1
  C  C28  1  0.71971119  0.28027959  0.71971661  1
