# generated using pymatgen
data_NbO2F
_symmetry_space_group_name_H-M   'P 1'
_cell_length_a   16.80953165
_cell_length_b   9.66031216
_cell_length_c   5.78546524
_cell_angle_alpha   53.21010509
_cell_angle_beta   58.91829916
_cell_angle_gamma   30.45372183
_symmetry_Int_Tables_number   1
_chemical_formula_structural   NbO2F
_chemical_formula_sum   'Nb6 O12 F6'
_cell_volume   381.33090961
_cell_formula_units_Z   6
loop_
 _symmetry_equiv_pos_site_id
 _symmetry_equiv_pos_as_xyz
  1  'x, y, z'
loop_
 _atom_site_type_symbol
 _atom_site_label
 _atom_site_symmetry_multiplicity
 _atom_site_fract_x
 _atom_site_fract_y
 _atom_site_fract_z
 _atom_site_occupancy
  Nb  Nb0  1  0.00063618  0.99904050  0.98067095  1
  Nb  Nb1  1  0.00063618  0.49905095  0.51932905  1
  Nb  Nb2  1  0.33269682  0.00094905  0.98067095  1
  Nb  Nb3  1  0.33269682  0.50095950  0.51932905  1
  Nb  Nb4  1  0.66666700  0.00000503  0.06681078  1
  Nb  Nb5  1  0.66666700  0.49999497  0.43318922  1
  O  O6  1  0.00412285  0.24381572  0.75000000  1
  O  O7  1  0.16666700  0.25000000  0.75000000  1
  O  O8  1  0.00412348  0.74381479  0.25000000  1
  O  O9  1  0.32921015  0.25618428  0.75000000  1
  O  O10  1  0.16666700  0.75000000  0.75000000  1
  O  O11  1  0.49650815  0.25523572  0.26888123  1
  O  O12  1  0.32920952  0.75618521  0.25000000  1
  O  O13  1  0.66666700  0.25000000  0.75000000  1
  O  O14  1  0.49650815  0.75523983  0.23111877  1
  O  O15  1  0.83682485  0.24476428  0.23111877  1
  O  O16  1  0.66666700  0.75000000  0.25000000  1
  O  O17  1  0.83682485  0.74476017  0.26888123  1
  F  F18  1  0.16666700  0.25000000  0.25000000  1
  F  F19  1  0.16666700  0.75000000  0.25000000  1
  F  F20  1  0.50251940  0.24621885  0.75498204  1
  F  F21  1  0.50251940  0.74622293  0.74501796  1
  F  F22  1  0.83081360  0.25378115  0.74501796  1
  F  F23  1  0.83081360  0.75377707  0.75498204  1
