# generated using pymatgen
data_Mn(GaS2)2
_symmetry_space_group_name_H-M   'P 1'
_cell_length_a   6.43603419
_cell_length_b   12.40494642
_cell_length_c   13.07091251
_cell_angle_alpha   115.37525079
_cell_angle_beta   98.92895213
_cell_angle_gamma   100.94081077
_symmetry_Int_Tables_number   1
_chemical_formula_structural   Mn(GaS2)2
_chemical_formula_sum   'Mn6 Ga12 S24'
_cell_volume   892.22539192
_cell_formula_units_Z   6
loop_
 _symmetry_equiv_pos_site_id
 _symmetry_equiv_pos_as_xyz
  1  'x, y, z'
loop_
 _atom_site_type_symbol
 _atom_site_label
 _atom_site_symmetry_multiplicity
 _atom_site_fract_x
 _atom_site_fract_y
 _atom_site_fract_z
 _atom_site_occupancy
  Mn  Mn0  1  0.46640994  0.21835985  0.43469494  1
  Mn  Mn1  1  0.12399691  0.87166459  0.74307227  1
  Mn  Mn2  1  0.53660385  0.78264528  0.56595825  1
  Mn  Mn3  1  0.70642580  0.95700732  0.91280177  1
  Mn  Mn4  1  0.29560869  0.04457275  0.08885243  1
  Mn  Mn5  1  0.88102800  0.12827981  0.25663337  1
  Ga  Ga6  1  0.28744495  0.67008845  0.91911970  1
  Ga  Ga7  1  0.45199648  0.83451390  0.25140550  1
  Ga  Ga8  1  0.30094687  0.41786033  0.25058226  1
  Ga  Ga9  1  0.71375258  0.32729406  0.08046791  1
  Ga  Ga10  1  0.03468043  0.88682974  0.40140527  1
  Ga  Ga11  1  0.13410420  0.24883473  0.91945452  1
  Ga  Ga12  1  0.96690056  0.11351524  0.59814683  1
  Ga  Ga13  1  0.86931752  0.51402644  0.40226179  1
  Ga  Ga14  1  0.13159292  0.48529430  0.59900838  1
  Ga  Ga15  1  0.55010833  0.16782517  0.74915497  1
  Ga  Ga16  1  0.70110481  0.58217505  0.74974932  1
  Ga  Ga17  1  0.86715692  0.75295511  0.07971828  1
  S  S18  1  0.74566999  0.74553390  0.23640792  1
  S  S19  1  0.25607089  0.25684775  0.76286012  1
  S  S20  1  0.43002666  0.41568087  0.60204576  1
  S  S21  1  0.66958931  0.14905337  0.08781102  1
  S  S22  1  0.59306306  0.59108906  0.91880892  1
  S  S23  1  0.08476000  0.06325081  0.91251427  1
  S  S24  1  0.00747210  0.50565552  0.76353004  1
  S  S25  1  0.26129864  0.23980421  0.26408076  1
  S  S26  1  0.82686715  0.32667290  0.91899204  1
  S  S27  1  0.99208428  0.49150832  0.23699350  1
  S  S28  1  0.91629539  0.91015801  0.56736136  1
  S  S29  1  0.91915289  0.93799392  0.08585793  1
  S  S30  1  0.08290944  0.08964806  0.43132190  1
  S  S31  1  0.41025042  0.40810307  0.08207438  1
  S  S32  1  0.32902028  0.84832002  0.91123250  1
  S  S33  1  0.85072155  0.34135620  0.43198480  1
  S  S34  1  0.57062902  0.58333368  0.39986339  1
  S  S35  1  0.49829137  0.97688095  0.73759910  1
  S  S36  1  0.33159610  0.81575300  0.39982914  1
  S  S37  1  0.50706770  0.02581409  0.26436024  1
  S  S38  1  0.74124305  0.76092003  0.73706729  1
  S  S39  1  0.15135272  0.65792183  0.56847576  1
  S  S40  1  0.17439523  0.67582158  0.08250581  1
  S  S41  1  0.67265901  0.18712073  0.60150428  1
