# generated using pymatgen
data_LiSn4(PO4)3
_symmetry_space_group_name_H-M   'P 1'
_cell_length_a   9.78546957
_cell_length_b   10.00540445
_cell_length_c   9.78547936
_cell_angle_alpha   119.27546004
_cell_angle_beta   60.00002503
_cell_angle_gamma   119.27386960
_symmetry_Int_Tables_number   1
_chemical_formula_structural   LiSn4(PO4)3
_chemical_formula_sum   'Li2 Sn8 P6 O24'
_cell_volume   684.79229998
_cell_formula_units_Z   2
loop_
 _symmetry_equiv_pos_site_id
 _symmetry_equiv_pos_as_xyz
  1  'x, y, z'
loop_
 _atom_site_type_symbol
 _atom_site_label
 _atom_site_symmetry_multiplicity
 _atom_site_fract_x
 _atom_site_fract_y
 _atom_site_fract_z
 _atom_site_occupancy
  Li  Li0  1  0.04313338  0.12939510  0.04313238  1
  Li  Li1  1  0.54313343  0.62939510  0.54312947  1
  Sn  Sn2  1  0.12816680  0.97242891  0.58708654  1
  Sn  Sn3  1  0.62816673  0.47242938  0.75717556  1
  Sn  Sn4  1  0.58708073  0.97242606  0.25717284  1
  Sn  Sn5  1  0.19026300  0.57083617  0.19029457  1
  Sn  Sn6  1  0.69026320  0.07083625  0.69027777  1
  Sn  Sn7  1  0.08708031  0.47242609  0.62817291  1
  Sn  Sn8  1  0.75716245  0.47241759  0.08709240  1
  Sn  Sn9  1  0.25716245  0.97241764  0.12816295  1
  P  P10  1  0.82942179  0.85383805  0.29077712  1
  P  P11  1  0.73364367  0.85383636  0.82941671  1
  P  P12  1  0.32942105  0.35383840  0.23363965  1
  P  P13  1  0.79076568  0.35382730  0.32943196  1
  P  P14  1  0.23364350  0.35383675  0.79077658  1
  P  P15  1  0.29076537  0.85382663  0.73362990  1
  O  O16  1  0.67216056  0.32745911  0.50026576  1
  O  O17  1  0.68899183  0.68814650  0.25610897  1
  O  O18  1  0.81114485  0.98127071  0.25852663  1
  O  O19  1  0.17216063  0.82745930  0.65503354  1
  O  O20  1  0.50025256  0.32746936  0.15503383  1
  O  O21  1  0.31114467  0.48127083  0.41160046  1
  O  O22  1  0.15501545  0.32746935  0.67219425  1
  O  O23  1  0.18899267  0.18814722  0.24304503  1
  O  O24  1  0.47517510  0.91055340  0.62026379  1
  O  O25  1  0.75853124  0.48127289  0.31115757  1
  O  O26  1  0.62029265  0.91058884  0.81509978  1
  O  O27  1  0.65501571  0.82746916  0.00025880  1
  O  O28  1  0.12029247  0.41058946  0.97519681  1
  O  O29  1  0.24305012  0.18814008  0.75609750  1
  O  O30  1  0.91159271  0.98126490  0.81115717  1
  O  O31  1  0.31511955  0.41059764  0.12028347  1
  O  O32  1  0.25609486  0.68813118  0.74304085  1
  O  O33  1  0.81511922  0.91059774  0.47519565  1
  O  O34  1  0.74304956  0.68813962  0.68899244  1
  O  O35  1  0.25853143  0.98127244  0.91158362  1
  O  O36  1  0.75609537  0.18813178  0.18899622  1
  O  O37  1  0.41159465  0.48126609  0.75851492  1
  O  O38  1  0.97517374  0.41055266  0.31511406  1
  O  O39  1  0.00025186  0.82746896  0.17218458  1
