# generated using pymatgen
data_Ba6Ca6Tl5Cu9O29
_symmetry_space_group_name_H-M   'P 1'
_cell_length_a   3.88043154
_cell_length_b   3.88043058
_cell_length_c   52.81968997
_cell_angle_alpha   90.00001986
_cell_angle_beta   90.00003789
_cell_angle_gamma   90.00001816
_symmetry_Int_Tables_number   1
_chemical_formula_structural   Ba6Ca6Tl5Cu9O29
_chemical_formula_sum   'Ba6 Ca6 Tl5 Cu9 O29'
_cell_volume   795.34543371
_cell_formula_units_Z   1
loop_
 _symmetry_equiv_pos_site_id
 _symmetry_equiv_pos_as_xyz
  1  'x, y, z'
loop_
 _atom_site_type_symbol
 _atom_site_label
 _atom_site_symmetry_multiplicity
 _atom_site_fract_x
 _atom_site_fract_y
 _atom_site_fract_z
 _atom_site_occupancy
  Ba  Ba0  1  0.49999949  0.50000005  0.74888646  1
  Ba  Ba1  1  0.50000002  0.49999981  0.05107486  1
  Ba  Ba2  1  0.50000027  0.50000002  0.25121187  1
  Ba  Ba3  1  0.50000023  0.50000056  0.94882908  1
  Ba  Ba4  1  0.00000029  0.00000040  0.59875892  1
  Ba  Ba5  1  0.00000021  0.99999993  0.40125480  1
  Ca  Ca6  1  0.00000010  0.99999958  0.46872031  1
  Ca  Ca7  1  -0.00000007  0.99999990  0.53123877  1
  Ca  Ca8  1  0.49999998  0.50000003  0.81607906  1
  Ca  Ca9  1  0.50000007  0.49999946  0.87859354  1
  Ca  Ca10  1  0.50000023  0.49999995  0.18400014  1
  Ca  Ca11  1  0.49999995  0.50000006  0.12143231  1
  Tl  Tl12  1  0.50000008  0.50000012  0.34771341  1
  Tl  Tl13  1  0.49999987  0.49999990  0.65227176  1
  Tl  Tl14  1  0.00000001  0.99999998  0.30435740  1
  Tl  Tl15  1  0.00000050  0.00000022  0.99996286  1
  Tl  Tl16  1  0.00000007  0.00000004  0.69565241  1
  Cu  Cu17  1  0.00000013  0.00000015  0.21428496  1
  Cu  Cu18  1  0.00000007  0.00000009  0.84638309  1
  Cu  Cu19  1  0.50000005  0.49999982  0.43806152  1
  Cu  Cu20  1  0.00000004  0.00000010  0.15365836  1
  Cu  Cu21  1  0.49999991  0.50000021  0.56193075  1
  Cu  Cu22  1  0.00000004  0.99999977  0.09085313  1
  Cu  Cu23  1  0.00000009  -0.00000001  0.90906839  1
  Cu  Cu24  1  0.99999991  0.99999995  0.78578372  1
  Cu  Cu25  1  0.49999992  0.49999988  0.50000490  1
  O  O26  1  0.99999968  0.49999983  0.78593004  1
  O  O27  1  0.50000002  0.99999985  0.15387966  1
  O  O28  1  0.00000024  0.50000025  0.21412870  1
  O  O29  1  0.50000051  0.50000039  0.61369304  1
  O  O30  1  0.99999978  0.50000020  0.56132502  1
  O  O31  1  0.99999976  0.50000006  0.90629922  1
  O  O32  1  0.49999947  -0.00000029  0.78593005  1
  O  O33  1  0.49999986  0.49999994  0.69175318  1
  O  O34  1  0.00000022  0.00000025  0.26585191  1
  O  O35  1  0.00000008  0.00000030  0.96016765  1
  O  O36  1  0.50000014  -0.00000001  0.43866650  1
  O  O37  1  0.49999987  0.00000023  0.90629924  1
  O  O38  1  0.49999997  0.50000011  0.30823604  1
  O  O39  1  0.00000002  0.50000005  0.15387963  1
  O  O40  1  0.50000009  0.00000030  0.56132500  1
  O  O41  1  0.00000014  0.00000010  0.34382904  1
  O  O42  1  0.50000017  0.49999989  0.38626536  1
  O  O43  1  0.50000001  0.00000004  0.09367699  1
  O  O44  1  0.50000012  0.00000011  0.21412870  1
  O  O45  1  0.49999971  0.99999973  0.50000541  1
  O  O46  1  0.99999968  0.00000004  0.73415962  1
  O  O47  1  0.99999959  0.49999997  0.84613744  1
  O  O48  1  0.00000013  0.99999973  0.03976487  1
  O  O49  1  0.00000006  0.00000016  0.65616997  1
  O  O50  1  0.99999995  0.49999987  0.43866652  1
  O  O51  1  0.49999982  -0.00000039  0.84613735  1
  O  O52  1  0.00000012  0.49999982  0.09367706  1
  O  O53  1  -0.00000001  0.49999932  0.50000539  1
  O  O54  1  0.49999937  0.50000019  0.99994459  1
