# generated using pymatgen
data_Gd5AgS8
_symmetry_space_group_name_H-M   'P 1'
_cell_length_a   7.25055762
_cell_length_b   7.25055783
_cell_length_c   7.25055800
_cell_angle_alpha   109.53376241
_cell_angle_beta   109.53376294
_cell_angle_gamma   109.34620863
_symmetry_Int_Tables_number   1
_chemical_formula_structural   Gd5AgS8
_chemical_formula_sum   'Gd5 Ag1 S8'
_cell_volume   293.42074856
_cell_formula_units_Z   1
loop_
 _symmetry_equiv_pos_site_id
 _symmetry_equiv_pos_as_xyz
  1  'x, y, z'
loop_
 _atom_site_type_symbol
 _atom_site_label
 _atom_site_symmetry_multiplicity
 _atom_site_fract_x
 _atom_site_fract_y
 _atom_site_fract_z
 _atom_site_occupancy
  Gd  Gd0  1  0.11059050  0.74633676  0.86895779  1
  Gd  Gd1  1  0.25366324  0.62262102  0.36425374  1
  Gd  Gd2  1  0.37737898  0.24163272  0.63104221  1
  Gd  Gd3  1  0.75836728  0.88940950  0.13574626  1
  Gd  Gd4  1  0.62500000  0.37500000  0.25000000  1
  Ag  Ag5  1  0.87500000  0.12500000  0.75000000  1
  S  S6  1  -0.00371545  0.85524926  0.49967983  1
  S  S7  1  0.00597247  0.36548733  0.49150113  1
  S  S8  1  0.50339528  0.00371545  0.35896471  1
  S  S9  1  0.14475074  0.14443057  0.14103529  1
  S  S10  1  0.37398619  0.51447133  0.00849887  1
  S  S11  1  0.63451267  0.62601381  0.64048514  1
  S  S12  1  0.48552867  -0.00597247  0.85951486  1
  S  S13  1  0.85556943  0.49660472  0.00032017  1
