# generated using pymatgen
data_Gd2CdSe4
_symmetry_space_group_name_H-M   'P 1'
_cell_length_a   7.64788194
_cell_length_b   7.64788166
_cell_length_c   7.64788151
_cell_angle_alpha   110.62691385
_cell_angle_beta   110.62691329
_cell_angle_gamma   107.18376976
_symmetry_Int_Tables_number   1
_chemical_formula_structural   Gd2CdSe4
_chemical_formula_sum   'Gd4 Cd2 Se8'
_cell_volume   343.94159198
_cell_formula_units_Z   2
loop_
 _symmetry_equiv_pos_site_id
 _symmetry_equiv_pos_as_xyz
  1  'x, y, z'
loop_
 _atom_site_type_symbol
 _atom_site_label
 _atom_site_symmetry_multiplicity
 _atom_site_fract_x
 _atom_site_fract_y
 _atom_site_fract_z
 _atom_site_occupancy
  Gd  Gd0  1  0.11478862  0.75000000  0.86478862  1
  Gd  Gd1  1  0.25000000  0.61478862  0.36478862  1
  Gd  Gd2  1  0.38521138  0.25000000  0.63521138  1
  Gd  Gd3  1  0.75000000  0.88521138  0.13521138  1
  Cd  Cd4  1  0.62500000  0.37500000  0.25000000  1
  Cd  Cd5  1  0.87500000  0.12500000  0.75000000  1
  Se  Se6  1  0.49268652  0.00300595  0.87342687  1
  Se  Se7  1  0.11925964  0.12957907  0.12657313  1
  Se  Se8  1  0.38074036  0.50731348  0.01031943  1
  Se  Se9  1  0.62957907  0.61925964  0.62657313  1
  Se  Se10  1  0.50300595  0.99268652  0.37342687  1
  Se  Se11  1  0.00731348  0.88074036  0.51031943  1
  Se  Se12  1  0.87042093  0.49699405  0.98968057  1
  Se  Se13  1  0.99699405  0.37042093  0.48968057  1
