# generated using pymatgen
data_Na3SrTiNb3O12
_symmetry_space_group_name_H-M   'P 1'
_cell_length_a   7.92616207
_cell_length_b   7.92843249
_cell_length_c   8.01393431
_cell_angle_alpha   90.00000000
_cell_angle_beta   90.00000000
_cell_angle_gamma   89.84133914
_symmetry_Int_Tables_number   1
_chemical_formula_structural   Na3SrTiNb3O12
_chemical_formula_sum   'Na6 Sr2 Ti2 Nb6 O24'
_cell_volume   503.61005705
_cell_formula_units_Z   2
loop_
 _symmetry_equiv_pos_site_id
 _symmetry_equiv_pos_as_xyz
  1  'x, y, z'
loop_
 _atom_site_type_symbol
 _atom_site_label
 _atom_site_symmetry_multiplicity
 _atom_site_fract_x
 _atom_site_fract_y
 _atom_site_fract_z
 _atom_site_occupancy
  Na  Na0  1  0.00000000  0.00000000  0.23633557  1
  Na  Na1  1  0.00000000  0.50000000  0.23215504  1
  Na  Na2  1  0.00000000  0.50000000  0.76752538  1
  Na  Na3  1  0.50000000  0.00000000  0.23247462  1
  Na  Na4  1  0.50000000  0.00000000  0.76784496  1
  Na  Na5  1  0.50000000  0.50000000  0.76366443  1
  Sr  Sr6  1  0.00000000  0.00000000  0.76136727  1
  Sr  Sr7  1  0.50000000  0.50000000  0.23863273  1
  Ti  Ti8  1  0.25000000  0.75000000  0.00000000  1
  Ti  Ti9  1  0.75000000  0.25000000  0.00000000  1
  Nb  Nb10  1  0.25000000  0.25000000  0.00000000  1
  Nb  Nb11  1  0.25000000  0.25000000  0.50000000  1
  Nb  Nb12  1  0.25000000  0.75000000  0.50000000  1
  Nb  Nb13  1  0.75000000  0.25000000  0.50000000  1
  Nb  Nb14  1  0.75000000  0.75000000  0.00000000  1
  Nb  Nb15  1  0.75000000  0.75000000  0.50000000  1
  O  O16  1  0.99818623  0.27459285  0.00222188  1
  O  O17  1  0.00181377  0.72540715  0.00222188  1
  O  O18  1  0.00069719  0.20263713  0.49184144  1
  O  O19  1  0.22125436  0.99807316  0.00458204  1
  O  O20  1  0.20745365  0.49938032  0.49927544  1
  O  O21  1  0.23942044  0.24249943  0.74902222  1
  O  O22  1  0.23994370  0.75707406  0.75045433  1
  O  O23  1  0.26057956  0.25750057  0.25097778  1
  O  O24  1  0.26005630  0.74292594  0.24954567  1
  O  O25  1  0.29254635  0.00061968  0.50072456  1
  O  O26  1  0.27874564  0.50192684  0.99541796  1
  O  O27  1  0.50181377  0.22540715  0.99777812  1
  O  O28  1  0.49930281  0.29736287  0.50815856  1
  O  O29  1  0.49818623  0.77459285  0.99777812  1
  O  O30  1  0.50069719  0.70263713  0.50815856  1
  O  O31  1  0.72125436  0.49807316  0.99541796  1
  O  O32  1  0.70745365  0.99938032  0.50072456  1
  O  O33  1  0.73994370  0.25707406  0.24954567  1
  O  O34  1  0.73942044  0.74249943  0.25097778  1
  O  O35  1  0.76005630  0.24292594  0.75045433  1
  O  O36  1  0.76057956  0.75750057  0.74902222  1
  O  O37  1  0.79254635  0.50061968  0.49927544  1
  O  O38  1  0.77874564  0.00192684  0.00458204  1
  O  O39  1  0.99930281  0.79736287  0.49184144  1
