# generated using pymatgen
data_Ag2CO3
_symmetry_space_group_name_H-M   'P 1'
_cell_length_a   9.23145363
_cell_length_b   18.38533232
_cell_length_c   3.44682293
_cell_angle_alpha   90.34686110
_cell_angle_beta   90.01684059
_cell_angle_gamma   120.16845110
_symmetry_Int_Tables_number   1
_chemical_formula_structural   Ag2CO3
_chemical_formula_sum   'Ag12 C6 O18'
_cell_volume   505.75513676
_cell_formula_units_Z   6
loop_
 _symmetry_equiv_pos_site_id
 _symmetry_equiv_pos_as_xyz
  1  'x, y, z'
loop_
 _atom_site_type_symbol
 _atom_site_label
 _atom_site_symmetry_multiplicity
 _atom_site_fract_x
 _atom_site_fract_y
 _atom_site_fract_z
 _atom_site_occupancy
  Ag  Ag0  1  0.34575173  0.67268087  0.50370449  1
  Ag  Ag1  1  0.64604917  0.82140391  0.99912961  1
  Ag  Ag2  1  0.34682803  0.49817409  0.99778431  1
  Ag  Ag3  1  0.00115303  0.82769803  0.49300918  1
  Ag  Ag4  1  0.33900446  0.16996403  0.50397368  1
  Ag  Ag5  1  0.65641662  0.49932022  0.49567118  1
  Ag  Ag6  1  0.00450192  0.67800777  0.99962987  1
  Ag  Ag7  1  0.64885871  0.32909248  0.99822367  1
  Ag  Ag8  1  0.35000601  0.00174922  0.99939707  1
  Ag  Ag9  1  0.99966479  0.33075011  0.49750316  1
  Ag  Ag10  1  0.65971568  0.00144483  0.50571166  1
  Ag  Ag11  1  0.98986896  0.17050105  0.00710117  1
  C  C12  1  0.33486451  0.83402744  0.50130795  1
  C  C13  1  0.00166536  0.50111656  0.99906430  1
  C  C14  1  0.33123463  0.33274722  0.49692295  1
  C  C15  1  0.99757546  0.99852771  0.00097912  1
  C  C16  1  0.66711022  0.66665513  0.49710789  1
  C  C17  1  0.66556353  0.16800288  0.50374599  1
  O  O18  1  0.05997208  0.94871471  0.00024371  1
  O  O19  1  0.27261231  0.88349210  0.49699639  1
  O  O20  1  0.23390901  0.75239628  0.50300646  1
  O  O21  1  0.16364350  0.55104049  0.99748153  1
  O  O22  1  0.49509191  0.86460497  0.50288229  1
  O  O23  1  0.83583575  0.96697908  0.00389544  1
  O  O24  1  0.50595697  0.61696720  0.50299277  1
  O  O25  1  0.27343207  0.38430047  0.49053685  1
  O  O26  1  0.72967945  0.74822927  0.49328252  1
  O  O27  1  0.22912447  0.25246246  0.50124255  1
  O  O28  1  0.09737953  0.08017703  0.99872756  1
  O  O29  1  0.49299231  0.36233837  0.49802710  1
  O  O30  1  0.76642851  0.63600334  0.49599186  1
  O  O31  1  0.90248266  0.53257852  -0.00001125  1
  O  O32  1  0.50475317  0.11609056  0.50381712  1
  O  O33  1  0.72465964  0.24829864  0.49778162  1
  O  O34  1  0.93833988  0.41964400  0.00007862  1
  O  O35  1  0.76779898  0.13811195  0.50876662  1
