# generated using pymatgen
data_Ca2La2MgTi3O12
_symmetry_space_group_name_H-M   'P 1'
_cell_length_a   5.51821592
_cell_length_b   5.58067967
_cell_length_c   15.59867548
_cell_angle_alpha   90.00014856
_cell_angle_beta   90.00000000
_cell_angle_gamma   90.00000000
_symmetry_Int_Tables_number   1
_chemical_formula_structural   Ca2La2MgTi3O12
_chemical_formula_sum   'Ca4 La4 Mg2 Ti6 O24'
_cell_volume   480.36737923
_cell_formula_units_Z   2
loop_
 _symmetry_equiv_pos_site_id
 _symmetry_equiv_pos_as_xyz
  1  'x, y, z'
loop_
 _atom_site_type_symbol
 _atom_site_label
 _atom_site_symmetry_multiplicity
 _atom_site_fract_x
 _atom_site_fract_y
 _atom_site_fract_z
 _atom_site_occupancy
  Ca  Ca0  1  0.00960216  0.96217553  0.87916924  1
  Ca  Ca1  1  0.49039784  0.46217553  0.87916924  1
  Ca  Ca2  1  0.50960216  0.53782447  0.12083076  1
  Ca  Ca3  1  0.99039784  0.03782447  0.12083076  1
  La  La4  1  0.01534182  0.96861021  0.38089494  1
  La  La5  1  0.48465818  0.46861021  0.38089494  1
  La  La6  1  0.51534182  0.53138979  0.61910506  1
  La  La7  1  0.98465818  0.03138979  0.61910506  1
  Mg  Mg8  1  0.50000000  0.00000000  0.50000000  1
  Mg  Mg9  1  0.00000000  0.50000000  0.50000000  1
  Ti  Ti10  1  0.00000000  0.50000000  0.00000000  1
  Ti  Ti11  1  0.50591563  0.99088013  0.24516484  1
  Ti  Ti12  1  0.50000000  0.00000000  0.00000000  1
  Ti  Ti13  1  0.49408437  0.00911987  0.75483516  1
  Ti  Ti14  1  0.99408437  0.49088013  0.24516484  1
  Ti  Ti15  1  0.00591563  0.50911987  0.75483516  1
  O  O16  1  0.08371789  0.48102431  0.12164215  1
  O  O17  1  0.07990901  0.48361332  0.63588790  1
  O  O18  1  0.22166268  0.22707741  0.26866566  1
  O  O19  1  0.21703398  0.21705024  0.47775728  1
  O  O20  1  0.22158154  0.21662508  0.77775369  1
  O  O21  1  0.21867442  0.21866465  0.97817326  1
  O  O22  1  0.27833732  0.72707741  0.26866566  1
  O  O23  1  0.28296602  0.71705024  0.47775728  1
  O  O24  1  0.27841846  0.71662508  0.77775369  1
  O  O25  1  0.28132558  0.71866465  0.97817326  1
  O  O26  1  0.41628211  0.98102431  0.12164215  1
  O  O27  1  0.42009099  0.98361332  0.63588790  1
  O  O28  1  0.58371789  0.01897569  0.87835785  1
  O  O29  1  0.57990901  0.01638668  0.36411210  1
  O  O30  1  0.71867442  0.28133535  0.02182674  1
  O  O31  1  0.72158154  0.28337492  0.22224631  1
  O  O32  1  0.71703398  0.28294976  0.52224272  1
  O  O33  1  0.72166268  0.27292259  0.73133434  1
  O  O34  1  0.78132558  0.78133535  0.02182674  1
  O  O35  1  0.77841846  0.78337492  0.22224631  1
  O  O36  1  0.78296602  0.78294976  0.52224272  1
  O  O37  1  0.77833732  0.77292259  0.73133434  1
  O  O38  1  0.92009099  0.51638668  0.36411210  1
  O  O39  1  0.91628211  0.51897569  0.87835785  1
