# generated using pymatgen
data_Ce8Gd2O19
_symmetry_space_group_name_H-M   'P 1'
_cell_length_a   3.86068640
_cell_length_b   38.64093352
_cell_length_c   36.86491184
_cell_angle_alpha   5.20770019
_cell_angle_beta   58.38953559
_cell_angle_gamma   59.99675487
_symmetry_Int_Tables_number   1
_chemical_formula_structural   Ce8Gd2O19
_chemical_formula_sum   'Ce8 Gd2 O19'
_cell_volume   407.64593642
_cell_formula_units_Z   1
loop_
 _symmetry_equiv_pos_site_id
 _symmetry_equiv_pos_as_xyz
  1  'x, y, z'
loop_
 _atom_site_type_symbol
 _atom_site_label
 _atom_site_symmetry_multiplicity
 _atom_site_fract_x
 _atom_site_fract_y
 _atom_site_fract_z
 _atom_site_occupancy
  Ce  Ce0  1  0.99779674  0.20235992  0.99760646  1
  Ce  Ce1  1  0.99869255  0.30410976  0.99577436  1
  Ce  Ce2  1  0.00214920  0.40173556  0.99816462  1
  Ce  Ce3  1  0.00600411  0.49989168  0.00002810  1
  Ce  Ce4  1  0.00178519  0.59897499  0.00088515  1
  Ce  Ce5  1  0.99788568  0.69917272  0.00064414  1
  Ce  Ce6  1  0.99933637  0.80152063  0.99824574  1
  Ce  Ce7  1  0.99929150  0.90418027  0.99551796  1
  Gd  Gd8  1  0.02690897  0.02646153  0.96719315  1
  Gd  Gd9  1  0.96590704  0.07522769  0.03080598  1
  O  O10  1  0.24853784  0.10186255  0.24800857  1
  O  O11  1  0.25380559  0.19941061  0.25086395  1
  O  O12  1  0.25611961  0.30029341  0.24944184  1
  O  O13  1  0.24881961  0.39873150  0.25109166  1
  O  O14  1  0.24803985  0.49933459  0.25039368  1
  O  O15  1  0.24422357  0.59881915  0.25235397  1
  O  O16  1  0.75890390  0.11043313  0.73783827  1
  O  O17  1  0.26673512  0.71889851  0.22661187  1
  O  O18  1  0.71860529  0.18052414  0.77465688  1
  O  O19  1  0.75133997  0.29637235  0.75352072  1
  O  O20  1  0.22469418  0.88296818  0.27135536  1
  O  O21  1  0.77375571  0.42221773  0.72225308  1
  O  O22  1  0.25641598  0.01117446  0.23728135  1
  O  O23  1  0.74178836  0.49945154  0.75195679  1
  O  O24  1  0.74893882  0.60228894  0.74755495  1
  O  O25  1  0.75711068  0.70189413  0.74776732  1
  O  O26  1  0.75426355  0.79894897  0.75110405  1
  O  O27  1  0.74829126  0.89868328  0.75117452  1
  O  O28  1  0.74687275  0.99787808  0.75215553  1
