# generated using pymatgen
data_MgU2O6
_symmetry_space_group_name_H-M   'P 1'
_cell_length_a   7.47166724
_cell_length_b   11.09156894
_cell_length_c   6.39543879
_cell_angle_alpha   30.12808681
_cell_angle_beta   55.78655434
_cell_angle_gamma   60.90121526
_symmetry_Int_Tables_number   1
_chemical_formula_structural   MgU2O6
_chemical_formula_sum   'Mg2 U4 O12'
_cell_volume   219.99189576
_cell_formula_units_Z   2
loop_
 _symmetry_equiv_pos_site_id
 _symmetry_equiv_pos_as_xyz
  1  'x, y, z'
loop_
 _atom_site_type_symbol
 _atom_site_label
 _atom_site_symmetry_multiplicity
 _atom_site_fract_x
 _atom_site_fract_y
 _atom_site_fract_z
 _atom_site_occupancy
  Mg  Mg0  1  1.00000000  0.34462819  0.98305722  1
  Mg  Mg1  1  0.50000000  0.65537181  0.01694278  1
  U  U2  1  0.00000000  0.99122184  0.01316724  1
  U  U3  1  0.50000000  0.00877816  0.98683276  1
  U  U4  1  0.00000000  0.66790201  -0.00185251  1
  U  U5  1  0.50000000  0.33209799  0.00185251  1
  O  O6  1  0.12672735  0.00474570  0.24098329  1
  O  O7  1  0.12913028  0.32832058  0.26313986  1
  O  O8  1  0.62672735  0.99525430  0.25522037  1
  O  O9  1  0.11694326  0.66723406  0.24678387  1
  O  O10  1  0.38305674  0.33276594  0.75321613  1
  O  O11  1  0.61694326  0.33276594  0.24848506  1
  O  O12  1  0.37086972  0.67167942  0.73686014  1
  O  O13  1  0.62913028  0.67167942  0.24810262  1
  O  O14  1  0.87086972  0.32832058  0.75189738  1
  O  O15  1  0.37327265  0.99525430  0.75901671  1
  O  O16  1  0.88305674  0.66723406  0.75151494  1
  O  O17  1  0.87327265  0.00474570  0.74477963  1
