# generated using pymatgen
data_Ti3Fe5O12
_symmetry_space_group_name_H-M   'P 1'
_cell_length_a   5.54432557
_cell_length_b   11.06916077
_cell_length_c   9.80934670
_cell_angle_alpha   27.76636173
_cell_angle_beta   50.43174540
_cell_angle_gamma   55.61457898
_symmetry_Int_Tables_number   1
_chemical_formula_structural   Ti3Fe5O12
_chemical_formula_sum   'Ti3 Fe5 O12'
_cell_volume   216.19351130
_cell_formula_units_Z   1
loop_
 _symmetry_equiv_pos_site_id
 _symmetry_equiv_pos_as_xyz
  1  'x, y, z'
loop_
 _atom_site_type_symbol
 _atom_site_label
 _atom_site_symmetry_multiplicity
 _atom_site_fract_x
 _atom_site_fract_y
 _atom_site_fract_z
 _atom_site_occupancy
  Ti  Ti0  1  0.35484637  0.00184443  0.35598368  1
  Ti  Ti1  1  0.83442745  0.99497456  0.86650681  1
  Ti  Ti2  1  0.86791590  0.50589523  0.84333133  1
  Fe  Fe3  1  0.14662288  -0.00051776  0.13954633  1
  Fe  Fe4  1  0.14704709  0.50081383  0.14654040  1
  Fe  Fe5  1  0.35521752  0.50053641  0.35329302  1
  Fe  Fe6  1  0.63804157  0.99863589  0.64657184  1
  Fe  Fe7  1  0.64859733  0.49903756  0.64341104  1
  O  O8  1  0.08305497  0.15043232  0.43297377  1
  O  O9  1  0.71002027  0.18984159  0.07732576  1
  O  O10  1  0.56603248  0.37594643  0.20834354  1
  O  O11  1  0.05962226  0.62721429  0.47396468  1
  O  O12  1  0.47093748  0.16615662  0.72520754  1
  O  O13  1  0.74584952  0.69154747  0.06670851  1
  O  O14  1  0.21524934  0.30532640  0.96244184  1
  O  O15  1  0.57949933  0.87237629  0.21857048  1
  O  O16  1  0.96678281  0.31919888  0.56656084  1
  O  O17  1  0.43978800  0.67897466  0.72986664  1
  O  O18  1  0.21079591  0.79993290  0.96589555  1
  O  O19  1  0.95965150  0.82183199  0.57695640  1
