# generated using pymatgen
data_Ca5Mg5P5O21F4
_symmetry_space_group_name_H-M   'P 1'
_cell_length_a   5.51042431
_cell_length_b   5.51042386
_cell_length_c   70.68457683
_cell_angle_alpha   103.16990954
_cell_angle_beta   103.16990735
_cell_angle_gamma   106.81329877
_symmetry_Int_Tables_number   1
_chemical_formula_structural   Ca5Mg5P5O21F4
_chemical_formula_sum   'Ca20 Mg20 P20 O84 F16'
_cell_volume   1898.59014162
_cell_formula_units_Z   4
loop_
 _symmetry_equiv_pos_site_id
 _symmetry_equiv_pos_as_xyz
  1  'x, y, z'
loop_
 _atom_site_type_symbol
 _atom_site_label
 _atom_site_symmetry_multiplicity
 _atom_site_fract_x
 _atom_site_fract_y
 _atom_site_fract_z
 _atom_site_occupancy
  Ca  Ca0  1  0.16114196  0.83913092  0.97472654  1
  Ca  Ca1  1  0.15920380  0.84078746  0.87499761  1
  Ca  Ca2  1  0.16119448  0.83853651  0.77494856  1
  Ca  Ca3  1  0.16137809  0.83857306  0.67499768  1
  Ca  Ca4  1  0.16142001  0.83857999  0.57500000  1
  Ca  Ca5  1  0.83889381  0.16089538  0.92527977  1
  Ca  Ca6  1  0.16142694  0.83862191  0.47500232  1
  Ca  Ca7  1  0.83894688  0.16110650  0.82467162  1
  Ca  Ca8  1  0.16146349  0.83880552  0.37505144  1
  Ca  Ca9  1  0.83858155  0.16138637  0.72499175  1
  Ca  Ca10  1  0.15921254  0.84079620  0.27500239  1
  Ca  Ca11  1  0.83854281  0.16138573  0.62499649  1
  Ca  Ca12  1  0.16086908  0.83885804  0.17527346  1
  Ca  Ca13  1  0.83861427  0.16145719  0.52500351  1
  Ca  Ca14  1  0.16074006  0.83925994  0.07500000  1
  Ca  Ca15  1  0.83861363  0.16141845  0.42500825  1
  Ca  Ca16  1  0.83889350  0.16105312  0.32532838  1
  Ca  Ca17  1  0.83910462  0.16110619  0.22472023  1
  Ca  Ca18  1  0.84089477  0.15911186  0.12504431  1
  Ca  Ca19  1  0.84088814  0.15910523  0.02495569  1
  Mg  Mg20  1  0.50003325  0.49997119  0.94999899  1
  Mg  Mg21  1  0.50436094  0.50407050  0.90048917  1
  Mg  Mg22  1  0.49591648  0.49552470  0.84947191  1
  Mg  Mg23  1  0.49981226  0.50021107  0.79984854  1
  Mg  Mg24  1  0.49996386  0.49989283  0.74995885  1
  Mg  Mg25  1  0.49996504  0.50001795  0.69999309  1
  Mg  Mg26  1  0.50002141  0.50000751  0.64999652  1
  Mg  Mg27  1  0.50000211  0.50001577  0.59999760  1
  Mg  Mg28  1  0.49998423  0.49999789  0.55000240  1
  Mg  Mg29  1  0.49999249  0.49997859  0.50000348  1
  Mg  Mg30  1  0.49998205  0.50003496  0.45000691  1
  Mg  Mg31  1  0.50010717  0.50003614  0.40004115  1
  Mg  Mg32  1  0.49978893  0.50018774  0.35015146  1
  Mg  Mg33  1  0.50447531  0.50408352  0.30052809  1
  Mg  Mg34  1  0.49592950  0.49563906  0.24951083  1
  Mg  Mg35  1  0.50002881  0.49996675  0.20000101  1
  Mg  Mg36  1  0.50399652  0.50438690  0.15050923  1
  Mg  Mg37  1  0.49574003  0.49572801  0.09961815  1
  Mg  Mg38  1  0.50427199  0.50425997  0.05038185  1
  Mg  Mg39  1  0.49561310  0.49600348  0.99949077  1
  P  P40  1  0.18079651  0.82308107  0.92530688  1
  P  P41  1  0.17705160  0.81911549  0.82462759  1
  P  P42  1  0.17883271  0.82107805  0.72498802  1
  P  P43  1  0.17876812  0.82100847  0.62496932  1
  P  P44  1  0.81920675  0.17694987  0.97468697  1
  P  P45  1  0.17899153  0.82123188  0.52503068  1
  P  P46  1  0.82066841  0.17928702  0.87499374  1
  P  P47  1  0.17892195  0.82116729  0.42501198  1
  P  P48  1  0.82117701  0.17880485  0.77490841  1
  P  P49  1  0.18088451  0.82294840  0.32537241  1
  P  P50  1  0.82103531  0.17879379  0.67498025  1
  P  P51  1  0.17691893  0.81920349  0.22469312  1
  P  P52  1  0.82110225  0.17889775  0.57500000  1
  P  P53  1  0.17916280  0.82070858  0.12505462  1
  P  P54  1  0.82120621  0.17896470  0.47501975  1
  P  P55  1  0.17929142  0.82083720  0.02494538  1
  P  P56  1  0.82119515  0.17882299  0.37509159  1
  P  P57  1  0.82071298  0.17933159  0.27500626  1
  P  P58  1  0.82305013  0.18079325  0.17531303  1
  P  P59  1  0.82099690  0.17900310  0.07500000  1
  O  O60  1  0.09426974  0.23985143  0.99076608  1
  O  O61  1  0.17025254  0.61094938  0.93675321  1
  O  O62  1  0.09838000  0.24333224  0.89080166  1
  O  O63  1  0.23912235  0.09798864  0.94111492  1
  O  O64  1  0.39461135  0.83360284  0.91413533  1
  O  O65  1  0.16643756  0.60530256  0.83581309  1
  O  O66  1  0.09730637  0.24098769  0.79077703  1
  O  O67  1  0.41313404  0.58681569  0.87498694  1
  O  O68  1  0.23979712  0.09415853  0.84071146  1
  O  O69  1  0.38932926  0.82989591  0.81320771  1
  O  O70  1  0.60531238  0.16629005  0.98585722  1
  O  O71  1  0.17076100  0.61058405  0.73657054  1
  O  O72  1  0.76096515  0.90197158  0.95889057  1
  O  O73  1  0.09708850  0.24092992  0.69084601  1
  O  O74  1  0.24091366  0.09701966  0.74083992  1
  O  O75  1  0.82981547  0.38896288  0.96325402  1
  O  O76  1  0.38932309  0.82917927  0.71340696  1
  O  O77  1  0.61211389  0.16843702  0.88670214  1
  O  O78  1  0.17085023  0.61058608  0.63659171  1
  O  O79  1  0.75672020  0.90153429  0.85919640  1
  O  O80  1  0.90574632  0.76019279  0.90924358  1
  O  O81  1  0.09707213  0.24090310  0.59084339  1
  O  O82  1  0.24093837  0.09718319  0.64085082  1
  O  O83  1  0.83151186  0.38778749  0.86327942  1
  O  O84  1  0.38928775  0.82919349  0.61342034  1
  O  O85  1  0.61082823  0.17097101  0.78654041  1
  O  O86  1  0.17080651  0.61071225  0.53657966  1
  O  O87  1  0.75913561  0.90297028  0.75911037  1
  O  O88  1  0.90229693  0.76098998  0.80882104  1
  O  O89  1  0.09689229  0.24084990  0.49083716  1
  O  O90  1  0.24082027  0.09687738  0.54083436  1
  O  O91  1  0.82921519  0.38921638  0.76336367  1
  O  O92  1  0.38941392  0.82914977  0.51340829  1
  O  O93  1  0.61060334  0.17087021  0.68658956  1
  O  O94  1  0.17082073  0.61067691  0.43659304  1
  O  O95  1  0.75915010  0.90310771  0.65916284  1
  O  O96  1  0.90294047  0.75915298  0.70915149  1
  O  O97  1  0.09702972  0.24086439  0.39088963  1
  O  O98  1  0.24084702  0.09705953  0.44084851  1
  O  O99  1  0.82916713  0.38932938  0.66341639  1
  O  O100  1  0.38941595  0.82923900  0.41342946  1
  O  O101  1  0.61065828  0.17083509  0.58658670  1
  O  O102  1  0.17010409  0.61067074  0.33679229  1
  O  O103  1  0.75909690  0.90292787  0.55915661  1
  O  O104  1  0.90312262  0.75917973  0.60916564  1
  O  O105  1  0.09846571  0.24327980  0.29080360  1
  O  O106  1  0.23901002  0.09770307  0.34117896  1
  O  O107  1  0.82916491  0.38934172  0.56341330  1
  O  O108  1  0.39469745  0.83356244  0.31418691  1
  O  O109  1  0.61067062  0.17083287  0.48658361  1
  O  O110  1  0.16639716  0.60538866  0.23586467  1
  O  O111  1  0.75907008  0.90291150  0.45915399  1
  O  O112  1  0.90281681  0.75906163  0.50914918  1
  O  O113  1  0.09802842  0.23903485  0.19110943  1
  O  O114  1  0.41318431  0.58686596  0.27501306  1
  O  O115  1  0.23980721  0.09425368  0.24075642  1
  O  O116  1  0.82912979  0.38939666  0.46341044  1
  O  O117  1  0.38905062  0.82974746  0.21324679  1
  O  O118  1  0.61078362  0.17078481  0.38663633  1
  O  O119  1  0.16827163  0.61214387  0.13674812  1
  O  O120  1  0.75901231  0.90269363  0.35922297  1
  O  O121  1  0.90298034  0.75908634  0.40916008  1
  O  O122  1  0.09496930  0.23782526  0.09105115  1
  O  O123  1  0.24332934  0.09845995  0.14085397  1
  O  O124  1  0.82902899  0.38917177  0.36345959  1
  O  O125  1  0.38752207  0.83138202  0.11332491  1
  O  O126  1  0.61221251  0.16848814  0.28672058  1
  O  O127  1  0.16861798  0.61247793  0.03667509  1
  O  O128  1  0.75666776  0.90162000  0.25919834  1
  O  O129  1  0.90584147  0.76020288  0.30928854  1
  O  O130  1  0.24327284  0.09867000  0.04074386  1
  O  O131  1  0.83156298  0.38788611  0.26329786  1
  O  O132  1  0.38785613  0.83172837  0.01325188  1
  O  O133  1  0.61103712  0.17018453  0.18674598  1
  O  O134  1  0.76014857  0.90573026  0.15923392  1
  O  O135  1  0.58713837  0.41328865  0.12505778  1
  O  O136  1  0.90201136  0.76087765  0.20888508  1
  O  O137  1  0.83370995  0.39468762  0.16414278  1
  O  O138  1  0.60535453  0.16556771  0.08601334  1
  O  O139  1  0.76217474  0.90503071  0.05894885  1
  O  O140  1  0.58671135  0.41286163  0.02494222  1
  O  O141  1  0.90133000  0.75672716  0.10925614  1
  O  O142  1  0.83443229  0.39464547  0.06398666  1
  O  O143  1  0.90154005  0.75667066  0.00914603  1
  F  F144  1  0.41453914  0.58671708  0.97486638  1
  F  F145  1  0.58533525  0.41323861  0.92509806  1
  F  F146  1  0.41433831  0.58505657  0.77492165  1
  F  F147  1  0.58619367  0.41448441  0.82482669  1
  F  F148  1  0.41481055  0.58516224  0.67499410  1
  F  F149  1  0.58514871  0.41471314  0.72497912  1
  F  F150  1  0.41479219  0.58520781  0.57500000  1
  F  F151  1  0.58517452  0.41481761  0.62499221  1
  F  F152  1  0.41483776  0.58518945  0.47500590  1
  F  F153  1  0.58518239  0.41482548  0.52500779  1
  F  F154  1  0.41494343  0.58566169  0.37507835  1
  F  F155  1  0.58528686  0.41485129  0.42502088  1
  F  F156  1  0.58551559  0.41380633  0.32517331  1
  F  F157  1  0.41328292  0.58546086  0.17513362  1
  F  F158  1  0.58676139  0.41466475  0.22490194  1
  F  F159  1  0.41343983  0.58656016  0.07500000  1
