# generated using pymatgen
data_NaLa2Ti2MnO9
_symmetry_space_group_name_H-M   'P 1'
_cell_length_a   5.53269773
_cell_length_b   5.53269769
_cell_length_c   16.58503967
_cell_angle_alpha   60.31673474
_cell_angle_beta   60.31673500
_cell_angle_gamma   60.31358910
_symmetry_Int_Tables_number   1
_chemical_formula_structural   NaLa2Ti2MnO9
_chemical_formula_sum   'Na2 La4 Ti4 Mn2 O18'
_cell_volume   361.54848356
_cell_formula_units_Z   2
loop_
 _symmetry_equiv_pos_site_id
 _symmetry_equiv_pos_as_xyz
  1  'x, y, z'
loop_
 _atom_site_type_symbol
 _atom_site_label
 _atom_site_symmetry_multiplicity
 _atom_site_fract_x
 _atom_site_fract_y
 _atom_site_fract_z
 _atom_site_occupancy
  Na  Na0  1  0.24914330  0.24942936  0.08456678  1
  Na  Na1  1  0.25057064  0.25085670  0.41543322  1
  La  La2  1  0.25113812  0.24886188  0.75000000  1
  La  La3  1  0.75074823  0.74925177  0.25000000  1
  La  La4  1  0.75524999  0.75288160  0.58124063  1
  La  La5  1  0.74711840  0.74475001  0.91875937  1
  Ti  Ti6  1  0.00100405  0.98839985  0.00267987  1
  Ti  Ti7  1  0.00465457  0.99360718  0.33307593  1
  Ti  Ti8  1  0.50639282  0.49534543  0.16692407  1
  Ti  Ti9  1  0.51160015  0.49899595  0.49732013  1
  Mn  Mn10  1  0.00106609  0.00583185  0.66412836  1
  Mn  Mn11  1  0.49416815  0.49893391  0.83587164  1
  O  O12  1  0.18695397  0.75269184  0.10427332  1
  O  O13  1  0.30947657  0.19052343  0.25000000  1
  O  O14  1  0.24621145  0.69921358  0.26826980  1
  O  O15  1  0.74575055  0.31297087  0.06390564  1
  O  O16  1  0.18702913  0.75424945  0.43609436  1
  O  O17  1  0.69053912  0.80558853  0.08455267  1
  O  O18  1  0.32468994  0.18799618  0.58684348  1
  O  O19  1  0.80078642  0.25378855  0.23173020  1
  O  O20  1  0.24972186  0.68191864  0.60335026  1
  O  O21  1  0.74730816  0.31304603  0.39572668  1
  O  O22  1  0.18839308  0.74778818  0.77044593  1
  O  O23  1  0.69441147  0.80946088  0.41544733  1
  O  O24  1  0.31200382  0.17531006  0.91315652  1
  O  O25  1  0.79888533  0.26610721  0.56280773  1
  O  O26  1  0.23389279  0.70111467  0.93719227  1
  O  O27  1  0.75221182  0.31160692  0.72955407  1
  O  O28  1  0.69079867  0.80920133  0.75000000  1
  O  O29  1  0.81808136  0.25027814  0.89664974  1
