# generated using pymatgen
data_CaAlSiO4F
_symmetry_space_group_name_H-M   'P 1'
_cell_length_a   5.39074833
_cell_length_b   5.39074833
_cell_length_c   7.03942022
_cell_angle_alpha   104.90505942
_cell_angle_beta   104.90505941
_cell_angle_gamma   105.48565638
_symmetry_Int_Tables_number   1
_chemical_formula_structural   CaAlSiO4F
_chemical_formula_sum   'Ca2 Al2 Si2 O8 F2'
_cell_volume   178.46152645
_cell_formula_units_Z   2
loop_
 _symmetry_equiv_pos_site_id
 _symmetry_equiv_pos_as_xyz
  1  'x, y, z'
loop_
 _atom_site_type_symbol
 _atom_site_label
 _atom_site_symmetry_multiplicity
 _atom_site_fract_x
 _atom_site_fract_y
 _atom_site_fract_z
 _atom_site_occupancy
  O  O0  1  0.39120712  0.80247982  0.11120181  1
  O  O1  1  0.19752018  0.60879288  0.38879819  1
  O  O2  1  0.60879288  0.19752018  0.88879819  1
  O  O3  1  0.80247982  0.39120712  0.61120181  1
  O  O4  1  0.86827068  0.73924445  0.09499318  1
  O  O5  1  0.13172932  0.26075555  0.90500682  1
  O  O6  1  0.26075555  0.13172932  0.40500682  1
  O  O7  1  0.73924445  0.86827068  0.59499318  1
  F  F8  1  0.56777753  0.43222247  0.25000000  1
  F  F9  1  0.43222247  0.56777753  0.75000000  1
  Al  Al10  1  0.50000000  0.50000000  0.50000000  1
  Al  Al11  1  0.50000000  0.50000000  0.00000000  1
  Si  Si12  1  0.18546345  0.81453655  0.25000000  1
  Si  Si13  1  0.81453655  0.18546345  0.75000000  1
  Ca  Ca14  1  0.83563293  0.16436707  0.25000000  1
  Ca  Ca15  1  0.16436707  0.83563293  0.75000000  1
