# generated using pymatgen
data_Li4WO5
_symmetry_space_group_name_H-M   'P 1'
_cell_length_a   4.05426540
_cell_length_b   5.20535016
_cell_length_c   5.20533130
_cell_angle_alpha   81.27252304
_cell_angle_beta   112.91527920
_cell_angle_gamma   112.91526279
_symmetry_Int_Tables_number   1
_chemical_formula_structural   Li4WO5
_chemical_formula_sum   'Li4 W1 O5'
_cell_volume   93.19803713
_cell_formula_units_Z   1
loop_
 _symmetry_equiv_pos_site_id
 _symmetry_equiv_pos_as_xyz
  1  'x, y, z'
loop_
 _atom_site_type_symbol
 _atom_site_label
 _atom_site_symmetry_multiplicity
 _atom_site_fract_x
 _atom_site_fract_y
 _atom_site_fract_z
 _atom_site_occupancy
  Li  Li0  1  0.81628358  0.42115942  0.21148595  1
  Li  Li1  1  0.60623145  0.79015907  0.42232246  1
  Li  Li2  1  0.39518863  0.21023254  0.58015234  1
  Li  Li3  1  0.18519701  0.57905924  0.79129944  1
  W  W4  1  0.98645658  0.00012774  0.00116195  1
  O  O5  1  0.27458862  0.35650449  0.18781637  1
  O  O6  1  0.08795862  0.81345963  0.35749547  1
  O  O7  1  0.91832580  0.18683735  0.64475295  1
  O  O8  1  0.73171907  0.64380609  0.81449123  1
  O  O9  1  0.50139763  0.00012543  0.00114085  1
