# generated using pymatgen
data_Ti2(Mo3Se4)5
_symmetry_space_group_name_H-M   'P 1'
_cell_length_a   33.81934828
_cell_length_b   14.72716435
_cell_length_c   8.91190662
_cell_angle_alpha   55.75994911
_cell_angle_beta   49.59520831
_cell_angle_gamma   27.80872115
_symmetry_Int_Tables_number   1
_chemical_formula_structural   Ti2(Mo3Se4)5
_chemical_formula_sum   'Ti4 Mo30 Se40'
_cell_volume   1576.12824921
_cell_formula_units_Z   2
loop_
 _symmetry_equiv_pos_site_id
 _symmetry_equiv_pos_as_xyz
  1  'x, y, z'
loop_
 _atom_site_type_symbol
 _atom_site_label
 _atom_site_symmetry_multiplicity
 _atom_site_fract_x
 _atom_site_fract_y
 _atom_site_fract_z
 _atom_site_occupancy
  Ti  Ti0  1  0.01200098  0.49665064  0.01202094  1
  Ti  Ti1  1  0.38799902  0.50334936  0.98797906  1
  Ti  Ti2  1  0.58983790  0.50181614  0.98268259  1
  Ti  Ti3  1  0.81016210  0.49818386  0.01731741  1
  Mo  Mo4  1  0.08130377  0.23412794  0.54727949  1
  Mo  Mo5  1  0.09133372  0.42225507  0.22576505  1
  Mo  Mo6  1  0.05461455  0.45191424  0.58777250  1
  Mo  Mo7  1  0.14862634  0.54602427  0.39940662  1
  Mo  Mo8  1  0.10625680  0.57905793  0.76735243  1
  Mo  Mo9  1  0.28397123  0.22933255  0.54245404  1
  Mo  Mo10  1  0.11602877  0.77066745  0.45754596  1
  Mo  Mo11  1  0.29374320  0.42094207  0.23264757  1
  Mo  Mo12  1  0.25137366  0.45397573  0.60059338  1
  Mo  Mo13  1  0.34538545  0.54808576  0.41222750  1
  Mo  Mo14  1  0.30866628  0.57774493  0.77423495  1
  Mo  Mo15  1  0.47872774  0.23888403  0.54338899  1
  Mo  Mo16  1  0.31869623  0.76587206  0.45272051  1
  Mo  Mo17  1  0.49199267  0.42217024  0.23268051  1
  Mo  Mo18  1  0.45647833  0.44912491  0.59102711  1
  Mo  Mo19  1  0.54603265  0.54673266  0.41018266  1
  Mo  Mo20  1  0.50990954  0.57682140  0.77037691  1
  Mo  Mo21  1  0.68112480  0.23502776  0.54188548  1
  Mo  Mo22  1  0.52130589  0.76178737  0.44979120  1
  Mo  Mo23  1  0.69155266  0.42034823  0.23449716  1
  Mo  Mo24  1  0.65744278  0.44800264  0.58811546  1
  Mo  Mo25  1  0.74255722  0.55199736  0.41188454  1
  Mo  Mo26  1  0.70844734  0.57965177  0.76550284  1
  Mo  Mo27  1  0.87869411  0.23821263  0.55020880  1
  Mo  Mo28  1  0.71887520  0.76497224  0.45811452  1
  Mo  Mo29  1  0.89009046  0.42317860  0.22962309  1
  Mo  Mo30  1  0.85396735  0.45326734  0.58981734  1
  Mo  Mo31  1  0.94352167  0.55087509  0.40897289  1
  Mo  Mo32  1  0.90800733  0.57782976  0.76731949  1
  Mo  Mo33  1  0.92127226  0.76111597  0.45661101  1
  Se  Se34  1  0.01267202  0.13628103  0.38005019  1
  Se  Se35  1  0.11034847  0.21417777  0.20576849  1
  Se  Se36  1  0.04244245  0.27320623  0.89193874  1
  Se  Se37  1  0.21460633  0.13472901  0.37458186  1
  Se  Se38  1  0.06368254  0.63272557  0.27538764  1
  Se  Se39  1  0.14859509  0.34409697  0.70115148  1
  Se  Se40  1  0.31132506  0.22142487  0.20438387  1
  Se  Se41  1  0.15881319  0.72959063  0.11252804  1
  Se  Se42  1  0.24118681  0.27040937  0.88747196  1
  Se  Se43  1  0.08867494  0.77857513  0.79561613  1
  Se  Se44  1  0.41490137  0.13084846  0.38638574  1
  Se  Se45  1  0.25140491  0.65590303  0.29884852  1
  Se  Se46  1  0.33631746  0.36727443  0.72461236  1
  Se  Se47  1  0.18539367  0.86527099  0.62541814  1
  Se  Se48  1  0.50623792  0.23176381  0.19618249  1
  Se  Se49  1  0.35755755  0.72679377  0.10806126  1
  Se  Se50  1  0.44809140  0.25422175  0.89124463  1
  Se  Se51  1  0.28965153  0.78582223  0.79423151  1
  Se  Se52  1  0.61522378  0.13190709  0.38076009  1
  Se  Se53  1  0.45308632  0.65370611  0.29387265  1
  Se  Se54  1  0.53925730  0.36065004  0.71986903  1
  Se  Se55  1  0.38732798  0.86371897  0.61994981  1
  Se  Se56  1  0.70687096  0.22867139  0.19595581  1
  Se  Se57  1  0.55737967  0.72609833  0.10838123  1
  Se  Se58  1  0.64833621  0.25440835  0.89007120  1
  Se  Se59  1  0.49033994  0.78534040  0.79209875  1
  Se  Se60  1  0.81652920  0.12892664  0.37984701  1
  Se  Se61  1  0.66029928  0.64181962  0.27959295  1
  Se  Se62  1  0.73970072  0.35818038  0.72040705  1
  Se  Se63  1  0.58347080  0.87107336  0.62015299  1
  Se  Se64  1  0.90966006  0.21465960  0.20790125  1
  Se  Se65  1  0.75166379  0.74559165  0.10992880  1
  Se  Se66  1  0.84262033  0.27390167  0.89161877  1
  Se  Se67  1  0.69312904  0.77132861  0.80404419  1
  Se  Se68  1  0.86074270  0.63934996  0.28013097  1
  Se  Se69  1  0.94691368  0.34629389  0.70612735  1
  Se  Se70  1  0.78477622  0.86809291  0.61923991  1
  Se  Se71  1  0.95190860  0.74577825  0.10875537  1
  Se  Se72  1  0.89376208  0.76823619  0.80381751  1
  Se  Se73  1  0.98509863  0.86915154  0.61361426  1
