# generated using pymatgen
data_Li4Mn13O24
_symmetry_space_group_name_H-M   'P 1'
_cell_length_a   6.03020013
_cell_length_b   17.97489179
_cell_length_c   10.25451430
_cell_angle_alpha   30.10957867
_cell_angle_beta   54.45589952
_cell_angle_gamma   59.28049835
_symmetry_Int_Tables_number   1
_chemical_formula_structural   Li4Mn13O24
_chemical_formula_sum   'Li4 Mn13 O24'
_cell_volume   453.61108286
_cell_formula_units_Z   1
loop_
 _symmetry_equiv_pos_site_id
 _symmetry_equiv_pos_as_xyz
  1  'x, y, z'
loop_
 _atom_site_type_symbol
 _atom_site_label
 _atom_site_symmetry_multiplicity
 _atom_site_fract_x
 _atom_site_fract_y
 _atom_site_fract_z
 _atom_site_occupancy
  Li  Li0  1  0.13194615  0.33669920  0.11920379  1
  Li  Li1  1  0.12735312  0.66427056  0.12780637  1
  Li  Li2  1  0.86647070  0.33228637  0.87854865  1
  Li  Li3  1  0.86931572  0.66952056  0.87362605  1
  Mn  Mn4  1  0.49371352  0.16580359  0.00712419  1
  Mn  Mn5  1  0.49754674  0.99964536  0.50141355  1
  Mn  Mn6  1  0.00402584  0.34016574  0.48856789  1
  Mn  Mn7  1  0.50341662  0.51091650  0.98754757  1
  Mn  Mn8  1  0.50051724  0.17626909  0.48168843  1
  Mn  Mn9  1  0.99730135  0.00172367  0.49809122  1
  Mn  Mn10  1  0.50164162  0.34147084  0.48483167  1
  Mn  Mn11  1  0.49902013  0.82354965  0.00920326  1
  Mn  Mn12  1  0.49359087  0.49260363  0.51354756  1
  Mn  Mn13  1  0.49687139  0.66057294  0.50766987  1
  Mn  Mn14  1  0.49600240  0.83556393  0.50300617  1
  Mn  Mn15  1  0.00417638  0.65941246  0.50737967  1
  Mn  Mn16  1  0.86590495  0.00031125  0.87878908  1
  O  O17  1  0.26797889  0.00314865  0.26612730  1
  O  O18  1  0.27644523  0.15199765  0.26041156  1
  O  O19  1  0.69597845  0.99913984  0.26890587  1
  O  O20  1  0.27602897  0.35254319  0.23082257  1
  O  O21  1  0.27914848  0.20283106  0.67505101  1
  O  O22  1  0.28780390  0.49569668  0.23882008  1
  O  O23  1  0.71474233  0.14943348  0.28915834  1
  O  O24  1  0.72179659  0.35578449  0.23108437  1
  O  O25  1  0.29120615  0.33094732  0.74121891  1
  O  O26  1  0.25636692  0.64299053  0.29577698  1
  O  O27  1  0.71186309  0.18198058  0.74500677  1
  O  O28  1  0.27473435  0.49877144  0.72957953  1
  O  O29  1  0.26758389  0.79737322  0.28100262  1
  O  O30  1  0.72978331  0.47805302  0.29828734  1
  O  O31  1  0.72728916  0.32633173  0.74821622  1
  O  O32  1  0.71222615  0.64863941  0.27840115  1
  O  O33  1  0.29082928  0.67433561  0.73638811  1
  O  O34  1  0.27576813  0.85234354  0.71226111  1
  O  O35  1  0.73282956  0.52286144  0.73377919  1
  O  O36  1  0.72421653  0.82426608  0.28634318  1
  O  O37  1  0.72829186  0.67068641  0.73454349  1
  O  O38  1  0.27783703  0.99360134  0.74457872  1
  O  O39  1  0.72067325  0.84968823  0.73911238  1
  O  O40  1  0.74174577  0.00868872  0.72020425  1
