# generated using pymatgen
data_Na25Zr11Sc5Si12(PO8)12
_symmetry_space_group_name_H-M   'P 1'
_cell_length_a   9.11973515
_cell_length_b   9.12563805
_cell_length_c   37.15219592
_cell_angle_alpha   61.16548330
_cell_angle_beta   60.84160157
_cell_angle_gamma   60.39066071
_symmetry_Int_Tables_number   1
_chemical_formula_structural   Na25Zr11Sc5Si12(PO8)12
_chemical_formula_sum   'Na25 Zr11 Sc5 Si12 P12 O96'
_cell_volume   2225.53945786
_cell_formula_units_Z   1
loop_
 _symmetry_equiv_pos_site_id
 _symmetry_equiv_pos_as_xyz
  1  'x, y, z'
loop_
 _atom_site_type_symbol
 _atom_site_label
 _atom_site_symmetry_multiplicity
 _atom_site_fract_x
 _atom_site_fract_y
 _atom_site_fract_z
 _atom_site_occupancy
  Na  Na0  1  0.22532486  0.10292577  0.07690102  1
  Na  Na1  1  0.48614742  0.03952045  0.12320716  1
  Na  Na2  1  0.39270832  0.60623507  0.18793208  1
  Na  Na3  1  0.08243941  0.25792598  0.46117531  1
  Na  Na4  1  0.45549832  0.02445217  0.37066524  1
  Na  Na5  1  0.99115521  0.49473767  0.00472503  1
  Na  Na6  1  0.91613588  0.75861167  0.04769307  1
  Na  Na7  1  0.60544303  0.38975433  0.31601483  1
  Na  Na8  1  0.77297526  0.91689268  0.17086399  1
  Na  Na9  1  0.37687526  0.59718527  0.44227832  1
  Na  Na10  1  0.08147714  0.25689096  0.71150975  1
  Na  Na11  1  0.45598655  0.02311246  0.62187867  1
  Na  Na12  1  0.02338294  0.46292143  0.24823851  1
  Na  Na13  1  0.90736948  0.75819090  0.29629324  1
  Na  Na14  1  0.61548750  0.38791449  0.56562581  1
  Na  Na15  1  0.76739040  0.91423538  0.42225595  1
  Na  Na16  1  0.37800737  0.59585590  0.69241059  1
  Na  Na17  1  0.10620911  0.21815013  0.95187218  1
  Na  Na18  1  0.45421998  0.01905343  0.87516378  1
  Na  Na19  1  0.91664742  0.73205893  0.53980394  1
  Na  Na20  1  0.61619431  0.38656272  0.81598417  1
  Na  Na21  1  0.76857332  0.91523689  0.67198953  1
  Na  Na22  1  0.38785943  0.60621269  0.94121413  1
  Na  Na23  1  0.91585011  0.73122752  0.79028668  1
  Na  Na24  1  0.75790275  0.91724832  0.92289223  1
  Zr  Zr25  1  0.15989570  0.63657907  0.13823178  1
  Zr  Zr26  1  0.64469785  0.15914903  0.01287639  1
  Zr  Zr27  1  0.15681275  0.64761755  0.38844852  1
  Zr  Zr28  1  0.34147902  0.85655987  0.23505156  1
  Zr  Zr29  1  0.64468274  0.15704155  0.26223443  1
  Zr  Zr30  1  0.15441684  0.64539795  0.63956550  1
  Zr  Zr31  1  0.34790512  0.84698905  0.48710073  1
  Zr  Zr32  1  0.64180451  0.15370071  0.51282473  1
  Zr  Zr33  1  0.15605984  0.64452093  0.88973304  1
  Zr  Zr34  1  0.34795096  0.84664554  0.73717681  1
  Zr  Zr35  1  0.64139981  0.15308327  0.76317493  1
  Sc  Sc36  1  0.84679922  0.34649611  0.11202769  1
  Sc  Sc37  1  0.86191480  0.34192283  0.36050763  1
  Sc  Sc38  1  0.86414706  0.34032857  0.61003522  1
  Sc  Sc39  1  0.35396066  0.84038738  0.98690783  1
  Sc  Sc40  1  0.86333404  0.33704941  0.86102441  1
  Si  Si41  1  0.24973672  0.45832571  0.05888254  1
  Si  Si42  1  0.04599775  0.95502547  0.18652949  1
  Si  Si43  1  0.46701612  0.24752644  0.18449012  1
  Si  Si44  1  0.24931081  0.46070251  0.30973750  1
  Si  Si45  1  0.04572016  0.96175928  0.43681089  1
  Si  Si46  1  0.47179978  0.24895401  0.43218640  1
  Si  Si47  1  0.25235071  0.45973088  0.56122771  1
  Si  Si48  1  0.04511909  0.96126241  0.68705808  1
  Si  Si49  1  0.47193233  0.24796587  0.68243821  1
  Si  Si50  1  0.25225541  0.45828409  0.81153517  1
  Si  Si51  1  0.04410685  0.95228178  0.93872131  1
  Si  Si52  1  0.46416219  0.24848478  0.93412696  1
  P  P53  1  0.54103449  0.75118687  0.06336968  1
  P  P54  1  0.95710431  0.04288177  0.06226147  1
  P  P55  1  0.74972759  0.53710917  0.18960339  1
  P  P56  1  0.53907423  0.75133425  0.31385893  1
  P  P57  1  0.94974996  0.04599885  0.31328692  1
  P  P58  1  0.74918643  0.53671971  0.43748259  1
  P  P59  1  0.53353821  0.75190402  0.56585263  1
  P  P60  1  0.94855462  0.04242236  0.56361709  1
  P  P61  1  0.74793492  0.53573107  0.68760524  1
  P  P62  1  0.53337737  0.75217113  0.81583059  1
  P  P63  1  0.94873303  0.04069158  0.81404340  1
  P  P64  1  0.75258997  0.53697052  0.93731945  1
  O  O65  1  0.11058995  0.99978241  0.02133356  1
  O  O66  1  0.00623597  0.11909564  0.14385432  1
  O  O67  1  0.06833695  0.43233696  0.06757994  1
  O  O68  1  0.28061861  0.61979121  0.01318387  1
  O  O69  1  0.10767568  0.99417240  0.27357021  1
  O  O70  1  0.41421711  0.26597592  0.05974807  1
  O  O71  1  0.22362777  0.51794930  0.09768874  1
  O  O72  1  0.05712395  0.76927326  0.18600708  1
  O  O73  1  0.00265677  0.13483906  0.39616728  1
  O  O74  1  0.28482443  0.42122518  0.18159874  1
  O  O75  1  0.44120958  0.06325738  0.19579622  1
  O  O76  1  0.06498854  0.44572590  0.31760650  1
  O  O77  1  0.49058077  0.77483938  0.02682863  1
  O  O78  1  0.78012949  0.05262250  0.06297200  1
  O  O79  1  0.38277282  0.72577184  0.10753576  1
  O  O80  1  0.63906896  0.25805368  0.14122874  1
  O  O81  1  0.23995388  0.91997745  0.18784521  1
  O  O82  1  0.50622997  0.24222824  0.22427346  1
  O  O83  1  0.28210684  0.62419044  0.26380008  1
  O  O84  1  0.55908505  0.92668828  0.05608880  1
  O  O85  1  0.10727668  0.99942826  0.52223579  1
  O  O86  1  0.71849729  0.59896795  0.06649426  1
  O  O87  1  0.42674901  0.27889519  0.30901011  1
  O  O88  1  0.23327866  0.52075311  0.34728811  1
  O  O89  1  0.94664931  0.21671260  0.06234671  1
  O  O90  1  0.06436130  0.78103860  0.43282846  1
  O  O91  1  0.75428619  0.49331321  0.15410908  1
  O  O92  1  0.00179776  0.13264104  0.64628265  1
  O  O93  1  0.58914976  0.71318108  0.19397547  1
  O  O94  1  0.28629278  0.41878396  0.42891752  1
  O  O95  1  0.43373117  0.06687318  0.44675470  1
  O  O96  1  0.72191485  0.38566881  0.23402038  1
  O  O97  1  0.06493634  0.44389421  0.57294189  1
  O  O98  1  0.48105671  0.77256258  0.27842170  1
  O  O99  1  0.77575237  0.05489720  0.31245440  1
  O  O100  1  0.38726732  0.72261484  0.35845693  1
  O  O101  1  0.63908267  0.25866919  0.38737457  1
  O  O102  1  0.23448520  0.93175949  0.43970115  1
  O  O103  1  0.51809485  0.24570606  0.47045528  1
  O  O104  1  0.91666139  0.57300707  0.17976232  1
  O  O105  1  0.28251507  0.62175925  0.51414150  1
  O  O106  1  0.57197936  0.91895570  0.30542226  1
  O  O107  1  0.10777316  0.99908357  0.77260829  1
  O  O108  1  0.71342782  0.59094250  0.31507994  1
  O  O109  1  0.43068659  0.27934698  0.55815214  1
  O  O110  1  0.99831881  0.88716266  0.10361476  1
  O  O111  1  0.25187926  0.51854855  0.59662467  1
  O  O112  1  0.92796321  0.22814983  0.31100529  1
  O  O113  1  0.06246467  0.78060847  0.68323427  1
  O  O114  1  0.74113387  0.50040923  0.40251710  1
  O  O115  1  0.99536837  0.12048132  0.89746666  1
  O  O116  1  0.59161281  0.71038389  0.44473238  1
  O  O117  1  0.28599445  0.41795768  0.67953434  1
  O  O118  1  0.87991866  0.99526544  0.23086505  1
  O  O119  1  0.43314450  0.06635256  0.69683959  1
  O  O120  1  0.73744042  0.37763280  0.48083397  1
  O  O121  1  0.06559543  0.44045298  0.82335910  1
  O  O122  1  0.48141232  0.77072666  0.52931866  1
  O  O123  1  0.77554255  0.05558271  0.56141399  1
  O  O124  1  0.37725176  0.73391845  0.60913728  1
  O  O125  1  0.63896332  0.25637358  0.63767555  1
  O  O126  1  0.23427415  0.93163436  0.68972496  1
  O  O127  1  0.51848886  0.24463165  0.72063540  1
  O  O128  1  0.92257619  0.56822691  0.42501332  1
  O  O129  1  0.28123112  0.62165948  0.76468426  1
  O  O130  1  0.56898936  0.92133747  0.55497430  1
  O  O131  1  0.70364564  0.58997823  0.56870882  1
  O  O132  1  0.43120286  0.27929836  0.80837440  1
  O  O133  1  0.98493409  0.89515392  0.35521142  1
  O  O134  1  0.24977710  0.51525953  0.84776536  1
  O  O135  1  0.92683727  0.22112595  0.56277596  1
  O  O136  1  0.05626492  0.76755644  0.93744796  1
  O  O137  1  0.73721669  0.49930656  0.65316762  1
  O  O138  1  0.59201701  0.71060128  0.69480403  1
  O  O139  1  0.27352176  0.41892644  0.93387768  1
  O  O140  1  0.88077941  0.99139546  0.48184901  1
  O  O141  1  0.42957445  0.06922741  0.94571599  1
  O  O142  1  0.73705684  0.37745142  0.73108896  1
  O  O143  1  0.48002098  0.77040100  0.77962023  1
  O  O144  1  0.77659428  0.05381294  0.81163801  1
  O  O145  1  0.37723057  0.73303705  0.85941310  1
  O  O146  1  0.62769439  0.27151626  0.88858093  1
  O  O147  1  0.23232454  0.93001953  0.93952231  1
  O  O148  1  0.51476129  0.24243889  0.97234051  1
  O  O149  1  0.92287571  0.56604608  0.67484346  1
  O  O150  1  0.56779154  0.92157719  0.80492789  1
  O  O151  1  0.70394371  0.59020980  0.81857728  1
  O  O152  1  0.98640369  0.88573949  0.60420519  1
  O  O153  1  0.92504680  0.21983711  0.81362302  1
  O  O154  1  0.75340705  0.49869297  0.90133438  1
  O  O155  1  0.59639853  0.70927141  0.94370731  1
  O  O156  1  0.88081665  0.99106547  0.73207664  1
  O  O157  1  0.74130027  0.37377125  0.97990395  1
  O  O158  1  0.92672608  0.56217120  0.92744482  1
  O  O159  1  0.98664599  0.88417650  0.85480068  1
  O  O160  1  0.87875433  0.98747950  0.98363318  1
