# generated using pymatgen
data_Sr2La2MgTi3O12
_symmetry_space_group_name_H-M   'P 1'
_cell_length_a   5.61870390
_cell_length_b   5.60398270
_cell_length_c   15.77035471
_cell_angle_alpha   89.92109063
_cell_angle_beta   90.00000000
_cell_angle_gamma   90.00000000
_symmetry_Int_Tables_number   1
_chemical_formula_structural   Sr2La2MgTi3O12
_chemical_formula_sum   'Sr4 La4 Mg2 Ti6 O24'
_cell_volume   496.56257153
_cell_formula_units_Z   2
loop_
 _symmetry_equiv_pos_site_id
 _symmetry_equiv_pos_as_xyz
  1  'x, y, z'
loop_
 _atom_site_type_symbol
 _atom_site_label
 _atom_site_symmetry_multiplicity
 _atom_site_fract_x
 _atom_site_fract_y
 _atom_site_fract_z
 _atom_site_occupancy
  Sr  Sr0  1  0.00095477  0.99689220  0.37254330  1
  Sr  Sr1  1  0.49904523  0.49689220  0.37254330  1
  Sr  Sr2  1  0.50095477  0.50310780  0.12745670  1
  Sr  Sr3  1  0.99904523  0.00310780  0.12745670  1
  La  La4  1  0.01488781  0.98243619  0.86735902  1
  La  La5  1  0.48511219  0.48243619  0.86735902  1
  La  La6  1  0.51488781  0.51756381  0.63264098  1
  La  La7  1  0.98511219  0.01756381  0.63264098  1
  Mg  Mg8  1  -0.00000000  0.50000000  0.75000000  1
  Mg  Mg9  1  0.50000000  0.00000000  0.75000000  1
  Ti  Ti10  1  -0.00000000  0.50000000  0.25000000  1
  Ti  Ti11  1  0.50972518  0.98804382  0.99939945  1
  Ti  Ti12  1  0.50000000  0.00000000  0.25000000  1
  Ti  Ti13  1  0.49027482  0.01195618  0.50060055  1
  Ti  Ti14  1  0.99027482  0.48804382  0.99939945  1
  Ti  Ti15  1  0.00972518  0.51195618  0.50060055  1
  O  O16  1  0.05242288  0.50217543  0.12544173  1
  O  O17  1  0.08149431  0.48602139  0.61814973  1
  O  O18  1  0.24304270  0.23645226  0.48203247  1
  O  O19  1  0.23927509  0.24826609  0.97973328  1
  O  O20  1  0.24615134  0.24598669  0.26256155  1
  O  O21  1  0.23197322  0.23189693  0.77371394  1
  O  O22  1  0.25695730  0.73645226  0.48203247  1
  O  O23  1  0.25384866  0.74598669  0.26256155  1
  O  O24  1  0.26072491  0.74826609  0.97973328  1
  O  O25  1  0.26802678  0.73189693  0.77371394  1
  O  O26  1  0.44757712  0.00217543  0.12544173  1
  O  O27  1  0.41850569  0.98602139  0.61814973  1
  O  O28  1  0.58149431  0.01397861  0.88185027  1
  O  O29  1  0.55242288  0.99782457  0.37455827  1
  O  O30  1  0.73927509  0.25173391  0.52026672  1
  O  O31  1  0.74304270  0.26354774  0.01796753  1
  O  O32  1  0.74615134  0.25401331  0.23743845  1
  O  O33  1  0.73197322  0.26810307  0.72628606  1
  O  O34  1  0.75384866  0.75401331  0.23743845  1
  O  O35  1  0.76802678  0.76810307  0.72628606  1
  O  O36  1  0.75695730  0.76354774  0.01796753  1
  O  O37  1  0.76072491  0.75173391  0.52026672  1
  O  O38  1  0.94757712  0.49782457  0.37455827  1
  O  O39  1  0.91850569  0.51397861  0.88185027  1
