# generated using pymatgen
data_Li10Sn(PS6)2
_symmetry_space_group_name_H-M   'P 1'
_cell_length_a   8.85424098
_cell_length_b   8.85424098
_cell_length_c   12.85128468
_cell_angle_alpha   90.00000000
_cell_angle_beta   90.00000000
_cell_angle_gamma   90.00000000
_symmetry_Int_Tables_number   1
_chemical_formula_structural   Li10Sn(PS6)2
_chemical_formula_sum   'Li20 Sn2 P4 S24'
_cell_volume   1007.50966162
_cell_formula_units_Z   2
loop_
 _symmetry_equiv_pos_site_id
 _symmetry_equiv_pos_as_xyz
  1  'x, y, z'
loop_
 _atom_site_type_symbol
 _atom_site_label
 _atom_site_symmetry_multiplicity
 _atom_site_fract_x
 _atom_site_fract_y
 _atom_site_fract_z
 _atom_site_occupancy
  Li  Li0  1  0.22631520  0.77190653  0.29401884  1
  Li  Li1  1  0.77368480  0.22809347  0.29401884  1
  Li  Li2  1  0.27190653  0.27368480  0.79401884  1
  Li  Li3  1  0.72809347  0.72631520  0.79401884  1
  Li  Li4  1  0.22631520  0.22809347  0.29401884  1
  Li  Li5  1  0.77368480  0.77190653  0.29401884  1
  Li  Li6  1  0.27190653  0.72631520  0.79401884  1
  Li  Li7  1  0.72809347  0.27368480  0.79401884  1
  Li  Li8  1  0.00000000  0.50000000  0.93992922  1
  Li  Li9  1  0.00000000  0.50000000  0.43992922  1
  Li  Li10  1  0.50000000  0.00000000  0.54845894  1
  Li  Li11  1  0.50000000  0.00000000  0.04845894  1
  Li  Li12  1  0.25530236  0.22464915  0.03753794  1
  Li  Li13  1  0.74469764  0.77535085  0.03753794  1
  Li  Li14  1  0.27535085  0.75530236  0.53753694  1
  Li  Li15  1  0.72464915  0.24469764  0.53753694  1
  Li  Li16  1  0.27535085  0.24469764  0.53753694  1
  Li  Li17  1  0.72464915  0.75530236  0.53753694  1
  Li  Li18  1  0.25530236  0.77535085  0.03753794  1
  Li  Li19  1  0.74469764  0.22464915  0.03753794  1
  Sn  Sn20  1  0.50000000  0.00000000  0.80109060  1
  Sn  Sn21  1  0.50000000  0.00000000  0.30109060  1
  P  P22  1  0.00000000  0.50000000  0.68535161  1
  P  P23  1  0.00000000  0.50000000  0.18535161  1
  P  P24  1  0.00000000  0.00000000  0.50340387  1
  P  P25  1  0.50000000  0.50000000  0.00340387  1
  S  S26  1  0.00000000  0.19319726  0.41273024  1
  S  S27  1  0.00000000  0.80680274  0.41273024  1
  S  S28  1  0.30680274  0.50000000  0.91273024  1
  S  S29  1  0.69319726  0.50000000  0.91273024  1
  S  S30  1  0.50000000  0.68937457  0.09537755  1
  S  S31  1  0.50000000  0.31062543  0.09537755  1
  S  S32  1  0.18937457  0.00000000  0.59537755  1
  S  S33  1  0.81062543  0.00000000  0.59537755  1
  S  S34  1  0.00000000  0.30701385  0.09437501  1
  S  S35  1  0.00000000  0.69298615  0.09437501  1
  S  S36  1  0.19298615  0.50000000  0.59437501  1
  S  S37  1  0.80701385  0.50000000  0.59437501  1
  S  S38  1  0.50000000  0.77739351  0.40989031  1
  S  S39  1  0.50000000  0.22260649  0.40989031  1
  S  S40  1  0.27739351  0.00000000  0.90989031  1
  S  S41  1  0.72260649  0.00000000  0.90989031  1
  S  S42  1  0.00000000  0.69011177  0.77678959  1
  S  S43  1  0.00000000  0.30988823  0.77678959  1
  S  S44  1  0.80988823  0.50000000  0.27678959  1
  S  S45  1  0.19011177  0.50000000  0.27678959  1
  S  S46  1  0.50000000  0.22089903  0.69221063  1
  S  S47  1  0.50000000  0.77910097  0.69221063  1
  S  S48  1  0.72089903  0.00000000  0.19221063  1
  S  S49  1  0.27910097  0.00000000  0.19221063  1
