# generated using pymatgen
data_NaCa3ScZn3(SiO3)8
_symmetry_space_group_name_H-M   'P 1'
_cell_length_a   5.33745828
_cell_length_b   26.96408894
_cell_length_c   9.97909498
_cell_angle_alpha   42.25353142
_cell_angle_beta   73.89794172
_cell_angle_gamma   78.15367706
_symmetry_Int_Tables_number   1
_chemical_formula_structural   NaCa3ScZn3(SiO3)8
_chemical_formula_sum   'Na2 Ca6 Sc2 Zn6 Si16 O48'
_cell_volume   927.82528029
_cell_formula_units_Z   2
loop_
 _symmetry_equiv_pos_site_id
 _symmetry_equiv_pos_as_xyz
  1  'x, y, z'
loop_
 _atom_site_type_symbol
 _atom_site_label
 _atom_site_symmetry_multiplicity
 _atom_site_fract_x
 _atom_site_fract_y
 _atom_site_fract_z
 _atom_site_occupancy
  Na  Na0  1  0.25000000  0.84697362  0.30605276  1
  Na  Na1  1  0.75000000  0.90302638  0.69394724  1
  Ca  Ca2  1  0.25000000  0.10009517  0.29980966  1
  Ca  Ca3  1  0.25000000  0.35136324  0.29727353  1
  Ca  Ca4  1  0.25000000  0.59894065  0.30211870  1
  Ca  Ca5  1  0.75000000  0.15105935  0.69788130  1
  Ca  Ca6  1  0.75000000  0.39863676  0.70272647  1
  Ca  Ca7  1  0.75000000  0.64990483  0.70019034  1
  Sc  Sc8  1  0.25000000  0.80139281  0.89721437  1
  Sc  Sc9  1  0.75000000  0.94860719  0.10278563  1
  Zn  Zn10  1  0.25000000  0.04929874  0.90140252  1
  Zn  Zn11  1  0.25000000  0.29711868  0.90576265  1
  Zn  Zn12  1  0.75000000  0.20164078  0.09671844  1
  Zn  Zn13  1  0.25000000  0.54835922  0.90328156  1
  Zn  Zn14  1  0.75000000  0.45288132  0.09423735  1
  Zn  Zn15  1  0.75000000  0.70070126  0.09859748  1
  Si  Si16  1  0.26707006  0.20469224  0.37693241  1
  Si  Si17  1  0.23292994  0.20469224  0.80429864  1
  Si  Si18  1  0.26719757  0.45313417  0.37912290  1
  Si  Si19  1  0.76267248  0.04580547  0.19595884  1
  Si  Si20  1  0.23280243  0.45313417  0.80834042  1
  Si  Si21  1  0.26267248  0.70419453  0.37918073  1
  Si  Si22  1  0.73732752  0.04580547  0.62081927  1
  Si  Si23  1  0.76719757  0.29686583  0.19165958  1
  Si  Si24  1  0.23732752  0.70419453  0.80404116  1
  Si  Si25  1  0.26226806  0.95503022  0.37639195  1
  Si  Si26  1  0.73280243  0.29686583  0.62087710  1
  Si  Si27  1  0.76707006  0.54530776  0.19570136  1
  Si  Si28  1  0.23773194  0.95503022  0.80348715  1
  Si  Si29  1  0.73292994  0.54530776  0.62306759  1
  Si  Si30  1  0.76226806  0.79496978  0.19651285  1
  Si  Si31  1  0.73773194  0.79496978  0.62360805  1
  O  O32  1  0.99803352  0.00873751  0.32882027  1
  O  O33  1  0.99955059  0.25922961  0.32963190  1
  O  O34  1  0.17470143  0.12770767  0.60960130  1
  O  O35  1  0.00018139  0.50765333  0.33282779  1
  O  O36  1  0.35352465  0.20505681  0.20699773  1
  O  O37  1  0.14647535  0.20505681  0.97277502  1
  O  O38  1  0.17519544  0.37548730  0.61066369  1
  O  O39  1  0.99177246  0.75589874  0.33711308  1
  O  O40  1  0.50196648  0.00873751  0.63622969  1
  O  O41  1  0.32529857  0.12770767  0.87956802  1
  O  O42  1  0.35450026  0.45492958  0.20650606  1
  O  O43  1  0.67649929  0.12408526  0.11339871  1
  O  O44  1  0.50018139  0.24234667  0.36344109  1
  O  O45  1  0.84795159  0.04341907  0.03057454  1
  O  O46  1  0.14549974  0.45492958  0.97377561  1
  O  O47  1  0.17649929  0.62591474  0.60973976  1
  O  O48  1  0.50044941  0.25922961  0.63344966  1
  O  O49  1  0.32480456  0.37548730  0.88738713  1
  O  O50  1  0.65204841  0.04341907  0.79574916  1
  O  O51  1  0.34795159  0.70658093  0.20425084  1
  O  O52  1  0.67519544  0.37451270  0.11261287  1
  O  O53  1  0.49955059  0.49077039  0.36655034  1
  O  O54  1  0.82350071  0.12408526  0.39026024  1
  O  O55  1  0.85450026  0.29507042  0.02622439  1
  O  O56  1  0.15204841  0.70658093  0.96942546  1
  O  O57  1  0.18689733  0.87629804  0.60864174  1
  O  O58  1  0.49981861  0.50765333  0.63655891  1
  O  O59  1  0.32350071  0.62591474  0.88660129  1
  O  O60  1  0.64549974  0.29507042  0.79349394  1
  O  O61  1  0.35547378  0.95769708  0.20201445  1
  O  O62  1  0.67470143  0.62229233  0.12043198  1
  O  O63  1  0.49803352  0.74126249  0.36377031  1
  O  O64  1  0.82480456  0.37451270  0.38933631  1
  O  O65  1  0.85352465  0.54494319  0.02722498  1
  O  O66  1  0.14452622  0.95769708  0.96719722  1
  O  O67  1  0.50822754  0.75589874  0.63929194  1
  O  O68  1  0.31310267  0.87629804  0.88616609  1
  O  O69  1  0.64647535  0.54494319  0.79300227  1
  O  O70  1  0.68689733  0.87370196  0.11383391  1
  O  O71  1  0.49177246  0.99410126  0.36070806  1
  O  O72  1  -0.00018139  0.24234667  0.66717221  1
  O  O73  1  0.82529857  0.62229233  0.39039870  1
  O  O74  1  0.85547378  0.79230292  0.03280278  1
  O  O75  1  0.64452622  0.79230292  0.79798555  1
  O  O76  1  0.00044941  0.49077039  0.67036810  1
  O  O77  1  0.81310267  0.87370196  0.39135826  1
  O  O78  1  0.00196648  0.74126249  0.67117973  1
  O  O79  1  0.00822754  0.99410126  0.66288692  1
