# generated using pymatgen
data_Na13Zr7Si5P7O48
_symmetry_space_group_name_H-M   'P 1'
_cell_length_a   9.40782571
_cell_length_b   9.40821326
_cell_length_c   18.81015031
_cell_angle_alpha   58.99574191
_cell_angle_beta   58.92368886
_cell_angle_gamma   58.95751607
_symmetry_Int_Tables_number   1
_chemical_formula_structural   Na13Zr7Si5P7O48
_chemical_formula_sum   'Na13 Zr7 Si5 P7 O48'
_cell_volume   1149.30046876
_cell_formula_units_Z   1
loop_
 _symmetry_equiv_pos_site_id
 _symmetry_equiv_pos_as_xyz
  1  'x, y, z'
loop_
 _atom_site_type_symbol
 _atom_site_label
 _atom_site_symmetry_multiplicity
 _atom_site_fract_x
 _atom_site_fract_y
 _atom_site_fract_z
 _atom_site_occupancy
  Na  Na0  1  0.01666076  0.01338599  0.01110270  1
  Na  Na1  1  0.15399755  0.14956313  0.07691706  1
  Na  Na2  1  0.12503000  0.36980154  0.37166315  1
  Na  Na3  1  0.37134318  0.78231172  0.07258192  1
  Na  Na4  1  0.78696764  0.14694592  0.18486763  1
  Na  Na5  1  0.24862781  0.87485238  0.29676916  1
  Na  Na6  1  0.61588540  0.24869940  0.44049199  1
  Na  Na7  1  0.14111097  0.36815087  0.89727348  1
  Na  Na8  1  0.87796183  0.57289105  0.12294507  1
  Na  Na9  1  0.36208475  0.75361051  0.55234309  1
  Na  Na10  1  0.74881281  0.10700657  0.69325114  1
  Na  Na11  1  0.25289852  0.87037851  0.80758082  1
  Na  Na12  1  0.58523848  0.25981070  0.93275510  1
  Zr  Zr13  1  0.35772946  0.35645005  0.17425642  1
  Zr  Zr14  1  0.14648913  0.14870988  0.57358561  1
  Zr  Zr15  1  0.34856210  0.35553644  0.68114025  1
  Zr  Zr16  1  0.64523942  0.64908268  0.32782981  1
  Zr  Zr17  1  0.85658232  0.84935919  0.42597572  1
  Zr  Zr18  1  0.65734797  0.65455338  0.81591936  1
  Zr  Zr19  1  0.84937418  0.84877740  0.92569119  1
  Si  Si20  1  0.04128679  0.74396782  0.23330111  1
  Si  Si21  1  0.46534374  0.03692927  0.37466038  1
  Si  Si22  1  0.74544656  0.46086546  0.01616272  1
  Si  Si23  1  0.04554134  0.75196561  0.72998305  1
  Si  Si24  1  0.46004276  0.03940687  0.87229241  1
  P  P25  1  0.24737467  0.54510184  0.48203783  1
  P  P26  1  0.55157164  0.95245409  0.12468406  1
  P  P27  1  0.95365684  0.24954433  0.27505582  1
  P  P28  1  0.74442895  0.46131739  0.52173604  1
  P  P29  1  0.24898759  0.55118896  0.97626603  1
  P  P30  1  0.54005225  0.96592486  0.62227449  1
  P  P31  1  0.95882480  0.24731659  0.77113149  1
  O  O32  1  0.12332500  0.26924036  0.25851100  1
  O  O33  1  0.26908198  0.50825229  0.06331310  1
  O  O34  1  0.05718484  0.90887751  0.14432991  1
  O  O35  1  0.50977902  0.12658211  0.13336364  1
  O  O36  1  0.02275791  0.76978098  0.31933907  1
  O  O37  1  0.20936752  0.56025687  0.22360676  1
  O  O38  1  0.28938173  0.08589607  0.45958829  1
  O  O39  1  0.44001135  0.19809866  0.28382422  1
  O  O40  1  0.56228198  0.44870366  0.10240516  1
  O  O41  1  0.21906305  0.37815982  0.50116515  1
  O  O42  1  0.08658612  0.71113143  0.46576416  1
  O  O43  1  0.39742490  0.95070111  0.11922485  1
  O  O44  1  0.64309723  0.00874071  0.38395656  1
  O  O45  1  0.12686783  0.27692638  0.75075075  1
  O  O46  1  0.90823206  0.28244429  0.02973834  1
  O  O47  1  0.77642800  0.63384697  0.00424448  1
  O  O48  1  0.41291719  0.56285189  0.39680327  1
  O  O49  1  0.28433603  0.51929720  0.55983332  1
  O  O50  1  0.59126694  0.79104788  0.20870993  1
  O  O51  1  0.07599512  0.92761882  0.64257718  1
  O  O52  1  0.51408104  0.13161537  0.63361918  1
  O  O53  1  0.72437350  0.93017829  0.04228328  1
  O  O54  1  0.02420836  0.77162311  0.81729815  1
  O  O55  1  0.21859712  0.57959439  0.71164195  1
  O  O56  1  0.78507439  0.40567480  0.30144362  1
  O  O57  1  0.95640508  0.24936129  0.19349166  1
  O  O58  1  0.28518411  0.05551588  0.95645025  1
  O  O59  1  0.48086672  0.84996214  0.37937673  1
  O  O60  1  0.93678604  0.07678764  0.35648970  1
  O  O61  1  0.43724042  0.22003144  0.78371015  1
  O  O62  1  0.72148384  0.47067463  0.44386409  1
  O  O63  1  0.58286672  0.43200895  0.60570042  1
  O  O64  1  0.23253486  0.39557683  0.97928326  1
  O  O65  1  0.08162831  0.72303125  0.96825406  1
  O  O66  1  0.86206459  0.70423882  0.26574853  1
  O  O67  1  0.36926404  0.00249640  0.61120726  1
  O  O68  1  0.63770549  0.01364930  0.88432275  1
  O  O69  1  0.91373360  0.30186520  0.53643507  1
  O  O70  1  0.76177900  0.63423919  0.50138565  1
  O  O71  1  0.41077033  0.59222624  0.89356369  1
  O  O72  1  0.55924793  0.79999193  0.70397688  1
  O  O73  1  0.69859297  0.94474680  0.53755404  1
  O  O74  1  0.78937856  0.40481988  0.78829151  1
  O  O75  1  0.98655773  0.21277528  0.69212597  1
  O  O76  1  0.50771539  0.87929640  0.84353617  1
  O  O77  1  0.94438194  0.08032594  0.85583695  1
  O  O78  1  0.71289907  0.50995822  0.92740603  1
  O  O79  1  0.86828083  0.73740896  0.74352575  1
