# generated using pymatgen
data_BaMg2Al6(Si3O10)3
_symmetry_space_group_name_H-M   'P 1'
_cell_length_a   10.25904439
_cell_length_b   10.34137882
_cell_length_c   14.37322982
_cell_angle_alpha   90.44294725
_cell_angle_beta   89.38930623
_cell_angle_gamma   119.77099657
_symmetry_Int_Tables_number   1
_chemical_formula_structural   BaMg2Al6(Si3O10)3
_chemical_formula_sum   'Ba2 Mg4 Al12 Si18 O60'
_cell_volume   1323.55358851
_cell_formula_units_Z   2
loop_
 _symmetry_equiv_pos_site_id
 _symmetry_equiv_pos_as_xyz
  1  'x, y, z'
loop_
 _atom_site_type_symbol
 _atom_site_label
 _atom_site_symmetry_multiplicity
 _atom_site_fract_x
 _atom_site_fract_y
 _atom_site_fract_z
 _atom_site_occupancy
  Ba  Ba0  1  0.99480057  0.00461002  0.74567377  1
  Ba  Ba1  1  0.00438366  0.00662546  0.24552442  1
  Mg  Mg2  1  0.32862816  0.66222144  0.24768759  1
  Mg  Mg3  1  0.32996021  0.66474038  0.74818433  1
  Mg  Mg4  1  0.67457649  0.33849878  0.24661305  1
  Mg  Mg5  1  0.67206686  0.33063499  0.74956350  1
  Al  Al6  1  0.10324080  0.75247220  0.61224988  1
  Al  Al7  1  0.00339331  0.49841009  0.75341083  1
  Al  Al8  1  0.49717202  0.00132657  0.74825319  1
  Al  Al9  1  0.36067948  0.25232390  0.11206309  1
  Al  Al10  1  0.50923515  0.50639243  0.25159407  1
  Al  Al11  1  0.49900254  0.49670192  0.74766634  1
  Al  Al12  1  0.50092742  0.99599275  0.25052226  1
  Al  Al13  1  0.89755858  0.65448023  0.11081562  1
  Al  Al14  1  0.74951013  0.10329175  0.88788266  1
  Al  Al15  1  0.99376279  0.49799236  0.24707335  1
  Al  Al16  1  0.89453879  0.24194246  0.61348005  1
  Al  Al17  1  0.89319259  0.24474571  0.38867718  1
  Si  Si18  1  0.10045778  0.75285996  0.38768143  1
  Si  Si19  1  0.25021556  0.90036172  0.11332648  1
  Si  Si20  1  0.24648930  0.90518549  0.89051571  1
  Si  Si21  1  0.10268382  0.34423976  0.89044673  1
  Si  Si22  1  0.09913251  0.34184019  0.11259638  1
  Si  Si23  1  0.24783681  0.34634839  0.38729664  1
  Si  Si24  1  0.25066933  0.34995302  0.60915336  1
  Si  Si25  1  0.64722483  0.89474727  0.61203444  1
  Si  Si26  1  0.65000655  0.89823840  0.39027900  1
  Si  Si27  1  0.35703853  0.25187892  0.88899200  1
  Si  Si28  1  0.65028650  0.75637152  0.11063252  1
  Si  Si29  1  0.64818436  0.75099637  0.88788511  1
  Si  Si30  1  0.34561427  0.09697848  0.38812798  1
  Si  Si31  1  0.34859706  0.10099479  0.60908024  1
  Si  Si32  1  0.75159018  0.64899390  0.61277510  1
  Si  Si33  1  0.75380450  0.65219204  0.39292898  1
  Si  Si34  1  0.90106421  0.66015709  0.88758997  1
  Si  Si35  1  0.74935764  0.10400054  0.11051927  1
  O  O36  1  0.07753350  0.79403370  0.14429624  1
  O  O37  1  0.06894909  0.80379394  0.86115771  1
  O  O38  1  0.20879250  0.94341299  0.64120698  1
  O  O39  1  0.20527911  0.93170414  0.35778354  1
  O  O40  1  0.11987087  0.72714584  0.49394467  1
  O  O41  1  0.13498366  0.64807345  0.31683905  1
  O  O42  1  0.14351757  0.64076801  0.68350435  1
  O  O43  1  0.27345933  0.88850559  0.00003946  1
  O  O44  1  0.13434871  0.48924672  0.17528392  1
  O  O45  1  0.13805386  0.49143244  0.82954296  1
  O  O46  1  0.11263474  0.38067750  0.00189891  1
  O  O47  1  0.36146074  0.85933339  0.17466582  1
  O  O48  1  0.35305838  0.86615487  0.82408919  1
  O  O49  1  0.07741617  0.27412945  0.64139888  1
  O  O50  1  0.07562970  0.27667742  0.35697677  1
  O  O51  1  0.20572147  0.27610019  0.14227058  1
  O  O52  1  0.22474330  0.29127254  0.85981651  1
  O  O53  1  0.50228341  0.85737648  0.32533542  1
  O  O54  1  0.49930374  0.85958198  0.67611860  1
  O  O55  1  0.27919951  0.38786860  0.49795260  1
  O  O56  1  0.35908069  0.49560901  0.67416159  1
  O  O57  1  0.35910988  0.49295415  0.32377991  1
  O  O58  1  0.60840886  0.88642044  0.50119945  1
  O  O59  1  0.28726328  0.21268861  0.36023982  1
  O  O60  1  0.30201494  0.22696056  0.63716027  1
  O  O61  1  0.50549916  0.64551060  0.17709342  1
  O  O62  1  0.50299185  0.63614626  0.82408659  1
  O  O63  1  0.61034809  0.72371845  -0.00026462  1
  O  O64  1  0.29027693  0.06662755  0.14431539  1
  O  O65  1  0.28126219  0.07343681  0.86090230  1
  O  O66  1  0.70554207  0.93127548  0.13733606  1
  O  O67  1  0.70800842  0.92098660  0.85822017  1
  O  O68  1  0.40306151  0.28122038  0.99522498  1
  O  O69  1  0.51062359  0.36736228  0.18276409  1
  O  O70  1  0.49502322  0.35265716  0.81720185  1
  O  O71  1  0.70944284  0.77943999  0.36661139  1
  O  O72  1  0.69395835  0.76845481  0.63832718  1
  O  O73  1  0.38197666  0.10838176  0.49786478  1
  O  O74  1  0.64380881  0.50241589  0.67551480  1
  O  O75  1  0.64678808  0.51040311  0.32871373  1
  O  O76  1  0.72975265  0.61059472  0.50203686  1
  O  O77  1  0.49030240  0.12775310  0.32549032  1
  O  O78  1  0.49491118  0.13343556  0.66968651  1
  O  O79  1  0.78987914  0.73711950  0.14311523  1
  O  O80  1  0.78671930  0.72086519  0.85554232  1
  O  O81  1  0.93099593  0.72593646  0.36169743  1
  O  O82  1  0.92440355  0.72656098  0.64341704  1
  O  O83  1  0.64321352  0.13726445  0.18044643  1
  O  O84  1  0.63429073  0.14116624  0.81870361  1
  O  O85  1  0.88442264  0.61975942  0.99437621  1
  O  O86  1  0.85714358  0.50004051  0.17576285  1
  O  O87  1  0.87073436  0.51904082  0.82328457  1
  O  O88  1  0.72426323  0.12447896  0.00436798  1
  O  O89  1  0.85762607  0.35840631  0.31700029  1
  O  O90  1  0.86111406  0.35529682  0.68908324  1
  O  O91  1  0.86654212  0.26769515  0.50186724  1
  O  O92  1  0.78907117  0.05030711  0.64596542  1
  O  O93  1  0.78639704  0.05492664  0.35388825  1
  O  O94  1  0.92813980  0.20494327  0.14065125  1
  O  O95  1  0.94246549  0.20470833  0.86024513  1
