# generated using pymatgen
data_NaLa2Ti2MnO9
_symmetry_space_group_name_H-M   'P 1'
_cell_length_a   5.55387274
_cell_length_b   5.54346859
_cell_length_c   16.59719403
_cell_angle_alpha   60.29321517
_cell_angle_beta   59.87933736
_cell_angle_gamma   59.89000012
_symmetry_Int_Tables_number   1
_chemical_formula_structural   NaLa2Ti2MnO9
_chemical_formula_sum   'Na2 La4 Ti4 Mn2 O18'
_cell_volume   361.48282105
_cell_formula_units_Z   2
loop_
 _symmetry_equiv_pos_site_id
 _symmetry_equiv_pos_as_xyz
  1  'x, y, z'
loop_
 _atom_site_type_symbol
 _atom_site_label
 _atom_site_symmetry_multiplicity
 _atom_site_fract_x
 _atom_site_fract_y
 _atom_site_fract_z
 _atom_site_occupancy
  Na  Na0  1  0.74692103  0.25722172  0.08067188  1
  Na  Na1  1  0.74744383  0.25301778  0.41617037  1
  La  La2  1  0.24877295  0.74030920  0.25270650  1
  La  La3  1  0.25117970  0.74602098  0.58281927  1
  La  La4  1  0.24857914  0.74032017  0.92225324  1
  La  La5  1  0.74834731  0.25799699  0.74931452  1
  Ti  Ti6  1  0.49679969  0.00247447  0.00237588  1
  Ti  Ti7  1  0.99971507  0.51037102  0.49740653  1
  Ti  Ti8  1  0.49937801  0.00239280  0.33205225  1
  Ti  Ti9  1  0.99511118  0.50292394  0.16778347  1
  Mn  Mn10  1  0.50575211  -0.00006119  0.66380747  1
  Mn  Mn11  1  0.00185751  0.49455907  0.83520172  1
  O  O12  1  0.25317259  0.17637311  0.10884770  1
  O  O13  1  0.21669310  0.28885186  0.26165194  1
  O  O14  1  0.27972685  0.71836302  0.07126675  1
  O  O15  1  0.25112404  0.17911526  0.43997625  1
  O  O16  1  0.19994817  0.30200697  0.59701035  1
  O  O17  1  0.29130415  0.71455823  0.40322924  1
  O  O18  1  0.71091651  0.29039639  0.26060043  1
  O  O19  1  0.79123894  0.71037115  0.07124766  1
  O  O20  1  0.25415149  0.17428699  0.77396207  1
  O  O21  1  0.75131794  0.81429687  0.22843366  1
  O  O22  1  0.23450127  0.28943644  0.92642741  1
  O  O23  1  0.28777048  0.71504537  0.73514214  1
  O  O24  1  0.71714220  0.29680932  0.59754774  1
  O  O25  1  0.79174918  0.72067354  0.40252889  1
  O  O26  1  0.75863679  0.81373583  0.55857524  1
  O  O27  1  0.71035081  0.27907209  0.92867062  1
  O  O28  1  0.79097771  0.71079673  0.73681709  1
  O  O29  1  0.74377026  0.82857988  0.89364570  1
