# generated using pymatgen
data_Bi28Mo2O47
_symmetry_space_group_name_H-M   'P 1'
_cell_length_a   8.87171995
_cell_length_b   8.88826679
_cell_length_c   21.31785570
_cell_angle_alpha   114.50358755
_cell_angle_beta   114.41789940
_cell_angle_gamma   90.06977892
_symmetry_Int_Tables_number   1
_chemical_formula_structural   Bi28Mo2O47
_chemical_formula_sum   'Bi28 Mo2 O47'
_cell_volume   1362.20643263
_cell_formula_units_Z   1
loop_
 _symmetry_equiv_pos_site_id
 _symmetry_equiv_pos_as_xyz
  1  'x, y, z'
loop_
 _atom_site_type_symbol
 _atom_site_label
 _atom_site_symmetry_multiplicity
 _atom_site_fract_x
 _atom_site_fract_y
 _atom_site_fract_z
 _atom_site_occupancy
  Bi  Bi0  1  0.13161545  0.72631505  0.83099008  1
  Bi  Bi1  1  0.05431111  0.87122129  0.66678014  1
  Bi  Bi2  1  0.34327982  0.35578694  0.84151426  1
  Bi  Bi3  1  0.27335696  0.47201759  0.66622662  1
  Bi  Bi4  1  0.21479534  0.55109944  0.49900545  1
  Bi  Bi5  1  0.52474368  0.94282930  0.82652331  1
  Bi  Bi6  1  0.12305427  0.71879218  0.32856613  1
  Bi  Bi7  1  0.05673116  0.87287986  0.16776171  1
  Bi  Bi8  1  0.46299494  0.06037424  0.66752531  1
  Bi  Bi9  1  0.44242046  0.21550661  0.49802931  1
  Bi  Bi10  1  0.71413295  0.53411926  0.82644965  1
  Bi  Bi11  1  0.33892823  0.34682990  0.34004251  1
  Bi  Bi12  1  0.65462412  0.65987455  0.65845697  1
  Bi  Bi13  1  0.27446214  0.46912087  0.16685500  1
  Bi  Bi14  1  0.55684405  0.79135389  0.50000797  1
  Bi  Bi15  1  0.21665964  0.55423628  0.00009427  1
  Bi  Bi16  1  0.52544934  0.93993339  0.32962450  1
  Bi  Bi17  1  0.93724860  0.13923678  0.82842460  1
  Bi  Bi18  1  0.86071192  0.27774029  0.66470958  1
  Bi  Bi19  1  0.46598595  0.05912666  0.16713302  1
  Bi  Bi20  1  0.78210624  0.44693682  0.49817429  1
  Bi  Bi21  1  0.44646514  0.21754977  0.99839105  1
  Bi  Bi22  1  0.71805174  0.53212763  0.32720215  1
  Bi  Bi23  1  0.66111155  0.66390613  0.15888404  1
  Bi  Bi24  1  0.55722164  0.79334231  0.00183353  1
  Bi  Bi25  1  0.93700252  0.13085218  0.32938908  1
  Bi  Bi26  1  0.86794640  0.27555504  0.16602497  1
  Bi  Bi27  1  0.78609035  0.44966697  0.99861080  1
  Mo  Mo28  1  0.98029053  0.01599907  0.98180516  1
  Mo  Mo29  1  0.95212112  0.02314805  0.48444521  1
  O  O30  1  0.19344645  0.98662755  0.01667441  1
  O  O31  1  0.99789389  0.17288684  0.74719725  1
  O  O32  1  0.23847126  0.30018905  0.92004437  1
  O  O33  1  0.29663669  0.60508605  0.92083930  1
  O  O34  1  0.17923819  0.50625856  0.75446934  1
  O  O35  1  0.11417827  0.62202798  0.61659532  1
  O  O36  1  0.37859235  0.88914559  0.88095597  1
  O  O37  1  0.32677248  0.00224088  0.74617879  1
  O  O38  1  0.00293667  0.17360767  0.25035147  1
  O  O39  1  0.54566777  0.24454609  0.91974246  1
  O  O40  1  0.59700863  0.55182257  0.91885756  1
  O  O41  1  0.49575135  0.67219617  0.74394712  1
  O  O42  1  0.49488324  0.33131559  0.75068080  1
  O  O43  1  0.24119787  0.30104916  0.42066381  1
  O  O44  1  0.40065325  0.46147557  0.57993327  1
  O  O45  1  0.29297770  0.60098941  0.41972652  1
  O  O46  1  0.17387092  0.49491919  0.25021409  1
  O  O47  1  0.45240904  0.76455740  0.58057181  1
  O  O48  1  0.11844295  0.62360992  0.11779144  1
  O  O49  1  0.66330516  0.00396637  0.74658705  1
  O  O50  1  0.37761938  0.88886733  0.38298843  1
  O  O51  1  0.61316345  0.12092482  0.61746818  1
  O  O52  1  0.32787761  0.00699401  0.25207026  1
  O  O53  1  0.87350324  0.88333500  0.87856814  1
  O  O54  1  0.88095281  0.39021018  0.87832540  1
  O  O55  1  0.54246689  0.24021604  0.42030336  1
  O  O56  1  0.81474663  0.49833881  0.74191629  1
  O  O57  1  0.69630524  0.39939176  0.57713149  1
  O  O58  1  0.60055439  0.54606849  0.42032392  1
  O  O59  1  0.76016909  0.70320614  0.57812792  1
  O  O60  1  0.49252175  0.66911184  0.24656660  1
  O  O61  1  0.49533978  0.32932745  0.24932297  1
  O  O62  1  0.39959484  0.45733361  0.07807220  1
  O  O63  1  0.45638425  0.75938478  0.07926121  1
  O  O64  1  0.99958617  0.82886299  0.74637472  1
  O  O65  1  0.79110170  0.98768332  0.51299600  1
  O  O66  1  0.66841890  0.99632757  0.24570577  1
  O  O67  1  0.61721183  0.11726464  0.11630237  1
  O  O68  1  0.90702667  0.85941360  0.38360261  1
  O  O69  1  0.87995843  0.38414103  0.38087489  1
  O  O70  1  0.07686688  0.22345937  0.51381421  1
  O  O71  1  0.82391760  0.49434988  0.24427803  1
  O  O72  1  0.70342670  0.40028861  0.07755132  1
  O  O73  1  0.75877782  0.70951636  0.08051822  1
  O  O74  1  0.99367791  0.82478107  0.24490195  1
  O  O75  1  0.86843592  0.96226275  0.02625846  1
  O  O76  1  0.98270260  0.23334257  0.99927228  1
