# generated using pymatgen
data_Ba3La2Ti3Cr2O15
_symmetry_space_group_name_H-M   'P 1'
_cell_length_a   3.99727750
_cell_length_b   19.96849335
_cell_length_c   5.67500821
_cell_angle_alpha   44.72629076
_cell_angle_beta   89.99983922
_cell_angle_gamma   89.99990403
_symmetry_Int_Tables_number   1
_chemical_formula_structural   Ba3La2Ti3Cr2O15
_chemical_formula_sum   'Ba3 La2 Ti3 Cr2 O15'
_cell_volume   318.76928658
_cell_formula_units_Z   1
loop_
 _symmetry_equiv_pos_site_id
 _symmetry_equiv_pos_as_xyz
  1  'x, y, z'
loop_
 _atom_site_type_symbol
 _atom_site_label
 _atom_site_symmetry_multiplicity
 _atom_site_fract_x
 _atom_site_fract_y
 _atom_site_fract_z
 _atom_site_occupancy
  Ba  Ba0  1  0.00000640  0.99649654  0.00875242  1
  Ba  Ba1  1  -0.00000023  0.20000197  0.99999260  1
  Ba  Ba2  1  0.00000311  0.40349767  0.99126147  1
  La  La3  1  0.99997008  0.60749624  0.98124550  1
  La  La4  1  0.00001498  0.79250033  0.01876174  1
  Ti  Ti5  1  0.50000043  0.99496040  0.51260028  1
  Ti  Ti6  1  0.50000107  0.19999818  0.50000322  1
  Ti  Ti7  1  0.50000126  0.40504050  0.48739637  1
  Cr  Cr8  1  0.50000852  0.60096297  0.49757550  1
  Cr  Cr9  1  0.49998716  0.79903059  0.50245634  1
  O  O10  1  0.00000091  0.78775154  0.53061375  1
  O  O11  1  0.50000249  0.09799422  0.50562027  1
  O  O12  1  0.49999969  0.30201755  0.49434613  1
  O  O13  1  0.49999825  0.50598114  0.47096620  1
  O  O14  1  0.49999920  0.69999691  0.50000702  1
  O  O15  1  0.49999955  0.89401484  0.52905426  1
  O  O16  1  0.50000072  0.30201670  0.99555276  1
  O  O17  1  0.50000696  0.09799223  0.00442191  1
  O  O18  1  0.49998527  0.69999631  0.00001751  1
  O  O19  1  0.50000654  0.50598140  0.99914420  1
  O  O20  1  0.50000399  0.89401593  0.00085938  1
  O  O21  1  0.00000086  0.99227321  0.51933329  1
  O  O22  1  0.99999543  0.20000315  0.49998522  1
  O  O23  1  0.00000213  0.40773767  0.48064094  1
  O  O24  1  0.00000525  0.61224180  0.46939175  1
