# generated using pymatgen
data_La5MgRe3O16
_symmetry_space_group_name_H-M   'P 1'
_cell_length_a   5.67696179
_cell_length_b   5.67477479
_cell_length_c   10.26284944
_cell_angle_alpha   86.56818140
_cell_angle_beta   93.37332607
_cell_angle_gamma   89.27737458
_symmetry_Int_Tables_number   1
_chemical_formula_structural   La5MgRe3O16
_chemical_formula_sum   'La5 Mg1 Re3 O16'
_cell_volume   329.41470443
_cell_formula_units_Z   1
loop_
 _symmetry_equiv_pos_site_id
 _symmetry_equiv_pos_as_xyz
  1  'x, y, z'
loop_
 _atom_site_type_symbol
 _atom_site_label
 _atom_site_symmetry_multiplicity
 _atom_site_fract_x
 _atom_site_fract_y
 _atom_site_fract_z
 _atom_site_occupancy
  La  La0  1  0.02711503  0.48517526  0.19720644  1
  La  La1  1  0.97288497  0.51482474  0.80279356  1
  La  La2  1  0.50830925  0.96601734  0.20524896  1
  La  La3  1  0.49169075  0.03398266  0.79475104  1
  La  La4  1  0.00000000  0.00000000  0.50000000  1
  Mg  Mg5  1  0.50000000  0.50000000  0.00000000  1
  Re  Re6  1  0.44400466  0.55654586  0.60581588  1
  Re  Re7  1  0.55599534  0.44345414  0.39418412  1
  Re  Re8  1  0.00000000  0.00000000  0.00000000  1
  O  O9  1  0.30451717  0.68950461  0.43504234  1
  O  O10  1  0.69548283  0.31049539  0.56495766  1
  O  O11  1  0.21993982  0.77839953  0.67552178  1
  O  O12  1  0.78006018  0.22160047  0.32447822  1
  O  O13  1  0.54514861  0.45774570  0.80191645  1
  O  O14  1  0.45485139  0.54225430  0.19808355  1
  O  O15  1  0.92085505  0.07094245  0.81621838  1
  O  O16  1  0.07914495  0.92905755  0.18378162  1
  O  O17  1  0.22978674  0.29878954  0.63630668  1
  O  O18  1  0.77021326  0.70121046  0.36369332  1
  O  O19  1  0.69636893  0.77640218  0.63382259  1
  O  O20  1  0.30363107  0.22359782  0.36617741  1
  O  O21  1  0.80218242  0.70214502  0.00087737  1
  O  O22  1  0.19781758  0.29785498  0.99912263  1
  O  O23  1  0.71908093  0.19072970  0.03745033  1
  O  O24  1  0.28091907  0.80927030  0.96254967  1
