# generated using pymatgen
data_K2HS2NO6
_symmetry_space_group_name_H-M   'P 1'
_cell_length_a   7.45278961
_cell_length_b   7.45278961
_cell_length_c   7.27815882
_cell_angle_alpha   89.97715973
_cell_angle_beta   90.02284027
_cell_angle_gamma   117.50280150
_symmetry_Int_Tables_number   1
_chemical_formula_structural   K2HS2NO6
_chemical_formula_sum   'K4 H2 S4 N2 O12'
_cell_volume   358.57257771
_cell_formula_units_Z   2
loop_
 _symmetry_equiv_pos_site_id
 _symmetry_equiv_pos_as_xyz
  1  'x, y, z'
loop_
 _atom_site_type_symbol
 _atom_site_label
 _atom_site_symmetry_multiplicity
 _atom_site_fract_x
 _atom_site_fract_y
 _atom_site_fract_z
 _atom_site_occupancy
  K  K0  1  0.70900023  0.01781149  0.14164884  1
  K  K1  1  0.01781149  0.70900023  0.35835116  1
  K  K2  1  0.29099977  0.98218851  0.85835116  1
  K  K3  1  0.98218851  0.29099977  0.64164884  1
  H  H4  1  0.54718613  0.54718613  0.25000000  1
  H  H5  1  0.45281387  0.45281387  0.75000000  1
  S  S6  1  0.22232240  0.42181916  0.13773002  1
  S  S7  1  0.42181916  0.22232240  0.36226998  1
  S  S8  1  0.77767760  0.57818084  0.86226998  1
  S  S9  1  0.57818084  0.77767760  0.63773002  1
  N  N10  1  0.41556705  0.41556705  0.25000000  1
  N  N11  1  0.58443295  0.58443295  0.75000000  1
  O  O12  1  0.17333442  0.28768048  0.97690481  1
  O  O13  1  0.28768048  0.17333442  0.52309519  1
  O  O14  1  0.82666558  0.71231952  0.02309519  1
  O  O15  1  0.71231952  0.82666558  0.47690481  1
  O  O16  1  0.30317515  0.63615698  0.09228931  1
  O  O17  1  0.63615698  0.30317515  0.40771069  1
  O  O18  1  0.69682485  0.36384302  0.90771069  1
  O  O19  1  0.36384302  0.69682485  0.59228931  1
  O  O20  1  0.05237670  0.34769799  0.26792609  1
  O  O21  1  0.34769799  0.05237670  0.23207391  1
  O  O22  1  0.94762330  0.65230201  0.73207391  1
  O  O23  1  0.65230201  0.94762330  0.76792609  1
