# generated using pymatgen
data_Al2NiO4
_symmetry_space_group_name_H-M   'P 1'
_cell_length_a   5.74939823
_cell_length_b   5.73836301
_cell_length_c   40.37057438
_cell_angle_alpha   59.93249062
_cell_angle_beta   60.03397317
_cell_angle_gamma   59.42911501
_symmetry_Int_Tables_number   1
_chemical_formula_structural   Al2NiO4
_chemical_formula_sum   'Al28 Ni14 O56'
_cell_volume   937.43599718
_cell_formula_units_Z   14
loop_
 _symmetry_equiv_pos_site_id
 _symmetry_equiv_pos_as_xyz
  1  'x, y, z'
loop_
 _atom_site_type_symbol
 _atom_site_label
 _atom_site_symmetry_multiplicity
 _atom_site_fract_x
 _atom_site_fract_y
 _atom_site_fract_z
 _atom_site_occupancy
  Al  Al0  1  0.50321676  0.00508704  0.07109345  1
  Al  Al1  1  0.50272782  0.49496082  0.07102210  1
  Al  Al2  1  0.49334426  0.00487842  0.21386572  1
  Al  Al3  1  0.49055566  0.49926583  0.14428196  1
  Al  Al4  1  0.12833260  0.12700791  0.30319800  1
  Al  Al5  1  0.49359238  0.49935719  0.21401898  1
  Al  Al6  1  0.13305027  0.13279053  0.44510674  1
  Al  Al7  1  0.86104147  0.87808849  0.12561135  1
  Al  Al8  1  0.49522317  0.49812280  0.28601194  1
  Al  Al9  1  0.49828041  0.49931050  0.35719470  1
  Al  Al10  1  0.13304418  0.13319921  0.58804887  1
  Al  Al11  1  0.86074376  0.87551587  0.26770844  1
  Al  Al12  1  0.50002184  0.50025962  0.42856631  1
  Al  Al13  1  0.49980227  0.49950162  0.50018851  1
  Al  Al14  1  0.50052554  0.50029588  0.57151064  1
  Al  Al15  1  0.13378741  0.13359280  0.73089023  1
  Al  Al16  1  0.86645074  0.86611051  0.41178323  1
  Al  Al17  1  0.49978145  0.49961346  0.64311760  1
  Al  Al18  1  0.13863880  0.13641315  0.87302192  1
  Al  Al19  1  0.50090914  0.50054605  0.71442781  1
  Al  Al20  1  0.86712667  0.86641704  0.55472949  1
  Al  Al21  1  0.50128774  0.50057159  0.78580326  1
  Al  Al22  1  0.86742160  0.86657849  0.69761687  1
  Al  Al23  1  0.50351827  0.50082568  0.85717717  1
  Al  Al24  1  0.50651691  0.50370415  0.92792797  1
  Al  Al25  1  0.49898655  0.49818833  0.00125941  1
  Al  Al26  1  0.86865972  0.86774432  0.84042812  1
  Al  Al27  1  0.86659378  0.86914906  0.98431980  1
  Ni  Ni28  1  0.14283910  0.12899896  0.01481114  1
  Ni  Ni29  1  0.00529084  0.49421709  0.07219335  1
  Ni  Ni30  1  0.12583242  0.12816160  0.15987101  1
  Ni  Ni31  1  0.99604446  0.49813630  0.21463361  1
  Ni  Ni32  1  0.99761702  0.49944787  0.35696474  1
  Ni  Ni33  1  0.00059939  0.49978680  0.49983395  1
  Ni  Ni34  1  0.50026849  0.00031705  0.49981491  1
  Ni  Ni35  1  0.49875732  0.00015568  0.35668148  1
  Ni  Ni36  1  0.00058475  0.49996391  0.64275238  1
  Ni  Ni37  1  0.50025908  0.00030737  0.64273674  1
  Ni  Ni38  1  0.00171126  0.50088028  0.78551093  1
  Ni  Ni39  1  0.50159225  0.00073557  0.78552116  1
  Ni  Ni40  1  0.00384678  0.50414570  0.92826785  1
  Ni  Ni41  1  0.50695385  0.00058392  0.92826991  1
  O  O42  1  0.28410173  0.24725671  0.03725747  1
  O  O43  1  0.28929241  0.24737039  0.10262714  1
  O  O44  1  0.27740209  0.71046741  0.03795699  1
  O  O45  1  0.72172681  0.24876156  0.03948902  1
  O  O46  1  0.25925899  0.74159789  0.10840376  1
  O  O47  1  0.27429533  0.25111926  0.18027396  1
  O  O48  1  0.72235262  0.26626900  0.10951197  1
  O  O49  1  0.27049172  0.71058959  0.18088416  1
  O  O50  1  0.26334218  0.24439639  0.24908226  1
  O  O51  1  0.72270556  0.74632139  0.04060485  1
  O  O52  1  0.70119440  0.25405057  0.18346475  1
  O  O53  1  0.72074034  0.74240882  0.10994188  1
  O  O54  1  0.26118441  0.74719912  0.24910811  1
  O  O55  1  0.26154532  0.26849682  0.31825452  1
  O  O56  1  0.71960018  0.74951083  0.18195277  1
  O  O57  1  0.26595966  0.26547573  0.39043623  1
  O  O58  1  0.26767489  0.73506834  0.32096735  1
  O  O59  1  0.71922302  0.26733652  0.25085997  1
  O  O60  1  0.73653626  0.27221236  0.32003737  1
  O  O61  1  0.71482935  0.75283535  0.25058265  1
  O  O62  1  0.26790532  0.26781631  0.46092836  1
  O  O63  1  0.26137225  0.73252104  0.39268869  1
  O  O64  1  0.26719801  0.26684631  0.53330555  1
  O  O65  1  0.27074491  0.73942567  0.46308034  1
  O  O66  1  0.73376853  0.73564478  0.32209451  1
  O  O67  1  0.73120767  0.26167916  0.39268709  1
  O  O68  1  0.74032202  0.27002972  0.46301770  1
  O  O69  1  0.73421257  0.73545617  0.39469397  1
  O  O70  1  0.26183086  0.73289348  0.53565799  1
  O  O71  1  0.26802540  0.26799848  0.60385891  1
  O  O72  1  0.73455974  0.73417675  0.46585401  1
  O  O73  1  0.27064268  0.73988298  0.60597575  1
  O  O74  1  0.73268455  0.26179604  0.53567373  1
  O  O75  1  0.26738132  0.26712922  0.67616354  1
  O  O76  1  0.73530542  0.73483545  0.53775624  1
  O  O77  1  0.74042609  0.26993402  0.60598593  1
  O  O78  1  0.26189469  0.73282670  0.67859561  1
  O  O79  1  0.26831237  0.26847703  0.74679526  1
  O  O80  1  0.73445339  0.73419548  0.60881280  1
  O  O81  1  0.73257631  0.26181530  0.67862883  1
  O  O82  1  0.27288774  0.74106333  0.74865694  1
  O  O83  1  0.26972196  0.26926625  0.81840074  1
  O  O84  1  0.74161609  0.27064567  0.74875085  1
  O  O85  1  0.73565906  0.73504995  0.68063192  1
  O  O86  1  0.26262958  0.73283948  0.82152554  1
  O  O87  1  0.27176136  0.26813834  0.88954047  1
  O  O88  1  0.28818778  0.27910825  0.95670636  1
  O  O89  1  0.73589697  0.73430482  0.75176524  1
  O  O90  1  0.73270951  0.26188979  0.82152638  1
  O  O91  1  0.27428092  0.74620002  0.89087587  1
  O  O92  1  0.74983400  0.27357738  0.89064756  1
  O  O93  1  0.73766708  0.73613070  0.82331890  1
  O  O94  1  0.25893088  0.72674514  0.96668285  1
  O  O95  1  0.73387716  0.26193416  0.96556767  1
  O  O96  1  0.73536746  0.73683612  0.89493863  1
  O  O97  1  0.73531291  0.72921204  0.96871834  1
