# generated using pymatgen
data_Sr5Al10(Si7O24)2
_symmetry_space_group_name_H-M   'P 1'
_cell_length_a   7.25377312
_cell_length_b   7.76026685
_cell_length_c   23.29076447
_cell_angle_alpha   114.39934580
_cell_angle_beta   103.59478741
_cell_angle_gamma   103.58782597
_symmetry_Int_Tables_number   1
_chemical_formula_structural   Sr5Al10(Si7O24)2
_chemical_formula_sum   'Sr5 Al10 Si14 O48'
_cell_volume   1075.78028105
_cell_formula_units_Z   1
loop_
 _symmetry_equiv_pos_site_id
 _symmetry_equiv_pos_as_xyz
  1  'x, y, z'
loop_
 _atom_site_type_symbol
 _atom_site_label
 _atom_site_symmetry_multiplicity
 _atom_site_fract_x
 _atom_site_fract_y
 _atom_site_fract_z
 _atom_site_occupancy
  Sr  Sr0  1  0.10860162  0.25284189  0.75187267  1
  Sr  Sr1  1  0.11186641  0.26212702  0.41877632  1
  Sr  Sr2  1  0.85516628  0.72997573  0.91374921  1
  Sr  Sr3  1  0.85651375  0.73932994  0.56934765  1
  Sr  Sr4  1  0.85793040  0.71865380  0.24535409  1
  Al  Al5  1  0.22342466  0.82473612  0.39308073  1
  Al  Al6  1  0.22529785  0.18190545  0.61010782  1
  Al  Al7  1  0.66728332  0.19793072  0.81075018  1
  Al  Al8  1  0.78570324  0.18283388  0.94227584  1
  Al  Al9  1  0.77761082  0.81744601  0.72311084  1
  Al  Al10  1  0.66190640  0.42838620  0.39764167  1
  Al  Al11  1  0.77163032  0.17193983  0.60746747  1
  Al  Al12  1  0.77267694  0.82271311  0.39186835  1
  Al  Al13  1  0.77540052  0.17085519  0.27038647  1
  Al  Al14  1  0.78178150  0.82033275  0.05980188  1
  Si  Si15  1  0.22818902  0.82694314  0.72757046  1
  Si  Si16  1  0.22734654  0.18775525  0.94417909  1
  Si  Si17  1  0.35115565  0.81543233  0.86006365  1
  Si  Si18  1  0.34912718  0.58209958  0.93826180  1
  Si  Si19  1  0.34040615  0.80220257  0.52401681  1
  Si  Si20  1  0.34668661  0.57131384  0.60231680  1
  Si  Si21  1  0.22666278  0.17896379  0.27482982  1
  Si  Si22  1  0.22708884  0.83488389  0.06244415  1
  Si  Si23  1  0.34446244  0.80189761  0.19039793  1
  Si  Si24  1  0.33855961  0.56909316  0.26574601  1
  Si  Si25  1  0.65868029  0.43423132  0.73429249  1
  Si  Si26  1  0.65743231  0.19953159  0.47718518  1
  Si  Si27  1  0.65779030  0.42269813  0.06407194  1
  Si  Si28  1  0.65498872  0.19089073  0.14061324  1
  O  O29  1  0.00629256  0.84722132  0.70492015  1
  O  O30  1  0.23961748  0.96494781  0.89732383  1
  O  O31  1  0.23683171  0.69645834  0.98701944  1
  O  O32  1  0.99942384  0.12478881  0.62671687  1
  O  O33  1  0.99705185  0.87400543  0.37295037  1
  O  O34  1  0.27831550  0.60651070  0.86854723  1
  O  O35  1  0.25062027  0.33281318  0.90756945  1
  O  O36  1  0.24953452  0.72032396  0.77696553  1
  O  O37  1  0.22095274  0.93708468  0.56215752  1
  O  O38  1  0.23984882  0.68568302  0.65459908  1
  O  O39  1  0.59699910  0.92184066  0.89337073  1
  O  O40  1  0.59475816  0.68298763  0.97371116  1
  O  O41  1  0.00344236  0.84516639  0.03973367  1
  O  O42  1  0.27807315  0.59585952  0.53363017  1
  O  O43  1  0.24724443  0.32714811  0.56969441  1
  O  O44  1  0.25135830  0.70264565  0.44209394  1
  O  O45  1  0.23248550  0.95291002  0.22774979  1
  O  O46  1  0.21460270  0.67761870  0.31021857  1
  O  O47  1  0.41124171  0.32641872  0.69349482  1
  O  O48  1  0.39721255  0.05868077  0.77006275  1
  O  O49  1  0.58844951  0.91794136  0.56106055  1
  O  O50  1  0.59372987  0.67923256  0.63937333  1
  O  O51  1  0.27922543  0.59692159  0.19762448  1
  O  O52  1  0.25357991  0.32109105  0.23885321  1
  O  O53  1  0.25067194  0.72374847  0.10832945  1
  O  O54  1  0.75700332  0.31381348  0.89864786  1
  O  O55  1  0.74864693  0.68056149  0.76536963  1
  O  O56  1  0.70952273  0.42154977  0.80438636  1
  O  O57  1  0.39208290  0.29862700  0.35210043  1
  O  O58  1  0.41060654  0.07327808  0.44151326  1
  O  O59  1  0.59104040  0.91648017  0.22371857  1
  O  O60  1  0.58650285  0.67289211  0.30569634  1
  O  O61  1  0.80659957  0.07034220  0.76941158  1
  O  O62  1  0.78292029  0.32084271  0.69037446  1
  O  O63  1  0.74803290  0.29049428  0.55919754  1
  O  O64  1  0.75193252  0.69338850  0.43648704  1
  O  O65  1  0.70518241  0.40845460  0.47214260  1
  O  O66  1  0.00552657  0.11637278  0.94801647  1
  O  O67  1  0.40857891  0.31559430  0.01857387  1
  O  O68  1  0.40558012  0.05960826  0.10258241  1
  O  O69  1  0.80102337  0.30807949  0.35395359  1
  O  O70  1  0.78321764  0.07299206  0.43823827  1
  O  O71  1  0.73896116  0.29483282  0.22290087  1
  O  O72  1  0.74204510  0.66869636  0.09745806  1
  O  O73  1  0.68891824  0.39716271  0.13246637  1
  O  O74  1  0.77413199  0.05620278  0.10580885  1
  O  O75  1  0.77721031  0.30882284  0.02175927  1
  O  O76  1  0.00119885  0.11131818  0.27997821  1
