# generated using pymatgen
data_La14Mn15O48
_symmetry_space_group_name_H-M   'P 1'
_cell_length_a   5.47494061
_cell_length_b   10.96568975
_cell_length_c   25.05710237
_cell_angle_alpha   49.89113163
_cell_angle_beta   57.61897599
_cell_angle_gamma   60.86664684
_symmetry_Int_Tables_number   1
_chemical_formula_structural   La14Mn15O48
_chemical_formula_sum   'La14 Mn15 O48'
_cell_volume   947.93542820
_cell_formula_units_Z   1
loop_
 _symmetry_equiv_pos_site_id
 _symmetry_equiv_pos_as_xyz
  1  'x, y, z'
loop_
 _atom_site_type_symbol
 _atom_site_label
 _atom_site_symmetry_multiplicity
 _atom_site_fract_x
 _atom_site_fract_y
 _atom_site_fract_z
 _atom_site_occupancy
  La  La0  1  0.26506074  0.08356869  0.05975724  1
  La  La1  1  0.23829977  0.60998857  0.06047706  1
  La  La2  1  0.23605005  0.47248153  0.31379625  1
  La  La3  1  0.75190701  0.26453732  0.19373769  1
  La  La4  1  0.25468863  0.32854250  0.56760184  1
  La  La5  1  0.74364618  0.79623342  0.18262493  1
  La  La6  1  0.75085943  0.14890376  0.43810674  1
  La  La7  1  0.25635382  0.20376658  0.81737507  1
  La  La8  1  0.24914057  0.85109624  0.56189326  1
  La  La9  1  0.74531137  0.67145750  0.43239816  1
  La  La10  1  0.24809299  0.73546268  0.80626231  1
  La  La11  1  0.76394995  0.52751847  0.68620375  1
  La  La12  1  0.76170023  0.39001143  0.93952294  1
  La  La13  1  0.73493926  0.91643131  0.94024276  1
  Mn  Mn14  1  0.00000000  0.50000000  0.00000000  1
  Mn  Mn15  1  0.00299909  0.37109349  0.25068952  1
  Mn  Mn16  1  0.49138099  0.19040413  0.12585212  1
  Mn  Mn17  1  0.99901901  0.24907610  0.50133973  1
  Mn  Mn18  1  0.99159864  0.87791822  0.25178691  1
  Mn  Mn19  1  0.50173438  0.06116122  0.37352920  1
  Mn  Mn20  1  0.49664414  0.68394960  0.12743835  1
  Mn  Mn21  1  0.00840136  0.12208178  0.74821309  1
  Mn  Mn22  1  0.00098099  0.75092390  0.49866027  1
  Mn  Mn23  1  0.49648275  0.56745356  0.37405137  1
  Mn  Mn24  1  0.99700091  0.62890651  0.74931048  1
  Mn  Mn25  1  0.50351725  0.43254644  0.62594863  1
  Mn  Mn26  1  0.49826562  0.93883878  0.62647080  1
  Mn  Mn27  1  0.50335586  0.31605040  0.87256165  1
  Mn  Mn28  1  0.50861901  0.80959587  0.87414788  1
  O  O29  1  0.17718422  0.34005974  0.07770109  1
  O  O30  1  0.29659604  0.01342209  0.17864394  1
  O  O31  1  0.23996873  0.26327137  0.19668121  1
  O  O32  1  0.72771428  0.13279205  0.05434999  1
  O  O33  1  0.21261956  0.81938213  0.08106679  1
  O  O34  1  0.18472377  0.23078661  0.32530530  1
  O  O35  1  0.68239469  0.38148221  0.06081448  1
  O  O36  1  0.32048399  0.49343152  0.19042519  1
  O  O37  1  0.80595442  0.04206332  0.17080272  1
  O  O38  1  0.24097033  0.13130047  0.44818618  1
  O  O39  1  0.25198582  0.74606039  0.20029229  1
  O  O40  1  0.75338807  0.63277787  0.04668821  1
  O  O41  1  0.20161795  0.69851910  0.32613027  1
  O  O42  1  0.23675896  0.08977607  0.56521894  1
  O  O43  1  0.68969156  0.25434760  0.31072883  1
  O  O44  1  0.68560372  0.85521671  0.06888564  1
  O  O45  1  0.31024488  0.37835640  0.43543954  1
  O  O46  1  0.81141731  0.54121129  0.17352876  1
  O  O47  1  0.25369127  0.00450419  0.69739313  1
  O  O48  1  0.24546060  0.61289569  0.45449920  1
  O  O49  1  0.75080316  0.50900100  0.29530089  1
  O  O50  1  0.20406020  0.58487674  0.57524132  1
  O  O51  1  0.72837551  0.72727790  0.31372006  1
  O  O52  1  0.70805605  0.12232065  0.55440088  1
  O  O53  1  0.27162449  0.27272210  0.68627994  1
  O  O54  1  0.29194395  0.87767935  0.44559912  1
  O  O55  1  0.79593980  0.41512326  0.42475868  1
  O  O56  1  0.24919684  0.49099900  0.70469911  1
  O  O57  1  0.75453940  0.38710431  0.54550080  1
  O  O58  1  0.74630873  0.99549581  0.30260687  1
  O  O59  1  0.18858269  0.45878871  0.82647124  1
  O  O60  1  0.68975512  0.62164360  0.56456046  1
  O  O61  1  0.31439628  0.14478329  0.93111436  1
  O  O62  1  0.31030844  0.74565240  0.68927117  1
  O  O63  1  0.79838205  0.30148090  0.67386973  1
  O  O64  1  0.76324104  0.91022393  0.43478106  1
  O  O65  1  0.24661193  0.36722213  0.95331179  1
  O  O66  1  0.74801418  0.25393961  0.79970771  1
  O  O67  1  0.75902967  0.86869953  0.55181382  1
  O  O68  1  0.19404558  0.95793668  0.82919728  1
  O  O69  1  0.67951601  0.50656848  0.80957481  1
  O  O70  1  0.31760531  0.61851779  0.93918552  1
  O  O71  1  0.78738044  0.18061787  0.91893321  1
  O  O72  1  0.81527623  0.76921339  0.67469470  1
  O  O73  1  0.27228572  0.86720795  0.94565001  1
  O  O74  1  0.76003127  0.73672863  0.80331879  1
  O  O75  1  0.70340396  0.98657791  0.82135606  1
  O  O76  1  0.82281578  0.65994026  0.92229891  1
