# generated using pymatgen
data_Mg(FeO2)2
_symmetry_space_group_name_H-M   'P 1'
_cell_length_a   6.02463913
_cell_length_b   6.02677137
_cell_length_c   42.26990456
_cell_angle_alpha   59.91875097
_cell_angle_beta   59.88880609
_cell_angle_gamma   59.87957984
_symmetry_Int_Tables_number   1
_chemical_formula_structural   Mg(FeO2)2
_chemical_formula_sum   'Mg14 Fe28 O56'
_cell_volume   1082.68756896
_cell_formula_units_Z   14
loop_
 _symmetry_equiv_pos_site_id
 _symmetry_equiv_pos_as_xyz
  1  'x, y, z'
loop_
 _atom_site_type_symbol
 _atom_site_label
 _atom_site_symmetry_multiplicity
 _atom_site_fract_x
 _atom_site_fract_y
 _atom_site_fract_z
 _atom_site_occupancy
  Mg  Mg0  1  0.13962778  0.12504259  0.01616594  1
  Mg  Mg1  1  0.13503761  0.11943445  0.16063702  1
  Mg  Mg2  1  0.00432925  0.49797550  0.07150852  1
  Mg  Mg3  1  0.00281277  0.49934538  0.21403127  1
  Mg  Mg4  1  0.50055582  0.00160738  0.35677065  1
  Mg  Mg5  1  0.99987912  0.50094372  0.35700852  1
  Mg  Mg6  1  0.49926179  0.99976436  0.49984011  1
  Mg  Mg7  1  0.99975795  0.49911094  0.49986465  1
  Mg  Mg8  1  0.50063319  -0.00000279  0.64283930  1
  Mg  Mg9  1  -0.00002057  0.50066604  0.64283244  1
  Mg  Mg10  1  0.49996867  0.99930566  0.78597481  1
  Mg  Mg11  1  0.99938830  0.50016033  0.78593034  1
  Mg  Mg12  1  0.49808816  0.99839584  0.92930139  1
  Mg  Mg13  1  0.99976992  0.49880881  0.92902626  1
  Fe  Fe14  1  0.49589500  0.49629517  0.07109964  1
  Fe  Fe15  1  0.49607540  0.00623261  0.07132106  1
  Fe  Fe16  1  0.49588929  0.50075198  0.14328915  1
  Fe  Fe17  1  0.12961132  0.12919431  0.30371808  1
  Fe  Fe18  1  0.49960630  0.50131630  0.21330923  1
  Fe  Fe19  1  0.49886392  0.50189896  0.28569011  1
  Fe  Fe20  1  0.13259023  0.13250320  0.44525291  1
  Fe  Fe21  1  0.49954676  0.00733874  0.21300721  1
  Fe  Fe22  1  0.86596472  0.88060519  0.12459331  1
  Fe  Fe23  1  0.50019452  0.50028558  0.35728000  1
  Fe  Fe24  1  0.50037871  0.50111546  0.42836380  1
  Fe  Fe25  1  0.13284540  0.13288335  0.58832525  1
  Fe  Fe26  1  0.86419403  0.87794243  0.26830901  1
  Fe  Fe27  1  0.49877060  0.49864696  0.50014493  1
  Fe  Fe28  1  0.50041960  0.50046435  0.57124583  1
  Fe  Fe29  1  0.13241398  0.13274380  0.73110888  1
  Fe  Fe30  1  0.86723909  0.86701878  0.41167497  1
  Fe  Fe31  1  0.49989732  0.49993434  0.64284583  1
  Fe  Fe32  1  0.86692713  0.86692711  0.55422643  1
  Fe  Fe33  1  0.49998599  0.49996216  0.71429549  1
  Fe  Fe34  1  0.13194480  0.13213346  0.87399826  1
  Fe  Fe35  1  0.49906727  0.49933270  0.78606978  1
  Fe  Fe36  1  0.86754223  0.86762963  0.69724759  1
  Fe  Fe37  1  0.49886095  0.49794220  0.85778546  1
  Fe  Fe38  1  0.49473781  0.49485176  0.92949483  1
  Fe  Fe39  1  0.86597837  0.86617615  0.84077792  1
  Fe  Fe40  1  0.49736421  0.49634756  0.00136286  1
  Fe  Fe41  1  0.86705800  0.86857277  0.98359347  1
  O  O42  1  0.26669286  0.25040472  0.03805243  1
  O  O43  1  0.26722843  0.25372649  0.10378784  1
  O  O44  1  0.26546425  0.71861156  0.03782477  1
  O  O45  1  0.72723927  0.25085380  0.03866850  1
  O  O46  1  0.26147537  0.74296000  0.10806177  1
  O  O47  1  0.26723481  0.25437553  0.18032213  1
  O  O48  1  0.73259086  0.74395734  0.04055263  1
  O  O49  1  0.73328784  0.27207320  0.10800641  1
  O  O50  1  0.26244779  0.25237584  0.24771617  1
  O  O51  1  0.26805446  0.71445793  0.18052378  1
  O  O52  1  0.72453331  0.25606355  0.18063282  1
  O  O53  1  0.73316148  0.74270727  0.10794694  1
  O  O54  1  0.26168320  0.26583309  0.32053220  1
  O  O55  1  0.26751274  0.74508085  0.24935856  1
  O  O56  1  0.73538161  0.27295090  0.24990683  1
  O  O57  1  0.26211456  0.26171312  0.38932518  1
  O  O58  1  0.26377692  0.73314700  0.32135251  1
  O  O59  1  0.73780743  0.74421137  0.18189667  1
  O  O60  1  0.73230791  0.26800214  0.32080921  1
  O  O61  1  0.73555402  0.74618015  0.24935125  1
  O  O62  1  0.26220182  0.26234130  0.46368092  1
  O  O63  1  0.26912014  0.74052483  0.39164537  1
  O  O64  1  0.26067597  0.26074684  0.53237714  1
  O  O65  1  0.74016239  0.26902143  0.39165878  1
  O  O66  1  0.26284918  0.73300955  0.46396249  1
  O  O67  1  0.74013375  0.74268516  0.32374350  1
  O  O68  1  0.73280140  0.26305493  0.46392950  1
  O  O69  1  0.74087869  0.74183341  0.39194047  1
  O  O70  1  0.26873885  0.73903993  0.53439583  1
  O  O71  1  0.26290410  0.26306507  0.60667513  1
  O  O72  1  0.73902506  0.26846606  0.53441856  1
  O  O73  1  0.74039519  0.74009921  0.46669945  1
  O  O74  1  0.26169750  0.26188501  0.67515328  1
  O  O75  1  0.26340905  0.73378644  0.60684355  1
  O  O76  1  0.73351628  0.26342644  0.60686151  1
  O  O77  1  0.73990913  0.73978712  0.53487944  1
  O  O78  1  0.26210589  0.26221441  0.74961818  1
  O  O79  1  0.26948762  0.73969306  0.67731280  1
  O  O80  1  0.73969480  0.26930167  0.67731964  1
  O  O81  1  0.74150346  0.74140279  0.60934504  1
  O  O82  1  0.26303912  0.26326694  0.81778494  1
  O  O83  1  0.26231911  0.73367054  0.74982312  1
  O  O84  1  0.73326419  0.26236401  0.74985186  1
  O  O85  1  0.74007412  0.73995104  0.67803541  1
  O  O86  1  0.26140017  0.26104550  0.89227842  1
  O  O87  1  0.26753040  0.73802529  0.82098854  1
  O  O88  1  0.73824515  0.26744463  0.82093852  1
  O  O89  1  0.26136386  0.73518861  0.89266599  1
  O  O90  1  0.74037064  0.74035531  0.75248029  1
  O  O91  1  0.26710688  0.26609194  0.95928610  1
  O  O92  1  0.73489730  0.26077109  0.89272176  1
  O  O93  1  0.73819471  0.73791820  0.82182350  1
  O  O94  1  0.26439605  0.73419798  0.96567333  1
  O  O95  1  0.73765964  0.26508771  0.96504604  1
  O  O96  1  0.73581429  0.73688181  0.89659306  1
  O  O97  1  0.73861228  0.73506362  0.96575745  1
