# generated using pymatgen
data_Ac3Sc
_symmetry_space_group_name_H-M   'P 1'
_cell_length_a   7.72534996
_cell_length_b   7.72534918
_cell_length_c   6.15429058
_cell_angle_alpha   90.00000000
_cell_angle_beta   90.00000000
_cell_angle_gamma   120.00000333
_symmetry_Int_Tables_number   1
_chemical_formula_structural   Ac3Sc
_chemical_formula_sum   'Ac6 Sc2'
_cell_volume   318.08624967
_cell_formula_units_Z   2
loop_
 _symmetry_equiv_pos_site_id
 _symmetry_equiv_pos_as_xyz
  1  'x, y, z'
loop_
 _atom_site_type_symbol
 _atom_site_label
 _atom_site_symmetry_multiplicity
 _atom_site_fract_x
 _atom_site_fract_y
 _atom_site_fract_z
 _atom_site_occupancy
  Ac  Ac0  1  0.65671553  0.82835776  0.24999900  1
  Ac  Ac1  1  0.17164224  0.34328447  0.24999900  1
  Ac  Ac2  1  0.34328447  0.17164324  0.75000000  1
  Ac  Ac3  1  0.82835776  0.65671453  0.75000000  1
  Ac  Ac4  1  0.17164224  0.82835776  0.24999900  1
  Ac  Ac5  1  0.82835776  0.17164324  0.75000000  1
  Sc  Sc6  1  0.66666800  0.33333400  0.24999900  1
  Sc  Sc7  1  0.33333300  0.66666600  0.75000000  1
