# generated using pymatgen
data_KCuPH2O5
_symmetry_space_group_name_H-M   'P 1'
_cell_length_a   10.59877683
_cell_length_b   6.87778745
_cell_length_c   6.80910038
_cell_angle_alpha   90.00000000
_cell_angle_beta   92.79077000
_cell_angle_gamma   90.00000000
_symmetry_Int_Tables_number   1
_chemical_formula_structural   KCuPH2O5
_chemical_formula_sum   'K4 Cu4 P4 H8 O20'
_cell_volume   495.76841316
_cell_formula_units_Z   4
loop_
 _symmetry_equiv_pos_site_id
 _symmetry_equiv_pos_as_xyz
  1  'x, y, z'
loop_
 _atom_site_type_symbol
 _atom_site_label
 _atom_site_symmetry_multiplicity
 _atom_site_fract_x
 _atom_site_fract_y
 _atom_site_fract_z
 _atom_site_occupancy
  K  K0  1  0.31512067  0.92391989  0.03584770  1
  K  K1  1  0.68487933  0.42391989  0.46415230  1
  K  K2  1  0.68487933  0.07608011  0.96415230  1
  K  K3  1  0.31512067  0.57608011  0.53584770  1
  Cu  Cu4  1  0.99258893  0.29636012  0.72084974  1
  Cu  Cu5  1  0.00741107  0.79636012  0.77915026  1
  Cu  Cu6  1  0.00741107  0.70363988  0.27915026  1
  Cu  Cu7  1  0.99258893  0.20363988  0.22084974  1
  P  P8  1  0.17622499  0.03398419  0.49923189  1
  P  P9  1  0.82377501  0.53398419  0.00076811  1
  P  P10  1  0.82377501  0.96601581  0.50076811  1
  P  P11  1  0.17622499  0.46601581  0.99923189  1
  H  H12  1  0.42061671  0.13475829  0.65802500  1
  H  H13  1  0.57938329  0.63475829  0.84197500  1
  H  H14  1  0.57938329  0.86524171  0.34197500  1
  H  H15  1  0.42061671  0.36524171  0.15802500  1
  H  H16  1  0.40990445  0.28630259  0.83127757  1
  H  H17  1  0.59009555  0.78630259  0.66872243  1
  H  H18  1  0.59009555  0.71369741  0.16872243  1
  H  H19  1  0.40990445  0.21369741  0.33127757  1
  O  O20  1  0.31310610  0.03642381  0.44070066  1
  O  O21  1  0.68689390  0.53642381  0.05929934  1
  O  O22  1  0.68689390  0.96357619  0.55929934  1
  O  O23  1  0.31310610  0.46357619  0.94070066  1
  O  O24  1  0.16326734  0.88629597  0.67076779  1
  O  O25  1  0.83673266  0.38629597  0.82923221  1
  O  O26  1  0.83673266  0.11370403  0.32923221  1
  O  O27  1  0.16326734  0.61370403  0.17076779  1
  O  O28  1  0.08538398  0.96432572  0.31751417  1
  O  O29  1  0.91461602  0.46432572  0.18248583  1
  O  O30  1  0.91461602  0.03567428  0.68248583  1
  O  O31  1  0.08538398  0.53567428  0.81751417  1
  O  O32  1  0.12985482  0.24272882  0.54940610  1
  O  O33  1  0.87014518  0.74272882  0.95059390  1
  O  O34  1  0.87014518  0.75727118  0.45059390  1
  O  O35  1  0.12985482  0.25727118  0.04940610  1
  O  O36  1  0.46127827  0.17801807  0.78346854  1
  O  O37  1  0.53872173  0.67801807  0.71653146  1
  O  O38  1  0.53872173  0.82198193  0.21653146  1
  O  O39  1  0.46127827  0.32198193  0.28346854  1
