# generated using pymatgen
data_Zn4P3H10C2NO13
_symmetry_space_group_name_H-M   'P 1'
_cell_length_a   5.34898828
_cell_length_b   15.41399988
_cell_length_c   17.68874919
_cell_angle_alpha   90.00000000
_cell_angle_beta   92.37239613
_cell_angle_gamma   90.00000000
_symmetry_Int_Tables_number   1
_chemical_formula_structural   Zn4P3H10C2NO13
_chemical_formula_sum   'Zn16 P12 H40 C8 N4 O52'
_cell_volume   1457.17503973
_cell_formula_units_Z   4
loop_
 _symmetry_equiv_pos_site_id
 _symmetry_equiv_pos_as_xyz
  1  'x, y, z'
loop_
 _atom_site_type_symbol
 _atom_site_label
 _atom_site_symmetry_multiplicity
 _atom_site_fract_x
 _atom_site_fract_y
 _atom_site_fract_z
 _atom_site_occupancy
  Zn  Zn0  1  0.29913325  0.90299239  0.04122483  1
  Zn  Zn1  1  0.79913325  0.59700761  0.54122483  1
  Zn  Zn2  1  0.70086675  0.09700761  0.95877517  1
  Zn  Zn3  1  0.20086675  0.40299239  0.45877517  1
  Zn  Zn4  1  0.38397058  0.75740893  0.31771950  1
  Zn  Zn5  1  0.88397058  0.74259107  0.81771950  1
  Zn  Zn6  1  0.61602942  0.24259107  0.68228050  1
  Zn  Zn7  1  0.11602942  0.25740893  0.18228050  1
  Zn  Zn8  1  0.20997639  0.59901337  0.00987428  1
  Zn  Zn9  1  0.70997639  0.90098663  0.50987428  1
  Zn  Zn10  1  0.79002361  0.40098663  0.99012572  1
  Zn  Zn11  1  0.29002361  0.09901337  0.49012572  1
  Zn  Zn12  1  0.70873314  0.72983189  0.05087653  1
  Zn  Zn13  1  0.20873314  0.77016811  0.55087653  1
  Zn  Zn14  1  0.29126686  0.27016811  0.94912347  1
  Zn  Zn15  1  0.79126686  0.22983189  0.44912347  1
  P  P16  1  0.22310828  0.74101404  0.14196512  1
  P  P17  1  0.72310828  0.75898596  0.64196512  1
  P  P18  1  0.77689172  0.25898596  0.85803488  1
  P  P19  1  0.27689172  0.24101404  0.35803488  1
  P  P20  1  0.22389249  0.11373095  0.05764637  1
  P  P21  1  0.72389249  0.38626905  0.55764637  1
  P  P22  1  0.77610751  0.88626905  0.94235363  1
  P  P23  1  0.27610751  0.61373095  0.44235363  1
  P  P24  1  0.22149867  0.91079896  0.41626320  1
  P  P25  1  0.72149867  0.58920104  0.91626320  1
  P  P26  1  0.77850133  0.08920104  0.58373680  1
  P  P27  1  0.27850133  0.41079896  0.08373680  1
  H  H28  1  0.12139943  0.52949151  0.30899284  1
  H  H29  1  0.62139943  0.97050849  0.80899284  1
  H  H30  1  0.87860057  0.47050849  0.69100716  1
  H  H31  1  0.37860057  0.02949151  0.19100716  1
  H  H32  1  0.13829199  0.58917456  0.23045794  1
  H  H33  1  0.63829199  0.91082544  0.73045794  1
  H  H34  1  0.86170801  0.41082544  0.76954206  1
  H  H35  1  0.36170801  0.08917456  0.26954206  1
  H  H36  1  0.13926368  0.47899817  0.22353205  1
  H  H37  1  0.63926368  0.02100183  0.72353205  1
  H  H38  1  0.86073632  0.52100183  0.77646795  1
  H  H39  1  0.36073632  0.97899817  0.27646795  1
  H  H40  1  0.88221327  0.72189767  0.35973403  1
  H  H41  1  0.38221327  0.77810233  0.85973403  1
  H  H42  1  0.11778673  0.27810233  0.64026597  1
  H  H43  1  0.61778673  0.22189767  0.14026597  1
  H  H44  1  0.84054407  0.76602554  0.27989094  1
  H  H45  1  0.34054407  0.73397446  0.77989094  1
  H  H46  1  0.15945593  0.23397446  0.72010906  1
  H  H47  1  0.65945593  0.26602554  0.22010906  1
  H  H48  1  0.70793170  0.58957337  0.25836056  1
  H  H49  1  0.20793170  0.91042663  0.75836056  1
  H  H50  1  0.29206830  0.41042663  0.74163944  1
  H  H51  1  0.79206830  0.08957337  0.24163944  1
  H  H52  1  0.73901134  0.51694266  0.18252064  1
  H  H53  1  0.23901134  0.98305734  0.68252064  1
  H  H54  1  0.26098866  0.48305734  0.81747936  1
  H  H55  1  0.76098866  0.01694266  0.31747936  1
  H  H56  1  0.51104229  0.42679254  0.27291169  1
  H  H57  1  0.01104229  0.07320746  0.77291169  1
  H  H58  1  0.48895771  0.57320746  0.72708831  1
  H  H59  1  0.98895771  0.92679254  0.22708831  1
  H  H60  1  0.68267462  0.47263943  0.35112144  1
  H  H61  1  0.18267462  0.02736057  0.85112144  1
  H  H62  1  0.31732538  0.52736057  0.64887856  1
  H  H63  1  0.81732538  0.97263943  0.14887856  1
  H  H64  1  0.82604227  0.39848519  0.29123011  1
  H  H65  1  0.32604227  0.10151481  0.79123011  1
  H  H66  1  0.17395773  0.60151481  0.70876989  1
  H  H67  1  0.67395773  0.89848519  0.20876989  1
  C  C68  1  0.78492743  0.52663339  0.24284111  1
  C  C69  1  0.28492743  0.97336661  0.74284111  1
  C  C70  1  0.21507257  0.47336661  0.75715889  1
  C  C71  1  0.71507257  0.02663339  0.25715889  1
  C  C72  1  0.69371259  0.45287990  0.29185773  1
  C  C73  1  0.19371259  0.04712010  0.79185773  1
  C  C74  1  0.30628741  0.54712010  0.70814227  1
  C  C75  1  0.80628741  0.95287990  0.20814227  1
  N  N76  1  0.06622854  0.53188509  0.25199972  1
  N  N77  1  0.56622854  0.96811491  0.75199972  1
  N  N78  1  0.93377146  0.46811491  0.74800028  1
  N  N79  1  0.43377146  0.03188509  0.24800028  1
  O  O80  1  0.26787648  0.83908139  0.13597964  1
  O  O81  1  0.76787648  0.66091861  0.63597964  1
  O  O82  1  0.73212352  0.16091861  0.86402036  1
  O  O83  1  0.23212352  0.33908139  0.36402036  1
  O  O84  1  0.32258183  0.02231986  0.07794908  1
  O  O85  1  0.82258183  0.47768014  0.57794908  1
  O  O86  1  0.67741817  0.97768014  0.92205092  1
  O  O87  1  0.17741817  0.52231986  0.42205092  1
  O  O88  1  0.93853017  0.11796030  0.04317719  1
  O  O89  1  0.43853017  0.38203970  0.54317719  1
  O  O90  1  0.06146983  0.88203970  0.95682281  1
  O  O91  1  0.56146983  0.61796030  0.45682281  1
  O  O92  1  0.36083565  0.14792977  0.98559062  1
  O  O93  1  0.86083565  0.35207023  0.48559062  1
  O  O94  1  0.63916435  0.85207023  0.01440938  1
  O  O95  1  0.13916435  0.64792977  0.51440938  1
  O  O96  1  0.33016679  0.70447672  0.21793917  1
  O  O97  1  0.83016679  0.79552328  0.71793917  1
  O  O98  1  0.66983321  0.29552328  0.78206083  1
  O  O99  1  0.16983321  0.20447672  0.28206083  1
  O  O100  1  0.28220490  0.87661710  0.33619957  1
  O  O101  1  0.78220490  0.62338290  0.83619957  1
  O  O102  1  0.71779510  0.12338290  0.66380043  1
  O  O103  1  0.21779510  0.37661710  0.16380043  1
  O  O104  1  0.30604396  0.17382605  0.12464658  1
  O  O105  1  0.80604396  0.32617395  0.62464658  1
  O  O106  1  0.69395604  0.82617395  0.87535342  1
  O  O107  1  0.19395604  0.67382605  0.37535342  1
  O  O108  1  0.32740862  0.00351147  0.42115720  1
  O  O109  1  0.82740862  0.49648853  0.92115720  1
  O  O110  1  0.67259138  0.99648853  0.57884280  1
  O  O111  1  0.17259138  0.50351147  0.07884280  1
  O  O112  1  0.36963634  0.85280567  0.47830807  1
  O  O113  1  0.86963634  0.64719433  0.97830807  1
  O  O114  1  0.63036366  0.14719433  0.52169193  1
  O  O115  1  0.13036366  0.35280567  0.02169193  1
  O  O116  1  0.94145247  0.90467667  0.42925511  1
  O  O117  1  0.44145247  0.59532333  0.92925511  1
  O  O118  1  0.05854753  0.09532333  0.57074489  1
  O  O119  1  0.55854753  0.40467667  0.07074489  1
  O  O120  1  0.36258919  0.69475389  0.07497271  1
  O  O121  1  0.86258919  0.80524611  0.57497271  1
  O  O122  1  0.63741081  0.30524611  0.92502729  1
  O  O123  1  0.13741081  0.19475389  0.42502729  1
  O  O124  1  0.94321304  0.71611005  0.13578053  1
  O  O125  1  0.44321304  0.78388995  0.63578053  1
  O  O126  1  0.05678696  0.28388995  0.86421947  1
  O  O127  1  0.55678696  0.21611005  0.36421947  1
  O  O128  1  0.76123723  0.75566306  0.32784885  1
  O  O129  1  0.26123723  0.74433694  0.82784885  1
  O  O130  1  0.23876277  0.24433694  0.67215115  1
  O  O131  1  0.73876277  0.25566306  0.17215115  1
