# generated using pymatgen
data_K3Na3TeP6(HO4)6
_symmetry_space_group_name_H-M   'P 1'
_cell_length_a   12.71747698
_cell_length_b   12.71747698
_cell_length_c   12.71747718
_cell_angle_alpha   51.25459109
_cell_angle_beta   51.25459109
_cell_angle_gamma   51.25459283
_symmetry_Int_Tables_number   1
_chemical_formula_structural   K3Na3TeP6(HO4)6
_chemical_formula_sum   'K6 Na6 Te2 P12 H12 O48'
_cell_volume   1154.76412361
_cell_formula_units_Z   2
loop_
 _symmetry_equiv_pos_site_id
 _symmetry_equiv_pos_as_xyz
  1  'x, y, z'
loop_
 _atom_site_type_symbol
 _atom_site_label
 _atom_site_symmetry_multiplicity
 _atom_site_fract_x
 _atom_site_fract_y
 _atom_site_fract_z
 _atom_site_occupancy
  K  K0  1  0.87588956  0.25000000  0.62411044  1
  K  K1  1  0.25000000  0.62411044  0.87588956  1
  K  K2  1  0.62411044  0.87588956  0.25000000  1
  K  K3  1  0.37588956  0.12411044  0.75000000  1
  K  K4  1  0.12411044  0.75000000  0.37588956  1
  K  K5  1  0.75000000  0.37588956  0.12411044  1
  Na  Na6  1  0.25000000  0.05333221  0.44666779  1
  Na  Na7  1  0.05333221  0.44666779  0.25000000  1
  Na  Na8  1  0.44666779  0.25000000  0.05333221  1
  Na  Na9  1  0.75000000  0.94666779  0.55333221  1
  Na  Na10  1  0.94666779  0.55333221  0.75000000  1
  Na  Na11  1  0.55333221  0.75000000  0.94666779  1
  Te  Te12  1  0.50000000  0.50000000  0.50000000  1
  Te  Te13  1  0.00000000  0.00000000  0.00000000  1
  P  P14  1  0.18762866  0.33951503  0.49320896  1
  P  P15  1  0.33951503  0.49320896  0.18762866  1
  P  P16  1  0.49320896  0.18762866  0.33951503  1
  P  P17  1  0.68762866  0.99320896  0.83951503  1
  P  P18  1  0.99320896  0.83951503  0.68762866  1
  P  P19  1  0.83951503  0.68762866  0.99320896  1
  P  P20  1  0.81237134  0.66048497  0.50679104  1
  P  P21  1  0.66048497  0.50679104  0.81237134  1
  P  P22  1  0.50679104  0.81237134  0.66048497  1
  P  P23  1  0.31237134  0.00679104  0.16048497  1
  P  P24  1  0.00679104  0.16048497  0.31237134  1
  P  P25  1  0.16048497  0.31237134  0.00679104  1
  H  H26  1  0.70932813  0.30276125  0.40514221  1
  H  H27  1  0.30276125  0.40514221  0.70932813  1
  H  H28  1  0.40514221  0.70932813  0.30276125  1
  H  H29  1  0.20932813  0.90514221  0.80276125  1
  H  H30  1  0.90514221  0.80276125  0.20932813  1
  H  H31  1  0.80276125  0.20932813  0.90514221  1
  H  H32  1  0.29067187  0.69723875  0.59485779  1
  H  H33  1  0.69723875  0.59485779  0.29067187  1
  H  H34  1  0.59485779  0.29067187  0.69723875  1
  H  H35  1  0.79067187  0.09485779  0.19723875  1
  H  H36  1  0.09485779  0.19723875  0.79067187  1
  H  H37  1  0.19723875  0.79067187  0.09485779  1
  O  O38  1  0.39458774  0.37200784  0.63028839  1
  O  O39  1  0.37200784  0.63028839  0.39458774  1
  O  O40  1  0.63028839  0.39458774  0.37200784  1
  O  O41  1  0.89458774  0.13028839  0.87200784  1
  O  O42  1  0.13028839  0.87200784  0.89458774  1
  O  O43  1  0.87200784  0.89458774  0.13028839  1
  O  O44  1  0.60541226  0.62799216  0.36971161  1
  O  O45  1  0.62799216  0.36971161  0.60541226  1
  O  O46  1  0.36971161  0.60541226  0.62799216  1
  O  O47  1  0.10541226  0.86971161  0.12799216  1
  O  O48  1  0.86971161  0.12799216  0.10541226  1
  O  O49  1  0.12799216  0.10541226  0.86971161  1
  O  O50  1  0.10821675  0.36330404  0.63084410  1
  O  O51  1  0.36330404  0.63084410  0.10821675  1
  O  O52  1  0.63084410  0.10821675  0.36330404  1
  O  O53  1  0.60821675  0.13084410  0.86330404  1
  O  O54  1  0.13084410  0.86330404  0.60821675  1
  O  O55  1  0.86330404  0.60821675  0.13084410  1
  O  O56  1  0.89178325  0.63669596  0.36915590  1
  O  O57  1  0.63669596  0.36915590  0.89178325  1
  O  O58  1  0.36915590  0.89178325  0.63669596  1
  O  O59  1  0.39178325  0.86915590  0.13669596  1
  O  O60  1  0.86915590  0.13669596  0.39178325  1
  O  O61  1  0.13669596  0.39178325  0.86915590  1
  O  O62  1  0.12717558  0.29230391  0.46540343  1
  O  O63  1  0.29230391  0.46540343  0.12717558  1
  O  O64  1  0.46540343  0.12717558  0.29230391  1
  O  O65  1  0.62717558  0.96540343  0.79230391  1
  O  O66  1  0.96540343  0.79230391  0.62717558  1
  O  O67  1  0.79230391  0.62717558  0.96540343  1
  O  O68  1  0.87282442  0.70769609  0.53459657  1
  O  O69  1  0.70769609  0.53459657  0.87282442  1
  O  O70  1  0.53459657  0.87282442  0.70769609  1
  O  O71  1  0.37282442  0.03459657  0.20769609  1
  O  O72  1  0.03459657  0.20769609  0.37282442  1
  O  O73  1  0.20769609  0.37282442  0.03459657  1
  O  O74  1  0.35458002  0.22062386  0.48510641  1
  O  O75  1  0.22062386  0.48510641  0.35458002  1
  O  O76  1  0.48510641  0.35458002  0.22062386  1
  O  O77  1  0.85458002  0.98510641  0.72062386  1
  O  O78  1  0.98510641  0.72062386  0.85458002  1
  O  O79  1  0.72062386  0.85458002  0.98510641  1
  O  O80  1  0.64541998  0.77937614  0.51489359  1
  O  O81  1  0.77937614  0.51489359  0.64541998  1
  O  O82  1  0.51489359  0.64541998  0.77937614  1
  O  O83  1  0.14541998  0.01489359  0.27937614  1
  O  O84  1  0.01489359  0.27937614  0.14541998  1
  O  O85  1  0.27937614  0.14541998  0.01489359  1
