# generated using pymatgen
data_H8AuC2S2BrN4
_symmetry_space_group_name_H-M   'P 1'
_cell_length_a   9.32454272
_cell_length_b   9.32454272
_cell_length_c   6.95879144
_cell_angle_alpha   84.35973496
_cell_angle_beta   95.64026504
_cell_angle_gamma   57.84911437
_symmetry_Int_Tables_number   1
_chemical_formula_structural   H8AuC2S2BrN4
_chemical_formula_sum   'H16 Au2 C4 S4 Br2 N8'
_cell_volume   501.57470553
_cell_formula_units_Z   2
loop_
 _symmetry_equiv_pos_site_id
 _symmetry_equiv_pos_as_xyz
  1  'x, y, z'
loop_
 _atom_site_type_symbol
 _atom_site_label
 _atom_site_symmetry_multiplicity
 _atom_site_fract_x
 _atom_site_fract_y
 _atom_site_fract_z
 _atom_site_occupancy
  H  H0  1  0.27294165  0.69488696  0.73270669  1
  H  H1  1  0.69488696  0.27294165  0.76729331  1
  H  H2  1  0.72705835  0.30511304  0.26729331  1
  H  H3  1  0.30511304  0.72705835  0.23270669  1
  H  H4  1  0.31645232  0.52820856  0.91899979  1
  H  H5  1  0.52820856  0.31645232  0.58100021  1
  H  H6  1  0.68354768  0.47179144  0.08100021  1
  H  H7  1  0.47179144  0.68354768  0.41899979  1
  H  H8  1  0.95732065  0.51622688  0.73573528  1
  H  H9  1  0.51622688  0.95732065  0.76426472  1
  H  H10  1  0.04267935  0.48377312  0.26426472  1
  H  H11  1  0.48377312  0.04267935  0.23573528  1
  H  H12  1  0.15313817  0.41274495  0.90046116  1
  H  H13  1  0.41274495  0.15313817  0.59953884  1
  H  H14  1  0.84686183  0.58725505  0.09953884  1
  H  H15  1  0.58725505  0.84686183  0.40046116  1
  Au  Au16  1  0.00000000  0.00000000  0.50000000  1
  Au  Au17  1  0.00000000  0.00000000  0.00000000  1
  C  C18  1  0.10242558  0.62083099  0.70843228  1
  C  C19  1  0.62083099  0.10242558  0.79156772  1
  C  C20  1  0.89757442  0.37916901  0.29156772  1
  C  C21  1  0.37916901  0.89757442  0.20843228  1
  S  S22  1  0.95935445  0.77428190  0.50810734  1
  S  S23  1  0.77428190  0.95935445  0.99189266  1
  S  S24  1  0.04064555  0.22571810  0.49189266  1
  S  S25  1  0.22571810  0.04064555  0.00810734  1
  Br  Br26  1  0.62733645  0.62733645  0.75000000  1
  Br  Br27  1  0.37266355  0.37266355  0.25000000  1
  N  N28  1  0.24434820  0.61024182  0.78812156  1
  N  N29  1  0.61024182  0.24434820  0.71187844  1
  N  N30  1  0.75565180  0.38975818  0.21187844  1
  N  N31  1  0.38975818  0.75565180  0.28812156  1
  N  N32  1  0.07242611  0.50271026  0.78015951  1
  N  N33  1  0.50271026  0.07242611  0.71984049  1
  N  N34  1  0.92757389  0.49728974  0.21984049  1
  N  N35  1  0.49728974  0.92757389  0.28015951  1
