# generated using pymatgen
data_LiH2NO3
_symmetry_space_group_name_H-M   'P 1'
_cell_length_a   3.47563612
_cell_length_b   14.45597577
_cell_length_c   6.48507128
_cell_angle_alpha   90.00000000
_cell_angle_beta   106.94417145
_cell_angle_gamma   90.00000000
_symmetry_Int_Tables_number   1
_chemical_formula_structural   LiH2NO3
_chemical_formula_sum   'Li4 H8 N4 O12'
_cell_volume   311.68932899
_cell_formula_units_Z   4
loop_
 _symmetry_equiv_pos_site_id
 _symmetry_equiv_pos_as_xyz
  1  'x, y, z'
loop_
 _atom_site_type_symbol
 _atom_site_label
 _atom_site_symmetry_multiplicity
 _atom_site_fract_x
 _atom_site_fract_y
 _atom_site_fract_z
 _atom_site_occupancy
  Li  Li0  1  0.35964323  0.66558193  0.14513200  1
  Li  Li1  1  0.64035677  0.16558193  0.35486800  1
  Li  Li2  1  0.64035677  0.33441807  0.85486800  1
  Li  Li3  1  0.35964323  0.83441807  0.64513200  1
  H  H4  1  0.08770990  0.04285504  0.25725238  1
  H  H5  1  0.91229010  0.54285504  0.24274762  1
  H  H6  1  0.91229010  0.95714496  0.74274762  1
  H  H7  1  0.08770990  0.45714496  0.75725238  1
  H  H8  1  0.96654582  0.11835296  0.06702281  1
  H  H9  1  0.03345418  0.61835296  0.43297719  1
  H  H10  1  0.03345418  0.88164704  0.93297719  1
  H  H11  1  0.96654582  0.38164704  0.56702281  1
  N  N12  1  0.79124831  0.13796938  0.77977802  1
  N  N13  1  0.20875169  0.63796938  0.72022198  1
  N  N14  1  0.20875169  0.86203062  0.22022198  1
  N  N15  1  0.79124831  0.36203062  0.27977802  1
  O  O16  1  0.64646808  0.21501385  0.69854191  1
  O  O17  1  0.35353192  0.71501385  0.80145809  1
  O  O18  1  0.35353192  0.78498615  0.30145809  1
  O  O19  1  0.64646808  0.28498615  0.19854191  1
  O  O20  1  0.82253635  0.07799826  0.64376708  1
  O  O21  1  0.17746365  0.57799826  0.85623292  1
  O  O22  1  0.17746365  0.92200174  0.35623292  1
  O  O23  1  0.82253635  0.42200174  0.14376708  1
  O  O24  1  0.06788697  0.11059084  0.22681604  1
  O  O25  1  0.93211303  0.61059084  0.27318396  1
  O  O26  1  0.93211303  0.88940916  0.77318396  1
  O  O27  1  0.06788697  0.38940916  0.72681604  1
