# generated using pymatgen
data_Al3P4H18C3N3O16
_symmetry_space_group_name_H-M   'P 1'
_cell_length_a   8.47533224
_cell_length_b   11.41946555
_cell_length_c   11.61948119
_cell_angle_alpha   72.45329330
_cell_angle_beta   89.42269141
_cell_angle_gamma   85.34123576
_symmetry_Int_Tables_number   1
_chemical_formula_structural   Al3P4H18C3N3O16
_chemical_formula_sum   'Al6 P8 H36 C6 N6 O32'
_cell_volume   1068.58674713
_cell_formula_units_Z   2
loop_
 _symmetry_equiv_pos_site_id
 _symmetry_equiv_pos_as_xyz
  1  'x, y, z'
loop_
 _atom_site_type_symbol
 _atom_site_label
 _atom_site_symmetry_multiplicity
 _atom_site_fract_x
 _atom_site_fract_y
 _atom_site_fract_z
 _atom_site_occupancy
  Al  Al0  1  0.14844025  0.65271807  0.42546599  1
  Al  Al1  1  0.85155975  0.34728193  0.57453401  1
  Al  Al2  1  0.31977721  0.94929625  0.13254259  1
  Al  Al3  1  0.68022279  0.05070375  0.86745741  1
  Al  Al4  1  0.73869012  0.71167831  0.21613479  1
  Al  Al5  1  0.26130988  0.28832169  0.78386521  1
  P  P6  1  0.52381357  0.80690679  0.98037146  1
  P  P7  1  0.47618643  0.19309321  0.01962854  1
  P  P8  1  0.97746520  0.89442257  0.23958424  1
  P  P9  1  0.02253480  0.10557743  0.76041576  1
  P  P10  1  0.97803738  0.47201176  0.31433068  1
  P  P11  1  0.02196262  0.52798824  0.68566932  1
  P  P12  1  0.47410952  0.76792654  0.38044891  1
  P  P13  1  0.52589048  0.23207346  0.61955109  1
  H  H14  1  0.10882126  0.83800374  0.82139997  1
  H  H15  1  0.89117874  0.16199626  0.17860003  1
  H  H16  1  0.24919753  0.72282679  0.87718662  1
  H  H17  1  0.75080247  0.27717321  0.12281338  1
  H  H18  1  0.07610960  0.69412850  0.81435876  1
  H  H19  1  0.92389040  0.30587150  0.18564124  1
  H  H20  1  0.56373459  0.69763691  0.79094950  1
  H  H21  1  0.43626541  0.30236309  0.20905050  1
  H  H22  1  0.73376115  0.63279277  0.74442580  1
  H  H23  1  0.26623885  0.36720723  0.25557420  1
  H  H24  1  0.58516434  0.70342636  0.64234586  1
  H  H25  1  0.41483566  0.29657364  0.35765414  1
  H  H26  1  0.65665461  0.07465156  0.46813249  1
  H  H27  1  0.34334539  0.92534844  0.53186751  1
  H  H28  1  0.78018404  0.00096587  0.38625966  1
  H  H29  1  0.21981596  0.99903413  0.61374034  1
  H  H30  1  0.62113388  0.93231868  0.46144378  1
  H  H31  1  0.37886612  0.06768132  0.53855622  1
  H  H32  1  0.07339215  0.61279347  0.03203463  1
  H  H33  1  0.92660785  0.38720653  0.96796537  1
  H  H34  1  0.09876741  0.76514723  0.03931750  1
  H  H35  1  0.90123259  0.23485277  0.96068250  1
  H  H36  1  0.92301367  0.73557315  0.97327043  1
  H  H37  1  0.07698633  0.26442685  0.02672957  1
  H  H38  1  0.56380326  0.47614416  0.85004454  1
  H  H39  1  0.43619674  0.52385584  0.14995546  1
  H  H40  1  0.40561126  0.55210978  0.74780761  1
  H  H41  1  0.59438874  0.44789022  0.25219239  1
  H  H42  1  0.57669275  0.48370745  0.69395618  1
  H  H43  1  0.42330725  0.51629255  0.30604382  1
  H  H44  1  0.89332982  0.99465714  0.58546557  1
  H  H45  1  0.10667018  0.00534286  0.41453443  1
  H  H46  1  0.73363328  0.90810534  0.65404515  1
  H  H47  1  0.26636672  0.09189466  0.34595485  1
  H  H48  1  0.87361159  0.84708850  0.56572866  1
  H  H49  1  0.12638841  0.15291150  0.43427134  1
  C  C50  1  0.80926103  0.93104205  0.57473834  1
  C  C51  1  0.19073897  0.06895795  0.42526166  1
  C  C52  1  0.53418742  0.53237501  0.75756401  1
  C  C53  1  0.46581258  0.46762499  0.24243599  1
  C  C54  1  0.05051319  0.71156228  0.98628236  1
  C  C55  1  0.94948681  0.28843772  0.01371764  1
  N  N56  1  0.71023469  0.99027591  0.46436764  1
  N  N57  1  0.28976531  0.00972409  0.53563236  1
  N  N58  1  0.61036821  0.65037143  0.73117622  1
  N  N59  1  0.38963179  0.34962857  0.26882378  1
  N  N60  1  0.12663566  0.74295165  0.86607965  1
  N  N61  1  0.87336434  0.25704835  0.13392035  1
  O  O62  1  0.45918736  0.73285245  0.90541443  1
  O  O63  1  0.54081264  0.26714755  0.09458557  1
  O  O64  1  0.61031614  0.72163233  0.09624945  1
  O  O65  1  0.38968386  0.27836767  0.90375055  1
  O  O66  1  0.42064531  0.88019930  0.27066341  1
  O  O67  1  0.57935469  0.11980070  0.72933659  1
  O  O68  1  0.03890652  0.79353640  0.35737180  1
  O  O69  1  0.96109348  0.20646360  0.64262820  1
  O  O70  1  0.63259737  0.70720902  0.34860366  1
  O  O71  1  0.36740263  0.29279098  0.65139634  1
  O  O72  1  0.11765806  0.92841609  0.15194540  1
  O  O73  1  0.88234194  0.07158391  0.84805460  1
  O  O74  1  0.85730440  0.83664473  0.17706146  1
  O  O75  1  0.14269560  0.16335527  0.82293854  1
  O  O76  1  0.90289758  0.00686125  0.27000310  1
  O  O77  1  0.09710242  0.99313875  0.72999690  1
  O  O78  1  0.85506220  0.57302157  0.23872674  1
  O  O79  1  0.14493780  0.42697843  0.76127326  1
  O  O80  1  0.35070795  0.67055079  0.40168564  1
  O  O81  1  0.64929205  0.32944921  0.59831436  1
  O  O82  1  0.10381333  0.53510092  0.36649811  1
  O  O83  1  0.89618667  0.46489908  0.63350189  1
  O  O84  1  0.49487260  0.81025915  0.49194313  1
  O  O85  1  0.50512740  0.18974085  0.50805687  1
  O  O86  1  0.05670675  0.39693548  0.23858772  1
  O  O87  1  0.94329325  0.60306452  0.76141228  1
  O  O88  1  0.38725176  0.88552046  0.01985111  1
  O  O89  1  0.61274824  0.11447954  0.98014889  1
  O  O90  1  0.64642111  0.89419343  0.90714963  1
  O  O91  1  0.35357889  0.10580657  0.09285037  1
  O  O92  1  0.88806331  0.38733120  0.42024170  1
  O  O93  1  0.11193669  0.61266880  0.57975830  1
