# generated using pymatgen
data_Yb6Cl13
_symmetry_space_group_name_H-M   'P 1'
_cell_length_a   21.10922381
_cell_length_b   21.14003257
_cell_length_c   20.94448951
_cell_angle_alpha   161.18976166
_cell_angle_beta   26.18040082
_cell_angle_gamma   162.04540041
_symmetry_Int_Tables_number   1
_chemical_formula_structural   Yb6Cl13
_chemical_formula_sum   'Yb12 Cl26'
_cell_volume   928.54357130
_cell_formula_units_Z   2
loop_
 _symmetry_equiv_pos_site_id
 _symmetry_equiv_pos_as_xyz
  1  'x, y, z'
loop_
 _atom_site_type_symbol
 _atom_site_label
 _atom_site_symmetry_multiplicity
 _atom_site_fract_x
 _atom_site_fract_y
 _atom_site_fract_z
 _atom_site_occupancy
  Yb  Yb0  1  0.59915878  0.25136298  0.91077904  1
  Yb  Yb1  1  0.40084122  0.74863702  0.08922096  1
  Yb  Yb2  1  0.76285607  0.26976388  0.08802163  1
  Yb  Yb3  1  0.23714393  0.73023612  0.91197837  1
  Yb  Yb4  1  0.84738179  0.69491973  0.59128535  1
  Yb  Yb5  1  0.15261821  0.30508027  0.40871465  1
  Yb  Yb6  1  0.92669764  0.30237215  0.28253176  1
  Yb  Yb7  1  0.07330236  0.69762785  0.71746824  1
  Yb  Yb8  1  0.51800742  0.63913179  0.21463199  1
  Yb  Yb9  1  0.48199258  0.36086821  0.78536801  1
  Yb  Yb10  1  0.68117129  0.67136782  0.41009034  1
  Yb  Yb11  1  0.31882871  0.32863218  0.58990966  1
  Cl  Cl12  1  0.27346824  0.15932187  0.89852687  1
  Cl  Cl13  1  0.72653176  0.84067813  0.10147313  1
  Cl  Cl14  1  0.75464557  0.53887398  0.92686513  1
  Cl  Cl15  1  0.24535443  0.46112602  0.07313487  1
  Cl  Cl16  1  0.28297765  0.17998741  0.07269961  1
  Cl  Cl17  1  0.71702235  0.82001259  0.92730039  1
  Cl  Cl18  1  0.80239094  0.78525944  0.27467224  1
  Cl  Cl19  1  0.19760906  0.21474056  0.72532776  1
  Cl  Cl20  1  0.35763787  0.18023618  0.16153502  1
  Cl  Cl21  1  0.64236213  0.81976382  0.83846498  1
  Cl  Cl22  1  0.85591225  0.48130991  0.05558718  1
  Cl  Cl23  1  0.14408775  0.51869009  0.94441282  1
  Cl  Cl24  1  0.44167335  0.19062805  0.24885280  1
  Cl  Cl25  1  0.55832665  0.80937195  0.75114720  1
  Cl  Cl26  1  0.92914449  0.79868675  0.43402051  1
  Cl  Cl27  1  0.07085551  0.20131325  0.56597949  1
  Cl  Cl28  1  0.52728710  0.20772904  0.34116159  1
  Cl  Cl29  1  0.47271290  0.79227096  0.65883841  1
  Cl  Cl30  1  0.01570068  0.53468409  0.22804790  1
  Cl  Cl31  1  0.98429932  0.46531591  0.77195210  1
  Cl  Cl32  1  0.61006100  0.21214685  0.42586461  1
  Cl  Cl33  1  0.38993900  0.78785315  0.57413539  1
  Cl  Cl34  1  0.11571201  0.82920364  0.57279264  1
  Cl  Cl35  1  0.88428799  0.17079636  0.42720736  1
  Cl  Cl36  1  0.76120238  0.37656608  0.60183808  1
  Cl  Cl37  1  0.23879762  0.62343392  0.39816192  1
