# generated using pymatgen
data_MgP2H12O11
_symmetry_space_group_name_H-M   'P 1'
_cell_length_a   7.89613101
_cell_length_b   9.29768143
_cell_length_c   7.79348014
_cell_angle_alpha   95.10736419
_cell_angle_beta   107.06341801
_cell_angle_gamma   67.48828409
_symmetry_Int_Tables_number   1
_chemical_formula_structural   MgP2H12O11
_chemical_formula_sum   'Mg2 P4 H24 O22'
_cell_volume   505.12229374
_cell_formula_units_Z   2
loop_
 _symmetry_equiv_pos_site_id
 _symmetry_equiv_pos_as_xyz
  1  'x, y, z'
loop_
 _atom_site_type_symbol
 _atom_site_label
 _atom_site_symmetry_multiplicity
 _atom_site_fract_x
 _atom_site_fract_y
 _atom_site_fract_z
 _atom_site_occupancy
  Mg  Mg0  1  0.76805630  0.71112177  0.64207497  1
  Mg  Mg1  1  0.23194370  0.28887823  0.35792503  1
  P  P2  1  0.90226293  0.31999750  0.58428644  1
  P  P3  1  0.09773707  0.68000250  0.41571356  1
  P  P4  1  0.56467398  0.08599543  0.73015698  1
  P  P5  1  0.43532602  0.91400457  0.26984302  1
  H  H6  1  0.98652882  0.16803887  0.81376263  1
  H  H7  1  0.01347118  0.83196113  0.18623737  1
  H  H8  1  0.67901780  0.21463181  0.50935016  1
  H  H9  1  0.32098220  0.78536819  0.49064984  1
  H  H10  1  0.26324118  0.13845151  0.67731350  1
  H  H11  1  0.73675882  0.86154849  0.32268650  1
  H  H12  1  0.73260862  0.12763593  0.99995785  1
  H  H13  1  0.26739138  0.87236407  0.00004215  1
  H  H14  1  0.55997534  0.61660831  0.81511547  1
  H  H15  1  0.44002466  0.38339169  0.18488453  1
  H  H16  1  0.58590352  0.76795675  0.90411598  1
  H  H17  1  0.41409648  0.23204325  0.09588402  1
  H  H18  1  0.03852108  0.62761412  0.96879602  1
  H  H19  1  0.96147892  0.37238588  0.03120398  1
  H  H20  1  0.16616779  0.58135535  0.83562422  1
  H  H21  1  0.83383221  0.41864465  0.16437578  1
  H  H22  1  0.49994933  0.40763852  0.85904841  1
  H  H23  1  0.50005067  0.59236148  0.14095159  1
  H  H24  1  0.36836254  0.49394027  0.67545508  1
  H  H25  1  0.63163746  0.50605973  0.32454492  1
  H  H26  1  0.10427697  0.92656555  0.75746326  1
  H  H27  1  0.89572303  0.07343445  0.24253674  1
  H  H28  1  0.02234163  0.93662010  0.79537937  1
  H  H29  1  0.97765837  0.06337990  0.20462063  1
  O  O30  1  0.77777612  0.49039596  0.55025717  1
  O  O31  1  0.22222388  0.50960404  0.44974283  1
  O  O32  1  0.09319811  0.26664641  0.54196612  1
  O  O33  1  0.90680189  0.73335359  0.45803388  1
  O  O34  1  0.94260462  0.28061001  0.79448535  1
  O  O35  1  0.05739538  0.71938999  0.20551465  1
  O  O36  1  0.79608878  0.21150146  0.47854216  1
  O  O37  1  0.20391122  0.78849854  0.52145784  1
  O  O38  1  0.72830575  0.93179589  0.74501916  1
  O  O39  1  0.27169425  0.06820411  0.25498084  1
  O  O40  1  0.50057345  0.19174353  0.56573922  1
  O  O41  1  0.49942655  0.80825647  0.43426078  1
  O  O42  1  0.38622277  0.06318254  0.75939705  1
  O  O43  1  0.61377723  0.93681746  0.24060295  1
  O  O44  1  0.62774746  0.18871372  0.90000711  1
  O  O45  1  0.37225254  0.81128628  0.09999289  1
  O  O46  1  0.63817227  0.68198958  0.82992881  1
  O  O47  1  0.36182773  0.31801042  0.17007119  1
  O  O48  1  0.03312498  0.61575975  0.84127216  1
  O  O49  1  0.96687502  0.38424025  0.15872784  1
  O  O50  1  0.41794545  0.51186622  0.80502210  1
  O  O51  1  0.58205455  0.48813378  0.19497790  1
