# generated using pymatgen
data_Na2MgH4(SO4)2
_symmetry_space_group_name_H-M   'P 1'
_cell_length_a   7.58842724
_cell_length_b   5.98448269
_cell_length_c   5.24302058
_cell_angle_alpha   106.88703971
_cell_angle_beta   109.38159694
_cell_angle_gamma   100.21999140
_symmetry_Int_Tables_number   1
_chemical_formula_structural   Na2MgH4(SO4)2
_chemical_formula_sum   'Na2 Mg1 H4 S2 O8'
_cell_volume   204.79384708
_cell_formula_units_Z   1
loop_
 _symmetry_equiv_pos_site_id
 _symmetry_equiv_pos_as_xyz
  1  'x, y, z'
loop_
 _atom_site_type_symbol
 _atom_site_label
 _atom_site_symmetry_multiplicity
 _atom_site_fract_x
 _atom_site_fract_y
 _atom_site_fract_z
 _atom_site_occupancy
  Na  Na0  1  0.33135569  0.99909444  0.67084033  1
  Na  Na1  1  0.66864431  0.00090556  0.32915967  1
  Mg  Mg2  1  0.50000000  0.50000000  0.50000000  1
  H  H3  1  0.89248524  0.75782307  0.72561570  1
  H  H4  1  0.10751476  0.24217693  0.27438430  1
  H  H5  1  0.78860710  0.94687762  0.84153950  1
  H  H6  1  0.21139290  0.05312238  0.15846050  1
  S  S7  1  0.73749003  0.39047824  0.07000457  1
  S  S8  1  0.26250997  0.60952176  0.92999543  1
  O  O9  1  0.63683022  0.29708586  0.73146531  1
  O  O10  1  0.36316978  0.70291414  0.26853469  1
  O  O11  1  0.85584200  0.21099842  0.12882390  1
  O  O12  1  0.14415800  0.78900158  0.87117610  1
  O  O13  1  0.56371690  0.31094734  0.15479522  1
  O  O14  1  0.43628310  0.68905266  0.84520478  1
  O  O15  1  0.76527132  0.79601663  0.67064000  1
  O  O16  1  0.23472868  0.20398337  0.32936000  1
