# generated using pymatgen
data_K4Na2FeH3F12
_symmetry_space_group_name_H-M   'P 1'
_cell_length_a   6.13850625
_cell_length_b   11.76202536
_cell_length_c   10.52486164
_cell_angle_alpha   29.95117634
_cell_angle_beta   54.32134048
_cell_angle_gamma   58.54075293
_symmetry_Int_Tables_number   1
_chemical_formula_structural   K4Na2FeH3F12
_chemical_formula_sum   'K4 Na2 Fe1 H3 F12'
_cell_volume   307.92490076
_cell_formula_units_Z   1
loop_
 _symmetry_equiv_pos_site_id
 _symmetry_equiv_pos_as_xyz
  1  'x, y, z'
loop_
 _atom_site_type_symbol
 _atom_site_label
 _atom_site_symmetry_multiplicity
 _atom_site_fract_x
 _atom_site_fract_y
 _atom_site_fract_z
 _atom_site_occupancy
  K  K0  1  0.26260518  0.95190307  0.28771870  1
  K  K1  1  0.25669663  0.50729242  0.22964422  1
  K  K2  1  0.74184873  0.04809693  0.71228130  1
  K  K3  1  0.73056991  0.49270758  0.77035578  1
  Na  Na4  1  0.00779820  0.00000000  1.00000000  1
  Na  Na5  1  0.99164372  0.50000000  0.00000000  1
  Fe  Fe6  1  0.49713904  1.00000000  0.50000000  1
  H  H7  1  0.50677670  0.62920736  0.24389088  1
  H  H8  1  0.25297318  0.37079264  0.75610912  1
  H  H9  1  0.75301221  0.50000000  0.50000000  1
  F  F10  1  0.26115003  0.23745717  0.26863701  1
  F  F11  1  0.72403777  0.98992195  0.27908777  1
  F  F12  1  0.26205721  0.01007805  0.72091223  1
  F  F13  1  0.71658535  0.23430665  0.27261173  1
  F  F14  1  0.24740445  0.25653936  0.78157255  1
  F  F15  1  0.32362826  0.74346064  0.21842745  1
  F  F16  1  0.69384438  0.52810879  0.23841079  1
  F  F17  1  0.22688355  0.47189121  0.76158921  1
  F  F18  1  0.77868437  0.30410259  0.68700554  1
  F  F19  1  0.76090062  0.69589741  0.31299446  1
  F  F20  1  0.27333839  0.76254283  0.73136299  1
  F  F21  1  0.73042211  0.76569335  0.72738827  1
