# generated using pymatgen
data_BiOF
_symmetry_space_group_name_H-M   'P 1'
_cell_length_a   6.03810575
_cell_length_b   5.77310194
_cell_length_c   5.81773508
_cell_angle_alpha   90.00000000
_cell_angle_beta   98.19814329
_cell_angle_gamma   90.00000000
_symmetry_Int_Tables_number   1
_chemical_formula_structural   BiOF
_chemical_formula_sum   'Bi4 O4 F4'
_cell_volume   200.72567646
_cell_formula_units_Z   4
loop_
 _symmetry_equiv_pos_site_id
 _symmetry_equiv_pos_as_xyz
  1  'x, y, z'
loop_
 _atom_site_type_symbol
 _atom_site_label
 _atom_site_symmetry_multiplicity
 _atom_site_fract_x
 _atom_site_fract_y
 _atom_site_fract_z
 _atom_site_occupancy
  Bi  Bi0  1  0.30024260  0.48055737  0.71060154  1
  Bi  Bi1  1  0.30024260  0.01944263  0.21060154  1
  Bi  Bi2  1  0.69975740  0.98055737  0.78939846  1
  Bi  Bi3  1  0.69975740  0.51944263  0.28939846  1
  O  O4  1  0.46935979  0.75250904  0.98959264  1
  O  O5  1  0.46935979  0.74749096  0.48959264  1
  O  O6  1  0.53064021  0.25250904  0.51040736  1
  O  O7  1  0.53064021  0.24749096  0.01040736  1
  F  F8  1  0.06076256  0.18387643  0.86479449  1
  F  F9  1  0.06076256  0.31612357  0.36479449  1
  F  F10  1  0.93923744  0.68387643  0.63520551  1
  F  F11  1  0.93923744  0.81612357  0.13520551  1
