# generated using pymatgen
data_BaEuO2
_symmetry_space_group_name_H-M   'P 1'
_cell_length_a   3.75249106
_cell_length_b   6.62287692
_cell_length_c   3.75249200
_cell_angle_alpha   106.45712278
_cell_angle_beta   59.99999945
_cell_angle_gamma   106.45712284
_symmetry_Int_Tables_number   1
_chemical_formula_structural   BaEuO2
_chemical_formula_sum   'Ba1 Eu1 O2'
_cell_volume   76.32029109
_cell_formula_units_Z   1
loop_
 _symmetry_equiv_pos_site_id
 _symmetry_equiv_pos_as_xyz
  1  'x, y, z'
loop_
 _atom_site_type_symbol
 _atom_site_label
 _atom_site_symmetry_multiplicity
 _atom_site_fract_x
 _atom_site_fract_y
 _atom_site_fract_z
 _atom_site_occupancy
  Eu  Eu0  1  0.50000000  0.50000000  0.50000000  1
  Ba  Ba1  1  0.00000000  0.00000000  0.00000000  1
  O  O2  1  0.23966334  0.71899102  0.23966334  1
  O  O3  1  0.76033666  0.28100898  0.76033666  1
