# generated using pymatgen
data_Li3ZrNb(TeO6)2
_symmetry_space_group_name_H-M   'P 1'
_cell_length_a   5.52569995
_cell_length_b   11.04958363
_cell_length_c   9.72493769
_cell_angle_alpha   28.16709759
_cell_angle_beta   51.42834466
_cell_angle_gamma   56.73447152
_symmetry_Int_Tables_number   1
_chemical_formula_structural   Li3ZrNb(TeO6)2
_chemical_formula_sum   'Li3 Zr1 Nb1 Te2 O12'
_cell_volume   219.13552793
_cell_formula_units_Z   1
loop_
 _symmetry_equiv_pos_site_id
 _symmetry_equiv_pos_as_xyz
  1  'x, y, z'
loop_
 _atom_site_type_symbol
 _atom_site_label
 _atom_site_symmetry_multiplicity
 _atom_site_fract_x
 _atom_site_fract_y
 _atom_site_fract_z
 _atom_site_occupancy
  Li  Li0  1  0.76158502  0.50217793  0.76061034  1
  Li  Li1  1  0.29220918  0.00010431  0.27690645  1
  Li  Li2  1  0.77884132  0.99591179  0.78002276  1
  Zr  Zr3  1  0.01728727  0.00075844  0.98850552  1
  Nb  Nb4  1  0.97951798  0.50105735  0.00831007  1
  Te  Te5  1  0.49433313  0.50127898  0.50243029  1
  Te  Te6  1  0.50063255  0.00189366  0.49482117  1
  O  O7  1  0.13095580  0.81768189  0.73570625  1
  O  O8  1  0.24376587  0.62018524  0.62926492  1
  O  O9  1  0.63883327  0.69639094  0.85256973  1
  O  O10  1  0.71623334  0.87522270  0.38630753  1
  O  O11  1  0.39218731  0.80196595  0.13101039  1
  O  O12  1  0.12998274  0.33139399  0.73174894  1
  O  O13  1  0.84435760  0.68692151  0.25741084  1
  O  O14  1  0.25450729  0.11337288  0.61773247  1
  O  O15  1  0.61306884  0.19543289  0.86217694  1
  O  O16  1  0.74108299  0.37449693  0.37778062  1
  O  O17  1  0.37415385  0.29733068  0.13015885  1
  O  O18  1  0.86666365  0.18642192  0.24672693  1
