# generated using pymatgen
data_La5FeRe3O16
_symmetry_space_group_name_H-M   'P 1'
_cell_length_a   5.68726997
_cell_length_b   5.69110825
_cell_length_c   10.28165875
_cell_angle_alpha   86.59190746
_cell_angle_beta   93.79839510
_cell_angle_gamma   89.53310324
_symmetry_Int_Tables_number   1
_chemical_formula_structural   La5FeRe3O16
_chemical_formula_sum   'La5 Fe1 Re3 O16'
_cell_volume   331.44241748
_cell_formula_units_Z   1
loop_
 _symmetry_equiv_pos_site_id
 _symmetry_equiv_pos_as_xyz
  1  'x, y, z'
loop_
 _atom_site_type_symbol
 _atom_site_label
 _atom_site_symmetry_multiplicity
 _atom_site_fract_x
 _atom_site_fract_y
 _atom_site_fract_z
 _atom_site_occupancy
  La  La0  1  0.02512789  0.48659688  0.20005473  1
  La  La1  1  0.97487211  0.51340312  0.79994527  1
  La  La2  1  0.50669324  0.96661379  0.20698596  1
  La  La3  1  0.49330676  0.03338621  0.79301404  1
  La  La4  1  0.00000000  0.00000000  0.50000000  1
  Fe  Fe5  1  0.50000000  0.50000000  0.00000000  1
  Re  Re6  1  0.44541713  0.55511378  0.60592676  1
  Re  Re7  1  0.55458287  0.44488622  0.39407324  1
  Re  Re8  1  0.00000000  0.00000000  0.00000000  1
  O  O9  1  0.30631412  0.69004165  0.43467497  1
  O  O10  1  0.69368588  0.30995835  0.56532503  1
  O  O11  1  0.22101858  0.77639933  0.67538514  1
  O  O12  1  0.77898142  0.22360067  0.32461486  1
  O  O13  1  0.54843247  0.45383003  0.79956599  1
  O  O14  1  0.45156753  0.54616997  0.20043401  1
  O  O15  1  0.92234446  0.07511977  0.81693509  1
  O  O16  1  0.07765554  0.92488023  0.18306491  1
  O  O17  1  0.22738796  0.29855361  0.63597590  1
  O  O18  1  0.77261204  0.70144639  0.36402410  1
  O  O19  1  0.69750162  0.77753903  0.63543545  1
  O  O20  1  0.30249838  0.22246097  0.36456455  1
  O  O21  1  0.80828006  0.70216174  0.99624259  1
  O  O22  1  0.19171994  0.29783826  0.00375741  1
  O  O23  1  0.71749213  0.18094343  0.03768941  1
  O  O24  1  0.28250787  0.81905657  0.96231059  1
