# generated using pymatgen
data_MoH2Cl2O3
_symmetry_space_group_name_H-M   'P 1'
_cell_length_a   9.26396838
_cell_length_b   3.92988313
_cell_length_c   7.88999062
_cell_angle_alpha   90.00000000
_cell_angle_beta   90.00000000
_cell_angle_gamma   90.00000000
_symmetry_Int_Tables_number   1
_chemical_formula_structural   MoH2Cl2O3
_chemical_formula_sum   'Mo2 H4 Cl4 O6'
_cell_volume   287.24546850
_cell_formula_units_Z   2
loop_
 _symmetry_equiv_pos_site_id
 _symmetry_equiv_pos_as_xyz
  1  'x, y, z'
loop_
 _atom_site_type_symbol
 _atom_site_label
 _atom_site_symmetry_multiplicity
 _atom_site_fract_x
 _atom_site_fract_y
 _atom_site_fract_z
 _atom_site_occupancy
  Mo  Mo0  1  0.50000000  0.66179916  0.79493344  1
  Mo  Mo1  1  0.00000000  0.33820084  0.29493344  1
  H  H2  1  0.58488606  0.84282460  0.45264172  1
  H  H3  1  0.41511394  0.84282460  0.45264172  1
  H  H4  1  0.91511394  0.15717540  0.95264172  1
  H  H5  1  0.08488606  0.15717540  0.95264172  1
  Cl  Cl6  1  0.74642362  0.74989474  0.73617004  1
  Cl  Cl7  1  0.25357638  0.74989474  0.73617004  1
  Cl  Cl8  1  0.75357638  0.25010526  0.23617004  1
  Cl  Cl9  1  0.24642362  0.25010526  0.23617004  1
  O  O10  1  0.50000000  0.72431268  0.49560899  1
  O  O11  1  0.00000000  0.27568732  0.99560899  1
  O  O12  1  0.50000000  0.69955244  0.00979317  1
  O  O13  1  0.00000000  0.30044756  0.50979317  1
  O  O14  1  0.50000000  0.21485091  0.76484088  1
  O  O15  1  0.00000000  0.78514909  0.26484088  1
