# generated using pymatgen
data_Ho2CuO4
_symmetry_space_group_name_H-M   'P 1'
_cell_length_a   5.47871512
_cell_length_b   6.52028261
_cell_length_c   5.48364401
_cell_angle_alpha   114.86657190
_cell_angle_beta   90.00000000
_cell_angle_gamma   90.00000000
_symmetry_Int_Tables_number   1
_chemical_formula_structural   Ho2CuO4
_chemical_formula_sum   'Ho4 Cu2 O8'
_cell_volume   177.72981098
_cell_formula_units_Z   2
loop_
 _symmetry_equiv_pos_site_id
 _symmetry_equiv_pos_as_xyz
  1  'x, y, z'
loop_
 _atom_site_type_symbol
 _atom_site_label
 _atom_site_symmetry_multiplicity
 _atom_site_fract_x
 _atom_site_fract_y
 _atom_site_fract_z
 _atom_site_occupancy
  Ho  Ho0  1  0.00000000  0.30990218  0.65495109  1
  Ho  Ho1  1  0.00000000  0.69009782  0.34504891  1
  Ho  Ho2  1  0.50000000  0.69009782  0.84504891  1
  Ho  Ho3  1  0.50000000  0.30990218  0.15495109  1
  Cu  Cu4  1  0.00000000  0.00000000  0.00000000  1
  Cu  Cu5  1  0.50000000  0.00000000  0.50000000  1
  O  O6  1  0.19542552  0.00000000  0.30502694  1
  O  O7  1  0.25000000  0.50000000  0.98926775  1
  O  O8  1  0.25000000  0.50000000  0.48926775  1
  O  O9  1  0.30457448  0.00000000  0.80502694  1
  O  O10  1  0.69542552  0.00000000  0.19497306  1
  O  O11  1  0.75000000  0.50000000  0.51073225  1
  O  O12  1  0.75000000  0.50000000  0.01073225  1
  O  O13  1  0.80457448  0.00000000  0.69497306  1
