# generated using pymatgen
data_AgBrO2
_symmetry_space_group_name_H-M   'P 1'
_cell_length_a   3.59624148
_cell_length_b   4.21500975
_cell_length_c   11.04855640
_cell_angle_alpha   84.34997945
_cell_angle_beta   90.00000000
_cell_angle_gamma   90.00000000
_symmetry_Int_Tables_number   1
_chemical_formula_structural   AgBrO2
_chemical_formula_sum   'Ag2 Br2 O4'
_cell_volume   166.66252142
_cell_formula_units_Z   2
loop_
 _symmetry_equiv_pos_site_id
 _symmetry_equiv_pos_as_xyz
  1  'x, y, z'
loop_
 _atom_site_type_symbol
 _atom_site_label
 _atom_site_symmetry_multiplicity
 _atom_site_fract_x
 _atom_site_fract_y
 _atom_site_fract_z
 _atom_site_occupancy
  Ag  Ag0  1  0.25000000  0.14750406  0.09422901  1
  Ag  Ag1  1  0.75000000  0.85249594  0.90577099  1
  Br  Br2  1  0.25000000  0.36452078  0.84010523  1
  Br  Br3  1  0.75000000  0.63547922  0.15989477  1
  O  O4  1  0.25000000  0.80222189  0.47434628  1
  O  O5  1  0.75000000  0.92837920  0.58017112  1
  O  O6  1  0.25000000  0.07162080  0.41982888  1
  O  O7  1  0.75000000  0.19777811  0.52565372  1
