# generated using pymatgen
data_Li4(CuO2)3
_symmetry_space_group_name_H-M   'P 1'
_cell_length_a   5.34441812
_cell_length_b   8.67225688
_cell_length_c   3.52741408
_cell_angle_alpha   101.49661406
_cell_angle_beta   109.18103682
_cell_angle_gamma   103.39388723
_symmetry_Int_Tables_number   1
_chemical_formula_structural   Li4(CuO2)3
_chemical_formula_sum   'Li4 Cu3 O6'
_cell_volume   143.30558082
_cell_formula_units_Z   1
loop_
 _symmetry_equiv_pos_site_id
 _symmetry_equiv_pos_as_xyz
  1  'x, y, z'
loop_
 _atom_site_type_symbol
 _atom_site_label
 _atom_site_symmetry_multiplicity
 _atom_site_fract_x
 _atom_site_fract_y
 _atom_site_fract_z
 _atom_site_occupancy
  Li  Li0  1  0.81304948  0.25542155  0.03297462  1
  Li  Li1  1  0.52556592  0.07863939  0.30362047  1
  Li  Li2  1  0.11862446  0.55946481  0.34088672  1
  Li  Li3  1  0.21095223  0.77399039  0.99073031  1
  Cu  Cu4  1  0.66356650  0.66578556  0.16453042  1
  Cu  Cu5  1  0.33112403  0.33724419  0.83457662  1
  Cu  Cu6  1  0.00478845  0.99630123  0.50026315  1
  O  O7  1  0.94979446  0.21160426  0.57986814  1
  O  O8  1  0.70851384  0.45860313  0.08300856  1
  O  O9  1  0.61566905  0.87188483  0.24359315  1
  O  O10  1  0.39806227  0.13306425  0.76669098  1
  O  O11  1  0.28081174  0.54807919  0.91601401  1
  O  O12  1  0.04614257  0.77658322  0.40990985  1
