# generated using pymatgen
data_Ti9O13
_symmetry_space_group_name_H-M   'P 1'
_cell_length_a   2.91898717
_cell_length_b   5.12066055
_cell_length_c   17.75140927
_cell_angle_alpha   98.11246617
_cell_angle_beta   90.02271137
_cell_angle_gamma   106.60839816
_symmetry_Int_Tables_number   1
_chemical_formula_structural   Ti9O13
_chemical_formula_sum   'Ti9 O13'
_cell_volume   251.48680765
_cell_formula_units_Z   1
loop_
 _symmetry_equiv_pos_site_id
 _symmetry_equiv_pos_as_xyz
  1  'x, y, z'
loop_
 _atom_site_type_symbol
 _atom_site_label
 _atom_site_symmetry_multiplicity
 _atom_site_fract_x
 _atom_site_fract_y
 _atom_site_fract_z
 _atom_site_occupancy
  Ti  Ti0  1  0.50000000  0.00000000  0.50000000  1
  Ti  Ti1  1  0.65581207  0.31189245  0.03704872  1
  Ti  Ti2  1  0.34418793  0.68810755  0.96295128  1
  Ti  Ti3  1  0.75756102  0.51434643  0.42345713  1
  Ti  Ti4  1  0.24243898  0.48565357  0.57654287  1
  Ti  Ti5  1  0.93171976  0.86362192  0.12785966  1
  Ti  Ti6  1  0.06828024  0.13637808  0.87214034  1
  Ti  Ti7  1  0.98090233  0.96338032  0.32495188  1
  Ti  Ti8  1  0.01909767  0.03661968  0.67504812  1
  O  O9  1  0.00000000  0.00000000  0.00000000  1
  O  O10  1  0.90185341  0.80374494  0.22807148  1
  O  O11  1  0.09814659  0.19625506  0.77192852  1
  O  O12  1  0.29768167  0.59558526  0.08007375  1
  O  O13  1  0.70231833  0.40441474  0.91992625  1
  O  O14  1  0.56662704  0.13192252  0.13074934  1
  O  O15  1  0.43337296  0.86807748  0.86925066  1
  O  O16  1  0.61975992  0.23726952  0.33042633  1
  O  O17  1  0.38024008  0.76273048  0.66957367  1
  O  O18  1  0.38562510  0.77025220  0.38378678  1
  O  O19  1  0.61437490  0.22974780  0.61621322  1
  O  O20  1  0.13000514  0.25944250  0.46428383  1
  O  O21  1  0.86999486  0.74055750  0.53571617  1
