# generated using pymatgen
data_LiTi3O6
_symmetry_space_group_name_H-M   'P 1'
_cell_length_a   7.27377175
_cell_length_b   7.27377175
_cell_length_c   5.00309968
_cell_angle_alpha   87.54819650
_cell_angle_beta   92.45180350
_cell_angle_gamma   156.49872181
_symmetry_Int_Tables_number   1
_chemical_formula_structural   LiTi3O6
_chemical_formula_sum   'Li1 Ti3 O6'
_cell_volume   105.45458746
_cell_formula_units_Z   1
loop_
 _symmetry_equiv_pos_site_id
 _symmetry_equiv_pos_as_xyz
  1  'x, y, z'
loop_
 _atom_site_type_symbol
 _atom_site_label
 _atom_site_symmetry_multiplicity
 _atom_site_fract_x
 _atom_site_fract_y
 _atom_site_fract_z
 _atom_site_occupancy
  Li  Li0  1  0.78619503  0.21380497  0.93510444  1
  Ti  Ti1  1  0.34797304  0.65202696  0.46972865  1
  Ti  Ti2  1  0.00363497  0.99636503  0.99987481  1
  Ti  Ti3  1  0.65324067  0.34675933  0.52069311  1
  O  O4  1  0.09563784  0.90436216  0.31370054  1
  O  O5  1  0.23134665  0.76865335  0.70996565  1
  O  O6  1  0.43037879  0.56962121  0.17551600  1
  O  O7  1  0.56787451  0.43212549  0.81621059  1
  O  O8  1  0.77141373  0.22858627  0.30297472  1
  O  O9  1  0.90010475  0.09989525  0.69593050  1
