# generated using pymatgen
data_Ce4DyO9
_symmetry_space_group_name_H-M   'P 1'
_cell_length_a   3.82780503
_cell_length_b   10.31377168
_cell_length_c   5.52936418
_cell_angle_alpha   105.61762431
_cell_angle_beta   90.08105987
_cell_angle_gamma   79.30245588
_symmetry_Int_Tables_number   1
_chemical_formula_structural   Ce4DyO9
_chemical_formula_sum   'Ce4 Dy1 O9'
_cell_volume   206.30903469
_cell_formula_units_Z   1
loop_
 _symmetry_equiv_pos_site_id
 _symmetry_equiv_pos_as_xyz
  1  'x, y, z'
loop_
 _atom_site_type_symbol
 _atom_site_label
 _atom_site_symmetry_multiplicity
 _atom_site_fract_x
 _atom_site_fract_y
 _atom_site_fract_z
 _atom_site_occupancy
  Ce  Ce0  1  0.79675194  0.39844338  0.20436582  1
  Ce  Ce1  1  0.60400004  0.78947417  0.40717154  1
  Ce  Ce2  1  0.39024119  0.21247900  0.61997983  1
  Ce  Ce3  1  0.19362719  0.60541906  0.80949152  1
  Dy  Dy4  1  0.99824109  0.00087396  0.95316845  1
  O  O5  1  0.69347060  0.60715576  0.06557890  1
  O  O6  1  0.08060407  0.83140531  0.16373607  1
  O  O7  1  0.91320980  0.16406876  0.33827384  1
  O  O8  1  0.69813974  0.59803407  0.55855941  1
  O  O9  1  0.10203659  0.79352064  0.64163400  1
  O  O10  1  0.29920701  0.39389341  0.45433249  1
  O  O11  1  0.49776745  0.00146297  0.74970114  1
  O  O12  1  0.89281520  0.20955847  0.85527447  1
  O  O13  1  0.29254911  0.40577904  0.95848852  1
