# generated using pymatgen
data_SrCaI4
_symmetry_space_group_name_H-M   'P 1'
_cell_length_a   7.40825701
_cell_length_b   7.90118032
_cell_length_c   18.65622565
_cell_angle_alpha   90.00000000
_cell_angle_beta   89.25127626
_cell_angle_gamma   90.00000000
_symmetry_Int_Tables_number   1
_chemical_formula_structural   SrCaI4
_chemical_formula_sum   'Sr4 Ca4 I16'
_cell_volume   1091.92979729
_cell_formula_units_Z   4
loop_
 _symmetry_equiv_pos_site_id
 _symmetry_equiv_pos_as_xyz
  1  'x, y, z'
loop_
 _atom_site_type_symbol
 _atom_site_label
 _atom_site_symmetry_multiplicity
 _atom_site_fract_x
 _atom_site_fract_y
 _atom_site_fract_z
 _atom_site_occupancy
  Sr  Sr0  1  0.00704793  0.74913192  0.82100342  1
  Sr  Sr1  1  0.49295207  0.24913192  0.67899658  1
  Sr  Sr2  1  0.50704793  0.75086808  0.32100342  1
  Sr  Sr3  1  0.99295207  0.25086808  0.17899658  1
  Ca  Ca4  1  0.00774868  0.75446023  0.56476143  1
  Ca  Ca5  1  0.50774868  0.74553977  0.06476143  1
  Ca  Ca6  1  0.49225132  0.25446023  0.93523857  1
  Ca  Ca7  1  0.99225132  0.24553977  0.43523857  1
  I  I8  1  0.21934611  0.07465008  0.31092710  1
  I  I9  1  0.22947210  0.57519992  0.44006462  1
  I  I10  1  0.27052790  0.07519992  0.05993538  1
  I  I11  1  0.24983699  0.07964562  0.54879353  1
  I  I12  1  0.28065389  0.57465008  0.18907290  1
  I  I13  1  0.24137742  0.11235937  0.81515813  1
  I  I14  1  0.25862258  0.61235937  0.68484187  1
  I  I15  1  0.25016301  0.57964562  0.95120647  1
  I  I16  1  0.74983699  0.42035438  0.04879353  1
  I  I17  1  0.74137742  0.38764063  0.31515813  1
  I  I18  1  0.75862258  0.88764063  0.18484187  1
  I  I19  1  0.71934611  0.42534992  0.81092710  1
  I  I20  1  0.75016301  0.92035438  0.45120647  1
  I  I21  1  0.72947210  0.92480008  0.94006462  1
  I  I22  1  0.77052790  0.42480008  0.55993538  1
  I  I23  1  0.78065389  0.92534992  0.68907290  1
