# generated using pymatgen
data_EuSeO4
_symmetry_space_group_name_H-M   'P 1'
_cell_length_a   5.39576245
_cell_length_b   5.39576245
_cell_length_c   7.99607214
_cell_angle_alpha   90.00000000
_cell_angle_beta   90.00000000
_cell_angle_gamma   66.36812903
_symmetry_Int_Tables_number   1
_chemical_formula_structural   EuSeO4
_chemical_formula_sum   'Eu2 Se2 O8'
_cell_volume   213.27705797
_cell_formula_units_Z   2
loop_
 _symmetry_equiv_pos_site_id
 _symmetry_equiv_pos_as_xyz
  1  'x, y, z'
loop_
 _atom_site_type_symbol
 _atom_site_label
 _atom_site_symmetry_multiplicity
 _atom_site_fract_x
 _atom_site_fract_y
 _atom_site_fract_z
 _atom_site_occupancy
  Eu  Eu0  1  0.00000000  0.00000000  0.00000000  1
  Eu  Eu1  1  0.00000000  0.00000000  0.50000000  1
  Se  Se2  1  0.36294590  0.36294590  0.25000000  1
  Se  Se3  1  0.63705410  0.63705410  0.75000000  1
  O  O4  1  0.28915722  0.76969853  0.75000000  1
  O  O5  1  0.23030147  0.71084278  0.25000000  1
  O  O6  1  0.26258012  0.26258012  0.07292021  1
  O  O7  1  0.26258012  0.26258012  0.42707979  1
  O  O8  1  0.73741988  0.73741988  0.57292021  1
  O  O9  1  0.73741988  0.73741988  0.92707979  1
  O  O10  1  0.71084278  0.23030147  0.25000000  1
  O  O11  1  0.76969853  0.28915722  0.75000000  1
