# generated using pymatgen
data_SbPHO5
_symmetry_space_group_name_H-M   'P 1'
_cell_length_a   5.64916239
_cell_length_b   7.94137645
_cell_length_c   5.22904730
_cell_angle_alpha   109.38715970
_cell_angle_beta   94.84799225
_cell_angle_gamma   109.76143153
_symmetry_Int_Tables_number   1
_chemical_formula_structural   SbPHO5
_chemical_formula_sum   'Sb2 P2 H2 O10'
_cell_volume   203.07387602
_cell_formula_units_Z   2
loop_
 _symmetry_equiv_pos_site_id
 _symmetry_equiv_pos_as_xyz
  1  'x, y, z'
loop_
 _atom_site_type_symbol
 _atom_site_label
 _atom_site_symmetry_multiplicity
 _atom_site_fract_x
 _atom_site_fract_y
 _atom_site_fract_z
 _atom_site_occupancy
  Sb  Sb0  1  0.00000000  0.50000000  0.00000000  1
  Sb  Sb1  1  0.00000000  0.00000000  0.00000000  1
  P  P2  1  0.34756441  0.22275741  0.64755270  1
  P  P3  1  0.65243559  0.77724259  0.35244730  1
  H  H4  1  0.04090584  0.30747095  0.36684431  1
  H  H5  1  0.95909416  0.69252905  0.63315569  1
  O  O6  1  0.04352102  0.74874991  0.83891213  1
  O  O7  1  0.20085685  0.35968466  0.67491763  1
  O  O8  1  0.36501086  0.67730097  0.32808904  1
  O  O9  1  0.22653033  0.04858533  0.35539898  1
  O  O10  1  0.31384762  0.13368689  0.87603734  1
  O  O11  1  0.68615238  0.86631311  0.12396266  1
  O  O12  1  0.77346967  0.95141467  0.64460102  1
  O  O13  1  0.63498914  0.32269903  0.67191096  1
  O  O14  1  0.79914315  0.64031534  0.32508237  1
  O  O15  1  0.95647898  0.25125009  0.16108787  1
