# generated using pymatgen
data_ZnIn2O4
_symmetry_space_group_name_H-M   'P 1'
_cell_length_a   6.40296539
_cell_length_b   6.40296539
_cell_length_c   6.40296539
_cell_angle_alpha   60.00000000
_cell_angle_beta   60.00000000
_cell_angle_gamma   60.00000000
_symmetry_Int_Tables_number   1
_chemical_formula_structural   ZnIn2O4
_chemical_formula_sum   'Zn2 In4 O8'
_cell_volume   185.62158043
_cell_formula_units_Z   2
loop_
 _symmetry_equiv_pos_site_id
 _symmetry_equiv_pos_as_xyz
  1  'x, y, z'
loop_
 _atom_site_type_symbol
 _atom_site_label
 _atom_site_symmetry_multiplicity
 _atom_site_fract_x
 _atom_site_fract_y
 _atom_site_fract_z
 _atom_site_occupancy
  Zn  Zn0  1  0.12500000  0.12500000  0.12500000  1
  Zn  Zn1  1  0.87500000  0.87500000  0.87500000  1
  In  In2  1  0.50000000  0.50000000  0.00000000  1
  In  In3  1  0.50000000  0.00000000  0.50000000  1
  In  In4  1  0.00000000  0.50000000  0.50000000  1
  In  In5  1  0.50000000  0.50000000  0.50000000  1
  O  O6  1  0.25610490  0.25610490  0.25610490  1
  O  O7  1  0.73168431  0.25610490  0.25610490  1
  O  O8  1  0.25610490  0.73168431  0.25610490  1
  O  O9  1  0.25610490  0.25610490  0.73168431  1
  O  O10  1  0.74389510  0.74389510  0.26831569  1
  O  O11  1  0.74389510  0.26831569  0.74389510  1
  O  O12  1  0.74389510  0.74389510  0.74389510  1
  O  O13  1  0.26831569  0.74389510  0.74389510  1
