# generated using pymatgen
data_Li8BiO6
_symmetry_space_group_name_H-M   'P 1'
_cell_length_a   5.65177474
_cell_length_b   6.29567441
_cell_length_c   5.65177463
_cell_angle_alpha   116.67068108
_cell_angle_beta   59.99999342
_cell_angle_gamma   116.67068301
_symmetry_Int_Tables_number   1
_chemical_formula_structural   Li8BiO6
_chemical_formula_sum   'Li8 Bi1 O6'
_cell_volume   148.93932075
_cell_formula_units_Z   1
loop_
 _symmetry_equiv_pos_site_id
 _symmetry_equiv_pos_as_xyz
  1  'x, y, z'
loop_
 _atom_site_type_symbol
 _atom_site_label
 _atom_site_symmetry_multiplicity
 _atom_site_fract_x
 _atom_site_fract_y
 _atom_site_fract_z
 _atom_site_occupancy
  Li  Li0  1  0.10361117  0.36564232  0.48922664  1
  Li  Li1  1  0.51077336  0.63435768  0.22719550  1
  Li  Li2  1  0.22719550  0.63435768  0.89638783  1
  Li  Li3  1  0.34895944  0.04687832  0.34895944  1
  Li  Li4  1  0.65104056  0.95312168  0.65104056  1
  Li  Li5  1  0.77280450  0.36564232  0.10361117  1
  Li  Li6  1  0.48922664  0.36564232  0.77280450  1
  Li  Li7  1  0.89638783  0.63435768  0.51077336  1
  Bi  Bi8  1  0.00000000  0.00000000  0.00000000  1
  O  O9  1  0.24253153  0.74453578  0.60109657  1
  O  O10  1  0.39890343  0.25546422  0.09909232  1
  O  O11  1  0.09909232  0.25546422  0.75746847  1
  O  O12  1  0.90090768  0.74453578  0.24253153  1
  O  O13  1  0.60109657  0.74453578  0.90090768  1
  O  O14  1  0.75746847  0.25546422  0.39890343  1
