# generated using pymatgen
data_BaSr2I6
_symmetry_space_group_name_H-M   'P 1'
_cell_length_a   9.06898657
_cell_length_b   8.97438347
_cell_length_c   11.92077572
_cell_angle_alpha   92.91825705
_cell_angle_beta   84.21704651
_cell_angle_gamma   120.34932911
_symmetry_Int_Tables_number   1
_chemical_formula_structural   BaSr2I6
_chemical_formula_sum   'Ba2 Sr4 I12'
_cell_volume   832.99637122
_cell_formula_units_Z   2
loop_
 _symmetry_equiv_pos_site_id
 _symmetry_equiv_pos_as_xyz
  1  'x, y, z'
loop_
 _atom_site_type_symbol
 _atom_site_label
 _atom_site_symmetry_multiplicity
 _atom_site_fract_x
 _atom_site_fract_y
 _atom_site_fract_z
 _atom_site_occupancy
  Ba  Ba0  1  0.03157972  0.06315943  0.25000000  1
  Ba  Ba1  1  0.96842028  0.93684057  0.75000000  1
  Sr  Sr2  1  0.29565596  0.68984589  0.55508547  1
  Sr  Sr3  1  0.39418994  0.68984589  0.94491453  1
  Sr  Sr4  1  0.60581006  0.31015411  0.05508547  1
  Sr  Sr5  1  0.70434404  0.31015411  0.44491453  1
  I  I6  1  0.30334902  0.91362076  0.13396595  1
  I  I7  1  0.93368995  0.38605796  0.19464552  1
  I  I8  1  0.02211338  0.26459115  0.53314244  1
  I  I9  1  0.24247776  0.26459115  0.96685756  1
  I  I10  1  0.45236801  0.38605796  0.30535448  1
  I  I11  1  0.61027174  0.91362076  0.36603405  1
  I  I12  1  0.38972826  0.08637924  0.63396595  1
  I  I13  1  0.54763199  0.61394204  0.69464552  1
  I  I14  1  0.75752224  0.73540885  0.03314244  1
  I  I15  1  0.97788662  0.73540885  0.46685756  1
  I  I16  1  0.06631005  0.61394204  0.80535448  1
  I  I17  1  0.69665098  0.08637924  0.86603405  1
