# generated using pymatgen
data_NaV6O15
_symmetry_space_group_name_H-M   'P 1'
_cell_length_a   10.27724274
_cell_length_b   8.03549034
_cell_length_c   7.30390940
_cell_angle_alpha   76.85934257
_cell_angle_beta   90.00068693
_cell_angle_gamma   109.21909285
_symmetry_Int_Tables_number   1
_chemical_formula_structural   NaV6O15
_chemical_formula_sum   'Na2 V12 O30'
_cell_volume   552.80615861
_cell_formula_units_Z   2
loop_
 _symmetry_equiv_pos_site_id
 _symmetry_equiv_pos_as_xyz
  1  'x, y, z'
loop_
 _atom_site_type_symbol
 _atom_site_label
 _atom_site_symmetry_multiplicity
 _atom_site_fract_x
 _atom_site_fract_y
 _atom_site_fract_z
 _atom_site_occupancy
  Na  Na0  1  0.39536723  0.00925333  0.99778531  1
  Na  Na1  1  0.60463277  0.99074667  0.50221469  1
  V  V2  1  0.89816177  0.32620184  0.16878416  1
  V  V3  1  0.89792722  0.32595171  0.66813408  1
  V  V4  1  0.88191577  0.76618129  0.05842064  1
  V  V5  1  0.88453006  0.76832720  0.55788446  1
  V  V6  1  0.59165334  0.42707348  0.64311251  1
  V  V7  1  0.59129564  0.42727912  0.14338556  1
  V  V8  1  0.40834666  0.57292652  0.85688749  1
  V  V9  1  0.40870436  0.57272088  0.35661444  1
  V  V10  1  0.11546994  0.23167280  0.94211554  1
  V  V11  1  0.11808423  0.23381871  0.44157936  1
  V  V12  1  0.10207278  0.67404829  0.83186592  1
  V  V13  1  0.10183823  0.67379816  0.33121584  1
  O  O14  1  0.94531815  0.37278519  0.40720231  1
  O  O15  1  0.94550154  0.36960436  0.90722382  1
  O  O16  1  0.77882276  0.12695645  0.71154541  1
  O  O17  1  0.77881546  0.12729712  0.22505583  1
  O  O18  1  0.92541946  0.73305089  0.81686203  1
  O  O19  1  0.92545269  0.73320757  0.31653139  1
  O  O20  1  0.77872966  0.47543134  0.13107220  1
  O  O21  1  0.77859591  0.47435390  0.63139278  1
  O  O22  1  0.72871478  0.78399876  0.05393874  1
  O  O23  1  0.72850250  0.78309902  0.55435132  1
  O  O24  1  0.53077275  0.20615979  0.19873458  1
  O  O25  1  0.53061133  0.20591517  0.69848843  1
  O  O26  1  0.57463768  0.48884006  0.87773224  1
  O  O27  1  0.57546457  0.48992299  0.37761533  1
  O  O28  1  0.42536232  0.51115994  0.62226776  1
  O  O29  1  0.42453543  0.51007701  0.12238467  1
  O  O30  1  0.46938867  0.79408483  0.80151157  1
  O  O31  1  0.46922725  0.79384021  0.30126542  1
  O  O32  1  0.27128522  0.21600124  0.44606126  1
  O  O33  1  0.27149750  0.21690098  0.94564868  1
  O  O34  1  0.22140409  0.52564610  0.86860722  1
  O  O35  1  0.22127034  0.52456866  0.36892780  1
  O  O36  1  0.07458054  0.26694911  0.68313797  1
  O  O37  1  0.07454731  0.26679243  0.18346861  1
  O  O38  1  0.00067444  0.00056323  0.99982526  1
  O  O39  1  0.99932556  0.99943677  0.50017474  1
  O  O40  1  0.22117724  0.87304355  0.78845459  1
  O  O41  1  0.22118454  0.87270288  0.27494417  1
  O  O42  1  0.05468185  0.62721481  0.09279769  1
  O  O43  1  0.05449846  0.63039564  0.59277618  1
