# generated using pymatgen
data_Nb9PO25
_symmetry_space_group_name_H-M   'P 1'
_cell_length_a   15.86839980
_cell_length_b   3.89810308
_cell_length_c   15.86839980
_cell_angle_alpha   90.00000000
_cell_angle_beta   90.00000000
_cell_angle_gamma   90.00000000
_symmetry_Int_Tables_number   1
_chemical_formula_structural   Nb9PO25
_chemical_formula_sum   'Nb18 P2 O50'
_cell_volume   981.56618158
_cell_formula_units_Z   2
loop_
 _symmetry_equiv_pos_site_id
 _symmetry_equiv_pos_as_xyz
  1  'x, y, z'
loop_
 _atom_site_type_symbol
 _atom_site_label
 _atom_site_symmetry_multiplicity
 _atom_site_fract_x
 _atom_site_fract_y
 _atom_site_fract_z
 _atom_site_occupancy
  Nb  Nb0  1  0.89112676  0.99932834  0.21867152  1
  Nb  Nb1  1  0.88621032  0.00594009  0.66947877  1
  Nb  Nb2  1  0.83052123  0.49405991  0.38621032  1
  Nb  Nb3  1  0.78132848  0.99932834  0.89112676  1
  Nb  Nb4  1  0.71867152  0.50067166  0.60887324  1
  Nb  Nb5  1  0.66947877  0.00594009  0.11378968  1
  Nb  Nb6  1  0.61378968  0.49405991  0.83052123  1
  Nb  Nb7  1  0.60887324  0.50067166  0.28132848  1
  Nb  Nb8  1  0.50000000  0.46223665  0.50000000  1
  Nb  Nb9  1  0.39112676  0.50067166  0.71867152  1
  Nb  Nb10  1  0.38621032  0.49405991  0.16947877  1
  Nb  Nb11  1  0.33052123  0.00594009  0.88621032  1
  Nb  Nb12  1  0.28132848  0.50067166  0.39112676  1
  Nb  Nb13  1  0.21867152  0.99932834  0.10887324  1
  Nb  Nb14  1  0.16947877  0.49405991  0.61378968  1
  Nb  Nb15  1  0.11378968  0.00594009  0.33052123  1
  Nb  Nb16  1  0.10887324  0.99932834  0.78132848  1
  Nb  Nb17  1  0.00000000  0.03776335  0.00000000  1
  P  P18  1  0.50000000  0.75000000  0.00000000  1
  P  P19  1  0.00000000  0.75000000  0.50000000  1
  O  O20  1  0.98974320  0.00085333  0.71705528  1
  O  O21  1  0.95136328  0.00100566  0.11805600  1
  O  O22  1  0.95078574  0.53224566  0.43455946  1
  O  O23  1  0.93455946  0.96775434  0.54921426  1
  O  O24  1  0.88749722  0.50042254  0.25207341  1
  O  O25  1  0.88194400  0.00100566  0.95136328  1
  O  O26  1  0.85484331  0.49546327  0.65560348  1
  O  O27  1  0.84439652  0.00453673  0.35484331  1
  O  O28  1  0.82677247  0.99597055  0.78128479  1
  O  O29  1  0.78294472  0.49914667  0.48974320  1
  O  O30  1  0.78128479  0.99597055  0.17322753  1
  O  O31  1  0.75207341  0.99957746  0.61250278  1
  O  O32  1  0.74792659  0.50042254  0.88749722  1
  O  O33  1  0.71871521  0.50402945  0.32677247  1
  O  O34  1  0.71705528  0.00085333  0.01025680  1
  O  O35  1  0.67322753  0.50402945  0.71871521  1
  O  O36  1  0.65560348  0.49546327  0.14515669  1
  O  O37  1  0.64515669  0.00453673  0.84439652  1
  O  O38  1  0.61805600  0.49899434  0.54863672  1
  O  O39  1  0.61250278  0.99957746  0.24792659  1
  O  O40  1  0.56544054  0.53224566  0.95078574  1
  O  O41  1  0.54921426  0.96775434  0.06544054  1
  O  O42  1  0.54863672  0.49899434  0.38194400  1
  O  O43  1  0.51025680  0.49914667  0.78294472  1
  O  O44  1  0.50000000  0.99320787  0.50000000  1
  O  O45  1  0.48974320  0.49914667  0.21705528  1
  O  O46  1  0.45136328  0.49899434  0.61805600  1
  O  O47  1  0.45078574  0.96775434  0.93455946  1
  O  O48  1  0.43455946  0.53224566  0.04921426  1
  O  O49  1  0.38749722  0.99957746  0.75207341  1
  O  O50  1  0.38194400  0.49899434  0.45136328  1
  O  O51  1  0.35484331  0.00453673  0.15560348  1
  O  O52  1  0.34439652  0.49546327  0.85484331  1
  O  O53  1  0.32677247  0.50402945  0.28128479  1
  O  O54  1  0.28294472  0.00085333  0.98974320  1
  O  O55  1  0.28128479  0.50402945  0.67322753  1
  O  O56  1  0.25207341  0.50042254  0.11250278  1
  O  O57  1  0.24792659  0.99957746  0.38749722  1
  O  O58  1  0.21871521  0.99597055  0.82677247  1
  O  O59  1  0.21705528  0.49914667  0.51025680  1
  O  O60  1  0.17322753  0.99597055  0.21871521  1
  O  O61  1  0.15560348  0.00453673  0.64515669  1
  O  O62  1  0.14515669  0.49546327  0.34439652  1
  O  O63  1  0.11805600  0.00100566  0.04863672  1
  O  O64  1  0.11250278  0.50042254  0.74792659  1
  O  O65  1  0.06544054  0.96775434  0.45078574  1
  O  O66  1  0.04921426  0.53224566  0.56544054  1
  O  O67  1  0.04863672  0.00100566  0.88194400  1
  O  O68  1  0.01025680  0.00085333  0.28294472  1
  O  O69  1  0.00000000  0.50679213  0.00000000  1
