# generated using pymatgen
data_LiV(SiO3)2
_symmetry_space_group_name_H-M   'P 1'
_cell_length_a   7.37672361
_cell_length_b   7.48084232
_cell_length_c   7.03092367
_cell_angle_alpha   117.80808428
_cell_angle_beta   77.57030988
_cell_angle_gamma   98.89210315
_symmetry_Int_Tables_number   1
_chemical_formula_structural   LiV(SiO3)2
_chemical_formula_sum   'Li3 V3 Si6 O18'
_cell_volume   334.48416943
_cell_formula_units_Z   3
loop_
 _symmetry_equiv_pos_site_id
 _symmetry_equiv_pos_as_xyz
  1  'x, y, z'
loop_
 _atom_site_type_symbol
 _atom_site_label
 _atom_site_symmetry_multiplicity
 _atom_site_fract_x
 _atom_site_fract_y
 _atom_site_fract_z
 _atom_site_occupancy
  Li  Li0  1  0.20523352  0.74603471  0.41170026  1
  Li  Li1  1  0.50000000  0.50000000  0.50000000  1
  Li  Li2  1  0.79476648  0.25396529  0.58829974  1
  V  V3  1  0.22467033  0.75085491  0.94861569  1
  V  V4  1  0.50000000  0.50000000  0.00000000  1
  V  V5  1  0.77532967  0.24914509  0.05138431  1
  Si  Si6  1  0.16566171  0.28428505  0.24306128  1
  Si  Si7  1  0.16778551  0.25085014  0.68380662  1
  Si  Si8  1  0.60520275  0.97439164  0.20344698  1
  Si  Si9  1  0.39479725  0.02560836  0.79655302  1
  Si  Si10  1  0.83221449  0.74914986  0.31619338  1
  Si  Si11  1  0.83433829  0.71571495  0.75693872  1
  O  O12  1  0.04500443  0.75858990  0.20536579  1
  O  O13  1  0.04532990  0.68457768  0.75484776  1
  O  O14  1  0.16912550  0.24219832  0.44901611  1
  O  O15  1  0.23846203  0.07015216  0.02483919  1
  O  O16  1  0.31244871  0.47221167  0.24478604  1
  O  O17  1  0.43219236  0.80462902  0.14099693  1
  O  O18  1  0.29479605  0.45181003  0.82614880  1
  O  O19  1  0.42390492  0.78932435  0.71402811  1
  O  O20  1  0.28272956  0.05092229  0.63015104  1
  O  O21  1  0.71727044  0.94907771  0.36984896  1
  O  O22  1  0.57609508  0.21067565  0.28597189  1
  O  O23  1  0.70520395  0.54818997  0.17385120  1
  O  O24  1  0.56780764  0.19537098  0.85900307  1
  O  O25  1  0.68755129  0.52778833  0.75521396  1
  O  O26  1  0.76153797  0.92984784  0.97516081  1
  O  O27  1  0.83087450  0.75780168  0.55098389  1
  O  O28  1  0.95467010  0.31542232  0.24515224  1
  O  O29  1  0.95499557  0.24141010  0.79463421  1
