# generated using pymatgen
data_LiAgF2
_symmetry_space_group_name_H-M   'P 1'
_cell_length_a   6.11646934
_cell_length_b   11.28077172
_cell_length_c   2.96382208
_cell_angle_alpha   90.00000000
_cell_angle_beta   90.00000000
_cell_angle_gamma   90.00000000
_symmetry_Int_Tables_number   1
_chemical_formula_structural   LiAgF2
_chemical_formula_sum   'Li4 Ag4 F8'
_cell_volume   204.49926106
_cell_formula_units_Z   4
loop_
 _symmetry_equiv_pos_site_id
 _symmetry_equiv_pos_as_xyz
  1  'x, y, z'
loop_
 _atom_site_type_symbol
 _atom_site_label
 _atom_site_symmetry_multiplicity
 _atom_site_fract_x
 _atom_site_fract_y
 _atom_site_fract_z
 _atom_site_occupancy
  Li  Li0  1  0.23962000  0.10655432  0.28755052  1
  Li  Li1  1  0.26038000  0.89344568  0.78755052  1
  Li  Li2  1  0.73962000  0.39344568  0.71244948  1
  Li  Li3  1  0.76038000  0.60655432  0.21244948  1
  Ag  Ag4  1  0.23977636  0.61762668  0.66438869  1
  Ag  Ag5  1  0.26022364  0.38237332  0.16438869  1
  Ag  Ag6  1  0.73977636  0.88237332  0.33561131  1
  Ag  Ag7  1  0.76022364  0.11762668  0.83561131  1
  F  F8  1  0.07046794  0.95676425  0.28605443  1
  F  F9  1  0.09193955  0.19705554  0.78441233  1
  F  F10  1  0.40806045  0.80294446  0.28441233  1
  F  F11  1  0.42953206  0.04323575  0.78605443  1
  F  F12  1  0.57046794  0.54323575  0.71394557  1
  F  F13  1  0.59193855  0.30294446  0.21558767  1
  F  F14  1  0.90806145  0.69705554  0.71558767  1
  F  F15  1  0.92953206  0.45676425  0.21394557  1
