# generated using pymatgen
data_TaFeO4
_symmetry_space_group_name_H-M   'P 1'
_cell_length_a   5.65229987
_cell_length_b   5.65229987
_cell_length_c   5.65229987
_cell_angle_alpha   72.77266792
_cell_angle_beta   107.22733208
_cell_angle_gamma   65.94128739
_symmetry_Int_Tables_number   1
_chemical_formula_structural   TaFeO4
_chemical_formula_sum   'Ta2 Fe2 O8'
_cell_volume   138.33852939
_cell_formula_units_Z   2
loop_
 _symmetry_equiv_pos_site_id
 _symmetry_equiv_pos_as_xyz
  1  'x, y, z'
loop_
 _atom_site_type_symbol
 _atom_site_label
 _atom_site_symmetry_multiplicity
 _atom_site_fract_x
 _atom_site_fract_y
 _atom_site_fract_z
 _atom_site_occupancy
  Ta  Ta0  1  0.25999598  0.24000402  0.50000000  1
  Ta  Ta1  1  0.00999598  0.99000402  0.00000000  1
  Fe  Fe2  1  0.75071665  0.74928335  0.50000000  1
  Fe  Fe3  1  0.50071665  0.49928335  0.00000000  1
  O  O4  1  0.55664330  0.24624023  0.80288354  1
  O  O5  1  0.04371202  0.75911658  0.80282860  1
  O  O6  1  0.49088342  0.81194518  0.69717140  1
  O  O7  1  0.00375977  0.29912277  0.69711646  1
  O  O8  1  0.00375977  0.69335670  0.30288354  1
  O  O9  1  0.49088342  0.20628798  0.30282860  1
  O  O10  1  0.95087723  0.24624023  0.19711646  1
  O  O11  1  0.43805482  0.75911658  0.19717140  1
