# generated using pymatgen
data_Li2Co3SbO8
_symmetry_space_group_name_H-M   'P 1'
_cell_length_a   5.76408550
_cell_length_b   5.76452384
_cell_length_c   9.38812434
_cell_angle_alpha   90.00431448
_cell_angle_beta   89.99853904
_cell_angle_gamma   119.99789078
_symmetry_Int_Tables_number   1
_chemical_formula_structural   Li2Co3SbO8
_chemical_formula_sum   'Li4 Co6 Sb2 O16'
_cell_volume   270.15471195
_cell_formula_units_Z   2
loop_
 _symmetry_equiv_pos_site_id
 _symmetry_equiv_pos_as_xyz
  1  'x, y, z'
loop_
 _atom_site_type_symbol
 _atom_site_label
 _atom_site_symmetry_multiplicity
 _atom_site_fract_x
 _atom_site_fract_y
 _atom_site_fract_z
 _atom_site_occupancy
  Li  Li0  1  0.33334239  0.66670032  0.89727029  1
  Li  Li1  1  0.99999659  0.00000383  0.99483246  1
  Li  Li2  1  0.00000555  0.00005578  0.49480535  1
  Li  Li3  1  0.66665438  0.33332704  0.39724491  1
  Co  Co4  1  0.17023725  0.82978013  0.21513140  1
  Co  Co5  1  0.17023438  0.34047457  0.21513406  1
  Co  Co6  1  0.65953920  0.82978061  0.21513102  1
  Co  Co7  1  0.34047554  0.17024889  0.71514097  1
  Co  Co8  1  0.82975879  0.65952927  0.71514068  1
  Co  Co9  1  0.82976164  0.17024594  0.71513765  1
  Sb  Sb10  1  0.33332680  0.66669063  0.49051567  1
  Sb  Sb11  1  0.66668525  0.33336394  0.99045032  1
  O  O12  1  0.16122674  0.83876397  0.59918577  1
  O  O13  1  0.03447420  0.51726728  0.33623643  1
  O  O14  1  0.33332865  0.66665984  0.11253654  1
  O  O15  1  0.00000352  0.00001690  0.30707004  1
  O  O16  1  0.99998501  -0.00001499  0.80709151  1
  O  O17  1  0.16124416  0.32249510  0.59917979  1
  O  O18  1  0.48274792  0.96550099  0.33625151  1
  O  O19  1  0.48278074  0.51727057  0.33623865  1
  O  O20  1  0.32249435  0.16123948  0.09922198  1
  O  O21  1  0.67749717  0.83874642  0.59919455  1
  O  O22  1  0.51723164  0.48274262  0.83625261  1
  O  O23  1  0.51724880  0.03451138  0.83625372  1
  O  O24  1  0.66667855  0.33336392  0.61252973  1
  O  O25  1  0.83877284  0.67753332  0.09920071  1
  O  O26  1  0.96551809  0.48275269  0.83623859  1
  O  O27  1  0.83874986  0.16124657  0.09922210  1
