# generated using pymatgen
data_Bi12PbO19
_symmetry_space_group_name_H-M   'P 1'
_cell_length_a   8.90158491
_cell_length_b   9.05788125
_cell_length_c   9.05747498
_cell_angle_alpha   109.81716304
_cell_angle_beta   109.12191893
_cell_angle_gamma   109.12496630
_symmetry_Int_Tables_number   1
_chemical_formula_structural   Bi12PbO19
_chemical_formula_sum   'Bi12 Pb1 O19'
_cell_volume   564.57681909
_cell_formula_units_Z   1
loop_
 _symmetry_equiv_pos_site_id
 _symmetry_equiv_pos_as_xyz
  1  'x, y, z'
loop_
 _atom_site_type_symbol
 _atom_site_label
 _atom_site_symmetry_multiplicity
 _atom_site_fract_x
 _atom_site_fract_y
 _atom_site_fract_z
 _atom_site_occupancy
  Bi  Bi0  1  0.83294692  0.15215600  0.35618513  1
  Bi  Bi1  1  0.49275826  0.29815311  0.17079703  1
  Bi  Bi2  1  0.85640724  0.69342153  0.19494275  1
  Bi  Bi3  1  0.29687160  0.15789191  0.47233913  1
  Bi  Bi4  1  0.68081038  0.20403162  0.84787998  1
  Bi  Bi5  1  0.82454641  0.52764414  0.68554530  1
  Bi  Bi6  1  0.16300694  0.50151197  0.30658069  1
  Bi  Bi7  1  0.32191155  0.82917102  0.12736713  1
  Bi  Bi8  1  0.66151431  0.80509588  0.49849031  1
  Bi  Bi9  1  0.47677867  0.64381560  0.79596936  1
  Bi  Bi10  1  0.13902560  0.31447514  0.84212682  1
  Bi  Bi11  1  0.19458781  0.87264426  0.70184078  1
  Pb  Pb12  1  0.95935413  0.99993096  -0.00001666  1
  O  O13  1  0.38791612  0.99998596  0.00000697  1
  O  O14  1  0.73622126  0.36121602  0.11110814  1
  O  O15  1  0.88498257  0.23722947  0.62809405  1
  O  O16  1  0.63193583  0.26401357  0.38373593  1
  O  O17  1  0.23930178  0.22018618  0.23529730  1
  O  O18  1  0.76111329  0.64446638  0.38064625  1
  O  O19  1  0.00225198  0.37118310  0.00026875  1
  O  O20  1  0.00193894  0.99972041  0.37088146  1
  O  O21  1  0.36795380  0.11971836  0.73600575  1
  O  O22  1  0.64777174  0.39086309  0.76279373  1
  O  O23  1  0.38044910  0.61937288  0.26377109  1
  O  O24  1  0.62507622  0.88889902  0.25007228  1
  O  O25  1  0.63109269  0.62913302  0.62885323  1
  O  O26  1  0.25687284  0.37191247  0.60913250  1
  O  O27  1  0.00404804  0.76471302  0.98489062  1
  O  O28  1  0.01916139  0.01507899  0.77975360  1
  O  O29  1  0.11665120  0.73621751  0.35558363  1
  O  O30  1  0.37502760  0.74986562  0.63879144  1
  O  O31  1  0.24817379  0.61628279  0.88026653  1
