# generated using pymatgen
data_BaCa2I6
_symmetry_space_group_name_H-M   'P 1'
_cell_length_a   8.03778032
_cell_length_b   8.03789089
_cell_length_c   7.64080939
_cell_angle_alpha   90.00541147
_cell_angle_beta   89.99007067
_cell_angle_gamma   120.00000877
_symmetry_Int_Tables_number   1
_chemical_formula_structural   BaCa2I6
_chemical_formula_sum   'Ba1 Ca2 I6'
_cell_volume   427.51188375
_cell_formula_units_Z   1
loop_
 _symmetry_equiv_pos_site_id
 _symmetry_equiv_pos_as_xyz
  1  'x, y, z'
loop_
 _atom_site_type_symbol
 _atom_site_label
 _atom_site_symmetry_multiplicity
 _atom_site_fract_x
 _atom_site_fract_y
 _atom_site_fract_z
 _atom_site_occupancy
  Ba  Ba0  1  0.00014490  0.99999209  0.99997379  1
  Ca  Ca1  1  0.33330150  0.66668853  0.49999123  1
  Ca  Ca2  1  0.66660865  0.33331702  0.49999526  1
  I  I3  1  0.99991848  0.64645330  0.73254675  1
  I  I4  1  0.99995864  0.35346020  0.26745969  1
  I  I5  1  0.35348500  0.35355159  0.73253294  1
  I  I6  1  0.64650434  0.64653557  0.26746209  1
  I  I7  1  0.35343709  0.00000184  0.26752026  1
  I  I8  1  0.64654040  0.99999887  0.73251799  1
