# generated using pymatgen
data_LiVF5
_symmetry_space_group_name_H-M   'P 1'
_cell_length_a   5.49013112
_cell_length_b   17.84744635
_cell_length_c   7.83918964
_cell_angle_alpha   90.00000000
_cell_angle_beta   89.93585408
_cell_angle_gamma   90.00000000
_symmetry_Int_Tables_number   1
_chemical_formula_structural   LiVF5
_chemical_formula_sum   'Li8 V8 F40'
_cell_volume   768.12111008
_cell_formula_units_Z   8
loop_
 _symmetry_equiv_pos_site_id
 _symmetry_equiv_pos_as_xyz
  1  'x, y, z'
loop_
 _atom_site_type_symbol
 _atom_site_label
 _atom_site_symmetry_multiplicity
 _atom_site_fract_x
 _atom_site_fract_y
 _atom_site_fract_z
 _atom_site_occupancy
  Li  Li0  1  0.24455795  0.30473402  0.36150729  1
  Li  Li1  1  0.24585509  0.11896329  0.72807792  1
  Li  Li2  1  0.25414491  0.61896329  0.77192208  1
  Li  Li3  1  0.25544205  0.80473402  0.13849271  1
  Li  Li4  1  0.74455795  0.19526598  0.86150729  1
  Li  Li5  1  0.74585509  0.38103671  0.22807792  1
  Li  Li6  1  0.75414491  0.88103671  0.27192208  1
  Li  Li7  1  0.75544205  0.69526598  0.63849271  1
  V  V8  1  0.24324689  0.11833840  0.13601993  1
  V  V9  1  0.24328589  0.37657985  0.95773506  1
  V  V10  1  0.25675311  0.61833840  0.36398007  1
  V  V11  1  0.25671411  0.87657985  0.54226494  1
  V  V12  1  0.74328589  0.12342015  0.45773506  1
  V  V13  1  0.74324689  0.38166160  0.63601993  1
  V  V14  1  0.75671411  0.62342015  0.04226494  1
  V  V15  1  0.75675311  0.88166160  0.86398007  1
  F  F16  1  0.02127371  0.34988938  0.51923888  1
  F  F17  1  0.02693120  0.15442031  0.57120185  1
  F  F18  1  0.06532812  0.35726280  0.16523267  1
  F  F19  1  0.06796750  0.59645791  0.15684118  1
  F  F20  1  0.05912006  0.13694238  0.93174204  1
  F  F21  1  0.07068261  0.90517376  0.74766144  1
  F  F22  1  0.19178232  0.28457979  0.87195033  1
  F  F23  1  0.19887358  0.21247446  0.22633643  1
  F  F24  1  0.22902001  0.52180865  0.41584524  1
  F  F25  1  0.23136847  0.97281381  0.48192402  1
  F  F26  1  0.26863153  0.47281381  0.01807598  1
  F  F27  1  0.27097999  0.02180865  0.08415476  1
  F  F28  1  0.30112642  0.71247446  0.27366357  1
  F  F29  1  0.30821768  0.78457979  0.62804967  1
  F  F30  1  0.42931739  0.40517376  0.75233856  1
  F  F31  1  0.43203250  0.09645791  0.34315882  1
  F  F32  1  0.44087994  0.63694238  0.56825796  1
  F  F33  1  0.43467188  0.85726280  0.33476733  1
  F  F34  1  0.47306980  0.65442031  0.92879815  1
  F  F35  1  0.47872629  0.84988938  0.98076112  1
  F  F36  1  0.52127371  0.15011062  0.01923888  1
  F  F37  1  0.52693120  0.34557969  0.07120185  1
  F  F38  1  0.56532812  0.14273720  0.66523267  1
  F  F39  1  0.55912006  0.36305762  0.43174204  1
  F  F40  1  0.56796750  0.90354209  0.65684118  1
  F  F41  1  0.57068261  0.59482624  0.24766144  1
  F  F42  1  0.69178232  0.21542021  0.37195033  1
  F  F43  1  0.69887358  0.28752554  0.72633643  1
  F  F44  1  0.72902001  0.97819135  0.91584524  1
  F  F45  1  0.73136947  0.52718619  0.98192402  1
  F  F46  1  0.76863053  0.02718619  0.51807598  1
  F  F47  1  0.77097999  0.47819135  0.58415476  1
  F  F48  1  0.80112642  0.78752554  0.77366357  1
  F  F49  1  0.80821768  0.71542021  0.12804967  1
  F  F50  1  0.92931739  0.09482624  0.25233856  1
  F  F51  1  0.94087994  0.86305762  0.06825796  1
  F  F52  1  0.93203250  0.40354209  0.84315882  1
  F  F53  1  0.93467188  0.64273720  0.83476733  1
  F  F54  1  0.97306880  0.84557969  0.42879815  1
  F  F55  1  0.97872629  0.65011062  0.48076112  1
