# generated using pymatgen
data_Li6Fe3Co7O20
_symmetry_space_group_name_H-M   'P 1'
_cell_length_a   20.70436929
_cell_length_b   2.87608691
_cell_length_c   5.89634007
_cell_angle_alpha   90.00000000
_cell_angle_beta   84.29930465
_cell_angle_gamma   90.00000000
_symmetry_Int_Tables_number   1
_chemical_formula_structural   Li6Fe3Co7O20
_chemical_formula_sum   'Li6 Fe3 Co7 O20'
_cell_volume   349.37622080
_cell_formula_units_Z   1
loop_
 _symmetry_equiv_pos_site_id
 _symmetry_equiv_pos_as_xyz
  1  'x, y, z'
loop_
 _atom_site_type_symbol
 _atom_site_label
 _atom_site_symmetry_multiplicity
 _atom_site_fract_x
 _atom_site_fract_y
 _atom_site_fract_z
 _atom_site_occupancy
  Li  Li0  1  0.10000000  0.50000000  0.20000000  1
  Li  Li1  1  0.28539902  0.50000000  0.55677503  1
  Li  Li2  1  0.40398109  0.00000000  0.80079035  1
  Li  Li3  1  0.60000000  0.00000000  0.20000000  1
  Li  Li4  1  0.79601891  0.00000000  0.59920965  1
  Li  Li5  1  0.91460098  0.50000000  0.84322497  1
  Fe  Fe6  1  0.40037773  0.00000000  0.27889250  1
  Fe  Fe7  1  0.60000000  0.00000000  0.70000000  1
  Fe  Fe8  1  0.79962227  0.00000000  0.12110750  1
  Co  Co9  1  0.00177328  0.00000000  0.50183182  1
  Co  Co10  1  0.10000000  0.50000000  0.70000000  1
  Co  Co11  1  0.19822672  0.00000000  0.89816818  1
  Co  Co12  1  0.29579061  0.50000000  0.09344217  1
  Co  Co13  1  0.49908823  0.50000000  0.49655606  1
  Co  Co14  1  0.70091177  0.50000000  0.90344394  1
  Co  Co15  1  0.90420939  0.50000000  0.30655783  1
  O  O16  1  0.00732151  0.50000000  0.70926772  1
  O  O17  1  0.09264134  0.00000000  0.48278329  1
  O  O18  1  0.10735866  0.00000000  0.91721671  1
  O  O19  1  0.20255377  0.50000000  0.10541767  1
  O  O20  1  0.19267849  0.50000000  0.69073228  1
  O  O21  1  0.30224178  0.00000000  0.31429076  1
  O  O22  1  0.28975243  0.00000000  0.87512616  1
  O  O23  1  0.38939285  0.50000000  0.04964809  1
  O  O24  1  0.40698350  0.50000000  0.52262008  1
  O  O25  1  0.49851900  0.00000000  0.28777655  1
  O  O26  1  0.50117990  0.00000000  0.70620017  1
  O  O27  1  0.59046714  0.50000000  0.46635417  1
  O  O28  1  0.60953286  0.50000000  0.93364583  1
  O  O29  1  0.70148100  0.00000000  0.11222345  1
  O  O30  1  0.69882010  0.00000000  0.69379983  1
  O  O31  1  0.81060715  0.50000000  0.35035191  1
  O  O32  1  0.79301650  0.50000000  0.87737992  1
  O  O33  1  0.89775822  0.00000000  0.08570924  1
  O  O34  1  0.91024757  0.00000000  0.52487384  1
  O  O35  1  0.99744623  0.50000000  0.29458233  1
