# generated using pymatgen
data_Li2Fe3(P2O7)2
_symmetry_space_group_name_H-M   'P 1'
_cell_length_a   5.29361433
_cell_length_b   6.60912726
_cell_length_c   16.03158138
_cell_angle_alpha   81.54987948
_cell_angle_beta   82.37726398
_cell_angle_gamma   72.01886551
_symmetry_Int_Tables_number   1
_chemical_formula_structural   Li2Fe3(P2O7)2
_chemical_formula_sum   'Li4 Fe6 P8 O28'
_cell_volume   525.42168440
_cell_formula_units_Z   2
loop_
 _symmetry_equiv_pos_site_id
 _symmetry_equiv_pos_as_xyz
  1  'x, y, z'
loop_
 _atom_site_type_symbol
 _atom_site_label
 _atom_site_symmetry_multiplicity
 _atom_site_fract_x
 _atom_site_fract_y
 _atom_site_fract_z
 _atom_site_occupancy
  Li  Li0  1  0.06810020  0.23345929  0.99100226  1
  Li  Li1  1  0.36255123  0.69638726  0.12044309  1
  Li  Li2  1  0.63744877  0.30361274  0.87955691  1
  Li  Li3  1  0.93189980  0.76654071  0.00899774  1
  Fe  Fe4  1  0.16237362  0.28818992  0.57608558  1
  Fe  Fe5  1  0.03499461  0.62396510  0.81214569  1
  Fe  Fe6  1  0.25314271  0.97073258  0.33316525  1
  Fe  Fe7  1  0.74685729  0.02926742  0.66683475  1
  Fe  Fe8  1  0.96500539  0.37603490  0.18785431  1
  Fe  Fe9  1  0.83762638  0.71181008  0.42391442  1
  P  P10  1  0.16566161  0.09342963  0.78843008  1
  P  P11  1  0.36851789  0.44254574  0.31839320  1
  P  P12  1  0.56345913  0.24804443  0.07455194  1
  P  P13  1  0.28103807  0.78198435  0.53841136  1
  P  P14  1  0.71896193  0.21801565  0.46158864  1
  P  P15  1  0.43654087  0.75195557  0.92544806  1
  P  P16  1  0.63148211  0.55745426  0.68160680  1
  P  P17  1  0.83433839  0.90657037  0.21156992  1
  O  O18  1  0.02941006  0.03252513  0.22111496  1
  O  O19  1  0.25617208  0.32870820  0.07684591  1
  O  O20  1  0.21605128  0.30330436  0.29043281  1
  O  O21  1  0.02292726  0.28427967  0.83965639  1
  O  O22  1  0.18074972  0.65984922  0.34057352  1
  O  O23  1  0.13660277  0.61582893  0.53434207  1
  O  O24  1  0.32953382  0.14229412  0.70638870  1
  O  O25  1  0.60619218  0.06082232  0.15354227  1
  O  O26  1  0.10691771  0.97530995  0.58128337  1
  O  O27  1  0.70784563  0.14285630  0.99516186  1
  O  O28  1  0.46362232  0.32055314  0.40843659  1
  O  O29  1  0.31484317  0.57916663  0.90950206  1
  O  O30  1  0.57440873  0.15877009  0.54820668  1
  O  O31  1  0.60245355  0.46899622  0.25748922  1
  O  O32  1  0.39754645  0.53100378  0.74251078  1
  O  O33  1  0.42559127  0.84122991  0.45179332  1
  O  O34  1  0.68515683  0.42083337  0.09049794  1
  O  O35  1  0.53637768  0.67944686  0.59156341  1
  O  O36  1  0.29215437  0.85714370  0.00483814  1
  O  O37  1  0.89308229  0.02469005  0.41871663  1
  O  O38  1  0.39380782  0.93917768  0.84645773  1
  O  O39  1  0.67046618  0.85770588  0.29361130  1
  O  O40  1  0.86339723  0.38417107  0.46565793  1
  O  O41  1  0.81925028  0.34015078  0.65942648  1
  O  O42  1  0.97707274  0.71572033  0.16034361  1
  O  O43  1  0.78394872  0.69669564  0.70956719  1
  O  O44  1  0.74382792  0.67129180  0.92315409  1
  O  O45  1  0.97058994  0.96747487  0.77888504  1
