# generated using pymatgen
data_LiMnP2O7
_symmetry_space_group_name_H-M   'P 1'
_cell_length_a   6.97844327
_cell_length_b   8.19844715
_cell_length_c   9.43052495
_cell_angle_alpha   90.00000000
_cell_angle_beta   113.50309771
_cell_angle_gamma   90.00000000
_symmetry_Int_Tables_number   1
_chemical_formula_structural   LiMnP2O7
_chemical_formula_sum   'Li4 Mn4 P8 O28'
_cell_volume   494.78166560
_cell_formula_units_Z   4
loop_
 _symmetry_equiv_pos_site_id
 _symmetry_equiv_pos_as_xyz
  1  'x, y, z'
loop_
 _atom_site_type_symbol
 _atom_site_label
 _atom_site_symmetry_multiplicity
 _atom_site_fract_x
 _atom_site_fract_y
 _atom_site_fract_z
 _atom_site_occupancy
  Li  Li0  1  0.13345470  0.94242922  0.83400315  1
  Li  Li1  1  0.36654530  0.44242922  0.66599685  1
  Li  Li2  1  0.63345470  0.55757078  0.33400315  1
  Li  Li3  1  0.86654530  0.05757078  0.16599685  1
  Mn  Mn4  1  0.11634914  0.56991499  0.87000438  1
  Mn  Mn5  1  0.38365086  0.06991499  0.62999562  1
  Mn  Mn6  1  0.61634914  0.93008501  0.37000438  1
  Mn  Mn7  1  0.88365086  0.43008501  0.12999562  1
  P  P8  1  0.06948912  0.73720839  0.52923354  1
  P  P9  1  0.43051088  0.23720839  0.97076646  1
  P  P10  1  0.17774904  0.73809408  0.24723853  1
  P  P11  1  0.32225096  0.23809408  0.25276147  1
  P  P12  1  0.67774904  0.76190592  0.74723853  1
  P  P13  1  0.82225096  0.26190592  0.75276147  1
  P  P14  1  0.56948912  0.76279161  0.02923354  1
  P  P15  1  0.93051088  0.26279161  0.47076646  1
  O  O16  1  0.13094870  0.59902017  0.64558271  1
  O  O17  1  0.17318363  0.90075128  0.59876085  1
  O  O18  1  0.32929419  0.74386653  0.95212551  1
  O  O19  1  0.17070581  0.24386653  0.54787449  1
  O  O20  1  0.32681637  0.40075128  0.90123915  1
  O  O21  1  0.14682899  0.67698723  0.39982022  1
  O  O22  1  0.36905130  0.09902017  0.85441729  1
  O  O23  1  0.08094124  0.24636002  0.19807688  1
  O  O24  1  0.06416277  0.89161014  0.18313933  1
  O  O25  1  0.09670110  0.58852722  0.13578376  1
  O  O26  1  0.64682899  0.82301277  0.89982022  1
  O  O27  1  0.40329890  0.08852722  0.36421624  1
  O  O28  1  0.58094124  0.25363998  0.69807688  1
  O  O29  1  0.56416277  0.60838986  0.68313933  1
  O  O30  1  0.43583723  0.39161014  0.31686067  1
  O  O31  1  0.41905876  0.74636002  0.30192312  1
  O  O32  1  0.59670110  0.91147278  0.63578376  1
  O  O33  1  0.35317101  0.17698723  0.10017978  1
  O  O34  1  0.90329890  0.41147278  0.86421624  1
  O  O35  1  0.93583723  0.10838986  0.81686067  1
  O  O36  1  0.91905876  0.75363998  0.80192312  1
  O  O37  1  0.63094870  0.90097983  0.14558271  1
  O  O38  1  0.85317101  0.32301277  0.60017978  1
  O  O39  1  0.67318363  0.59924872  0.09876085  1
  O  O40  1  0.82929419  0.75613347  0.45212551  1
  O  O41  1  0.67070581  0.25613347  0.04787449  1
  O  O42  1  0.82681637  0.09924872  0.40123915  1
  O  O43  1  0.86905130  0.40097983  0.35441729  1
