# generated using pymatgen
data_Li2V(SO4)2
_symmetry_space_group_name_H-M   'P 1'
_cell_length_a   9.45595987
_cell_length_b   9.33789838
_cell_length_c   13.96060015
_cell_angle_alpha   90.00000000
_cell_angle_beta   90.00000000
_cell_angle_gamma   90.00000000
_symmetry_Int_Tables_number   1
_chemical_formula_structural   Li2V(SO4)2
_chemical_formula_sum   'Li16 V8 S16 O64'
_cell_volume   1232.70413375
_cell_formula_units_Z   8
loop_
 _symmetry_equiv_pos_site_id
 _symmetry_equiv_pos_as_xyz
  1  'x, y, z'
loop_
 _atom_site_type_symbol
 _atom_site_label
 _atom_site_symmetry_multiplicity
 _atom_site_fract_x
 _atom_site_fract_y
 _atom_site_fract_z
 _atom_site_occupancy
  Li  Li0  1  0.03350213  0.22015329  0.37378162  1
  Li  Li1  1  0.03350213  0.27984671  0.87378162  1
  Li  Li2  1  0.22418894  0.95446503  0.37239149  1
  Li  Li3  1  0.22418894  0.54553497  0.87239149  1
  Li  Li4  1  0.27581106  0.04553497  0.87239149  1
  Li  Li5  1  0.27581106  0.45446503  0.37239149  1
  Li  Li6  1  0.46649787  0.72015329  0.37378162  1
  Li  Li7  1  0.46649787  0.77984671  0.87378162  1
  Li  Li8  1  0.53350213  0.22015329  0.12621838  1
  Li  Li9  1  0.53350213  0.27984671  0.62621838  1
  Li  Li10  1  0.72418894  0.54553497  0.62760851  1
  Li  Li11  1  0.72418894  0.95446503  0.12760851  1
  Li  Li12  1  0.77581106  0.45446503  0.12760851  1
  Li  Li13  1  0.77581106  0.04553497  0.62760851  1
  Li  Li14  1  0.96649787  0.77984671  0.62621838  1
  Li  Li15  1  0.96649787  0.72015329  0.12621838  1
  V  V16  1  0.13896093  0.10236122  0.12269344  1
  V  V17  1  0.13896093  0.39763878  0.62269344  1
  V  V18  1  0.36103907  0.60236122  0.12269344  1
  V  V19  1  0.36103907  0.89763878  0.62269344  1
  V  V20  1  0.63896093  0.10236122  0.37730656  1
  V  V21  1  0.63896093  0.39763878  0.87730656  1
  V  V22  1  0.86103907  0.60236122  0.37730656  1
  V  V23  1  0.86103907  0.89763878  0.87730656  1
  S  S24  1  0.07460969  0.07015709  0.72800930  1
  S  S25  1  0.07460969  0.42984291  0.22800930  1
  S  S26  1  0.16056028  0.68769584  0.49047554  1
  S  S27  1  0.16056028  0.81230416  0.99047554  1
  S  S28  1  0.33943972  0.18769584  0.49047554  1
  S  S29  1  0.33943972  0.31230416  0.99047554  1
  S  S30  1  0.42539031  0.92984291  0.22800930  1
  S  S31  1  0.42539031  0.57015709  0.72800930  1
  S  S32  1  0.57460969  0.42984291  0.27199070  1
  S  S33  1  0.57460969  0.07015709  0.77199070  1
  S  S34  1  0.66056028  0.68769584  0.00952446  1
  S  S35  1  0.66056028  0.81230416  0.50952446  1
  S  S36  1  0.83943972  0.18769584  0.00952446  1
  S  S37  1  0.83943972  0.31230416  0.50952446  1
  S  S38  1  0.92539031  0.57015709  0.77199070  1
  S  S39  1  0.92539031  0.92984291  0.27199070  1
  O  O40  1  0.00480038  0.70062583  0.47719389  1
  O  O41  1  0.00480038  0.79937417  0.97719389  1
  O  O42  1  0.01712329  0.99691320  0.34523313  1
  O  O43  1  0.01712329  0.50308680  0.84523313  1
  O  O44  1  0.02595426  0.46102746  0.32861563  1
  O  O45  1  0.02595426  0.03897254  0.82861563  1
  O  O46  1  0.07310605  0.23019138  0.72296818  1
  O  O47  1  0.07310605  0.26980862  0.22296818  1
  O  O48  1  0.18715276  0.73155729  0.08098291  1
  O  O49  1  0.18715276  0.76844271  0.58098291  1
  O  O50  1  0.20475410  0.96522800  0.00266109  1
  O  O51  1  0.20475410  0.53477200  0.50266109  1
  O  O52  1  0.22221356  0.01429269  0.72236840  1
  O  O53  1  0.22221356  0.48570731  0.22236840  1
  O  O54  1  0.24120867  0.74491108  0.40751304  1
  O  O55  1  0.24120867  0.75508892  0.90751304  1
  O  O56  1  0.25879133  0.24491108  0.40751304  1
  O  O57  1  0.25879133  0.25508892  0.90751304  1
  O  O58  1  0.27778644  0.98570731  0.22236840  1
  O  O59  1  0.27778644  0.51429269  0.72236840  1
  O  O60  1  0.29524590  0.03477200  0.50266109  1
  O  O61  1  0.29524590  0.46522800  0.00266109  1
  O  O62  1  0.31284724  0.23155729  0.08098291  1
  O  O63  1  0.31284724  0.26844271  0.58098291  1
  O  O64  1  0.42689395  0.76980862  0.22296818  1
  O  O65  1  0.42689395  0.73019138  0.72296818  1
  O  O66  1  0.47404574  0.53897254  0.82861563  1
  O  O67  1  0.47404574  0.96102746  0.32861563  1
  O  O68  1  0.48287671  0.49691320  0.34523313  1
  O  O69  1  0.48287671  0.00308680  0.84523313  1
  O  O70  1  0.49519962  0.20062583  0.47719389  1
  O  O71  1  0.49519962  0.29937417  0.97719389  1
  O  O72  1  0.50480038  0.70062583  0.02280611  1
  O  O73  1  0.50480038  0.79937417  0.52280611  1
  O  O74  1  0.51712329  0.50308680  0.65476687  1
  O  O75  1  0.51712329  0.99691320  0.15476687  1
  O  O76  1  0.52595426  0.46102746  0.17138437  1
  O  O77  1  0.52595426  0.03897254  0.67138437  1
  O  O78  1  0.57310605  0.26980862  0.27703182  1
  O  O79  1  0.57310605  0.23019138  0.77703182  1
  O  O80  1  0.68715276  0.73155729  0.41901709  1
  O  O81  1  0.68715276  0.76844271  0.91901709  1
  O  O82  1  0.70475410  0.53477200  0.99733891  1
  O  O83  1  0.70475410  0.96522800  0.49733891  1
  O  O84  1  0.72221356  0.48570731  0.27763160  1
  O  O85  1  0.72221356  0.01429269  0.77763160  1
  O  O86  1  0.74120867  0.74491108  0.09248696  1
  O  O87  1  0.74120867  0.75508892  0.59248696  1
  O  O88  1  0.75879133  0.24491108  0.09248696  1
  O  O89  1  0.75879133  0.25508892  0.59248696  1
  O  O90  1  0.77778644  0.51429269  0.77763160  1
  O  O91  1  0.77778644  0.98570731  0.27763160  1
  O  O92  1  0.79524590  0.46522800  0.49733891  1
  O  O93  1  0.79524590  0.03477200  0.99733891  1
  O  O94  1  0.81284724  0.23155729  0.41901709  1
  O  O95  1  0.81284724  0.26844271  0.91901709  1
  O  O96  1  0.92689395  0.73019138  0.77703182  1
  O  O97  1  0.92689395  0.76980862  0.27703182  1
  O  O98  1  0.97404574  0.53897254  0.67138437  1
  O  O99  1  0.97404574  0.96102746  0.17138437  1
  O  O100  1  0.98287671  0.00308680  0.65476687  1
  O  O101  1  0.98287671  0.49691320  0.15476687  1
  O  O102  1  0.99519962  0.20062583  0.02280611  1
  O  O103  1  0.99519962  0.29937417  0.52280611  1
