# generated using pymatgen
data_Li6MnNi7O16
_symmetry_space_group_name_H-M   'P 1'
_cell_length_a   7.57615538
_cell_length_b   6.41620846
_cell_length_c   12.71086779
_cell_angle_alpha   99.12609308
_cell_angle_beta   84.66759579
_cell_angle_gamma   65.85335753
_symmetry_Int_Tables_number   1
_chemical_formula_structural   Li6MnNi7O16
_chemical_formula_sum   'Li12 Mn2 Ni14 O32'
_cell_volume   548.07055375
_cell_formula_units_Z   2
loop_
 _symmetry_equiv_pos_site_id
 _symmetry_equiv_pos_as_xyz
  1  'x, y, z'
loop_
 _atom_site_type_symbol
 _atom_site_label
 _atom_site_symmetry_multiplicity
 _atom_site_fract_x
 _atom_site_fract_y
 _atom_site_fract_z
 _atom_site_occupancy
  Li  Li0  1  0.04800525  0.39943444  0.09667092  1
  Li  Li1  1  0.18648816  0.21225334  0.27823900  1
  Li  Li2  1  0.32425616  0.02933537  0.46906391  1
  Li  Li3  1  0.06430301  0.90096842  0.59651622  1
  Li  Li4  1  0.45318726  0.35184706  0.15203545  1
  Li  Li5  1  0.31549982  0.53397767  0.96688391  1
  Li  Li6  1  0.57359422  0.16092227  0.34280174  1
  Li  Li7  1  0.43080234  0.84352262  0.65508794  1
  Li  Li8  1  0.55552408  0.65487968  0.84714444  1
  Li  Li9  1  0.93014025  0.10006665  0.40621021  1
  Li  Li10  1  0.81468893  0.77938798  0.71551224  1
  Li  Li11  1  0.94107894  0.59969405  0.90572985  1
  Mn  Mn12  1  0.87702476  0.18783270  0.81433712  1
  Mn  Mn13  1  0.87515770  0.68817381  0.31325660  1
  Ni  Ni14  1  0.12275821  0.32083099  0.68939242  1
  Ni  Ni15  1  0.25220173  0.11951889  0.87447022  1
  Ni  Ni16  1  0.12355689  0.81672372  0.18897707  1
  Ni  Ni17  1  0.24950430  0.62547830  0.37449219  1
  Ni  Ni18  1  0.37249076  0.43992482  0.56284983  1
  Ni  Ni19  1  0.50181179  0.24907342  0.74937188  1
  Ni  Ni20  1  0.37635510  0.93783080  0.06300805  1
  Ni  Ni21  1  0.62242460  0.06530758  0.93756293  1
  Ni  Ni22  1  0.50147363  0.74525431  0.24901675  1
  Ni  Ni23  1  0.62280862  0.56725118  0.43905036  1
  Ni  Ni24  1  0.75333313  0.36645418  0.62297821  1
  Ni  Ni25  1  0.75118182  0.87157336  0.12406871  1
  Ni  Ni26  1  0.99887246  0.99907549  0.99958308  1
  Ni  Ni27  1  0.99888974  0.49785266  0.49885020  1
  O  O28  1  0.01512568  0.23073362  0.54702161  1
  O  O29  1  0.11646792  0.08361684  0.13654928  1
  O  O30  1  0.14137821  0.04286694  0.73452349  1
  O  O31  1  0.01396746  0.72957123  0.04887341  1
  O  O32  1  0.13969068  0.53573779  0.23485954  1
  O  O33  1  0.09407262  0.58312967  0.62332649  1
  O  O34  1  0.36346322  0.21386564  0.01324787  1
  O  O35  1  0.26049617  0.35304674  0.42339684  1
  O  O36  1  0.23498925  0.38794271  0.82677157  1
  O  O37  1  0.48939724  0.01357726  0.20093334  1
  O  O38  1  0.38073901  0.17446559  0.61452375  1
  O  O39  1  0.22995489  0.89955394  0.32783097  1
  O  O40  1  0.38230417  0.66987741  0.11630876  1
  O  O41  1  0.35225304  0.71315182  0.51608091  1
  O  O42  1  0.26718517  0.85829480  0.93045976  1
  O  O43  1  0.50979193  0.48464700  0.30199560  1
  O  O44  1  0.49437170  0.51294276  0.69865369  1
  O  O45  1  0.63701425  0.30115532  0.48498416  1
  O  O46  1  0.72293848  0.13144323  0.06106277  1
  O  O47  1  0.60906135  0.33260285  0.88687532  1
  O  O48  1  0.78216164  0.10243893  0.68494097  1
  O  O49  1  0.60784437  0.83180192  0.38615192  1
  O  O50  1  0.52581077  0.98269303  0.80749075  1
  O  O51  1  0.78197178  0.60895590  0.18534404  1
  O  O52  1  0.63646154  0.79998068  0.98298731  1
  O  O53  1  0.73891676  0.63654095  0.57576828  1
  O  O54  1  0.90464790  0.41610808  0.37376996  1
  O  O55  1  0.86096068  0.46410937  0.76726743  1
  O  O56  1  0.98218123  0.26382007  0.94241680  1
  O  O57  1  0.86021778  0.95879931  0.26786585  1
  O  O58  1  0.98307307  0.76222688  0.44448838  1
  O  O59  1  0.87929835  0.91781000  0.86101875  1
