# generated using pymatgen
data_LiMnF3
_symmetry_space_group_name_H-M   'P 1'
_cell_length_a   5.93823025
_cell_length_b   5.93696376
_cell_length_c   11.67697038
_cell_angle_alpha   89.91145128
_cell_angle_beta   89.97098238
_cell_angle_gamma   60.01225662
_symmetry_Int_Tables_number   1
_chemical_formula_structural   LiMnF3
_chemical_formula_sum   'Li6 Mn6 F18'
_cell_volume   356.56222148
_cell_formula_units_Z   6
loop_
 _symmetry_equiv_pos_site_id
 _symmetry_equiv_pos_as_xyz
  1  'x, y, z'
loop_
 _atom_site_type_symbol
 _atom_site_label
 _atom_site_symmetry_multiplicity
 _atom_site_fract_x
 _atom_site_fract_y
 _atom_site_fract_z
 _atom_site_occupancy
  Li  Li0  1  0.00100269  0.67039077  0.74671386  1
  Li  Li1  1  0.32516138  0.99601819  0.74607405  1
  Li  Li2  1  0.32927875  0.66572438  0.24492013  1
  Li  Li3  1  0.00031715  0.32154621  0.24567416  1
  Li  Li4  1  0.67488609  0.32138972  0.74617712  1
  Li  Li5  1  0.67270745  0.99191130  0.24482794  1
  Mn  Mn6  1  0.66815139  0.66054531  0.02787509  1
  Mn  Mn7  1  0.66762053  0.65953823  0.52916349  1
  Mn  Mn8  1  0.00066397  0.99268256  0.49405677  1
  Mn  Mn9  1  0.33474808  0.32783677  0.96309969  1
  Mn  Mn10  1  0.33440046  0.32625165  0.46218926  1
  Mn  Mn11  1  0.00119110  0.99480199  0.99979963  1
  F  F12  1  0.69071935  0.94887513  0.41772829  1
  F  F13  1  0.64508327  0.03685848  0.07304859  1
  F  F14  1  0.95828118  0.68595241  0.91952409  1
  F  F15  1  0.04395460  0.63991917  0.57194553  1
  F  F16  1  0.35263467  0.95174476  0.91940598  1
  F  F17  1  0.31184006  0.03540991  0.57164440  1
  F  F18  1  0.66750983  0.66100654  0.71208164  1
  F  F19  1  0.66729782  0.65964211  0.21120204  1
  F  F20  1  0.00043768  0.99326420  0.24233376  1
  F  F21  1  0.99988693  0.99584061  0.74479556  1
  F  F22  1  0.95751236  0.34686697  0.41807060  1
  F  F23  1  0.35473256  0.68217761  0.41776560  1
  F  F24  1  0.04446112  0.30697218  0.07313871  1
  F  F25  1  0.31435208  0.63802625  0.07302191  1
  F  F26  1  0.69286808  0.34604304  0.91945692  1
  F  F27  1  0.64713054  0.30351584  0.57179491  1
  F  F28  1  0.33345325  0.32954185  0.78021529  1
  F  F29  1  0.33409056  0.32590486  0.27915097  1
