# generated using pymatgen
data_Li4Co3Ni3(SbO8)2
_symmetry_space_group_name_H-M   'P 1'
_cell_length_a   5.81469019
_cell_length_b   5.76955314
_cell_length_c   9.50161015
_cell_angle_alpha   89.99718152
_cell_angle_beta   91.57143714
_cell_angle_gamma   119.69393227
_symmetry_Int_Tables_number   1
_chemical_formula_structural   Li4Co3Ni3(SbO8)2
_chemical_formula_sum   'Li4 Co3 Ni3 Sb2 O16'
_cell_volume   276.76530560
_cell_formula_units_Z   1
loop_
 _symmetry_equiv_pos_site_id
 _symmetry_equiv_pos_as_xyz
  1  'x, y, z'
loop_
 _atom_site_type_symbol
 _atom_site_label
 _atom_site_symmetry_multiplicity
 _atom_site_fract_x
 _atom_site_fract_y
 _atom_site_fract_z
 _atom_site_occupancy
  Li  Li0  1  0.32521513  0.66312153  0.90082201  1
  Li  Li1  1  0.00479729  0.00228358  0.99179006  1
  Li  Li2  1  0.00845470  0.00420850  0.49195678  1
  Li  Li3  1  0.66605344  0.33269738  0.40048922  1
  Co  Co4  1  0.17036136  0.83034062  0.21483732  1
  Co  Co5  1  0.17034180  0.34008416  0.21482930  1
  Co  Co6  1  0.34184296  0.17084282  0.71517593  1
  Ni  Ni7  1  0.66310602  0.83150794  0.21321034  1
  Ni  Ni8  1  0.83141727  0.66271487  0.71410231  1
  Ni  Ni9  1  0.83166825  0.16897302  0.71414420  1
  Sb  Sb10  1  0.33783886  0.66856538  0.48633600  1
  Sb  Sb11  1  0.65847869  0.32949459  0.98953280  1
  O  O12  1  0.17479126  0.84264609  0.59475504  1
  O  O13  1  0.03256018  0.51643983  0.33363088  1
  O  O14  1  0.33154706  0.66560833  0.11693625  1
  O  O15  1  0.00213312  0.00123987  0.30305992  1
  O  O16  1  0.01211448  0.00583157  0.80207920  1
  O  O17  1  0.17394998  0.33158228  0.59480584  1
  O  O18  1  0.47801943  0.96889876  0.34173733  1
  O  O19  1  0.47745976  0.50794236  0.34203674  1
  O  O20  1  0.32369611  0.16182159  0.10304631  1
  O  O21  1  0.68721166  0.84326315  0.59407950  1
  O  O22  1  0.49755507  0.47223681  0.84390710  1
  O  O23  1  0.49865849  0.02599962  0.84395956  1
  O  O24  1  0.65688775  0.32858963  0.61819130  1
  O  O25  1  0.84194083  0.67744041  0.09362375  1
  O  O26  1  0.95933345  0.48039909  0.84139132  1
  O  O27  1  0.84256658  0.16552621  0.09337168  1
