# generated using pymatgen
data_Li3Cu2F8
_symmetry_space_group_name_H-M   'P 1'
_cell_length_a   5.91305346
_cell_length_b   5.17528759
_cell_length_c   9.64099963
_cell_angle_alpha   90.00000000
_cell_angle_beta   94.61589516
_cell_angle_gamma   90.00000000
_symmetry_Int_Tables_number   1
_chemical_formula_structural   Li3Cu2F8
_chemical_formula_sum   'Li6 Cu4 F16'
_cell_volume   294.07457394
_cell_formula_units_Z   2
loop_
 _symmetry_equiv_pos_site_id
 _symmetry_equiv_pos_as_xyz
  1  'x, y, z'
loop_
 _atom_site_type_symbol
 _atom_site_label
 _atom_site_symmetry_multiplicity
 _atom_site_fract_x
 _atom_site_fract_y
 _atom_site_fract_z
 _atom_site_occupancy
  Li  Li0  1  0.15508912  0.49657906  0.74730286  1
  Li  Li1  1  0.15508912  0.00342094  0.24730286  1
  Li  Li2  1  0.50000000  0.50000000  0.50000000  1
  Li  Li3  1  0.50000000  0.00000000  0.00000000  1
  Li  Li4  1  0.84491088  0.99657906  0.75269714  1
  Li  Li5  1  0.84491088  0.50342094  0.25269714  1
  Cu  Cu6  1  0.36221350  0.99381135  0.63104928  1
  Cu  Cu7  1  0.36221350  0.50618865  0.13104928  1
  Cu  Cu8  1  0.63778650  0.49381135  0.86895072  1
  Cu  Cu9  1  0.63778650  0.00618865  0.36895072  1
  F  F10  1  0.09746606  0.15412934  0.68681240  1
  F  F11  1  0.09746606  0.34587066  0.18681240  1
  F  F12  1  0.22178331  0.67561902  0.58027339  1
  F  F13  1  0.22178331  0.82438098  0.08027339  1
  F  F14  1  0.35361546  0.35129192  0.93151036  1
  F  F15  1  0.35361546  0.14870808  0.43151036  1
  F  F16  1  0.45913136  0.80889903  0.81740313  1
  F  F17  1  0.45913136  0.69110097  0.31740313  1
  F  F18  1  0.54086864  0.30889903  0.68259687  1
  F  F19  1  0.54086864  0.19110097  0.18259687  1
  F  F20  1  0.64638454  0.85129192  0.56848964  1
  F  F21  1  0.64638454  0.64870808  0.06848964  1
  F  F22  1  0.77821669  0.17561902  0.91972661  1
  F  F23  1  0.77821669  0.32438098  0.41972661  1
  F  F24  1  0.90253394  0.65412934  0.81318760  1
  F  F25  1  0.90253394  0.84587066  0.31318760  1
