# generated using pymatgen
data_Li4V3Co3(WO8)2
_symmetry_space_group_name_H-M   'P 1'
_cell_length_a   5.97448099
_cell_length_b   6.01711460
_cell_length_c   9.77378169
_cell_angle_alpha   89.99061920
_cell_angle_beta   89.56300198
_cell_angle_gamma   120.22794961
_symmetry_Int_Tables_number   1
_chemical_formula_structural   Li4V3Co3(WO8)2
_chemical_formula_sum   'Li4 V3 Co3 W2 O16'
_cell_volume   303.57240170
_cell_formula_units_Z   1
loop_
 _symmetry_equiv_pos_site_id
 _symmetry_equiv_pos_as_xyz
  1  'x, y, z'
loop_
 _atom_site_type_symbol
 _atom_site_label
 _atom_site_symmetry_multiplicity
 _atom_site_fract_x
 _atom_site_fract_y
 _atom_site_fract_z
 _atom_site_occupancy
  Li  Li0  1  0.33522776  0.66794799  0.90472979  1
  Li  Li1  1  0.99479963  0.99772829  0.98820071  1
  Li  Li2  1  0.99611989  0.99786110  0.48602228  1
  Li  Li3  1  0.67343414  0.33655668  0.40542615  1
  V  V4  1  0.64736091  0.82378772  0.22502676  1
  V  V5  1  0.82013651  0.65535834  0.71770218  1
  V  V6  1  0.82017866  0.16459374  0.71781560  1
  Co  Co7  1  0.17238863  0.83037294  0.21128292  1
  Co  Co8  1  0.17238201  0.34217962  0.21124525  1
  Co  Co9  1  0.34259063  0.17137639  0.71138002  1
  W  W10  1  0.32159515  0.66062685  0.49001286  1
  W  W11  1  0.66529738  0.33287291  0.98991001  1
  O  O12  1  0.16558860  0.82336038  0.58600694  1
  O  O13  1  0.04755835  0.52369264  0.35296508  1
  O  O14  1  0.36806190  0.68414500  0.10884218  1
  O  O15  1  0.98030433  0.99023218  0.29604744  1
  O  O16  1  0.99761359  0.99867213  0.79946965  1
  O  O17  1  0.16565832  0.34167385  0.58596618  1
  O  O18  1  0.49650849  0.96155759  0.35284996  1
  O  O19  1  0.49675725  0.53504676  0.35281480  1
  O  O20  1  0.33928211  0.16988184  0.08240212  1
  O  O21  1  0.64539325  0.82262216  0.59240571  1
  O  O22  1  0.52878307  0.48757627  0.85087101  1
  O  O23  1  0.52853137  0.04145685  0.85082702  1
  O  O24  1  0.68167032  0.34071928  0.60702295  1
  O  O25  1  0.81875140  0.64931421  0.08947839  1
  O  O26  1  0.95952472  0.47961102  0.85158846  1
  O  O27  1  0.81850363  0.16947328  0.08952760  1
