# generated using pymatgen
data_LiMn(PO3)4
_symmetry_space_group_name_H-M   'P 1'
_cell_length_a   7.32682537
_cell_length_b   7.32682537
_cell_length_c   9.65685145
_cell_angle_alpha   69.68064779
_cell_angle_beta   82.74916792
_cell_angle_gamma   112.08402466
_symmetry_Int_Tables_number   1
_chemical_formula_structural   LiMn(PO3)4
_chemical_formula_sum   'Li2 Mn2 P8 O24'
_cell_volume   430.36164611
_cell_formula_units_Z   2
loop_
 _symmetry_equiv_pos_site_id
 _symmetry_equiv_pos_as_xyz
  1  'x, y, z'
loop_
 _atom_site_type_symbol
 _atom_site_label
 _atom_site_symmetry_multiplicity
 _atom_site_fract_x
 _atom_site_fract_y
 _atom_site_fract_z
 _atom_site_occupancy
  Li  Li0  1  0.00000000  0.00000000  0.00000000  1
  Li  Li1  1  0.50000000  0.00000000  0.50000000  1
  Mn  Mn2  1  0.05385149  0.80385149  0.75000000  1
  Mn  Mn3  1  0.94614851  0.19614851  0.25000000  1
  P  P4  1  0.27024740  0.72714908  0.02132990  1
  P  P5  1  0.69162002  0.99098765  0.80135639  1
  P  P6  1  0.29234403  0.49297640  0.69864361  1
  P  P7  1  0.24847798  0.29157731  0.47867110  1
  P  P8  1  0.75152202  0.70842269  0.52132890  1
  P  P9  1  0.70765597  0.50702360  0.30135639  1
  P  P10  1  0.30837998  0.00901235  0.19864361  1
  P  P11  1  0.72975260  0.27285092  0.97867110  1
  O  O12  1  0.18927493  0.85767288  0.90785505  1
  O  O13  1  0.35061052  0.96012719  0.34895729  1
  O  O14  1  0.27823320  0.69984275  0.67727242  1
  O  O15  1  0.30092285  0.81317879  0.15071445  1
  O  O16  1  0.49661971  0.77587712  0.94068285  1
  O  O17  1  0.14803986  0.48339883  0.09641860  1
  O  O18  1  0.21655997  0.43730256  0.55931715  1
  O  O19  1  0.19091552  0.30043219  0.84895729  1
  O  O20  1  0.73447207  0.90287002  0.40785505  1
  O  O21  1  0.07981644  0.24445846  0.40358140  1
  O  O22  1  0.87711417  0.95550562  0.82272758  1
  O  O23  1  0.53610776  0.54836369  0.65071445  1
  O  O24  1  0.46389224  0.45163631  0.34928555  1
  O  O25  1  0.12288583  0.04449438  0.17727242  1
  O  O26  1  0.92018356  0.75554154  0.59641860  1
  O  O27  1  0.26552793  0.09712998  0.59214495  1
  O  O28  1  0.80908448  0.69956781  0.15104271  1
  O  O29  1  0.78344003  0.56269744  0.44068285  1
  O  O30  1  0.85196014  0.51660117  0.90358140  1
  O  O31  1  0.50338029  0.22412288  0.05931715  1
  O  O32  1  0.69907715  0.18682221  0.84928555  1
  O  O33  1  0.72176680  0.30015725  0.32272758  1
  O  O34  1  0.64938948  0.03987281  0.65104271  1
  O  O35  1  0.81072507  0.14232712  0.09214495  1
