# generated using pymatgen
data_Mn(Bi5O8)5
_symmetry_space_group_name_H-M   'P 1'
_cell_length_a   8.98959429
_cell_length_b   8.98959429
_cell_length_c   14.68229795
_cell_angle_alpha   90.00167974
_cell_angle_beta   89.99832026
_cell_angle_gamma   109.46246523
_symmetry_Int_Tables_number   1
_chemical_formula_structural   Mn(Bi5O8)5
_chemical_formula_sum   'Mn1 Bi25 O40'
_cell_volume   1118.72002836
_cell_formula_units_Z   1
loop_
 _symmetry_equiv_pos_site_id
 _symmetry_equiv_pos_as_xyz
  1  'x, y, z'
loop_
 _atom_site_type_symbol
 _atom_site_label
 _atom_site_symmetry_multiplicity
 _atom_site_fract_x
 _atom_site_fract_y
 _atom_site_fract_z
 _atom_site_occupancy
  Mn  Mn0  1  0.99885138  0.99885138  0.00000000  1
  Bi  Bi1  1  0.78099115  0.57867207  0.07857590  1
  Bi  Bi2  1  0.39892224  0.24060879  0.09774102  1
  Bi  Bi3  1  0.83323453  0.52670961  0.33534950  1
  Bi  Bi4  1  0.48768993  0.15971927  0.34753770  1
  Bi  Bi5  1  0.02499402  0.32740399  0.16986652  1
  Bi  Bi6  1  0.64858578  0.98921301  0.15300772  1
  Bi  Bi7  1  0.94462844  0.08825559  0.75035480  1
  Bi  Bi8  1  0.44354371  0.58222731  0.25144542  1
  Bi  Bi9  1  0.73883750  0.24233856  0.56935208  1
  Bi  Bi10  1  0.22887367  0.72767728  0.07197006  1
  Bi  Bi11  1  0.27324726  0.08985436  0.58534590  1
  Bi  Bi12  1  0.73499340  0.90457577  0.40473453  1
  Bi  Bi13  1  0.50171976  0.50171976  0.50000000  1
  Bi  Bi14  1  0.90457577  0.73499340  0.59526547  1
  Bi  Bi15  1  0.08985436  0.27324726  0.41465410  1
  Bi  Bi16  1  0.08825559  0.94462844  0.24964520  1
  Bi  Bi17  1  0.24233856  0.73883750  0.43064792  1
  Bi  Bi18  1  0.58222731  0.44354371  0.74855458  1
  Bi  Bi19  1  0.72767728  0.22887367  0.92802994  1
  Bi  Bi20  1  0.32740399  0.02499402  0.83013348  1
  Bi  Bi21  1  0.98921301  0.64858578  0.84699228  1
  Bi  Bi22  1  0.15971927  0.48768993  0.65246230  1
  Bi  Bi23  1  0.52670961  0.83323453  0.66465050  1
  Bi  Bi24  1  0.24060879  0.39892224  0.90225898  1
  Bi  Bi25  1  0.57867207  0.78099115  0.92142410  1
  O  O26  1  0.60689830  0.00275377  0.00091995  1
  O  O27  1  0.70138555  0.31990736  0.05789133  1
  O  O28  1  0.93437868  0.05190041  0.30702527  1
  O  O29  1  0.19139387  0.99807201  0.00018289  1
  O  O30  1  0.44061219  0.06388020  0.17878486  1
  O  O31  1  0.93096670  0.56847596  0.18737883  1
  O  O32  1  0.90388028  0.90374407  0.09651692  1
  O  O33  1  0.99807201  0.19139387  0.99981711  1
  O  O34  1  0.54884239  0.43415050  0.18403749  1
  O  O35  1  0.81904230  0.19065927  0.44241579  1
  O  O36  1  0.19586664  0.19547128  0.19313614  1
  O  O37  1  0.51141061  0.75193788  0.12870275  1
  O  O38  1  0.23551209  0.49611381  0.11919272  1
  O  O39  1  0.00265065  0.74190000  0.37391370  1
  O  O40  1  0.25418118  0.00516955  0.36700038  1
  O  O41  1  0.00275377  0.60689830  0.99908005  1
  O  O42  1  0.68298742  0.68258665  0.31420515  1
  O  O43  1  0.49681624  0.13624101  0.50059224  1
  O  O44  1  0.37476321  0.37478852  0.37379504  1
  O  O45  1  0.75572535  0.50225659  0.49960631  1
  O  O46  1  0.06273869  0.42377000  0.31011564  1
  O  O47  1  0.94390592  0.56589853  0.68309522  1
  O  O48  1  0.56589853  0.94390592  0.31690478  1
  O  O49  1  0.42377000  0.06273869  0.68988436  1
  O  O50  1  0.37478852  0.37476321  0.62620496  1
  O  O51  1  0.50225659  0.75572535  0.50039369  1
  O  O52  1  0.68258665  0.68298742  0.68579485  1
  O  O53  1  0.13624101  0.49681624  0.49940776  1
  O  O54  1  0.00516955  0.25418118  0.63299962  1
  O  O55  1  0.74190000  0.00265065  0.62608630  1
  O  O56  1  0.75193788  0.51141061  0.87129725  1
  O  O57  1  0.49611381  0.23551209  0.88080728  1
  O  O58  1  0.19547128  0.19586664  0.80686386  1
  O  O59  1  0.19065927  0.81904230  0.55758421  1
  O  O60  1  0.43415050  0.54884239  0.81596251  1
  O  O61  1  0.90374407  0.90388028  0.90348308  1
  O  O62  1  0.56847596  0.93096670  0.81262117  1
  O  O63  1  0.06388020  0.44061219  0.82121514  1
  O  O64  1  0.05190041  0.93437868  0.69297473  1
  O  O65  1  0.31990736  0.70138555  0.94210867  1
