# generated using pymatgen
data_Li2MnF4
_symmetry_space_group_name_H-M   'P 1'
_cell_length_a   8.52424300
_cell_length_b   9.74078608
_cell_length_c   9.74078608
_cell_angle_alpha   101.03762945
_cell_angle_beta   115.94793094
_cell_angle_gamma   64.05206906
_symmetry_Int_Tables_number   1
_chemical_formula_structural   Li2MnF4
_chemical_formula_sum   'Li16 Mn8 F32'
_cell_volume   653.95634335
_cell_formula_units_Z   8
loop_
 _symmetry_equiv_pos_site_id
 _symmetry_equiv_pos_as_xyz
  1  'x, y, z'
loop_
 _atom_site_type_symbol
 _atom_site_label
 _atom_site_symmetry_multiplicity
 _atom_site_fract_x
 _atom_site_fract_y
 _atom_site_fract_z
 _atom_site_occupancy
  Li  Li0  1  0.50000000  0.14294111  0.14294111  1
  Li  Li1  1  0.99436874  0.01126252  0.25000000  1
  Li  Li2  1  0.00563126  0.25000000  0.01126252  1
  Li  Li3  1  0.64294111  0.35705889  0.14294111  1
  Li  Li4  1  0.35705889  0.14294111  0.35705889  1
  Li  Li5  1  0.25563126  0.48873748  0.25000000  1
  Li  Li6  1  0.74436874  0.25000000  0.48873748  1
  Li  Li7  1  0.00000000  0.35705889  0.35705889  1
  Li  Li8  1  0.00000000  0.64294111  0.64294111  1
  Li  Li9  1  0.25563126  0.75000000  0.51126252  1
  Li  Li10  1  0.74436874  0.51126252  0.75000000  1
  Li  Li11  1  0.64294111  0.85705889  0.64294111  1
  Li  Li12  1  0.35705889  0.64294111  0.85705889  1
  Li  Li13  1  0.99436874  0.75000000  0.98873748  1
  Li  Li14  1  0.00563126  0.98873748  0.75000000  1
  Li  Li15  1  0.50000000  0.85705889  0.85705889  1
  Mn  Mn16  1  0.77530055  0.61424464  0.11424464  1
  Mn  Mn17  1  0.22469945  0.11424464  0.61424464  1
  Mn  Mn18  1  0.61045481  0.61424464  0.38575536  1
  Mn  Mn19  1  0.66105692  0.11424464  0.88575536  1
  Mn  Mn20  1  0.33894308  0.88575536  0.11424464  1
  Mn  Mn21  1  0.38954519  0.38575536  0.61424464  1
  Mn  Mn22  1  0.77530055  0.88575536  0.38575536  1
  Mn  Mn23  1  0.22469945  0.38575536  0.88575536  1
  F  F24  1  0.27021653  0.12222714  0.13434167  1
  F  F25  1  0.72978347  0.13434167  0.12222714  1
  F  F26  1  0.60755633  0.12222714  0.36565833  1
  F  F27  1  0.39244367  0.36565833  0.12222714  1
  F  F28  1  0.13587486  0.13434167  0.37777286  1
  F  F29  1  0.86412514  0.37777286  0.13434167  1
  F  F30  1  0.01297495  0.61679766  0.11679766  1
  F  F31  1  0.98702505  0.11679766  0.61679766  1
  F  F32  1  0.24189800  0.36565833  0.37777286  1
  F  F33  1  0.75810200  0.37777286  0.36565833  1
  F  F34  1  0.48773489  0.13122679  0.63122679  1
  F  F35  1  0.51226511  0.63122679  0.13122679  1
  F  F36  1  0.10382271  0.88320234  0.11679766  1
  F  F37  1  0.61896168  0.86877321  0.13122679  1
  F  F38  1  0.85650810  0.63122679  0.36877321  1
  F  F39  1  0.38103832  0.13122679  0.86877321  1
  F  F40  1  0.37022739  0.61679766  0.38320234  1
  F  F41  1  0.14349190  0.36877321  0.63122679  1
  F  F42  1  0.89617729  0.11679766  0.88320234  1
  F  F43  1  0.62977261  0.38320234  0.61679766  1
  F  F44  1  0.51226511  0.86877321  0.36877321  1
  F  F45  1  0.48773489  0.36877321  0.86877321  1
  F  F46  1  0.75810200  0.63434167  0.62222714  1
  F  F47  1  0.24189800  0.62222714  0.63434167  1
  F  F48  1  0.01297495  0.88320234  0.38320234  1
  F  F49  1  0.98702505  0.38320234  0.88320234  1
  F  F50  1  0.86412514  0.86565833  0.62222714  1
  F  F51  1  0.13587486  0.62222714  0.86565833  1
  F  F52  1  0.60755633  0.63434167  0.87777286  1
  F  F53  1  0.39244367  0.87777286  0.63434167  1
  F  F54  1  0.27021653  0.86565833  0.87777286  1
  F  F55  1  0.72978347  0.87777286  0.86565833  1
