# generated using pymatgen
data_LiMnPO4F
_symmetry_space_group_name_H-M   'P 1'
_cell_length_a   12.87747760
_cell_length_b   5.11096059
_cell_length_c   13.11363565
_cell_angle_alpha   89.69880291
_cell_angle_beta   60.24123797
_cell_angle_gamma   89.65125825
_symmetry_Int_Tables_number   1
_chemical_formula_structural   LiMnPO4F
_chemical_formula_sum   'Li8 Mn8 P8 O32 F8'
_cell_volume   749.25247348
_cell_formula_units_Z   8
loop_
 _symmetry_equiv_pos_site_id
 _symmetry_equiv_pos_as_xyz
  1  'x, y, z'
loop_
 _atom_site_type_symbol
 _atom_site_label
 _atom_site_symmetry_multiplicity
 _atom_site_fract_x
 _atom_site_fract_y
 _atom_site_fract_z
 _atom_site_occupancy
  Li  Li0  1  0.15824149  0.20776343  0.17115141  1
  Li  Li1  1  0.15849434  0.27541711  0.66827593  1
  Li  Li2  1  0.08388711  0.74864729  0.84411334  1
  Li  Li3  1  0.40648678  0.26222147  0.41439436  1
  Li  Li4  1  0.58012653  0.75523705  0.08113240  1
  Li  Li5  1  0.67178086  0.25748161  0.16359692  1
  Li  Li6  1  0.59365530  0.73757252  0.58972127  1
  Li  Li7  1  0.89241706  0.24358452  0.67681659  1
  Mn  Mn8  1  0.06367308  0.71787882  0.11904284  1
  Mn  Mn9  1  0.07056880  0.77187715  0.60456434  1
  Mn  Mn10  1  0.42333804  0.21185654  0.17942956  1
  Mn  Mn11  1  0.57644841  0.71012367  0.32219176  1
  Mn  Mn12  1  0.43093716  0.30240103  0.68790253  1
  Mn  Mn13  1  0.57009428  0.79028085  0.81829953  1
  Mn  Mn14  1  0.93256649  0.21316398  0.38653555  1
  Mn  Mn15  1  0.92563500  0.28312335  0.89576818  1
  P  P16  1  0.16188775  0.26684435  0.42356185  1
  P  P17  1  0.33748778  0.72110253  0.07931078  1
  P  P18  1  0.15764504  0.23575149  0.92549978  1
  P  P19  1  0.33966874  0.77189711  0.57750968  1
  P  P20  1  0.65793516  0.22307443  0.42548205  1
  P  P21  1  0.83659206  0.76964111  0.07731408  1
  P  P22  1  0.65630007  0.27416502  0.92406921  1
  P  P23  1  0.84390684  0.73638625  0.57468522  1
  O  O24  1  0.12932715  0.38190247  0.03973960  1
  O  O25  1  0.20917410  0.82431319  0.12143934  1
  O  O26  1  0.09571766  0.15284992  0.36299146  1
  O  O27  1  0.13752172  0.55528403  0.45368952  1
  O  O28  1  0.12721521  0.11783376  0.54211967  1
  O  O29  1  0.33537249  0.42788140  0.10891849  1
  O  O30  1  0.38903129  0.86835301  0.14919568  1
  O  O31  1  0.29827838  0.21119871  0.34532869  1
  O  O32  1  0.20677759  0.67905335  0.63010876  1
  O  O33  1  0.08641350  0.36936898  0.86874200  1
  O  O34  1  0.12081799  0.94734513  0.94990916  1
  O  O35  1  0.41020216  0.66042151  0.44997272  1
  O  O36  1  0.34610390  0.07357213  0.58027131  1
  O  O37  1  0.59691763  0.15393611  0.05191913  1
  O  O38  1  0.38504600  0.64173136  0.65398606  1
  O  O39  1  0.28944470  0.27465472  0.83622001  1
  O  O40  1  0.70362243  0.67321353  0.15442152  1
  O  O41  1  0.61802727  0.35943530  0.34205605  1
  O  O42  1  0.41130621  0.79308662  0.94912362  1
  O  O43  1  0.62673534  0.93049652  0.43005674  1
  O  O44  1  0.58546199  0.35541371  0.54728055  1
  O  O45  1  0.83509289  0.06805248  0.05963540  1
  O  O46  1  0.90623250  0.67364042  0.13652633  1
  O  O47  1  0.78962777  0.28262223  0.37681990  1
  O  O48  1  0.70930196  0.78862761  0.65871703  1
  O  O49  1  0.61519120  0.12701799  0.84963630  1
  O  O50  1  0.62559967  0.56659682  0.93244173  1
  O  O51  1  0.87629046  0.87699412  0.45876694  1
  O  O52  1  0.87309168  0.44268984  0.55516195  1
  O  O53  1  0.91292071  0.86672650  0.63245380  1
  O  O54  1  0.79419309  0.22803065  0.86519904  1
  O  O55  1  0.88265700  0.63717780  0.95552362  1
  F  F56  1  0.01260814  0.48837551  0.27520643  1
  F  F57  1  0.01973689  0.00258660  0.78040416  1
  F  F58  1  0.49371080  0.49594766  0.21966876  1
  F  F59  1  0.52522835  0.01125427  0.27188281  1
  F  F60  1  0.49403028  0.99395943  0.71356395  1
  F  F61  1  0.52174275  0.50597473  0.76041867  1
  F  F62  1  0.00290281  0.01474883  0.21568064  1
  F  F63  1  0.99900817  0.47505842  0.71144829  1
