# generated using pymatgen
data_Li4Ti3Ni3(TeO8)2
_symmetry_space_group_name_H-M   'P 1'
_cell_length_a   5.94405359
_cell_length_b   5.97751127
_cell_length_c   10.01733679
_cell_angle_alpha   89.99926690
_cell_angle_beta   89.73365180
_cell_angle_gamma   120.18747251
_symmetry_Int_Tables_number   1
_chemical_formula_structural   Li4Ti3Ni3(TeO8)2
_chemical_formula_sum   'Li4 Ti3 Ni3 Te2 O16'
_cell_volume   307.64949088
_cell_formula_units_Z   1
loop_
 _symmetry_equiv_pos_site_id
 _symmetry_equiv_pos_as_xyz
  1  'x, y, z'
loop_
 _atom_site_type_symbol
 _atom_site_label
 _atom_site_symmetry_multiplicity
 _atom_site_fract_x
 _atom_site_fract_y
 _atom_site_fract_z
 _atom_site_occupancy
  Li  Li0  1  0.32767973  0.66385603  0.90922538  1
  Li  Li1  1  0.99469250  0.99735361  0.98517844  1
  Li  Li2  1  0.00539008  0.00273799  0.49094549  1
  Li  Li3  1  0.66317843  0.33160532  0.40520283  1
  Ti  Ti4  1  0.18544335  0.83195131  0.21869248  1
  Ti  Ti5  1  0.18544837  0.35354261  0.21868555  1
  Ti  Ti6  1  0.34534759  0.17270384  0.72303682  1
  Ni  Ni7  1  0.65698249  0.82850972  0.20330420  1
  Ni  Ni8  1  0.82910233  0.65779577  0.71916665  1
  Ni  Ni9  1  0.82909312  0.17119678  0.71925002  1
  Te  Te10  1  0.34672955  0.67338911  0.50934040  1
  Te  Te11  1  0.67553709  0.33778082  0.98502101  1
  O  O12  1  0.18462570  0.84452602  0.61078730  1
  O  O13  1  0.02071488  0.51036629  0.31696322  1
  O  O14  1  0.31163500  0.65584194  0.10414046  1
  O  O15  1  0.00446235  0.00225133  0.29371740  1
  O  O16  1  0.01222652  0.00608293  0.80294410  1
  O  O17  1  0.18466269  0.34015731  0.61080764  1
  O  O18  1  0.46898749  0.97938059  0.32405631  1
  O  O19  1  0.46898892  0.48964149  0.32404367  1
  O  O20  1  0.33719870  0.16862184  0.08894798  1
  O  O21  1  0.67981360  0.83991139  0.59697325  1
  O  O22  1  0.50899841  0.46831923  0.85661244  1
  O  O23  1  0.50899339  0.04069460  0.85663215  1
  O  O24  1  0.64391640  0.32195947  0.61015459  1
  O  O25  1  0.83000502  0.66088506  0.08459072  1
  O  O26  1  0.96014111  0.48007804  0.85481848  1
  O  O27  1  0.83000619  0.16915956  0.08460001  1
