# generated using pymatgen
data_Li2Mn3F8
_symmetry_space_group_name_H-M   'P 1'
_cell_length_a   6.09473360
_cell_length_b   10.36896050
_cell_length_c   10.94049451
_cell_angle_alpha   90.00000000
_cell_angle_beta   93.66026552
_cell_angle_gamma   90.00000000
_symmetry_Int_Tables_number   1
_chemical_formula_structural   Li2Mn3F8
_chemical_formula_sum   'Li8 Mn12 F32'
_cell_volume   689.98570284
_cell_formula_units_Z   4
loop_
 _symmetry_equiv_pos_site_id
 _symmetry_equiv_pos_as_xyz
  1  'x, y, z'
loop_
 _atom_site_type_symbol
 _atom_site_label
 _atom_site_symmetry_multiplicity
 _atom_site_fract_x
 _atom_site_fract_y
 _atom_site_fract_z
 _atom_site_occupancy
  Li  Li0  1  0.12361151  0.94774519  0.79205008  1
  Li  Li1  1  0.12361151  0.55225481  0.29205008  1
  Li  Li2  1  0.35679827  0.35414809  0.87847617  1
  Li  Li3  1  0.35679827  0.14585191  0.37847617  1
  Li  Li4  1  0.64320173  0.85414809  0.62152383  1
  Li  Li5  1  0.64320173  0.64585191  0.12152383  1
  Li  Li6  1  0.87638849  0.44774519  0.70794992  1
  Li  Li7  1  0.87638849  0.05225481  0.20794992  1
  Mn  Mn8  1  0.11402570  0.63598173  0.96513064  1
  Mn  Mn9  1  0.11402570  0.86401827  0.46513064  1
  Mn  Mn10  1  0.35831975  0.64323909  0.71521938  1
  Mn  Mn11  1  0.35549079  0.37210390  0.55536039  1
  Mn  Mn12  1  0.35831975  0.85676091  0.21521938  1
  Mn  Mn13  1  0.35549079  0.12789610  0.05536039  1
  Mn  Mn14  1  0.64450921  0.87210390  0.94463961  1
  Mn  Mn15  1  0.64168025  0.14323909  0.78478062  1
  Mn  Mn16  1  0.64450921  0.62789610  0.44463961  1
  Mn  Mn17  1  0.64168025  0.35676091  0.28478062  1
  Mn  Mn18  1  0.88597430  0.13598173  0.53486936  1
  Mn  Mn19  1  0.88597430  0.36401827  0.03486936  1
  F  F20  1  0.13710266  0.50499443  0.63086674  1
  F  F21  1  0.14022724  0.76216895  0.80999629  1
  F  F22  1  0.10317574  0.98885437  0.62007523  1
  F  F23  1  0.14995538  0.26240725  0.96684022  1
  F  F24  1  0.13710266  0.99500557  0.13086674  1
  F  F25  1  0.14022724  0.73783105  0.30999629  1
  F  F26  1  0.10317574  0.51114563  0.12007523  1
  F  F27  1  0.14995538  0.23759275  0.46684022  1
  F  F28  1  0.36130053  0.53169639  0.87506668  1
  F  F29  1  0.39593252  0.01662101  0.88142183  1
  F  F30  1  0.39587385  0.27787584  0.72410236  1
  F  F31  1  0.36130053  0.96830361  0.37506668  1
  F  F32  1  0.39593252  0.48337899  0.38142183  1
  F  F33  1  0.39509548  0.74859369  0.54585612  1
  F  F34  1  0.39587385  0.22212416  0.22410236  1
  F  F35  1  0.39509548  0.75140631  0.04585612  1
  F  F36  1  0.60490452  0.24859369  0.95414388  1
  F  F37  1  0.60412615  0.77787584  0.77589764  1
  F  F38  1  0.60490452  0.25140631  0.45414388  1
  F  F39  1  0.60406748  0.51662101  0.61857817  1
  F  F40  1  0.63869947  0.03169639  0.62493332  1
  F  F41  1  0.60412615  0.72212416  0.27589764  1
  F  F42  1  0.60406748  0.98337899  0.11857817  1
  F  F43  1  0.63869947  0.46830361  0.12493332  1
  F  F44  1  0.85004462  0.76240725  0.53315978  1
  F  F45  1  0.89682426  0.48885437  0.87992477  1
  F  F46  1  0.85977276  0.26216895  0.69000371  1
  F  F47  1  0.86289734  0.00499443  0.86913326  1
  F  F48  1  0.85004462  0.73759275  0.03315978  1
  F  F49  1  0.89682426  0.01114563  0.37992477  1
  F  F50  1  0.85977276  0.23783105  0.19000371  1
  F  F51  1  0.86289734  0.49500557  0.36913326  1
