# generated using pymatgen
data_Li2MgCo13O28
_symmetry_space_group_name_H-M   'P 1'
_cell_length_a   8.23274238
_cell_length_b   8.70470514
_cell_length_c   7.55206027
_cell_angle_alpha   104.41000767
_cell_angle_beta   105.29158936
_cell_angle_gamma   100.21294480
_symmetry_Int_Tables_number   1
_chemical_formula_structural   Li2MgCo13O28
_chemical_formula_sum   'Li2 Mg1 Co13 O28'
_cell_volume   488.22913795
_cell_formula_units_Z   1
loop_
 _symmetry_equiv_pos_site_id
 _symmetry_equiv_pos_as_xyz
  1  'x, y, z'
loop_
 _atom_site_type_symbol
 _atom_site_label
 _atom_site_symmetry_multiplicity
 _atom_site_fract_x
 _atom_site_fract_y
 _atom_site_fract_z
 _atom_site_occupancy
  Li  Li0  1  0.00072226  0.49999821  0.50361448  1
  Li  Li1  1  0.56755887  0.92456299  0.35183470  1
  Mg  Mg2  1  0.50444643  0.50476113  0.50206425  1
  Co  Co3  1  0.14959568  0.86308409  0.71695286  1
  Co  Co4  1  0.06834051  0.92799051  0.35586857  1
  Co  Co5  1  0.00067283  0.00121653  0.00057544  1
  Co  Co6  1  0.20492613  0.77929829  0.06714529  1
  Co  Co7  1  0.28325830  0.71492154  0.42743153  1
  Co  Co8  1  0.36195108  0.64787992  0.78995601  1
  Co  Co9  1  0.42088136  0.56483187  0.13675861  1
  Co  Co10  1  0.57376709  0.42896402  0.86009809  1
  Co  Co11  1  0.63557128  0.35008632  0.20981270  1
  Co  Co12  1  0.71486103  0.28500618  0.57358732  1
  Co  Co13  1  0.78947634  0.21555587  0.92986469  1
  Co  Co14  1  0.93709270  0.07768088  0.64659886  1
  Co  Co15  1  0.85574679  0.14146855  0.28511231  1
  O  O16  1  0.00930603  0.18779626  0.91400303  1
  O  O17  1  0.21833972  0.97016710  0.98577167  1
  O  O18  1  0.06571304  0.74311790  0.44936324  1
  O  O19  1  0.13539414  0.67235293  0.79489971  1
  O  O20  1  0.15119797  0.04629022  0.62332318  1
  O  O21  1  0.07447938  0.11333406  0.26939726  1
  O  O22  1  0.28705153  0.89848334  0.33393067  1
  O  O23  1  0.36404856  0.83504105  0.69876136  1
  O  O24  1  0.26608671  0.53896133  0.52341811  1
  O  O25  1  0.20013460  0.59746656  0.15525700  1
  O  O26  1  0.35214532  0.45649941  0.87238969  1
  O  O27  1  0.42760459  0.75929022  0.06003597  1
  O  O28  1  0.57580278  0.62032909  0.78986895  1
  O  O29  1  0.49621849  0.69945667  0.39765700  1
  O  O30  1  0.50671562  0.30634574  0.60001753  1
  O  O31  1  0.42222867  0.37842437  0.21276659  1
  O  O32  1  0.57141189  0.23993618  0.94380554  1
  O  O33  1  0.64317218  0.53916667  0.12715859  1
  O  O34  1  0.79581383  0.39952536  0.84419027  1
  O  O35  1  0.73659879  0.46105574  0.47591053  1
  O  O36  1  0.63643021  0.15908317  0.30319188  1
  O  O37  1  0.71588564  0.09804284  0.65924033  1
  O  O38  1  0.92891308  0.89117225  0.73145655  1
  O  O39  1  0.84919901  0.95746722  0.37681391  1
  O  O40  1  0.86253430  0.32690800  0.20147182  1
  O  O41  1  0.93733952  0.26096014  0.55177709  1
  O  O42  1  0.78245910  0.02876897  0.01625431  1
  O  O43  1  0.98990361  0.81432531  0.08843751  1
