# generated using pymatgen
data_Li3Mn(PO4)2
_symmetry_space_group_name_H-M   'P 1'
_cell_length_a   4.77840545
_cell_length_b   5.87193314
_cell_length_c   10.15769612
_cell_angle_alpha   90.00000000
_cell_angle_beta   87.91113037
_cell_angle_gamma   90.00000000
_symmetry_Int_Tables_number   1
_chemical_formula_structural   Li3Mn(PO4)2
_chemical_formula_sum   'Li6 Mn2 P4 O16'
_cell_volume   284.82009558
_cell_formula_units_Z   2
loop_
 _symmetry_equiv_pos_site_id
 _symmetry_equiv_pos_as_xyz
  1  'x, y, z'
loop_
 _atom_site_type_symbol
 _atom_site_label
 _atom_site_symmetry_multiplicity
 _atom_site_fract_x
 _atom_site_fract_y
 _atom_site_fract_z
 _atom_site_occupancy
  Li  Li0  1  0.08947580  0.75000000  0.93463571  1
  Li  Li1  1  0.49832550  0.75000000  0.77122321  1
  Li  Li2  1  0.49999864  0.00000125  0.49999242  1
  Li  Li3  1  0.49999864  0.49999875  0.49999242  1
  Li  Li4  1  0.50166751  0.25000000  0.22876898  1
  Li  Li5  1  0.91051533  0.24999700  0.06536996  1
  Mn  Mn6  1  0.96523769  0.25000000  0.72221169  1
  Mn  Mn7  1  0.03481492  0.75000000  0.27781040  1
  P  P8  1  0.39302236  0.25000000  0.89978843  1
  P  P9  1  0.92934812  0.75000000  0.58650141  1
  P  P10  1  0.07063181  0.25000000  0.41350957  1
  P  P11  1  0.60698138  0.75000000  0.10020797  1
  O  O12  1  0.67962267  0.75000000  0.95299375  1
  O  O13  1  0.72166887  0.25000000  0.88086055  1
  O  O14  1  0.25865025  0.04020583  0.82949434  1
  O  O15  1  0.25865025  0.45979417  0.82949434  1
  O  O16  1  0.78478852  0.54162238  0.65632652  1
  O  O17  1  0.78478852  0.95837762  0.65632652  1
  O  O18  1  0.24553875  0.75000000  0.58460630  1
  O  O19  1  0.19522681  0.25000000  0.55691663  1
  O  O20  1  0.80478793  0.75000000  0.44308871  1
  O  O21  1  0.75447332  0.25000000  0.41540442  1
  O  O22  1  0.21522253  0.04163215  0.34367495  1
  O  O23  1  0.21522253  0.45836785  0.34367495  1
  O  O24  1  0.74132072  0.54018890  0.17049478  1
  O  O25  1  0.74132072  0.95981110  0.17049478  1
  O  O26  1  0.27832602  0.75000000  0.11913928  1
  O  O27  1  0.32036987  0.25000000  0.04700300  1
