# generated using pymatgen
data_Li9V3P8O29
_symmetry_space_group_name_H-M   'P 1'
_cell_length_a   9.90795480
_cell_length_b   9.93787882
_cell_length_c   13.70865316
_cell_angle_alpha   90.16542210
_cell_angle_beta   90.18423066
_cell_angle_gamma   59.96655312
_symmetry_Int_Tables_number   1
_chemical_formula_structural   Li9V3P8O29
_chemical_formula_sum   'Li18 V6 P16 O58'
_cell_volume   1168.56788132
_cell_formula_units_Z   2
loop_
 _symmetry_equiv_pos_site_id
 _symmetry_equiv_pos_as_xyz
  1  'x, y, z'
loop_
 _atom_site_type_symbol
 _atom_site_label
 _atom_site_symmetry_multiplicity
 _atom_site_fract_x
 _atom_site_fract_y
 _atom_site_fract_z
 _atom_site_occupancy
  Li  Li0  1  0.89401306  0.76466908  0.06487485  1
  Li  Li1  1  0.76695637  0.90187246  0.56254484  1
  Li  Li2  1  0.90162679  0.33074670  0.56151617  1
  Li  Li3  1  0.66186123  0.65492283  0.37672051  1
  Li  Li4  1  0.66696943  0.66686254  0.87958714  1
  Li  Li5  1  0.75999842  0.34196316  0.07188391  1
  Li  Li6  1  0.34062574  0.89266413  0.06516202  1
  Li  Li7  1  0.66006613  0.24152807  0.42625122  1
  Li  Li8  1  0.57808040  0.43663377  0.25595193  1
  Li  Li9  1  0.33084561  0.76657942  0.56155044  1
  Li  Li10  1  0.67664035  0.09415600  0.93510220  1
  Li  Li11  1  0.23042935  0.67595612  0.93510307  1
  Li  Li12  1  0.33299279  0.33312831  0.61875662  1
  Li  Li13  1  0.10237045  0.66580301  0.43404641  1
  Li  Li14  1  0.23282070  0.10052200  0.43428475  1
  Li  Li15  1  0.09485498  0.22987115  0.93498628  1
  Li  Li16  1  0.99919393  0.00044924  0.00008951  1
  Li  Li17  1  0.00176465  0.00067922  0.49390576  1
  V  V18  1  0.43586508  0.56583898  0.74906893  1
  V  V19  1  0.56647113  0.99858402  0.74924652  1
  V  V20  1  0.35316357  0.33187459  0.13146074  1
  V  V21  1  0.43431111  0.99426564  0.25302849  1
  V  V22  1  0.99664965  0.56678152  0.25248617  1
  V  V23  1  0.99859751  0.43508880  0.74926311  1
  P  P24  1  0.91036927  0.77321358  0.84478865  1
  P  P25  1  0.77153358  0.91226107  0.34555478  1
  P  P26  1  0.91063897  0.31672191  0.34637324  1
  P  P27  1  0.66961886  0.66626711  0.12228109  1
  P  P28  1  0.66693060  0.66682150  0.62240784  1
  P  P29  1  0.77407994  0.31564223  0.84517431  1
  P  P30  1  0.68421930  0.22613288  0.65492567  1
  P  P31  1  0.31662294  0.91018764  0.84463247  1
  P  P32  1  0.68497653  0.09098653  0.15323259  1
  P  P33  1  0.32045451  0.76982829  0.34717603  1
  P  P34  1  0.22118621  0.68610053  0.15499249  1
  P  P35  1  0.33282672  0.32889748  0.37530185  1
  P  P36  1  0.33387939  0.33328063  0.87852525  1
  P  P37  1  0.08948052  0.68327579  0.65554369  1
  P  P38  1  0.22611864  0.08955638  0.65558739  1
  P  P39  1  0.09475889  0.22349201  0.15443467  1
  O  O40  1  0.99607385  0.77129670  0.56622997  1
  O  O41  1  0.92099305  0.75395256  0.34527476  1
  O  O42  1  0.77151212  0.99097138  0.06562611  1
  O  O43  1  0.75032158  0.92208140  0.84389808  1
  O  O44  1  0.89060315  0.63007313  0.83416512  1
  O  O45  1  0.81254220  0.67787699  0.16371934  1
  O  O46  1  0.89201754  0.48069619  0.33549915  1
  O  O47  1  0.99741319  0.23285284  0.06577992  1
  O  O48  1  0.92229480  0.32823335  0.84412568  1
  O  O49  1  0.67572019  0.81061672  0.66238755  1
  O  O50  1  0.62789016  0.89189764  0.33628848  1
  O  O51  1  0.81070824  0.51379426  0.66193525  1
  O  O52  1  0.66680712  0.68260210  0.01204719  1
  O  O53  1  0.66780563  0.66772058  0.51263652  1
  O  O54  1  0.67844778  0.51713762  0.15731969  1
  O  O55  1  0.47976252  0.89055120  0.83389595  1
  O  O56  1  0.51666372  0.81230389  0.16324266  1
  O  O57  1  0.75603030  0.32338336  0.34577973  1
  O  O58  1  0.78599323  0.21345874  0.75046312  1
  O  O59  1  0.77338755  0.23006759  0.56609929  1
  O  O60  1  0.77417435  0.22415888  0.93430415  1
  O  O61  1  0.63023517  0.47891975  0.83507318  1
  O  O62  1  0.51388348  0.67525405  0.66152367  1
  O  O63  1  0.65721641  0.25428161  0.14661103  1
  O  O64  1  0.48170807  0.63090191  0.34067840  1
  O  O65  1  0.31999683  0.92517179  0.34380646  1
  O  O66  1  0.77936764  0.00400202  0.24923908  1
  O  O67  1  0.76983261  0.00678281  0.43367390  1
  O  O68  1  0.23084123  0.99604645  0.56645942  1
  O  O69  1  0.67192379  0.07824832  0.65513658  1
  O  O70  1  0.51958761  0.36956809  0.66738213  1
  O  O71  1  0.32839725  0.75001842  0.84380347  1
  O  O72  1  0.48099724  0.31687142  0.33360835  1
  O  O73  1  0.36298664  0.51825094  0.15903706  1
  O  O74  1  0.22591202  0.77610703  0.06633434  1
  O  O75  1  0.22007724  0.77565029  0.43378354  1
  O  O76  1  0.21888591  0.77740694  0.25031327  1
  O  O77  1  0.24974299  0.67184015  0.65528386  1
  O  O78  1  0.48619224  0.18812974  0.84442605  1
  O  O79  1  0.51500077  0.11183499  0.16416136  1
  O  O80  1  0.32656620  0.48542757  0.84467413  1
  O  O81  1  0.33276525  0.33268061  0.99250870  1
  O  O82  1  0.32253351  0.33236685  0.48555916  1
  O  O83  1  0.18708736  0.48349315  0.33499339  1
  O  O84  1  0.36973086  0.11030967  0.66819689  1
  O  O85  1  0.31719970  0.18749109  0.33504610  1
  O  O86  1  0.07283326  0.67427777  0.15494535  1
  O  O87  1  0.00065792  0.78576704  0.75047979  1
  O  O88  1  0.00263204  0.77199350  0.93431730  1
  O  O89  1  0.11061144  0.51940760  0.66824026  1
  O  O90  1  0.18861154  0.32610011  0.84391943  1
  O  O91  1  0.12736569  0.36331701  0.16193890  1
  O  O92  1  0.25367377  0.07445831  0.15227288  1
  O  O93  1  0.22632514  0.00162642  0.93438917  1
  O  O94  1  0.21285699  0.00085246  0.75057157  1
  O  O95  1  0.07763169  0.24939199  0.65556549  1
  O  O96  1  0.00979869  0.22714177  0.43431263  1
  O  O97  1  0.00600526  0.21877491  0.24921542  1
