# generated using pymatgen
data_V4O5F7
_symmetry_space_group_name_H-M   'P 1'
_cell_length_a   5.31613209
_cell_length_b   5.33823871
_cell_length_c   8.90390599
_cell_angle_alpha   75.33891788
_cell_angle_beta   90.00000000
_cell_angle_gamma   60.13689496
_symmetry_Int_Tables_number   1
_chemical_formula_structural   V4O5F7
_chemical_formula_sum   'V4 O5 F7'
_cell_volume   209.58997774
_cell_formula_units_Z   1
loop_
 _symmetry_equiv_pos_site_id
 _symmetry_equiv_pos_as_xyz
  1  'x, y, z'
loop_
 _atom_site_type_symbol
 _atom_site_label
 _atom_site_symmetry_multiplicity
 _atom_site_fract_x
 _atom_site_fract_y
 _atom_site_fract_z
 _atom_site_occupancy
  V  V0  1  0.73383151  0.51346764  0.25048463  1
  V  V1  1  0.49729815  0.98653236  0.49951537  1
  V  V2  1  0.29007035  0.50287707  0.73703402  1
  V  V3  1  0.04294741  0.99712293  0.01296598  1
  O  O4  1  0.95298233  0.23980698  0.12249613  1
  O  O5  1  0.55689614  0.75000000  0.37500000  1
  O  O6  1  0.40362189  0.75653501  0.07828442  1
  O  O7  1  0.41015591  0.74346499  0.67171558  1
  O  O8  1  0.44278931  0.26019302  0.62750387  1
  F  F9  1  0.92533390  0.74709055  0.59073355  1
  F  F10  1  0.92242445  0.75290945  0.15926645  1
  F  F11  1  0.57355677  0.25169014  0.32964821  1
  F  F12  1  0.56771448  0.25221880  0.91816906  1
  F  F13  1  0.03519823  0.75000000  0.87500000  1
  F  F14  1  0.06993328  0.24778120  0.83183094  1
  F  F15  1  0.07524691  0.24830986  0.42035179  1
