# generated using pymatgen
data_Li3Fe4(BO3)4
_symmetry_space_group_name_H-M   'P 1'
_cell_length_a   5.26669266
_cell_length_b   9.00577152
_cell_length_c   10.27240695
_cell_angle_alpha   90.00000074
_cell_angle_beta   91.81741188
_cell_angle_gamma   90.00000295
_symmetry_Int_Tables_number   1
_chemical_formula_structural   Li3Fe4(BO3)4
_chemical_formula_sum   'Li6 Fe8 B8 O24'
_cell_volume   486.98165001
_cell_formula_units_Z   2
loop_
 _symmetry_equiv_pos_site_id
 _symmetry_equiv_pos_as_xyz
  1  'x, y, z'
loop_
 _atom_site_type_symbol
 _atom_site_label
 _atom_site_symmetry_multiplicity
 _atom_site_fract_x
 _atom_site_fract_y
 _atom_site_fract_z
 _atom_site_occupancy
  Li  Li0  1  0.34328339  0.01153897  0.83695301  1
  Li  Li1  1  0.66332512  0.00534866  0.08322657  1
  Li  Li2  1  0.14933936  0.49550232  0.57933748  1
  Li  Li3  1  0.14933936  0.50449768  0.07933748  1
  Li  Li4  1  0.34328339  0.98846103  0.33695301  1
  Li  Li5  1  0.66332512  0.99465134  0.58322657  1
  Fe  Fe6  1  0.16228429  0.16325044  0.11338946  1
  Fe  Fe7  1  0.84777158  0.17900950  0.36154677  1
  Fe  Fe8  1  0.33539463  0.34819343  0.86815763  1
  Fe  Fe9  1  0.66352972  0.33192279  0.62744058  1
  Fe  Fe10  1  0.33539463  0.65180657  0.36815763  1
  Fe  Fe11  1  0.16228429  0.83674956  0.61338946  1
  Fe  Fe12  1  0.66352972  0.66807721  0.12744058  1
  Fe  Fe13  1  0.84777158  0.82099050  0.86154677  1
  B  B14  1  0.16923235  0.17148044  0.62765071  1
  B  B15  1  0.33236857  0.32187575  0.38165140  1
  B  B16  1  0.83181044  0.16009742  0.86888614  1
  B  B17  1  0.65680070  0.33798719  0.11834327  1
  B  B18  1  0.33236857  0.67812425  0.88165140  1
  B  B19  1  0.65680070  0.66201281  0.61834327  1
  B  B20  1  0.16923235  0.82851956  0.12765071  1
  B  B21  1  0.83181044  0.83990258  0.36888614  1
  O  O22  1  0.30947877  0.04207437  0.63541620  1
  O  O23  1  0.09211661  0.16551093  0.90024050  1
  O  O24  1  0.69542637  0.03158824  0.88948376  1
  O  O25  1  0.22173756  0.19229947  0.32929603  1
  O  O26  1  0.28771821  0.30831229  0.65342906  1
  O  O27  1  0.77611560  0.20322769  0.15033376  1
  O  O28  1  0.91177388  0.16906818  0.59435532  1
  O  O29  1  0.40084886  0.33931276  0.08118564  1
  O  O30  1  0.19863162  0.45064119  0.38577625  1
  O  O31  1  0.57897779  0.31084705  0.43507824  1
  O  O32  1  0.70364576  0.28509536  0.81892349  1
  O  O33  1  0.19863162  0.54935881  0.88577625  1
  O  O34  1  0.79307381  0.46913990  0.12357372  1
  O  O35  1  0.28771821  0.69168771  0.15342906  1
  O  O36  1  0.40084886  0.66068724  0.58118564  1
  O  O37  1  0.79307381  0.53086010  0.62357372  1
  O  O38  1  0.57897779  0.68915295  0.93507824  1
  O  O39  1  0.09211661  0.83448907  0.40024050  1
  O  O40  1  0.22173756  0.80770053  0.82929603  1
  O  O41  1  0.70364576  0.71490464  0.31892349  1
  O  O42  1  0.77611560  0.79677231  0.65033376  1
  O  O43  1  0.30947877  0.95792563  0.13541620  1
  O  O44  1  0.91177388  0.83093182  0.09435532  1
  O  O45  1  0.69542637  0.96841176  0.38948376  1
