# generated using pymatgen
data_VOF3
_symmetry_space_group_name_H-M   'P 1'
_cell_length_a   7.31155062
_cell_length_b   8.57537351
_cell_length_c   5.33459576
_cell_angle_alpha   90.00000000
_cell_angle_beta   90.00000000
_cell_angle_gamma   90.00000000
_symmetry_Int_Tables_number   1
_chemical_formula_structural   VOF3
_chemical_formula_sum   'V4 O4 F12'
_cell_volume   334.47529993
_cell_formula_units_Z   4
loop_
 _symmetry_equiv_pos_site_id
 _symmetry_equiv_pos_as_xyz
  1  'x, y, z'
loop_
 _atom_site_type_symbol
 _atom_site_label
 _atom_site_symmetry_multiplicity
 _atom_site_fract_x
 _atom_site_fract_y
 _atom_site_fract_z
 _atom_site_occupancy
  V  V0  1  0.00338498  0.95715757  0.97268919  1
  V  V1  1  0.49661502  0.45715757  0.97268919  1
  V  V2  1  0.50338498  0.95715757  0.02731081  1
  V  V3  1  0.99661502  0.45715757  0.02731081  1
  O  O4  1  0.02318826  0.28378394  0.13170979  1
  O  O5  1  0.47681174  0.78378394  0.13170979  1
  O  O6  1  0.52318826  0.28378394  0.86829021  1
  O  O7  1  0.97681174  0.78378394  0.86829021  1
  F  F8  1  0.04458672  0.58818149  0.27424635  1
  F  F9  1  0.09213327  0.94457032  0.28060895  1
  F  F10  1  0.23462578  0.49164369  0.88038262  1
  F  F11  1  0.26537422  0.99164369  0.88038262  1
  F  F12  1  0.40786673  0.44457032  0.28060895  1
  F  F13  1  0.45541328  0.08818149  0.27424635  1
  F  F14  1  0.54458672  0.58818149  0.72575365  1
  F  F15  1  0.59213327  0.94457032  0.71939105  1
  F  F16  1  0.73462578  0.49164369  0.11961738  1
  F  F17  1  0.76537422  0.99164369  0.11961738  1
  F  F18  1  0.90786673  0.44457032  0.71939105  1
  F  F19  1  0.95541328  0.08818149  0.72575365  1
