# generated using pymatgen
data_Li3Fe4(BO3)4
_symmetry_space_group_name_H-M   'P 1'
_cell_length_a   5.24471855
_cell_length_b   9.01189844
_cell_length_c   11.39454495
_cell_angle_alpha   67.33460661
_cell_angle_beta   77.22846025
_cell_angle_gamma   89.66994885
_symmetry_Int_Tables_number   1
_chemical_formula_structural   Li3Fe4(BO3)4
_chemical_formula_sum   'Li6 Fe8 B8 O24'
_cell_volume   482.78241097
_cell_formula_units_Z   2
loop_
 _symmetry_equiv_pos_site_id
 _symmetry_equiv_pos_as_xyz
  1  'x, y, z'
loop_
 _atom_site_type_symbol
 _atom_site_label
 _atom_site_symmetry_multiplicity
 _atom_site_fract_x
 _atom_site_fract_y
 _atom_site_fract_z
 _atom_site_occupancy
  Li  Li0  1  0.97037576  0.96237107  0.41473201  1
  Li  Li1  1  0.70739213  0.72332936  0.90316025  1
  Li  Li2  1  0.51599350  0.48999682  0.66635168  1
  Li  Li3  1  0.74020508  0.75998391  0.15915946  1
  Li  Li4  1  0.47169983  0.46182320  0.41085158  1
  Li  Li5  1  0.23063036  0.25441543  0.16283185  1
  Fe  Fe6  1  0.98645846  0.64703800  0.37976931  1
  Fe  Fe7  1  0.73710716  0.06954515  0.88035547  1
  Fe  Fe8  1  0.50598809  0.84961773  0.63173092  1
  Fe  Fe9  1  0.75496366  0.43267458  0.13143222  1
  Fe  Fe10  1  0.22546986  0.54649855  0.88784336  1
  Fe  Fe11  1  0.47322946  0.15001768  0.38104445  1
  Fe  Fe12  1  0.03532255  0.33650662  0.63453187  1
  Fe  Fe13  1  0.25475354  0.94326718  0.12362045  1
  B  B14  1  0.98009227  0.31394665  0.37518463  1
  B  B15  1  0.73463410  0.39993094  0.87406604  1
  B  B16  1  0.53479756  0.18642309  0.62995304  1
  B  B17  1  0.76183682  0.10608484  0.12782195  1
  B  B18  1  0.47437635  0.81020931  0.38163400  1
  B  B19  1  0.23587581  0.89461162  0.87609952  1
  B  B20  1  0.01001258  0.68186323  0.62645061  1
  B  B21  1  0.26724201  0.60706868  0.12641790  1
  O  O22  1  0.97037456  0.89803305  0.88379265  1
  O  O23  1  0.88700125  0.28114980  0.85089457  1
  O  O24  1  0.83531210  0.50972381  0.91493171  1
  O  O25  1  0.87053206  0.81355697  0.62388249  1
  O  O26  1  0.90554227  0.56345354  0.59723131  1
  O  O27  1  0.74682423  0.15665197  0.68708142  1
  O  O28  1  0.73642240  0.34253312  0.34377909  1
  O  O29  1  0.48842644  0.40813836  0.85350065  1
  O  O30  1  0.38241249  0.78812736  0.82992040  1
  O  O31  1  0.58417410  0.91287345  0.42832518  1
  O  O32  1  0.60701150  0.68713469  0.36165768  1
  O  O33  1  0.36739447  0.98949535  0.91842269  1
  O  O34  1  0.66148979  0.99714097  0.08419325  1
  O  O35  1  0.42142211  0.33019277  0.60666637  1
  O  O36  1  0.44224826  0.07367439  0.59012213  1
  O  O37  1  0.59554538  0.21038301  0.16466733  1
  O  O38  1  0.53563303  0.62625231  0.11073423  1
  O  O39  1  0.25859903  0.66986604  0.65514524  1
  O  O40  1  0.23016009  0.83854050  0.35144176  1
  O  O41  1  0.09384169  0.41619040  0.41796992  1
  O  O42  1  0.10610118  0.18427248  0.36254827  1
  O  O43  1  0.15891235  0.48829459  0.09663263  1
  O  O44  1  0.10495134  0.70981208  0.16680362  1
  O  O45  1  0.01548394  0.10661736  0.13765383  1
