# generated using pymatgen
data_Li3Fe4(BO3)4
_symmetry_space_group_name_H-M   'P 1'
_cell_length_a   5.25119450
_cell_length_b   9.05982668
_cell_length_c   10.19564154
_cell_angle_alpha   89.85560322
_cell_angle_beta   91.55704166
_cell_angle_gamma   89.61375509
_symmetry_Int_Tables_number   1
_chemical_formula_structural   Li3Fe4(BO3)4
_chemical_formula_sum   'Li6 Fe8 B8 O24'
_cell_volume   484.86486049
_cell_formula_units_Z   2
loop_
 _symmetry_equiv_pos_site_id
 _symmetry_equiv_pos_as_xyz
  1  'x, y, z'
loop_
 _atom_site_type_symbol
 _atom_site_label
 _atom_site_symmetry_multiplicity
 _atom_site_fract_x
 _atom_site_fract_y
 _atom_site_fract_z
 _atom_site_occupancy
  Li  Li0  1  0.33446696  0.00650885  0.84191801  1
  Li  Li1  1  0.66200074  0.00652086  0.09042363  1
  Li  Li2  1  0.16093155  0.50325304  0.09502218  1
  Li  Li3  1  0.84414555  0.48856179  0.33705601  1
  Li  Li4  1  0.84182428  0.51225432  0.83416268  1
  Li  Li5  1  0.64828063  0.98895499  0.58121865  1
  Fe  Fe6  1  0.17277830  0.15868915  0.12626158  1
  Fe  Fe7  1  0.84179948  0.15324398  0.36488226  1
  Fe  Fe8  1  0.33138039  0.33908437  0.86997857  1
  Fe  Fe9  1  0.65818937  0.33429900  0.61707536  1
  Fe  Fe10  1  0.33876333  0.67347987  0.36899415  1
  Fe  Fe11  1  0.15540416  0.82954356  0.61891033  1
  Fe  Fe12  1  0.65841193  0.66438233  0.11493317  1
  Fe  Fe13  1  0.83786081  0.84160999  0.87200423  1
  B  B14  1  0.16898618  0.16646670  0.62375445  1
  B  B15  1  0.33522937  0.34072633  0.37266622  1
  B  B16  1  0.83473398  0.17094056  0.86864541  1
  B  B17  1  0.66310262  0.33081123  0.12358501  1
  B  B18  1  0.33367956  0.66878019  0.87508432  1
  B  B19  1  0.65767167  0.66859896  0.62086161  1
  B  B20  1  0.16380604  0.83456299  0.12272155  1
  B  B21  1  0.82450943  0.82562332  0.37398280  1
  O  O22  1  0.29514851  0.03425474  0.63716480  1
  O  O23  1  0.09339488  0.16515702  0.90050792  1
  O  O24  1  0.68757927  0.04631958  0.88347162  1
  O  O25  1  0.20813848  0.21505155  0.33737398  1
  O  O26  1  0.30008407  0.29751431  0.65074122  1
  O  O27  1  0.78121301  0.19576847  0.15305557  1
  O  O28  1  0.90642850  0.17196992  0.59017514  1
  O  O29  1  0.40768442  0.33637171  0.08339023  1
  O  O30  1  0.21335795  0.47609787  0.35960511  1
  O  O31  1  0.59635616  0.33620794  0.41655535  1
  O  O32  1  0.72045179  0.30472331  0.82506296  1
  O  O33  1  0.18704725  0.54337453  0.89223948  1
  O  O34  1  0.80296595  0.45957572  0.13726331  1
  O  O35  1  0.27460587  0.69900054  0.16485713  1
  O  O36  1  0.41786526  0.67792281  0.56262044  1
  O  O37  1  0.77374582  0.53226757  0.64267705  1
  O  O38  1  0.59524740  0.66251843  0.90512376  1
  O  O39  1  0.08121929  0.81685944  0.40769477  1
  O  O40  1  0.21991368  0.80003984  0.83354406  1
  O  O41  1  0.70344406  0.69403829  0.33246749  1
  O  O42  1  0.77935835  0.79746472  0.65979440  1
  O  O43  1  0.31340687  0.95662085  0.11249831  1
  O  O44  1  0.90541771  0.83806175  0.08720992  1
  O  O45  1  0.69379711  0.95470169  0.38771982  1
