# generated using pymatgen
data_HoZn(CoO3)2
_symmetry_space_group_name_H-M   'P 1'
_cell_length_a   5.15560472
_cell_length_b   5.47485165
_cell_length_c   7.48810893
_cell_angle_alpha   90.03200863
_cell_angle_beta   88.53161996
_cell_angle_gamma   89.93252366
_symmetry_Int_Tables_number   1
_chemical_formula_structural   HoZn(CoO3)2
_chemical_formula_sum   'Ho2 Zn2 Co4 O12'
_cell_volume   211.29105300
_cell_formula_units_Z   2
loop_
 _symmetry_equiv_pos_site_id
 _symmetry_equiv_pos_as_xyz
  1  'x, y, z'
loop_
 _atom_site_type_symbol
 _atom_site_label
 _atom_site_symmetry_multiplicity
 _atom_site_fract_x
 _atom_site_fract_y
 _atom_site_fract_z
 _atom_site_occupancy
  Ho  Ho0  1  0.02021800  0.92250626  0.75276608  1
  Ho  Ho1  1  0.51968216  0.57725422  0.25272086  1
  Zn  Zn2  1  0.48525092  0.45448278  0.74826131  1
  Zn  Zn3  1  0.98444215  0.04562618  0.24829463  1
  Co  Co4  1  0.00118580  0.48700785  0.00118300  1
  Co  Co5  1  0.99990603  0.48550770  0.49906965  1
  Co  Co6  1  0.50117735  0.01281281  0.50111028  1
  Co  Co7  1  0.49979922  0.01448344  0.99904639  1
  O  O8  1  0.10797345  0.44974502  0.26099406  1
  O  O9  1  0.19856539  0.19451740  0.93847958  1
  O  O10  1  0.20870151  0.18694218  0.56064104  1
  O  O11  1  0.30108243  0.67824484  0.94087763  1
  O  O12  1  0.30993514  0.68267926  0.55892870  1
  O  O13  1  0.36873053  0.96961912  0.23909780  1
  O  O14  1  0.60822331  0.05075031  0.76089581  1
  O  O15  1  0.69798458  0.30430821  0.43824905  1
  O  O16  1  0.70833193  0.31339684  0.06069073  1
  O  O17  1  0.80905639  0.81817025  0.05882058  1
  O  O18  1  0.80053402  0.82132651  0.44086430  1
  O  O19  1  0.86921970  0.53061783  0.73900951  1
