# generated using pymatgen
data_Li3MnF6
_symmetry_space_group_name_H-M   'P 1'
_cell_length_a   5.11999959
_cell_length_b   5.21428785
_cell_length_c   7.79390638
_cell_angle_alpha   90.00000000
_cell_angle_beta   87.88930122
_cell_angle_gamma   90.00000000
_symmetry_Int_Tables_number   1
_chemical_formula_structural   Li3MnF6
_chemical_formula_sum   'Li6 Mn2 F12'
_cell_volume   207.93392870
_cell_formula_units_Z   2
loop_
 _symmetry_equiv_pos_site_id
 _symmetry_equiv_pos_as_xyz
  1  'x, y, z'
loop_
 _atom_site_type_symbol
 _atom_site_label
 _atom_site_symmetry_multiplicity
 _atom_site_fract_x
 _atom_site_fract_y
 _atom_site_fract_z
 _atom_site_occupancy
  Li  Li0  1  0.00000000  0.00000000  0.50000000  1
  Li  Li1  1  0.98220408  0.53744806  0.74984471  1
  Li  Li2  1  0.50000000  0.50000000  0.00000000  1
  Li  Li3  1  0.51779592  0.03744806  0.75015529  1
  Li  Li4  1  0.48220408  0.96255194  0.24984471  1
  Li  Li5  1  0.01779592  0.46255194  0.25015529  1
  Mn  Mn6  1  0.00000000  0.00000000  0.00000000  1
  Mn  Mn7  1  0.50000000  0.50000000  0.50000000  1
  F  F8  1  0.13123088  0.09488914  0.24978347  1
  F  F9  1  0.15274738  0.31312015  0.92713119  1
  F  F10  1  0.18219539  0.33324109  0.57026246  1
  F  F11  1  0.31780461  0.83324109  0.92973754  1
  F  F12  1  0.34725262  0.81312015  0.57286881  1
  F  F13  1  0.36876912  0.59488914  0.25021653  1
  F  F14  1  0.63123088  0.40511086  0.74978347  1
  F  F15  1  0.65274738  0.18687985  0.42713119  1
  F  F16  1  0.68219539  0.16675891  0.07026246  1
  F  F17  1  0.81780461  0.66675891  0.42973754  1
  F  F18  1  0.84725262  0.68687985  0.07286881  1
  F  F19  1  0.86876912  0.90511086  0.75021653  1
