# generated using pymatgen
data_Mg(VS2)4
_symmetry_space_group_name_H-M   'P 1'
_cell_length_a   6.99424814
_cell_length_b   6.88340330
_cell_length_c   6.88340401
_cell_angle_alpha   60.00000099
_cell_angle_beta   60.52287419
_cell_angle_gamma   60.52286861
_symmetry_Int_Tables_number   1
_chemical_formula_structural   Mg(VS2)4
_chemical_formula_sum   'Mg1 V4 S8'
_cell_volume   236.16742716
_cell_formula_units_Z   1
loop_
 _symmetry_equiv_pos_site_id
 _symmetry_equiv_pos_as_xyz
  1  'x, y, z'
loop_
 _atom_site_type_symbol
 _atom_site_label
 _atom_site_symmetry_multiplicity
 _atom_site_fract_x
 _atom_site_fract_y
 _atom_site_fract_z
 _atom_site_occupancy
  Mg  Mg0  1  0.50000000  0.00000000  0.00000000  1
  V  V1  1  0.00000000  0.50000000  0.50000000  1
  V  V2  1  0.50000000  0.50000000  0.00000000  1
  V  V3  1  0.50000000  0.50000000  0.50000000  1
  V  V4  1  0.50000000  0.00000000  0.50000000  1
  S  S5  1  0.25182712  0.25552761  0.25552761  1
  S  S6  1  0.25182712  0.25552761  0.73711766  1
  S  S7  1  0.25182712  0.73711766  0.25552761  1
  S  S8  1  0.73385501  0.25538133  0.25538133  1
  S  S9  1  0.26614499  0.74461867  0.74461867  1
  S  S10  1  0.74817288  0.74447239  0.26288234  1
  S  S11  1  0.74817288  0.26288234  0.74447239  1
  S  S12  1  0.74817288  0.74447239  0.74447239  1
