# generated using pymatgen
data_Li3MnFeCo(PO4)3
_symmetry_space_group_name_H-M   'P 1'
_cell_length_a   10.43142368
_cell_length_b   6.08900989
_cell_length_c   14.29127276
_cell_angle_alpha   90.00000000
_cell_angle_beta   89.93187326
_cell_angle_gamma   90.00000000
_symmetry_Int_Tables_number   1
_chemical_formula_structural   Li3MnFeCo(PO4)3
_chemical_formula_sum   'Li12 Mn4 Fe4 Co4 P12 O48'
_cell_volume   907.73872959
_cell_formula_units_Z   4
loop_
 _symmetry_equiv_pos_site_id
 _symmetry_equiv_pos_as_xyz
  1  'x, y, z'
loop_
 _atom_site_type_symbol
 _atom_site_label
 _atom_site_symmetry_multiplicity
 _atom_site_fract_x
 _atom_site_fract_y
 _atom_site_fract_z
 _atom_site_occupancy
  Li  Li0  1  0.99750585  0.49795654  0.66699829  1
  Li  Li1  1  0.99955100  0.00167772  0.99855437  1
  Li  Li2  1  0.99955100  0.49832228  0.99855437  1
  Li  Li3  1  0.99727735  0.00036087  0.33377846  1
  Li  Li4  1  0.99727735  0.49963913  0.33377846  1
  Li  Li5  1  0.99750585  0.00204346  0.66699829  1
  Li  Li6  1  0.50263330  0.00048813  0.50084916  1
  Li  Li7  1  0.50263330  0.49951187  0.50084916  1
  Li  Li8  1  0.50207211  0.00031222  0.16677865  1
  Li  Li9  1  0.50207211  0.49968778  0.16677865  1
  Li  Li10  1  0.50132038  0.00052782  0.83296000  1
  Li  Li11  1  0.50132038  0.49947218  0.83296000  1
  Mn  Mn12  1  0.21855935  0.75000000  0.15939647  1
  Mn  Mn13  1  0.21830300  0.75000000  0.49377774  1
  Mn  Mn14  1  0.28091062  0.25000000  0.32648521  1
  Mn  Mn15  1  0.71911179  0.75000000  0.00637080  1
  Fe  Fe16  1  0.21844833  0.75000000  0.82392374  1
  Fe  Fe17  1  0.28137173  0.25000000  0.65981315  1
  Fe  Fe18  1  0.28016825  0.25000000  0.99093608  1
  Fe  Fe19  1  0.72010018  0.75000000  0.34153203  1
  Co  Co20  1  0.72321657  0.75000000  0.67100538  1
  Co  Co21  1  0.77876674  0.25000000  0.83870429  1
  Co  Co22  1  0.77959984  0.25000000  0.50609117  1
  Co  Co23  1  0.78082886  0.25000000  0.17217218  1
  P  P24  1  0.09461164  0.25000000  0.80603387  1
  P  P25  1  0.09166138  0.25000000  0.13755623  1
  P  P26  1  0.09078745  0.25000000  0.47325710  1
  P  P27  1  0.40948378  0.75000000  0.30571180  1
  P  P28  1  0.40687451  0.75000000  0.64151208  1
  P  P29  1  0.40430859  0.75000000  0.97178987  1
  P  P30  1  0.59726863  0.25000000  0.36070477  1
  P  P31  1  0.59445318  0.25000000  0.02820367  1
  P  P32  1  0.59684782  0.25000000  0.69444760  1
  P  P33  1  0.90732197  0.75000000  0.85859908  1
  P  P34  1  0.90388919  0.75000000  0.19492687  1
  P  P35  1  0.90234359  0.75000000  0.52830752  1
  O  O36  1  0.04110705  0.75000000  0.23785187  1
  O  O37  1  0.03996316  0.75000000  0.56993480  1
  O  O38  1  0.04643336  0.75000000  0.89852065  1
  O  O39  1  0.09679726  0.25000000  0.58076833  1
  O  O40  1  0.09769867  0.25000000  0.91350945  1
  O  O41  1  0.09589111  0.25000000  0.24527438  1
  O  O42  1  0.16205064  0.04786706  0.09264692  1
  O  O43  1  0.16205064  0.45213294  0.09264692  1
  O  O44  1  0.16029731  0.04765170  0.42764196  1
  O  O45  1  0.16029731  0.45234830  0.42764196  1
  O  O46  1  0.16581852  0.04702934  0.76135093  1
  O  O47  1  0.16581852  0.45297066  0.76135093  1
  O  O48  1  0.33683655  0.54699283  0.59647724  1
  O  O49  1  0.33683655  0.95300717  0.59647724  1
  O  O50  1  0.33927011  0.54749208  0.26107481  1
  O  O51  1  0.33927011  0.95250792  0.26107481  1
  O  O52  1  0.33257815  0.54735116  0.92822135  1
  O  O53  1  0.33257815  0.95264884  0.92822135  1
  O  O54  1  0.40543284  0.75000000  0.41352959  1
  O  O55  1  0.40423934  0.75000000  0.07946388  1
  O  O56  1  0.39989895  0.75000000  0.74909860  1
  O  O57  1  0.45994506  0.25000000  0.40331995  1
  O  O58  1  0.45554517  0.25000000  0.06768152  1
  O  O59  1  0.45791725  0.25000000  0.73457909  1
  O  O60  1  0.54760238  0.75000000  0.26476811  1
  O  O61  1  0.54185431  0.75000000  0.92930031  1
  O  O62  1  0.54608561  0.75000000  0.60109817  1
  O  O63  1  0.59948531  0.25000000  0.25314385  1
  O  O64  1  0.60031353  0.25000000  0.92029080  1
  O  O65  1  0.60074244  0.25000000  0.58660859  1
  O  O66  1  0.66457177  0.04855692  0.07419476  1
  O  O67  1  0.66863886  0.04794117  0.40580786  1
  O  O68  1  0.66667335  0.04658016  0.74003986  1
  O  O69  1  0.66667335  0.45341984  0.74003986  1
  O  O70  1  0.66457177  0.45144308  0.07419476  1
  O  O71  1  0.66863886  0.45205883  0.40580786  1
  O  O72  1  0.83787544  0.54553109  0.90327860  1
  O  O73  1  0.83787544  0.95446891  0.90327860  1
  O  O74  1  0.83275352  0.54543535  0.23858697  1
  O  O75  1  0.83088250  0.54621898  0.57295842  1
  O  O76  1  0.83275352  0.95456465  0.23858697  1
  O  O77  1  0.83088250  0.95378102  0.57295842  1
  O  O78  1  0.90187457  0.75000000  0.75066751  1
  O  O79  1  0.90102801  0.75000000  0.42080143  1
  O  O80  1  0.90385194  0.75000000  0.08721996  1
  O  O81  1  0.95578398  0.25000000  0.76543892  1
  O  O82  1  0.95251973  0.25000000  0.09770688  1
  O  O83  1  0.95153957  0.25000000  0.43376945  1
