# generated using pymatgen
data_V6O7F5
_symmetry_space_group_name_H-M   'P 1'
_cell_length_a   4.68149445
_cell_length_b   7.80288063
_cell_length_c   5.61602092
_cell_angle_alpha   93.61463902
_cell_angle_beta   88.94065167
_cell_angle_gamma   90.53736857
_symmetry_Int_Tables_number   1
_chemical_formula_structural   V6O7F5
_chemical_formula_sum   'V6 O7 F5'
_cell_volume   204.69838790
_cell_formula_units_Z   1
loop_
 _symmetry_equiv_pos_site_id
 _symmetry_equiv_pos_as_xyz
  1  'x, y, z'
loop_
 _atom_site_type_symbol
 _atom_site_label
 _atom_site_symmetry_multiplicity
 _atom_site_fract_x
 _atom_site_fract_y
 _atom_site_fract_z
 _atom_site_occupancy
  V  V0  1  0.52240769  0.66577554  0.16248513  1
  V  V1  1  0.46591314  0.01413000  0.47902556  1
  V  V2  1  0.52451429  0.33778562  0.82395140  1
  V  V3  1  0.99571681  0.67792249  0.67840730  1
  V  V4  1  0.97035502  0.32808154  0.34467003  1
  V  V5  1  0.01301784  0.98389471  0.01237242  1
  O  O6  1  0.80887737  0.44429197  0.63065593  1
  O  O7  1  0.78483378  0.08966501  0.30063926  1
  O  O8  1  0.80601183  0.76190021  0.96590912  1
  O  O9  1  0.69145254  0.43030538  0.12967611  1
  O  O10  1  0.30321576  0.23343735  0.53258111  1
  O  O11  1  0.30423485  0.89374875  0.20736687  1
  O  O12  1  0.21031273  0.90206774  0.69554078  1
  F  F13  1  0.70789406  0.09822463  0.79590876  1
  F  F14  1  0.69314967  0.77296540  0.47040777  1
  F  F15  1  0.30460449  0.56613656  0.86896891  1
  F  F16  1  0.19842650  0.22917287  0.03271075  1
  F  F17  1  0.19506360  0.57049522  0.36872378  1
