# generated using pymatgen
data_Li4V3Co3(SbO8)2
_symmetry_space_group_name_H-M   'P 1'
_cell_length_a   6.00051281
_cell_length_b   5.95888805
_cell_length_c   9.74585351
_cell_angle_alpha   89.80577833
_cell_angle_beta   89.27312363
_cell_angle_gamma   119.70629534
_symmetry_Int_Tables_number   1
_chemical_formula_structural   Li4V3Co3(SbO8)2
_chemical_formula_sum   'Li4 V3 Co3 Sb2 O16'
_cell_volume   302.63553956
_cell_formula_units_Z   1
loop_
 _symmetry_equiv_pos_site_id
 _symmetry_equiv_pos_as_xyz
  1  'x, y, z'
loop_
 _atom_site_type_symbol
 _atom_site_label
 _atom_site_symmetry_multiplicity
 _atom_site_fract_x
 _atom_site_fract_y
 _atom_site_fract_z
 _atom_site_occupancy
  Li  Li0  1  0.33702104  0.67032720  0.90649366  1
  Li  Li1  1  0.99438920  0.99639782  0.99592755  1
  Li  Li2  1  0.99933472  0.00477966  0.48404124  1
  Li  Li3  1  0.67792122  0.33867820  0.39712345  1
  V  V4  1  0.64846351  0.82388984  0.22194380  1
  V  V5  1  0.81617248  0.65530005  0.71019610  1
  V  V6  1  0.82883372  0.17169724  0.72185608  1
  Co  Co7  1  0.17237961  0.82945860  0.21074017  1
  Co  Co8  1  0.17350547  0.34265824  0.21110519  1
  Co  Co9  1  0.34149458  0.17102033  0.70830555  1
  Sb  Sb10  1  0.31951828  0.65727142  0.48565113  1
  Sb  Sb11  1  0.66216287  0.32968589  0.99414462  1
  O  O12  1  0.14667752  0.82080978  0.60020880  1
  O  O13  1  0.03812399  0.51869749  0.35012669  1
  O  O14  1  0.37262073  0.68723878  0.10585265  1
  O  O15  1  0.97213856  0.98454857  0.29694131  1
  O  O16  1  0.97896960  0.99680509  0.80297096  1
  O  O17  1  0.16031521  0.32703953  0.59703767  1
  O  O18  1  0.49619313  0.96766545  0.35518796  1
  O  O19  1  0.49631309  0.52727780  0.35411758  1
  O  O20  1  0.32284010  0.16305640  0.08442362  1
  O  O21  1  0.66059194  0.82695239  0.60395414  1
  O  O22  1  0.54122888  0.50233105  0.83778835  1
  O  O23  1  0.52823941  0.04306143  0.84255586  1
  O  O24  1  0.70127569  0.34048651  0.60633125  1
  O  O25  1  0.82501213  0.66217151  0.09085723  1
  O  O26  1  0.96164550  0.47859903  0.84000664  1
  O  O27  1  0.82661679  0.16239569  0.09195275  1
