# generated using pymatgen
data_Li3Fe4(BO3)4
_symmetry_space_group_name_H-M   'P 1'
_cell_length_a   5.25037974
_cell_length_b   9.03181688
_cell_length_c   10.21909640
_cell_angle_alpha   90.92234751
_cell_angle_beta   90.80071773
_cell_angle_gamma   89.65053157
_symmetry_Int_Tables_number   1
_chemical_formula_structural   Li3Fe4(BO3)4
_chemical_formula_sum   'Li6 Fe8 B8 O24'
_cell_volume   484.47587048
_cell_formula_units_Z   2
loop_
 _symmetry_equiv_pos_site_id
 _symmetry_equiv_pos_as_xyz
  1  'x, y, z'
loop_
 _atom_site_type_symbol
 _atom_site_label
 _atom_site_symmetry_multiplicity
 _atom_site_fract_x
 _atom_site_fract_y
 _atom_site_fract_z
 _atom_site_occupancy
  Li  Li0  1  0.81925120  0.83801169  0.15752918  1
  Li  Li1  1  0.68193324  0.67180734  0.42104230  1
  Li  Li2  1  0.66024961  0.67473310  0.90449975  1
  Li  Li3  1  0.34848232  0.32264604  0.66561845  1
  Li  Li4  1  0.31312899  0.33657439  0.16296118  1
  Li  Li5  1  0.17511613  0.16601851  0.40377681  1
  Fe  Fe6  1  0.85312118  0.15342435  0.63390086  1
  Fe  Fe7  1  0.81738017  0.49999875  0.13300015  1
  Fe  Fe8  1  0.67666442  0.01024378  0.88041901  1
  Fe  Fe9  1  0.66330025  0.33310520  0.38419582  1
  Fe  Fe10  1  0.32112019  0.66660042  0.63182408  1
  Fe  Fe11  1  0.31803430  0.00555831  0.12423959  1
  Fe  Fe12  1  0.16610383  0.84134587  0.37829859  1
  Fe  Fe13  1  0.16467622  0.49182998  0.88838710  1
  B  B14  1  0.82319003  0.49464240  0.62636734  1
  B  B15  1  0.82673336  0.17072831  0.12844328  1
  B  B16  1  0.66778363  0.00072417  0.37431056  1
  B  B17  1  0.67159511  0.33632253  0.87372061  1
  B  B18  1  0.34982454  0.00172512  0.62938273  1
  B  B19  1  0.32905775  0.66918595  0.12631260  1
  B  B20  1  0.16386211  0.50379655  0.38165046  1
  B  B21  1  0.17366260  0.83300881  0.87668032  1
  O  O22  1  0.90644940  0.51564459  0.35085409  1
  O  O23  1  0.91257495  0.84035041  0.88432124  1
  O  O24  1  0.81225516  0.20648343  0.85043839  1
  O  O25  1  0.80345943  0.12381280  0.41826806  1
  O  O26  1  0.78851071  0.86529939  0.35852733  1
  O  O27  1  0.79537945  0.46596242  0.91542765  1
  O  O28  1  0.68131281  0.62432600  0.62404924  1
  O  O29  1  0.70569615  0.03994894  0.08341606  1
  O  O30  1  0.70563518  0.36205403  0.59713511  1
  O  O31  1  0.67861102  0.29235677  0.16560248  1
  O  O32  1  0.59059810  0.67879842  0.11040344  1
  O  O33  1  0.58975682  0.00028513  0.68705235  1
  O  O34  1  0.41079825  0.01312903  0.34254648  1
  O  O35  1  0.41699614  0.33620451  0.85204402  1
  O  O36  1  0.29779476  0.70297177  0.83059656  1
  O  O37  1  0.29852374  0.62891534  0.42778881  1
  O  O38  1  0.28935940  0.37068967  0.36554903  1
  O  O39  1  0.32665018  0.94833607  0.91919098  1
  O  O40  1  0.20696192  0.53557573  0.09791693  1
  O  O41  1  0.22457658  0.13250907  0.60559096  1
  O  O42  1  0.23818027  0.86860276  0.58938209  1
  O  O43  1  0.19056239  0.79235933  0.16626113  1
  O  O44  1  0.08526755  0.17613759  0.13958535  1
  O  O45  1  0.08561544  0.49806724  0.65453144  1
