# generated using pymatgen
data_Na5Ni9O16
_symmetry_space_group_name_H-M   'P 1'
_cell_length_a   5.47303111
_cell_length_b   11.59234534
_cell_length_c   5.17342319
_cell_angle_alpha   90.00000015
_cell_angle_beta   70.94197710
_cell_angle_gamma   89.99999668
_symmetry_Int_Tables_number   1
_chemical_formula_structural   Na5Ni9O16
_chemical_formula_sum   'Na5 Ni9 O16'
_cell_volume   310.23844261
_cell_formula_units_Z   1
loop_
 _symmetry_equiv_pos_site_id
 _symmetry_equiv_pos_as_xyz
  1  'x, y, z'
loop_
 _atom_site_type_symbol
 _atom_site_label
 _atom_site_symmetry_multiplicity
 _atom_site_fract_x
 _atom_site_fract_y
 _atom_site_fract_z
 _atom_site_occupancy
  Na  Na0  1  0.50000000  0.11869048  0.00000000  1
  Na  Na1  1  0.50000000  0.37500000  0.00000000  1
  Na  Na2  1  0.50000000  0.63130952  0.00000000  1
  Na  Na3  1  0.50000000  0.23937296  0.50000000  1
  Na  Na4  1  0.50000000  0.51062704  0.50000000  1
  Ni  Ni5  1  0.00000000  0.24947993  0.00000000  1
  Ni  Ni6  1  0.00000000  0.75393423  1.00000000  1
  Ni  Ni7  1  1.00000000  0.50052007  0.00000000  1
  Ni  Ni8  1  0.00000000  0.99606577  0.00000000  1
  Ni  Ni9  1  0.00000000  0.62708539  0.50000000  1
  Ni  Ni10  1  0.00000000  0.87500000  0.50000000  1
  Ni  Ni11  1  0.00000000  0.12291461  0.50000000  1
  Ni  Ni12  1  0.00000000  0.37500000  0.50000000  1
  Ni  Ni13  1  0.50000000  0.87500000  0.00000000  1
  O  O14  1  0.19942473  0.49605346  0.26763502  1
  O  O15  1  0.19942473  0.25394654  0.26763502  1
  O  O16  1  0.19864395  0.76083264  0.24131524  1
  O  O17  1  0.19864395  0.98916736  0.24131524  1
  O  O18  1  0.19947792  0.37500000  0.78000000  1
  O  O19  1  0.19127201  0.12140331  0.79128636  1
  O  O20  1  0.20811610  0.87500000  0.79885584  1
  O  O21  1  0.19127201  0.62859669  0.79128636  1
  O  O22  1  0.80052208  0.37500000  0.22000000  1
  O  O23  1  0.80872799  0.12140331  0.20871364  1
  O  O24  1  0.79188390  0.87500000  0.20114416  1
  O  O25  1  0.80872799  0.62859669  0.20871364  1
  O  O26  1  0.80135605  0.76083264  0.75868476  1
  O  O27  1  0.80135605  0.98916736  0.75868476  1
  O  O28  1  0.80057527  0.49605346  0.73236498  1
  O  O29  1  0.80057527  0.25394654  0.73236498  1
