# generated using pymatgen
data_Li8NiO5F
_symmetry_space_group_name_H-M   'P 1'
_cell_length_a   5.51428803
_cell_length_b   5.51433046
_cell_length_c   10.85088244
_cell_angle_alpha   89.99952544
_cell_angle_beta   90.00046215
_cell_angle_gamma   119.99923242
_symmetry_Int_Tables_number   1
_chemical_formula_structural   Li8NiO5F
_chemical_formula_sum   'Li16 Ni2 O10 F2'
_cell_volume   285.74674030
_cell_formula_units_Z   2
loop_
 _symmetry_equiv_pos_site_id
 _symmetry_equiv_pos_as_xyz
  1  'x, y, z'
loop_
 _atom_site_type_symbol
 _atom_site_label
 _atom_site_symmetry_multiplicity
 _atom_site_fract_x
 _atom_site_fract_y
 _atom_site_fract_z
 _atom_site_occupancy
  Li  Li0  1  0.97646741  0.68786866  0.77248418  1
  Li  Li1  1  0.01871195  0.63802660  0.12104974  1
  Li  Li2  1  0.98132816  0.36189731  0.62099767  1
  Li  Li3  1  0.02347818  0.31208427  0.27254123  1
  Li  Li4  1  0.33333144  0.66668543  0.41478379  1
  Li  Li5  1  0.33330539  0.66664363  0.92623246  1
  Li  Li6  1  0.31211436  0.28859631  0.77247775  1
  Li  Li7  1  0.36196937  0.38070482  0.12104389  1
  Li  Li8  1  0.63810253  0.61942849  0.62099752  1
  Li  Li9  1  0.28859632  0.97653845  0.27253950  1
  Li  Li10  1  0.68792548  0.71140732  0.27253839  1
  Li  Li11  1  0.38056045  0.01867180  0.62099472  1
  Li  Li12  1  0.66664851  0.33331795  0.91484680  1
  Li  Li13  1  0.66666552  0.33335510  0.42622915  1
  Li  Li14  1  0.61929743  0.98128008  0.12104183  1
  Li  Li15  1  0.71140133  0.02352040  0.77248244  1
  Ni  Ni16  1  0.00000834  -0.00001014  0.98860753  1
  Ni  Ni17  1  -0.00001038  0.00000310  0.48855390  1
  O  O18  1  0.00161966  0.68007991  0.94775798  1
  O  O19  1  0.99836387  0.31991552  0.44772565  1
  O  O20  1  0.33333132  0.66667814  0.21284477  1
  O  O21  1  0.99999356  0.99999057  0.67107481  1
  O  O22  1  0.99999496  0.00001211  0.17107786  1
  O  O23  1  0.31989622  0.32153893  0.94775044  1
  O  O24  1  0.32153657  0.00165319  0.44772290  1
  O  O25  1  0.68007455  0.67846270  0.44772362  1
  O  O26  1  0.66665878  0.33332526  0.71281923  1
  O  O27  1  0.67845382  0.99833824  0.94775747  1
  F  F28  1  0.33330228  0.66661981  0.70820671  1
  F  F29  1  0.66667060  0.33336703  0.20835907  1
