# generated using pymatgen
data_Li8Fe3Co7O20
_symmetry_space_group_name_H-M   'P 1'
_cell_length_a   20.50750118
_cell_length_b   2.87642119
_cell_length_c   5.92033159
_cell_angle_alpha   90.00000000
_cell_angle_beta   83.14895888
_cell_angle_gamma   90.00000000
_symmetry_Int_Tables_number   1
_chemical_formula_structural   Li8Fe3Co7O20
_chemical_formula_sum   'Li8 Fe3 Co7 O20'
_cell_volume   346.73614112
_cell_formula_units_Z   1
loop_
 _symmetry_equiv_pos_site_id
 _symmetry_equiv_pos_as_xyz
  1  'x, y, z'
loop_
 _atom_site_type_symbol
 _atom_site_label
 _atom_site_symmetry_multiplicity
 _atom_site_fract_x
 _atom_site_fract_y
 _atom_site_fract_z
 _atom_site_occupancy
  Li  Li0  1  0.10696274  0.50000000  0.24001619  1
  Li  Li1  1  0.28908376  0.50000000  0.56308948  1
  Li  Li2  1  0.39847194  0.00000000  0.79517861  1
  Li  Li3  1  0.49973151  0.50000000  0.99949819  1
  Li  Li4  1  0.60342803  0.00000000  0.21050823  1
  Li  Li5  1  0.79718789  0.00000000  0.58890899  1
  Li  Li6  1  0.90287110  0.50000000  0.79455857  1
  Li  Li7  1  0.00171566  0.00000000  0.00598887  1
  Fe  Fe8  1  0.39840767  0.00000000  0.29816329  1
  Fe  Fe9  1  0.60158465  0.00000000  0.68121670  1
  Fe  Fe10  1  0.80031619  0.00000000  0.11794490  1
  Co  Co11  1  0.00155587  0.00000000  0.50355463  1
  Co  Co12  1  0.10057618  0.50000000  0.70144673  1
  Co  Co13  1  0.19847701  0.00000000  0.90168228  1
  Co  Co14  1  0.29674947  0.50000000  0.09712390  1
  Co  Co15  1  0.49843794  0.50000000  0.49916628  1
  Co  Co16  1  0.70065725  0.50000000  0.89986081  1
  Co  Co17  1  0.90373142  0.50000000  0.30176799  1
  O  O18  1  0.00539616  0.50000000  0.72517146  1
  O  O19  1  0.09512915  0.00000000  0.48623757  1
  O  O20  1  0.10527722  0.00000000  0.92289307  1
  O  O21  1  0.20272822  0.50000000  0.10885559  1
  O  O22  1  0.19455477  0.50000000  0.69395081  1
  O  O23  1  0.29984352  0.00000000  0.31586268  1
  O  O24  1  0.29143080  0.00000000  0.87825823  1
  O  O25  1  0.39387910  0.50000000  0.05850337  1
  O  O26  1  0.40134442  0.50000000  0.53656817  1
  O  O27  1  0.49814119  0.00000000  0.27430534  1
  O  O28  1  0.50109410  0.00000000  0.72441021  1
  O  O29  1  0.59347032  0.50000000  0.45626333  1
  O  O30  1  0.60678402  0.50000000  0.92759060  1
  O  O31  1  0.70122140  0.00000000  0.10924138  1
  O  O32  1  0.70014456  0.00000000  0.68981712  1
  O  O33  1  0.80831595  0.50000000  0.34311209  1
  O  O34  1  0.79455113  0.50000000  0.87161573  1
  O  O35  1  0.90115809  0.00000000  0.07442299  1
  O  O36  1  0.90646304  0.00000000  0.52192975  1
  O  O37  1  -0.00115044  0.50000000  0.28134187  1
