# generated using pymatgen
data_LiMn2O2F3
_symmetry_space_group_name_H-M   'P 1'
_cell_length_a   4.98898356
_cell_length_b   6.12546505
_cell_length_c   7.67878670
_cell_angle_alpha   75.06624877
_cell_angle_beta   109.03613681
_cell_angle_gamma   65.97447915
_symmetry_Int_Tables_number   1
_chemical_formula_structural   LiMn2O2F3
_chemical_formula_sum   'Li2 Mn4 O4 F6'
_cell_volume   180.70494626
_cell_formula_units_Z   2
loop_
 _symmetry_equiv_pos_site_id
 _symmetry_equiv_pos_as_xyz
  1  'x, y, z'
loop_
 _atom_site_type_symbol
 _atom_site_label
 _atom_site_symmetry_multiplicity
 _atom_site_fract_x
 _atom_site_fract_y
 _atom_site_fract_z
 _atom_site_occupancy
  Li  Li0  1  0.98485022  0.50750152  0.99418294  1
  Li  Li1  1  0.49276094  0.99667823  0.49606889  1
  Mn  Mn2  1  0.79398078  0.99232333  0.13300337  1
  Mn  Mn3  1  0.34841889  0.49001237  0.63202647  1
  Mn  Mn4  1  0.65265668  0.50884021  0.36635503  1
  Mn  Mn5  1  0.20680385  0.00816910  0.86663128  1
  O  O6  1  0.24797531  0.73605447  0.36800306  1
  O  O7  1  0.38788168  0.23316049  0.86635705  1
  O  O8  1  0.61435748  0.76583856  0.13246274  1
  O  O9  1  0.75485050  0.26593225  0.63188308  1
  F  F10  1  0.46954178  0.74904776  0.75002192  1
  F  F11  1  0.88090035  0.70586263  0.55045852  1
  F  F12  1  0.96832370  0.20426876  0.05128911  1
  F  F13  1  0.03445674  0.79500454  0.94815115  1
  F  F14  1  0.12147353  0.29654940  0.44783555  1
  F  F15  1  0.53707056  0.25260937  0.24786783  1
