# generated using pymatgen
data_Li2MnCu3O8
_symmetry_space_group_name_H-M   'P 1'
_cell_length_a   8.31883851
_cell_length_b   8.32117331
_cell_length_c   8.28205126
_cell_angle_alpha   90.03011785
_cell_angle_beta   89.94108391
_cell_angle_gamma   90.01785212
_symmetry_Int_Tables_number   1
_chemical_formula_structural   Li2MnCu3O8
_chemical_formula_sum   'Li8 Mn4 Cu12 O32'
_cell_volume   573.30385825
_cell_formula_units_Z   4
loop_
 _symmetry_equiv_pos_site_id
 _symmetry_equiv_pos_as_xyz
  1  'x, y, z'
loop_
 _atom_site_type_symbol
 _atom_site_label
 _atom_site_symmetry_multiplicity
 _atom_site_fract_x
 _atom_site_fract_y
 _atom_site_fract_z
 _atom_site_occupancy
  Li  Li0  1  0.99618125  0.99899771  0.99640093  1
  Li  Li1  1  0.25182157  0.25165164  0.25189023  1
  Li  Li2  1  0.24906238  0.74628096  0.75357496  1
  Li  Li3  1  0.50149709  0.00160643  0.49824436  1
  Li  Li4  1  0.49815851  0.50169373  0.00109403  1
  Li  Li5  1  0.75191586  0.24841463  0.74898896  1
  Li  Li6  1  0.74836580  0.75052407  0.24903607  1
  Li  Li7  1  0.00031558  0.49832369  0.50091668  1
  Mn  Mn8  1  0.12487187  0.87480299  0.37489915  1
  Mn  Mn9  1  0.37549257  0.12545692  0.87502736  1
  Mn  Mn10  1  0.62598339  0.62501897  0.62595967  1
  Mn  Mn11  1  0.87512288  0.37589733  0.12408131  1
  Cu  Cu12  1  0.12803234  0.12229780  0.62497178  1
  Cu  Cu13  1  0.12547796  0.37129452  0.87804626  1
  Cu  Cu14  1  0.12312015  0.62536539  0.12895092  1
  Cu  Cu15  1  0.37819071  0.37525155  0.62788706  1
  Cu  Cu16  1  0.37570976  0.62797275  0.37783012  1
  Cu  Cu17  1  0.37228643  0.87801535  0.12497509  1
  Cu  Cu18  1  0.62858777  0.37857103  0.37502397  1
  Cu  Cu19  1  0.62513223  0.12818276  0.12209545  1
  Cu  Cu20  1  0.62119812  0.87545836  0.87190643  1
  Cu  Cu21  1  0.87787748  0.12558560  0.37215570  1
  Cu  Cu22  1  0.87535706  0.87311292  0.62105269  1
  Cu  Cu23  1  0.87178503  0.62185881  0.87507667  1
  O  O24  1  0.11624558  0.10759981  0.38458229  1
  O  O25  1  0.11697969  0.88084129  0.60833294  1
  O  O26  1  0.11102373  0.60774663  0.89562405  1
  O  O27  1  0.14187794  0.13397490  0.86537030  1
  O  O28  1  0.10857091  0.38253208  0.11845329  1
  O  O29  1  0.14002922  0.36201438  0.64012393  1
  O  O30  1  0.13417341  0.64059157  0.36370151  1
  O  O31  1  0.13088354  0.86692452  0.14160070  1
  O  O32  1  0.36786039  0.13446582  0.64134215  1
  O  O33  1  0.36534992  0.35819488  0.86692831  1
  O  O34  1  0.35960537  0.63989852  0.13796670  1
  O  O35  1  0.39183888  0.61610503  0.61855287  1
  O  O36  1  0.35759192  0.86632945  0.36531484  1
  O  O37  1  0.39167616  0.39033459  0.38957807  1
  O  O38  1  0.38450801  0.11788986  0.10865520  1
  O  O39  1  0.38407844  0.89193809  0.88451401  1
  O  O40  1  0.61836770  0.39120760  0.61621479  1
  O  O41  1  0.61577836  0.61634504  0.39089577  1
  O  O42  1  0.61203654  0.89011016  0.10975632  1
  O  O43  1  0.64113683  0.36823072  0.13377618  1
  O  O44  1  0.60823131  0.11544308  0.88324704  1
  O  O45  1  0.64030966  0.14140346  0.36034486  1
  O  O46  1  0.63246540  0.85854805  0.63163044  1
  O  O47  1  0.63215334  0.63398899  0.85905028  1
  O  O48  1  0.86623359  0.36562456  0.35914969  1
  O  O49  1  0.86595530  0.14184642  0.13151174  1
  O  O50  1  0.85744379  0.86098231  0.85472694  1
  O  O51  1  0.89061049  0.88413178  0.38592341  1
  O  O52  1  0.85825613  0.63300363  0.63203477  1
  O  O53  1  0.88989246  0.10979633  0.61190389  1
  O  O54  1  0.88415030  0.38229122  0.89108433  1
  O  O55  1  0.88314190  0.60816837  0.11816155  1
