# generated using pymatgen
data_Cr8Ni50Mo17
_symmetry_space_group_name_H-M   'P 1'
_cell_length_a   9.26260436
_cell_length_b   9.90955015
_cell_length_c   11.19686670
_cell_angle_alpha   91.40898769
_cell_angle_beta   114.21471718
_cell_angle_gamma   105.15209060
_symmetry_Int_Tables_number   1
_chemical_formula_structural   Cr8Ni50Mo17
_chemical_formula_sum   'Cr8 Ni50 Mo17'
_cell_volume   894.53211868
_cell_formula_units_Z   1
loop_
 _symmetry_equiv_pos_site_id
 _symmetry_equiv_pos_as_xyz
  1  'x, y, z'
loop_
 _atom_site_type_symbol
 _atom_site_label
 _atom_site_symmetry_multiplicity
 _atom_site_fract_x
 _atom_site_fract_y
 _atom_site_fract_z
 _atom_site_occupancy
  Cr  Cr0  1  0.64213744  0.03750571  0.71455617  1
  Cr  Cr1  1  0.47992216  0.27923697  0.04055481  1
  Cr  Cr2  1  0.75647552  0.36220513  0.48401012  1
  Cr  Cr3  1  0.68236883  0.47680767  0.63563643  1
  Cr  Cr4  1  0.32115085  0.52042725  0.36044109  1
  Cr  Cr5  1  0.08003278  0.87989904  0.83981557  1
  Cr  Cr6  1  0.71720608  0.92354877  0.56476071  1
  Cr  Cr7  1  0.36081035  0.96031200  0.28007696  1
  Ni  Ni8  1  0.86506708  0.19989609  0.92921183  1
  Ni  Ni9  1  0.51244919  0.24258082  0.65343482  1
  Ni  Ni10  1  0.15214716  0.28569131  0.37350503  1
  Ni  Ni11  1  0.42846123  0.35987657  0.81586877  1
  Ni  Ni12  1  0.06397178  0.40127421  0.53285680  1
  Ni  Ni13  1  0.97925628  0.51923498  0.68910348  1
  Ni  Ni14  1  0.90835523  0.64537470  0.85003285  1
  Ni  Ni15  1  0.78372331  0.32141613  0.09217316  1
  Ni  Ni16  1  0.70512808  0.43853515  0.25386466  1
  Ni  Ni17  1  0.34979764  0.47970937  0.97450098  1
  Ni  Ni18  1  0.62678287  0.55851386  0.41672678  1
  Ni  Ni19  1  0.26996657  0.60106682  0.13726916  1
  Ni  Ni20  1  0.55038651  0.68107750  0.57080807  1
  Ni  Ni21  1  0.19340413  0.72451167  0.29365623  1
  Ni  Ni22  1  0.47033738  0.80529063  0.73133687  1
  Ni  Ni23  1  0.10890989  0.84130323  0.45485863  1
  Ni  Ni24  1  0.38442661  0.92146750  0.89355917  1
  Ni  Ni25  1  0.02460579  0.96157282  0.61659903  1
  Ni  Ni26  1  0.94172180  0.07787495  0.76964638  1
  Ni  Ni27  1  0.82661963  0.76150105  0.01170895  1
  Ni  Ni28  1  0.74773031  0.88301816  0.17343266  1
  Ni  Ni29  1  0.66428753  0.00057304  0.33659919  1
  Ni  Ni30  1  0.30978337  0.04394813  0.05405560  1
  Ni  Ni31  1  0.59015914  0.12065650  0.49353708  1
  Ni  Ni32  1  0.22986562  0.15931556  0.21374674  1
  Ni  Ni33  1  0.17606440  0.23802824  0.98749766  1
  Ni  Ni34  1  0.80624060  0.27683316  0.70214494  1
  Ni  Ni35  1  0.45792357  0.32218948  0.42954170  1
  Ni  Ni36  1  0.73164026  0.39938901  0.86289622  1
  Ni  Ni37  1  0.37630274  0.43877270  0.58478693  1
  Ni  Ni38  1  0.29112179  0.55869158  0.74543062  1
  Ni  Ni39  1  0.21044638  0.67969249  0.90693424  1
  Ni  Ni40  1  0.09501749  0.35892216  0.14926218  1
  Ni  Ni41  1  0.01602144  0.47879700  0.30694869  1
  Ni  Ni42  1  0.64868575  0.51381068  0.02709067  1
  Ni  Ni43  1  0.92856267  0.59431913  0.46718233  1
  Ni  Ni44  1  0.57256916  0.63896773  0.18846087  1
  Ni  Ni45  1  0.84967387  0.71915045  0.62902016  1
  Ni  Ni46  1  0.49102935  0.75818661  0.35025851  1
  Ni  Ni47  1  0.77185052  0.84167961  0.78220807  1
  Ni  Ni48  1  0.42006495  0.88182190  0.50783614  1
  Ni  Ni49  1  0.69051334  0.95939756  0.94252180  1
  Ni  Ni50  1  0.33691729  0.99914962  0.66716515  1
  Ni  Ni51  1  0.25179745  0.11567158  0.83033369  1
  Ni  Ni52  1  0.13406210  0.80072676  0.06607194  1
  Ni  Ni53  1  0.05592322  0.91749154  0.22664169  1
  Ni  Ni54  1  0.97246257  0.03883219  0.38738751  1
  Ni  Ni55  1  0.61045277  0.08117731  0.10659979  1
  Ni  Ni56  1  0.88673872  0.15638111  0.54632074  1
  Ni  Ni57  1  0.53047359  0.19664614  0.26734905  1
  Mo  Mo58  1  0.00191354  0.99717183  0.99490143  1
  Mo  Mo59  1  0.28455684  0.07763172  0.43581524  1
  Mo  Mo60  1  0.55956990  0.16007198  0.87947497  1
  Mo  Mo61  1  0.20116858  0.19902158  0.59955058  1
  Mo  Mo62  1  0.11813092  0.31831445  0.75910510  1
  Mo  Mo63  1  0.03983703  0.43984128  0.91971020  1
  Mo  Mo64  1  0.92010598  0.12050587  0.15960968  1
  Mo  Mo65  1  0.83727641  0.24273242  0.32491116  1
  Mo  Mo66  1  0.40089671  0.39905561  0.20041843  1
  Mo  Mo67  1  0.60210556  0.59758171  0.79447509  1
  Mo  Mo68  1  0.24373772  0.63790323  0.51591747  1
  Mo  Mo69  1  0.51964152  0.71990943  0.95907654  1
  Mo  Mo70  1  0.15681706  0.76256872  0.68348380  1
  Mo  Mo71  1  0.95963628  0.56068507  0.07913937  1
  Mo  Mo72  1  0.87958705  0.68054634  0.24219339  1
  Mo  Mo73  1  0.79661722  0.80287348  0.40639700  1
  Mo  Mo74  1  0.43839756  0.84363622  0.12598451  1
