# generated using pymatgen
data_Na9Ni7O16
_symmetry_space_group_name_H-M   'P 1'
_cell_length_a   7.92425617
_cell_length_b   6.97632244
_cell_length_c   6.89999758
_cell_angle_alpha   69.49245320
_cell_angle_beta   77.03982149
_cell_angle_gamma   65.65763829
_symmetry_Int_Tables_number   1
_chemical_formula_structural   Na9Ni7O16
_chemical_formula_sum   'Na9 Ni7 O16'
_cell_volume   324.08208036
_cell_formula_units_Z   1
loop_
 _symmetry_equiv_pos_site_id
 _symmetry_equiv_pos_as_xyz
  1  'x, y, z'
loop_
 _atom_site_type_symbol
 _atom_site_label
 _atom_site_symmetry_multiplicity
 _atom_site_fract_x
 _atom_site_fract_y
 _atom_site_fract_z
 _atom_site_occupancy
  Na  Na0  1  0.06253180  0.31382383  0.20231705  1
  Na  Na1  1  0.44345341  0.18956521  0.31106904  1
  Na  Na2  1  0.30654659  0.56043479  0.93893096  1
  Na  Na3  1  0.18355823  0.94574015  0.57105674  1
  Na  Na4  1  0.80753536  0.07823646  0.43852995  1
  Na  Na5  1  0.68746820  0.43617617  0.04768295  1
  Na  Na6  1  0.87500000  0.37500000  0.62500000  1
  Na  Na7  1  0.56644177  0.80425985  0.67894326  1
  Na  Na8  1  0.94246464  0.67176354  0.81147005  1
  Ni  Ni9  1  0.00525823  0.99251535  0.00387387  1
  Ni  Ni10  1  0.25747627  0.24161642  0.75205692  1
  Ni  Ni11  1  0.12565204  0.63125521  0.37317476  1
  Ni  Ni12  1  0.62434796  0.11874479  0.87682524  1
  Ni  Ni13  1  0.49252373  0.50838358  0.49794308  1
  Ni  Ni14  1  0.37500000  0.87500000  0.12500000  1
  Ni  Ni15  1  0.74474177  0.75748465  0.24612613  1
  O  O16  1  0.16642715  0.32167170  0.48252327  1
  O  O17  1  0.23387270  0.57897867  0.61784175  1
  O  O18  1  0.02690794  0.68441626  0.12222412  1
  O  O19  1  0.51612730  0.17102133  0.63215825  1
  O  O20  1  0.36885659  0.18332590  0.00051930  1
  O  O21  1  0.72309206  0.06558374  0.12777588  1
  O  O22  1  0.10360589  0.93537940  0.25961907  1
  O  O23  1  0.38114341  0.56667410  0.24948070  1
  O  O24  1  0.88331765  0.03042076  0.76864846  1
  O  O25  1  0.58357285  0.42832830  0.76747673  1
  O  O26  1  0.28466209  0.91239249  0.87705840  1
  O  O27  1  0.46533791  0.83760751  0.37294160  1
  O  O28  1  0.64639411  0.81462060  0.99038093  1
  O  O29  1  0.01217574  0.28849743  0.90588518  1
  O  O30  1  0.73782426  0.46150257  0.34411482  1
  O  O31  1  0.86668235  0.71957924  0.48135154  1
