# generated using pymatgen
data_TiVO3
_symmetry_space_group_name_H-M   'P 1'
_cell_length_a   5.55205464
_cell_length_b   5.15066739
_cell_length_c   7.62171048
_cell_angle_alpha   90.21603247
_cell_angle_beta   96.02787005
_cell_angle_gamma   89.88745469
_symmetry_Int_Tables_number   1
_chemical_formula_structural   TiVO3
_chemical_formula_sum   'Ti4 V4 O12'
_cell_volume   216.74952376
_cell_formula_units_Z   4
loop_
 _symmetry_equiv_pos_site_id
 _symmetry_equiv_pos_as_xyz
  1  'x, y, z'
loop_
 _atom_site_type_symbol
 _atom_site_label
 _atom_site_symmetry_multiplicity
 _atom_site_fract_x
 _atom_site_fract_y
 _atom_site_fract_z
 _atom_site_occupancy
  Ti  Ti0  1  0.79742381  0.50105333  0.85460972  1
  Ti  Ti1  1  0.18868171  0.49591306  0.65052611  1
  Ti  Ti2  1  0.30384966  0.99928794  0.35338841  1
  Ti  Ti3  1  0.20495021  0.50329206  0.14348391  1
  V  V4  1  0.30269894  0.00060887  0.84491274  1
  V  V5  1  0.69494074  0.99970829  0.65041144  1
  V  V6  1  0.80814183  0.49886606  0.35234754  1
  V  V7  1  0.69811518  0.99984448  0.15216663  1
  O  O8  1  0.49876608  0.32190116  0.75124098  1
  O  O9  1  0.66090190  0.83256329  0.89647702  1
  O  O10  1  0.85317773  0.65633195  0.60574287  1
  O  O11  1  0.99285045  0.20171307  0.74380427  1
  O  O12  1  0.15785854  0.63678376  0.90706112  1
  O  O13  1  0.64150811  0.14712435  0.40779843  1
  O  O14  1  0.33937040  0.83721666  0.58694787  1
  O  O15  1  0.84946692  0.36316055  0.08760510  1
  O  O16  1  0.16042032  0.33515172  0.40801750  1
  O  O17  1  0.33981276  0.17044028  0.10332582  1
  O  O18  1  0.48372742  0.69153969  0.24709393  1
  O  O19  1  0.02333828  0.80749943  0.25303858  1
