# generated using pymatgen
data_Mn6OF11
_symmetry_space_group_name_H-M   'P 1'
_cell_length_a   4.91211636
_cell_length_b   8.25577511
_cell_length_c   5.93234322
_cell_angle_alpha   92.13076473
_cell_angle_beta   89.06508030
_cell_angle_gamma   90.95706084
_symmetry_Int_Tables_number   1
_chemical_formula_structural   Mn6OF11
_chemical_formula_sum   'Mn6 O1 F11'
_cell_volume   240.34672102
_cell_formula_units_Z   1
loop_
 _symmetry_equiv_pos_site_id
 _symmetry_equiv_pos_as_xyz
  1  'x, y, z'
loop_
 _atom_site_type_symbol
 _atom_site_label
 _atom_site_symmetry_multiplicity
 _atom_site_fract_x
 _atom_site_fract_y
 _atom_site_fract_z
 _atom_site_occupancy
  Mn  Mn0  1  0.51611713  0.00690540  0.48748820  1
  Mn  Mn1  1  0.49800217  0.66391519  0.16754569  1
  Mn  Mn2  1  0.50113201  0.33223328  0.83432195  1
  Mn  Mn3  1  0.01014195  0.67188206  0.66138709  1
  Mn  Mn4  1  0.98146830  0.31813356  0.33766826  1
  Mn  Mn5  1  0.98225298  0.00293992  0.01930066  1
  O  O6  1  0.78909975  0.10129077  0.30612134  1
  F  F7  1  0.80485738  0.43765727  0.63207970  1
  F  F8  1  0.81052367  0.76710228  0.96114486  1
  F  F9  1  0.69591553  0.09788561  0.78900483  1
  F  F10  1  0.69284524  0.77202856  0.46565731  1
  F  F11  1  0.69969813  0.43603389  0.12904250  1
  F  F12  1  0.30633765  0.56661408  0.86747824  1
  F  F13  1  0.30652136  0.23022434  0.53470367  1
  F  F14  1  0.30882893  0.89933758  0.20800426  1
  F  F15  1  0.18827936  0.55483467  0.36621553  1
  F  F16  1  0.19250769  0.23292247  0.03671624  1
  F  F17  1  0.21547178  0.90805706  0.69612069  1
