# generated using pymatgen
data_LiCrCO4
_symmetry_space_group_name_H-M   'P 1'
_cell_length_a   3.09891611
_cell_length_b   9.31374971
_cell_length_c   9.28889529
_cell_angle_alpha   90.00000000
_cell_angle_beta   89.80777265
_cell_angle_gamma   90.00000000
_symmetry_Int_Tables_number   1
_chemical_formula_structural   LiCrCO4
_chemical_formula_sum   'Li4 Cr4 C4 O16'
_cell_volume   268.09950124
_cell_formula_units_Z   4
loop_
 _symmetry_equiv_pos_site_id
 _symmetry_equiv_pos_as_xyz
  1  'x, y, z'
loop_
 _atom_site_type_symbol
 _atom_site_label
 _atom_site_symmetry_multiplicity
 _atom_site_fract_x
 _atom_site_fract_y
 _atom_site_fract_z
 _atom_site_occupancy
  Li  Li0  1  0.24604838  0.30470205  0.90261161  1
  Li  Li1  1  0.24604838  0.19529795  0.40261161  1
  Li  Li2  1  0.75395162  0.80470205  0.59738839  1
  Li  Li3  1  0.75395162  0.69529795  0.09738839  1
  Cr  Cr4  1  0.25058070  0.93705922  0.87890032  1
  Cr  Cr5  1  0.25058070  0.56294078  0.37890032  1
  Cr  Cr6  1  0.74941930  0.43705922  0.62109968  1
  Cr  Cr7  1  0.74941930  0.06294078  0.12109968  1
  C  C8  1  0.24952391  0.62750021  0.83675522  1
  C  C9  1  0.24952391  0.87249979  0.33675522  1
  C  C10  1  0.75047609  0.12750021  0.66324478  1
  C  C11  1  0.75047609  0.37249979  0.16324478  1
  O  O12  1  0.24716786  0.50184216  0.76340057  1
  O  O13  1  0.25031258  0.11280785  0.99768630  1
  O  O14  1  0.24517617  0.74561300  0.76086022  1
  O  O15  1  0.24716786  0.99815784  0.26340057  1
  O  O16  1  0.25031258  0.38719215  0.49768630  1
  O  O17  1  0.24517617  0.75438700  0.26086022  1
  O  O18  1  0.25589503  0.62574438  0.97082508  1
  O  O19  1  0.25589503  0.87425562  0.47082508  1
  O  O20  1  0.74410497  0.12574438  0.52917492  1
  O  O21  1  0.74410497  0.37425562  0.02917492  1
  O  O22  1  0.75482383  0.24561300  0.73913978  1
  O  O23  1  0.74968742  0.61280785  0.50231370  1
  O  O24  1  0.75283214  0.00184216  0.73659943  1
  O  O25  1  0.75482383  0.25438700  0.23913978  1
  O  O26  1  0.74968742  0.88719215  0.00231370  1
  O  O27  1  0.75283214  0.49815784  0.23659943  1
