# generated using pymatgen
data_Li4Mn2V3Sb3O16
_symmetry_space_group_name_H-M   'P 1'
_cell_length_a   6.17529325
_cell_length_b   6.16503353
_cell_length_c   10.02880870
_cell_angle_alpha   90.00119234
_cell_angle_beta   90.18297970
_cell_angle_gamma   119.94525051
_symmetry_Int_Tables_number   1
_chemical_formula_structural   Li4Mn2V3Sb3O16
_chemical_formula_sum   'Li4 Mn2 V3 Sb3 O16'
_cell_volume   330.83341741
_cell_formula_units_Z   1
loop_
 _symmetry_equiv_pos_site_id
 _symmetry_equiv_pos_as_xyz
  1  'x, y, z'
loop_
 _atom_site_type_symbol
 _atom_site_label
 _atom_site_symmetry_multiplicity
 _atom_site_fract_x
 _atom_site_fract_y
 _atom_site_fract_z
 _atom_site_occupancy
  Li  Li0  1  0.32784429  0.66392837  0.87323553  1
  Li  Li1  1  0.98193081  0.99098831  0.99100914  1
  Li  Li2  1  0.98779068  0.99392529  0.50543613  1
  Li  Li3  1  0.65551662  0.32775535  0.40166937  1
  Mn  Mn4  1  0.35057678  0.67530401  0.51765657  1
  Mn  Mn5  1  0.68621802  0.34310821  0.98039278  1
  V  V6  1  0.66461727  0.83231316  0.21670201  1
  V  V7  1  0.83464445  0.66375432  0.71490769  1
  V  V8  1  0.83465009  0.17092296  0.71490727  1
  Sb  Sb9  1  0.16899358  0.83246355  0.21617470  1
  Sb  Sb10  1  0.16899537  0.33654146  0.21617585  1
  Sb  Sb11  1  0.33907890  0.16955084  0.71500274  1
  O  O12  1  0.15819633  0.84872875  0.60286222  1
  O  O13  1  0.02605831  0.51303505  0.32846249  1
  O  O14  1  0.32330219  0.66165779  0.10387008  1
  O  O15  1  0.00919648  0.00460236  0.32115596  1
  O  O16  1  0.01365780  0.00684656  0.81456515  1
  O  O17  1  0.15820479  0.30951126  0.60286443  1
  O  O18  1  0.48071509  0.96850550  0.32328537  1
  O  O19  1  0.48072159  0.51221585  0.32328234  1
  O  O20  1  0.30657765  0.15329828  0.10441091  1
  O  O21  1  0.69439821  0.84722138  0.60950762  1
  O  O22  1  0.51250365  0.48102368  0.83040273  1
  O  O23  1  0.51250096  0.03149530  0.83039895  1
  O  O24  1  0.65236403  0.32619587  0.60227033  1
  O  O25  1  0.85212501  0.69471002  0.11019092  1
  O  O26  1  0.96650241  0.48326060  0.82684130  1
  O  O27  1  0.85212265  0.15743789  0.11019642  1
