# generated using pymatgen
data_Li4Co3Cu3(TeO8)2
_symmetry_space_group_name_H-M   'P 1'
_cell_length_a   5.94771184
_cell_length_b   5.75501127
_cell_length_c   9.59134014
_cell_angle_alpha   90.18545251
_cell_angle_beta   86.34271000
_cell_angle_gamma   119.69920748
_symmetry_Int_Tables_number   1
_chemical_formula_structural   Li4Co3Cu3(TeO8)2
_chemical_formula_sum   'Li4 Co3 Cu3 Te2 O16'
_cell_volume   284.44373991
_cell_formula_units_Z   1
loop_
 _symmetry_equiv_pos_site_id
 _symmetry_equiv_pos_as_xyz
  1  'x, y, z'
loop_
 _atom_site_type_symbol
 _atom_site_label
 _atom_site_symmetry_multiplicity
 _atom_site_fract_x
 _atom_site_fract_y
 _atom_site_fract_z
 _atom_site_occupancy
  Li  Li0  1  0.32838994  0.65658285  0.91113530  1
  Li  Li1  1  0.97940155  0.98635516  0.98834647  1
  Li  Li2  1  0.00082993  0.00241965  0.48316419  1
  Li  Li3  1  0.69643753  0.35619920  0.41381014  1
  Co  Co4  1  0.65350577  0.82443737  0.21660505  1
  Co  Co5  1  0.82528406  0.65980960  0.71436527  1
  Co  Co6  1  0.82778102  0.17050341  0.71321518  1
  Cu  Cu7  1  0.16253508  0.82550727  0.21055273  1
  Cu  Cu8  1  0.15782723  0.33417941  0.21064089  1
  Cu  Cu9  1  0.33300336  0.16764971  0.71209608  1
  Te  Te10  1  0.35012188  0.68129554  0.48784139  1
  Te  Te11  1  0.64967695  0.31685633  0.98182937  1
  O  O12  1  0.16876379  0.84391193  0.59113512  1
  O  O13  1  0.06173344  0.54475478  0.35659349  1
  O  O14  1  0.34713444  0.67448844  0.12279745  1
  O  O15  1  0.97946895  0.98599145  0.29189687  1
  O  O16  1  0.98487871  0.99642158  0.79960004  1
  O  O17  1  0.16017280  0.33751166  0.58869402  1
  O  O18  1  0.53542625  0.98845718  0.35541390  1
  O  O19  1  0.51572882  0.53876173  0.35568362  1
  O  O20  1  0.30677733  0.14307656  0.08209513  1
  O  O21  1  0.67629883  0.83908416  0.60201535  1
  O  O22  1  0.52280918  0.48480261  0.84450168  1
  O  O23  1  0.53578340  0.02358784  0.84674184  1
  O  O24  1  0.67715435  0.33825179  0.61877397  1
  O  O25  1  0.79769227  0.64152968  0.08654824  1
  O  O26  1  0.95656439  0.48103543  0.83308972  1
  O  O27  1  0.80881873  0.15683567  0.08865750  1
