# generated using pymatgen
data_Ca3Mn2(GaO5)2
_symmetry_space_group_name_H-M   'P 1'
_cell_length_a   5.41837762
_cell_length_b   5.69062301
_cell_length_c   14.08225509
_cell_angle_alpha   91.54374496
_cell_angle_beta   90.00474165
_cell_angle_gamma   90.00135954
_symmetry_Int_Tables_number   1
_chemical_formula_structural   Ca3Mn2(GaO5)2
_chemical_formula_sum   'Ca6 Mn4 Ga4 O20'
_cell_volume   434.05386971
_cell_formula_units_Z   2
loop_
 _symmetry_equiv_pos_site_id
 _symmetry_equiv_pos_as_xyz
  1  'x, y, z'
loop_
 _atom_site_type_symbol
 _atom_site_label
 _atom_site_symmetry_multiplicity
 _atom_site_fract_x
 _atom_site_fract_y
 _atom_site_fract_z
 _atom_site_occupancy
  Ca  Ca0  1  0.01562895  0.53784872  0.61138459  1
  Ca  Ca1  1  0.48410904  0.03781583  0.11148196  1
  Ca  Ca2  1  0.51808138  0.95748525  0.88642942  1
  Ca  Ca3  1  0.01249194  0.53031194  0.90316238  1
  Ca  Ca4  1  0.98188488  0.45720494  0.38631892  1
  Ca  Ca5  1  0.48744531  0.03002877  0.40319269  1
  Mn  Mn6  1  0.99500312  0.99712688  0.50629952  1
  Mn  Mn7  1  0.49788166  0.50800011  0.50711990  1
  Mn  Mn8  1  0.50501704  0.49663873  0.00603986  1
  Mn  Mn9  1  0.00199472  0.00793127  0.00716321  1
  Ga  Ga10  1  0.55332774  0.40438595  0.74681167  1
  Ga  Ga11  1  0.44043914  0.57831054  0.24837401  1
  Ga  Ga12  1  0.94677336  0.90436717  0.24686432  1
  Ga  Ga13  1  0.05961743  0.07845112  0.74844290  1
  O  O14  1  0.47733528  0.55921564  0.86291184  1
  O  O15  1  0.97168277  0.92770284  0.85977137  1
  O  O16  1  0.39742795  0.11977555  0.75125242  1
  O  O17  1  0.23908390  0.26861151  0.50997033  1
  O  O18  1  0.52822234  0.42754559  0.35972976  1
  O  O19  1  0.59659352  0.87732908  0.25222139  1
  O  O20  1  0.75229440  0.75074401  0.47860189  1
  O  O21  1  0.26094591  0.76876703  0.00989524  1
  O  O22  1  0.76065242  0.27249878  0.51373496  1
  O  O23  1  0.23762600  0.74005749  0.47912849  1
  O  O24  1  0.73922518  0.77270277  0.01386608  1
  O  O25  1  0.74776351  0.25099795  0.97844983  1
  O  O26  1  0.02299480  0.05901849  0.36293438  1
  O  O27  1  0.26222003  0.24034360  0.97909176  1
  O  O28  1  0.10267412  0.61971764  0.25115352  1
  O  O29  1  0.47154595  0.56908647  0.63885129  1
  O  O30  1  0.97734776  0.92899735  0.63566550  1
  O  O31  1  0.90352285  0.37747014  0.75219630  1
  O  O32  1  0.02850231  0.06920125  0.13888742  1
  O  O33  1  0.52265230  0.42893358  0.13548391  1
