# generated using pymatgen
data_Na2SmPCO7
_symmetry_space_group_name_H-M   'P 1'
_cell_length_a   9.41393056
_cell_length_b   7.11187632
_cell_length_c   5.18577661
_cell_angle_alpha   90.00000000
_cell_angle_beta   90.82261785
_cell_angle_gamma   90.00000000
_symmetry_Int_Tables_number   1
_chemical_formula_structural   Na2SmPCO7
_chemical_formula_sum   'Na4 Sm2 P2 C2 O14'
_cell_volume   347.15564138
_cell_formula_units_Z   2
loop_
 _symmetry_equiv_pos_site_id
 _symmetry_equiv_pos_as_xyz
  1  'x, y, z'
loop_
 _atom_site_type_symbol
 _atom_site_label
 _atom_site_symmetry_multiplicity
 _atom_site_fract_x
 _atom_site_fract_y
 _atom_site_fract_z
 _atom_site_occupancy
  Na  Na0  1  0.20572913  0.49467327  0.22859242  1
  Na  Na1  1  0.20572913  0.00532673  0.22859242  1
  Na  Na2  1  0.79427087  0.50532673  0.77140758  1
  Na  Na3  1  0.79427087  0.99467327  0.77140758  1
  Sm  Sm4  1  0.37718118  0.75000000  0.76406235  1
  Sm  Sm5  1  0.62281882  0.25000000  0.23593765  1
  P  P6  1  0.41293798  0.25000000  0.70676020  1
  P  P7  1  0.58706202  0.75000000  0.29323980  1
  C  C8  1  0.07649092  0.75000000  0.73095199  1
  C  C9  1  0.92350908  0.25000000  0.26904801  1
  O  O10  1  0.05725736  0.25000000  0.29888469  1
  O  O11  1  0.14045281  0.75000000  0.95715899  1
  O  O12  1  0.16343262  0.75000000  0.53151774  1
  O  O13  1  0.35048761  0.07137200  0.83185470  1
  O  O14  1  0.35048761  0.42862800  0.83185470  1
  O  O15  1  0.42022752  0.75000000  0.25066014  1
  O  O16  1  0.38912019  0.25000000  0.40882269  1
  O  O17  1  0.61087981  0.75000000  0.59117731  1
  O  O18  1  0.57977248  0.25000000  0.74933986  1
  O  O19  1  0.64951239  0.57137200  0.16814530  1
  O  O20  1  0.64951239  0.92862800  0.16814530  1
  O  O21  1  0.83656738  0.25000000  0.46848226  1
  O  O22  1  0.85954719  0.25000000  0.04284101  1
  O  O23  1  0.94274264  0.75000000  0.70111531  1
