# generated using pymatgen
data_Li2AlPCO7
_symmetry_space_group_name_H-M   'P 1'
_cell_length_a   8.36991029
_cell_length_b   6.19153538
_cell_length_c   5.01940654
_cell_angle_alpha   90.00000000
_cell_angle_beta   86.25234486
_cell_angle_gamma   90.00000000
_symmetry_Int_Tables_number   1
_chemical_formula_structural   Li2AlPCO7
_chemical_formula_sum   'Li4 Al2 P2 C2 O14'
_cell_volume   259.56243757
_cell_formula_units_Z   2
loop_
 _symmetry_equiv_pos_site_id
 _symmetry_equiv_pos_as_xyz
  1  'x, y, z'
loop_
 _atom_site_type_symbol
 _atom_site_label
 _atom_site_symmetry_multiplicity
 _atom_site_fract_x
 _atom_site_fract_y
 _atom_site_fract_z
 _atom_site_occupancy
  Li  Li0  1  0.21069217  0.98325585  0.22591308  1
  Li  Li1  1  0.21069217  0.51674415  0.22591308  1
  Li  Li2  1  0.78930783  0.48325585  0.77408692  1
  Li  Li3  1  0.78930783  0.01674415  0.77408692  1
  Al  Al4  1  0.34571012  0.75000000  0.79082613  1
  Al  Al5  1  0.65428988  0.25000000  0.20917387  1
  P  P6  1  0.42621847  0.25000000  0.72334947  1
  P  P7  1  0.57378153  0.75000000  0.27665053  1
  C  C8  1  0.06144708  0.75000000  0.73341292  1
  C  C9  1  0.93855292  0.25000000  0.26658708  1
  O  O10  1  0.08704124  0.25000000  0.30327774  1
  O  O11  1  0.12063638  0.75000000  0.96874267  1
  O  O12  1  0.17430773  0.75000000  0.53556171  1
  O  O13  1  0.32681188  0.05066547  0.81041240  1
  O  O14  1  0.32681188  0.44933453  0.81041240  1
  O  O15  1  0.41050688  0.75000000  0.14311723  1
  O  O16  1  0.46377406  0.25000000  0.41568639  1
  O  O17  1  0.53622594  0.75000000  0.58431361  1
  O  O18  1  0.58949312  0.25000000  0.85688277  1
  O  O19  1  0.67318812  0.55066547  0.18958760  1
  O  O20  1  0.67318812  0.94933453  0.18958760  1
  O  O21  1  0.82569227  0.25000000  0.46443829  1
  O  O22  1  0.87936362  0.25000000  0.03125733  1
  O  O23  1  0.91295876  0.75000000  0.69672226  1
