# generated using pymatgen
data_LiCo2(PO4)2
_symmetry_space_group_name_H-M   'P 1'
_cell_length_a   8.46361392
_cell_length_b   5.18490705
_cell_length_c   8.24066160
_cell_angle_alpha   90.00000000
_cell_angle_beta   105.99236232
_cell_angle_gamma   90.00000000
_symmetry_Int_Tables_number   1
_chemical_formula_structural   LiCo2(PO4)2
_chemical_formula_sum   'Li2 Co4 P4 O16'
_cell_volume   347.62990740
_cell_formula_units_Z   2
loop_
 _symmetry_equiv_pos_site_id
 _symmetry_equiv_pos_as_xyz
  1  'x, y, z'
loop_
 _atom_site_type_symbol
 _atom_site_label
 _atom_site_symmetry_multiplicity
 _atom_site_fract_x
 _atom_site_fract_y
 _atom_site_fract_z
 _atom_site_occupancy
  Li  Li0  1  0.28093379  0.32977711  0.50217264  1
  Li  Li1  1  0.78093379  0.67022289  0.50217264  1
  Co  Co2  1  0.21253066  0.31345270  0.88322777  1
  Co  Co3  1  0.38014904  0.82570792  0.35517181  1
  Co  Co4  1  0.71253066  0.68654730  0.88322777  1
  Co  Co5  1  0.88014904  0.17429208  0.35517181  1
  P  P6  1  0.01074298  0.66954389  0.24864904  1
  P  P7  1  0.33369540  0.81547054  0.73728665  1
  P  P8  1  0.51074298  0.33045611  0.24864904  1
  P  P9  1  0.83369540  0.18452946  0.73728665  1
  O  O10  1  0.00532291  0.19385636  0.87039291  1
  O  O11  1  0.05500317  0.39096152  0.31493149  1
  O  O12  1  0.20812474  0.66305679  0.80485155  1
  O  O13  1  0.15792243  0.80522907  0.21454392  1
  O  O14  1  0.27818741  0.10581234  0.71039041  1
  O  O15  1  0.34727111  0.69480828  0.57073201  1
  O  O16  1  0.50532291  0.80614364  0.87039291  1
  O  O17  1  0.43874570  0.18971940  0.37997997  1
  O  O18  1  0.37282067  0.33373071  0.07757582  1
  O  O19  1  0.55500317  0.60903748  0.31493149  1
  O  O20  1  0.70812474  0.33694321  0.80485155  1
  O  O21  1  0.65792243  0.19477093  0.21454392  1
  O  O22  1  0.77818741  0.89418766  0.71039041  1
  O  O23  1  0.84727111  0.30519172  0.57073201  1
  O  O24  1  0.93874570  0.81028060  0.37997997  1
  O  O25  1  0.87282067  0.66626929  0.07757582  1
