# generated using pymatgen
data_Li4V3Ni3(SbO8)2
_symmetry_space_group_name_H-M   'P 1'
_cell_length_a   5.95701470
_cell_length_b   5.92807405
_cell_length_c   9.69085055
_cell_angle_alpha   90.02131812
_cell_angle_beta   90.47765836
_cell_angle_gamma   119.83605865
_symmetry_Int_Tables_number   1
_chemical_formula_structural   Li4V3Ni3(SbO8)2
_chemical_formula_sum   'Li4 V3 Ni3 Sb2 O16'
_cell_volume   296.84443446
_cell_formula_units_Z   1
loop_
 _symmetry_equiv_pos_site_id
 _symmetry_equiv_pos_as_xyz
  1  'x, y, z'
loop_
 _atom_site_type_symbol
 _atom_site_label
 _atom_site_symmetry_multiplicity
 _atom_site_fract_x
 _atom_site_fract_y
 _atom_site_fract_z
 _atom_site_occupancy
  Li  Li0  1  0.32386168  0.66210445  0.89219238  1
  Li  Li1  1  0.99553447  0.99740259  0.98415088  1
  Li  Li2  1  0.00298724  0.00143030  0.49731354  1
  Li  Li3  1  0.66271477  0.33130068  0.40600160  1
  V  V4  1  0.17628923  0.83300004  0.21676372  1
  V  V5  1  0.17769114  0.34334556  0.21573858  1
  V  V6  1  0.34963098  0.17486479  0.72048626  1
  Ni  Ni7  1  0.66041045  0.83019105  0.21076554  1
  Ni  Ni8  1  0.83007757  0.65862503  0.71197885  1
  Ni  Ni9  1  0.83013807  0.17155570  0.71196558  1
  Sb  Sb10  1  0.34223601  0.67145324  0.49548802  1
  Sb  Sb11  1  0.68161395  0.34109098  0.98397964  1
  O  O12  1  0.17159457  0.83525307  0.59281894  1
  O  O13  1  0.03754864  0.51914990  0.33960217  1
  O  O14  1  0.29808732  0.64990747  0.10826558  1
  O  O15  1  0.02036507  0.00915206  0.30430881  1
  O  O16  1  0.02563667  0.01280379  0.79807008  1
  O  O17  1  0.17155538  0.33654097  0.59258573  1
  O  O18  1  0.46908098  0.96008382  0.34172537  1
  O  O19  1  0.46785946  0.50774462  0.34137709  1
  O  O20  1  0.33537783  0.16808936  0.10190820  1
  O  O21  1  0.67669025  0.83833340  0.58858683  1
  O  O22  1  0.50541810  0.47345553  0.85215542  1
  O  O23  1  0.50574751  0.03220706  0.85228939  1
  O  O24  1  0.63006066  0.31510878  0.60582179  1
  O  O25  1  0.84299764  0.67351654  0.09646162  1
  O  O26  1  0.96435723  0.48210578  0.84821579  1
  O  O27  1  0.84443811  0.17048448  0.09682258  1
