# generated using pymatgen
data_Ti3Mn2P6WO24
_symmetry_space_group_name_H-M   'P 1'
_cell_length_a   8.74011303
_cell_length_b   8.72917475
_cell_length_c   8.72917408
_cell_angle_alpha   59.99999701
_cell_angle_beta   60.04138767
_cell_angle_gamma   60.04139049
_symmetry_Int_Tables_number   1
_chemical_formula_structural   Ti3Mn2P6WO24
_chemical_formula_sum   'Ti3 Mn2 P6 W1 O24'
_cell_volume   471.21574512
_cell_formula_units_Z   1
loop_
 _symmetry_equiv_pos_site_id
 _symmetry_equiv_pos_as_xyz
  1  'x, y, z'
loop_
 _atom_site_type_symbol
 _atom_site_label
 _atom_site_symmetry_multiplicity
 _atom_site_fract_x
 _atom_site_fract_y
 _atom_site_fract_z
 _atom_site_occupancy
  Ti  Ti0  1  0.06179376  0.64606841  0.64606841  1
  Ti  Ti1  1  0.43570063  0.85476612  0.85476612  1
  Ti  Ti2  1  0.93912775  0.35362375  0.35362375  1
  Mn  Mn3  1  0.00698211  0.99767296  0.99767296  1
  Mn  Mn4  1  0.49688221  0.50103893  0.50103893  1
  P  P5  1  0.24651043  0.25168307  0.54788386  1
  P  P6  1  0.24651043  0.95392164  0.25168307  1
  P  P7  1  0.24651043  0.54788386  0.95392164  1
  P  P8  1  0.75205718  0.46092771  0.04298927  1
  P  P9  1  0.75205718  0.04298927  0.74402584  1
  P  P10  1  0.75205718  0.74402584  0.46092771  1
  W  W11  1  0.57463416  0.14178895  0.14178895  1
  O  O12  1  0.07135278  0.11843986  0.30963447  1
  O  O13  1  0.07135278  0.50057388  0.11843986  1
  O  O14  1  0.07135278  0.30963447  0.50057388  1
  O  O15  1  0.23223065  0.08854106  0.73911917  1
  O  O16  1  0.42717897  0.19493417  0.39543839  1
  O  O17  1  0.25227112  0.41644023  0.56815702  1
  O  O18  1  0.23223065  0.94010911  0.08854106  1
  O  O19  1  0.25227112  0.76313262  0.41644023  1
  O  O20  1  0.57284912  0.61799683  0.00120527  1
  O  O21  1  0.25227112  0.56815702  0.76313262  1
  O  O22  1  0.77745829  0.26761094  0.05366740  1
  O  O23  1  0.57284912  0.00120527  0.80794877  1
  O  O24  1  0.42717897  0.98244747  0.19493417  1
  O  O25  1  0.23223065  0.73911917  0.94010911  1
  O  O26  1  0.73667535  0.44644842  0.23502711  1
  O  O27  1  0.42717897  0.39543839  0.98244747  1
  O  O28  1  0.73667535  0.23502711  0.58184912  1
  O  O29  1  0.77745829  0.05366740  0.90126337  1
  O  O30  1  0.73667535  0.58184912  0.44644842  1
  O  O31  1  0.57284912  0.80794877  0.61799683  1
  O  O32  1  0.77745829  0.90126337  0.26761094  1
  O  O33  1  0.92637624  0.68213810  0.50857702  1
  O  O34  1  0.92637624  0.50857702  0.88290764  1
  O  O35  1  0.92637624  0.88290764  0.68213810  1
