# generated using pymatgen
data_Li2VSiO5
_symmetry_space_group_name_H-M   'P 1'
_cell_length_a   9.10647679
_cell_length_b   4.50867153
_cell_length_c   9.24516177
_cell_angle_alpha   90.00000000
_cell_angle_beta   90.00000000
_cell_angle_gamma   90.00000000
_symmetry_Int_Tables_number   1
_chemical_formula_structural   Li2VSiO5
_chemical_formula_sum   'Li8 V4 Si4 O20'
_cell_volume   379.58889334
_cell_formula_units_Z   4
loop_
 _symmetry_equiv_pos_site_id
 _symmetry_equiv_pos_as_xyz
  1  'x, y, z'
loop_
 _atom_site_type_symbol
 _atom_site_label
 _atom_site_symmetry_multiplicity
 _atom_site_fract_x
 _atom_site_fract_y
 _atom_site_fract_z
 _atom_site_occupancy
  Li  Li0  1  0.00000000  0.61771012  0.00442620  1
  Li  Li1  1  0.00000000  0.38228988  0.50442620  1
  Li  Li2  1  0.25116915  0.00852573  0.00273280  1
  Li  Li3  1  0.25116915  0.99147427  0.50273280  1
  Li  Li4  1  0.50000000  0.00616865  0.25501012  1
  Li  Li5  1  0.50000000  0.99383135  0.75501012  1
  Li  Li6  1  0.74883085  0.00852573  0.00273280  1
  Li  Li7  1  0.74883085  0.99147427  0.50273280  1
  V  V8  1  0.00000000  0.95926913  0.28982031  1
  V  V9  1  0.00000000  0.04073087  0.78982031  1
  V  V10  1  0.50000000  0.43317050  0.99700318  1
  V  V11  1  0.50000000  0.56682950  0.49700318  1
  Si  Si12  1  0.24946963  0.50219423  0.24834554  1
  Si  Si13  1  0.24946963  0.49780577  0.74834554  1
  Si  Si14  1  0.75053037  0.50219423  0.24834554  1
  Si  Si15  1  0.75053037  0.49780577  0.74834554  1
  O  O16  1  0.00000000  0.80368399  0.45508190  1
  O  O17  1  0.00000000  0.19631601  0.95508190  1
  O  O18  1  0.14459325  0.74386747  0.16211361  1
  O  O19  1  0.14459325  0.25613253  0.66211361  1
  O  O20  1  0.14926420  0.26314246  0.33877821  1
  O  O21  1  0.14926420  0.73685754  0.83877821  1
  O  O22  1  0.35200468  0.30238840  0.13958814  1
  O  O23  1  0.35200468  0.69761160  0.63958814  1
  O  O24  1  0.35341559  0.70451625  0.35492803  1
  O  O25  1  0.35341559  0.29548375  0.85492803  1
  O  O26  1  0.50000000  0.19342957  0.49474563  1
  O  O27  1  0.50000000  0.80657043  0.99474563  1
  O  O28  1  0.64658441  0.70451625  0.35492803  1
  O  O29  1  0.64658441  0.29548375  0.85492803  1
  O  O30  1  0.64799532  0.30238840  0.13958814  1
  O  O31  1  0.64799532  0.69761160  0.63958814  1
  O  O32  1  0.85073580  0.26314246  0.33877821  1
  O  O33  1  0.85073580  0.73685754  0.83877821  1
  O  O34  1  0.85540675  0.25613253  0.66211361  1
  O  O35  1  0.85540675  0.74386747  0.16211361  1
