# generated using pymatgen
data_NaCePCO7
_symmetry_space_group_name_H-M   'P 1'
_cell_length_a   9.62917446
_cell_length_b   7.04375761
_cell_length_c   5.46132833
_cell_angle_alpha   90.00000000
_cell_angle_beta   88.04703709
_cell_angle_gamma   90.00000000
_symmetry_Int_Tables_number   1
_chemical_formula_structural   NaCePCO7
_chemical_formula_sum   'Na2 Ce2 P2 C2 O14'
_cell_volume   370.20255144
_cell_formula_units_Z   2
loop_
 _symmetry_equiv_pos_site_id
 _symmetry_equiv_pos_as_xyz
  1  'x, y, z'
loop_
 _atom_site_type_symbol
 _atom_site_label
 _atom_site_symmetry_multiplicity
 _atom_site_fract_x
 _atom_site_fract_y
 _atom_site_fract_z
 _atom_site_occupancy
  Na  Na0  1  0.20871941  0.47939684  0.24000483  1
  Na  Na1  1  0.79128059  0.97939684  0.75999517  1
  Ce  Ce2  1  0.34622599  0.76876319  0.78177499  1
  Ce  Ce3  1  0.65377401  0.26876319  0.21822501  1
  P  P4  1  0.42529084  0.26311830  0.72018621  1
  P  P5  1  0.57470916  0.76311830  0.27981379  1
  C  C6  1  0.06704133  0.73273358  0.72320322  1
  C  C7  1  0.93295867  0.23273358  0.27679678  1
  O  O8  1  0.05787228  0.25491186  0.30888423  1
  O  O9  1  0.12531698  0.73184006  0.94140537  1
  O  O10  1  0.16275040  0.71429911  0.54052573  1
  O  O11  1  0.33706911  0.08518920  0.78166466  1
  O  O12  1  0.35065190  0.44131636  0.82414492  1
  O  O13  1  0.42799499  0.74317526  0.16803116  1
  O  O14  1  0.44850395  0.28310625  0.43689800  1
  O  O15  1  0.55149605  0.78310625  0.56310200  1
  O  O16  1  0.57200501  0.24317526  0.83196884  1
  O  O17  1  0.64934810  0.94131636  0.17585508  1
  O  O18  1  0.66293089  0.58518920  0.21833534  1
  O  O19  1  0.83724960  0.21429911  0.45947427  1
  O  O20  1  0.87468302  0.23184006  0.05859463  1
  O  O21  1  0.94212772  0.75491186  0.69111577  1
