# generated using pymatgen
data_Li2SiNiO4
_symmetry_space_group_name_H-M   'P 1'
_cell_length_a   10.67605811
_cell_length_b   5.02149307
_cell_length_c   6.40309962
_cell_angle_alpha   90.00000000
_cell_angle_beta   90.00000000
_cell_angle_gamma   90.00000000
_symmetry_Int_Tables_number   1
_chemical_formula_structural   Li2SiNiO4
_chemical_formula_sum   'Li8 Si4 Ni4 O16'
_cell_volume   343.26858147
_cell_formula_units_Z   4
loop_
 _symmetry_equiv_pos_site_id
 _symmetry_equiv_pos_as_xyz
  1  'x, y, z'
loop_
 _atom_site_type_symbol
 _atom_site_label
 _atom_site_symmetry_multiplicity
 _atom_site_fract_x
 _atom_site_fract_y
 _atom_site_fract_z
 _atom_site_occupancy
  Li  Li0  1  0.07991361  0.79335136  0.86911159  1
  Li  Li1  1  0.16258718  0.19284907  0.11891518  1
  Li  Li2  1  0.33741282  0.69284907  0.61891518  1
  Li  Li3  1  0.42008639  0.29335236  0.36911159  1
  Li  Li4  1  0.57991361  0.70664864  0.86911159  1
  Li  Li5  1  0.66258718  0.30715093  0.11891518  1
  Li  Li6  1  0.83741282  0.80715093  0.61891518  1
  Li  Li7  1  0.92008639  0.20664864  0.36911159  1
  Si  Si8  1  0.08475874  0.68792542  0.36852438  1
  Si  Si9  1  0.41524126  0.18792542  0.86852438  1
  Si  Si10  1  0.58475874  0.81207458  0.36852438  1
  Si  Si11  1  0.91524126  0.31207458  0.86852438  1
  Ni  Ni12  1  0.16502734  0.19307690  0.61353682  1
  Ni  Ni13  1  0.33497266  0.69307690  0.11353682  1
  Ni  Ni14  1  0.66502734  0.30692310  0.61353682  1
  Ni  Ni15  1  0.83497266  0.80692310  0.11353682  1
  O  O16  1  0.06086716  0.20450760  0.86709566  1
  O  O17  1  0.08639132  0.35920810  0.36646192  1
  O  O18  1  0.15770185  0.79479016  0.58112924  1
  O  O19  1  0.15915715  0.79096500  0.15732521  1
  O  O20  1  0.34084285  0.29096500  0.65732521  1
  O  O21  1  0.34229815  0.29479016  0.08112924  1
  O  O22  1  0.41360868  0.85920810  0.86646192  1
  O  O23  1  0.43913284  0.70450760  0.36709566  1
  O  O24  1  0.56086716  0.29549240  0.86709566  1
  O  O25  1  0.58639132  0.14079190  0.36646192  1
  O  O26  1  0.65770185  0.70520984  0.58112924  1
  O  O27  1  0.65915715  0.70903500  0.15732521  1
  O  O28  1  0.84084285  0.20903500  0.65732521  1
  O  O29  1  0.84229815  0.20520984  0.08112924  1
  O  O30  1  0.91360868  0.64079190  0.86646192  1
  O  O31  1  0.93913284  0.79549240  0.36709566  1
