# generated using pymatgen
data_P4WO12
_symmetry_space_group_name_H-M   'P 1'
_cell_length_a   5.38011729
_cell_length_b   10.59269673
_cell_length_c   10.59269640
_cell_angle_alpha   71.57629610
_cell_angle_beta   98.53112475
_cell_angle_gamma   98.53112309
_symmetry_Int_Tables_number   1
_chemical_formula_structural   P4WO12
_chemical_formula_sum   'P8 W2 O24'
_cell_volume   563.07729618
_cell_formula_units_Z   2
loop_
 _symmetry_equiv_pos_site_id
 _symmetry_equiv_pos_as_xyz
  1  'x, y, z'
loop_
 _atom_site_type_symbol
 _atom_site_label
 _atom_site_symmetry_multiplicity
 _atom_site_fract_x
 _atom_site_fract_y
 _atom_site_fract_z
 _atom_site_occupancy
  P  P0  1  0.18106269  0.78068716  0.36726158  1
  P  P1  1  0.18106269  0.36726158  0.78068716  1
  P  P2  1  0.53882685  0.70225083  0.94583547  1
  P  P3  1  0.53882685  0.94583547  0.70225083  1
  P  P4  1  0.46117315  0.05416453  0.29774917  1
  P  P5  1  0.46117315  0.29774917  0.05416453  1
  P  P6  1  0.81893731  0.21931284  0.63273842  1
  P  P7  1  0.81893731  0.63273842  0.21931284  1
  W  W8  1  0.00000000  0.50000000  0.00000000  1
  W  W9  1  0.00000000  0.00000000  0.50000000  1
  O  O10  1  0.01996285  0.43920090  0.84039544  1
  O  O11  1  0.01996285  0.84039544  0.43920090  1
  O  O12  1  0.00000000  0.23586405  0.76413595  1
  O  O13  1  1.00000000  0.76413595  0.23586405  1
  O  O14  1  0.25339748  0.66726152  0.93084854  1
  O  O15  1  0.25339748  0.93084854  0.66726152  1
  O  O16  1  0.32194163  0.66919211  0.44434741  1
  O  O17  1  0.32194163  0.44434741  0.66919211  1
  O  O18  1  0.36858651  0.28240361  0.91156488  1
  O  O19  1  0.36858651  0.91156488  0.28240361  1
  O  O20  1  0.59218913  0.85363903  0.85363903  1
  O  O21  1  0.31140170  0.38801941  0.09110466  1
  O  O22  1  0.31140170  0.09110466  0.38801941  1
  O  O23  1  0.68859830  0.61198059  0.90889534  1
  O  O24  1  0.68859830  0.90889534  0.61198059  1
  O  O25  1  0.40781087  0.14636097  0.14636097  1
  O  O26  1  0.63141349  0.08843512  0.71759639  1
  O  O27  1  0.63141349  0.71759639  0.08843512  1
  O  O28  1  0.67805837  0.55565259  0.33080789  1
  O  O29  1  0.67805837  0.33080789  0.55565259  1
  O  O30  1  0.74660252  0.06915146  0.33273848  1
  O  O31  1  0.74660252  0.33273848  0.06915146  1
  O  O32  1  0.98003715  0.56079910  0.15960456  1
  O  O33  1  0.98003715  0.15960456  0.56079910  1
