# generated using pymatgen
data_Li5Mn6(BO3)6
_symmetry_space_group_name_H-M   'P 1'
_cell_length_a   9.14488344
_cell_length_b   9.13762213
_cell_length_c   11.61007400
_cell_angle_alpha   66.82520219
_cell_angle_beta   68.44993393
_cell_angle_gamma   60.07891151
_symmetry_Int_Tables_number   1
_chemical_formula_structural   Li5Mn6(BO3)6
_chemical_formula_sum   'Li10 Mn12 B12 O36'
_cell_volume   754.99120561
_cell_formula_units_Z   2
loop_
 _symmetry_equiv_pos_site_id
 _symmetry_equiv_pos_as_xyz
  1  'x, y, z'
loop_
 _atom_site_type_symbol
 _atom_site_label
 _atom_site_symmetry_multiplicity
 _atom_site_fract_x
 _atom_site_fract_y
 _atom_site_fract_z
 _atom_site_occupancy
  Li  Li0  1  0.44613317  0.09594508  0.33418173  1
  Li  Li1  1  0.74247862  0.08712688  0.08664491  1
  Li  Li2  1  0.11555907  0.76669066  0.32958710  1
  Li  Li3  1  0.24386398  0.58139805  0.59000889  1
  Li  Li4  1  0.40819013  0.75997541  0.08541126  1
  Li  Li5  1  0.78154956  0.42089013  0.33551818  1
  Li  Li6  1  0.61365594  0.28929918  0.83176068  1
  Li  Li7  1  0.91090959  0.24701656  0.58610926  1
  Li  Li8  1  0.27980943  0.96517761  0.83468910  1
  Li  Li9  1  0.94361722  0.62450354  0.83622556  1
  Mn  Mn10  1  0.06088423  0.09477944  0.11848743  1
  Mn  Mn11  1  0.09755763  0.43267368  0.36533597  1
  Mn  Mn12  1  0.38865354  0.40481360  0.11381883  1
  Mn  Mn13  1  0.26718176  0.27893386  0.87224761  1
  Mn  Mn14  1  0.76769776  0.08302902  0.37199866  1
  Mn  Mn15  1  0.56265083  0.22587820  0.61864147  1
  Mn  Mn16  1  0.44448436  0.75202401  0.36639230  1
  Mn  Mn17  1  0.25663735  0.90371809  0.61623628  1
  Mn  Mn18  1  0.75611656  0.72406536  0.11702324  1
  Mn  Mn19  1  0.59742752  0.60599754  0.86543904  1
  Mn  Mn20  1  0.89124245  0.59263493  0.61440155  1
  Mn  Mn21  1  0.94266994  0.93827007  0.86528285  1
  B  B22  1  0.09931722  0.09421227  0.37323514  1
  B  B23  1  0.41339002  0.05466481  0.12278722  1
  B  B24  1  0.22312434  0.25093267  0.62737868  1
  B  B25  1  0.06939175  0.74405293  0.12343976  1
  B  B26  1  0.42605433  0.42397547  0.37409204  1
  B  B27  1  0.72276993  0.39981211  0.12540617  1
  B  B28  1  0.26458495  0.60757238  0.86752840  1
  B  B29  1  0.57052921  0.56169566  0.62557457  1
  B  B30  1  0.92527897  0.27611511  0.87521629  1
  B  B31  1  0.76693795  0.76046024  0.36772457  1
  B  B32  1  0.59673692  0.93557021  0.87478141  1
  B  B33  1  0.91452155  0.90955554  0.62235107  1
  O  O34  1  0.04254607  0.01810895  0.32331898  1
  O  O35  1  0.26683751  0.15154240  0.07099518  1
  O  O36  1  0.26192056  0.99865760  0.40564304  1
  O  O37  1  0.49455092  0.13730913  0.13700329  1
  O  O38  1  0.12716507  0.56318760  0.16221243  1
  O  O39  1  0.07392409  0.34926114  0.57707919  1
  O  O40  1  0.30511091  0.07493352  0.64791202  1
  O  O41  1  0.08545990  0.17359928  0.91265495  1
  O  O42  1  0.37001990  0.34247150  0.33007925  1
  O  O43  1  0.29013197  0.33598266  0.66036926  1
  O  O44  1  0.15460967  0.82350466  0.13700950  1
  O  O45  1  0.79020522  0.21507401  0.15708971  1
  O  O46  1  0.57490449  0.50087668  0.07285388  1
  O  O47  1  0.32694706  0.59370782  0.38476039  1
  O  O48  1  0.58575596  0.32905166  0.41151272  1
  O  O49  1  0.54092617  0.11771157  0.82690626  1
  O  O50  1  0.16635814  0.53758533  0.86390262  1
  O  O51  1  0.97684408  0.99246240  0.66028378  1
  O  O52  1  0.80154913  0.47352161  0.14934648  1
  O  O53  1  0.47714305  0.87179627  0.16034329  1
  O  O54  1  0.41924289  0.66102309  0.57686946  1
  O  O55  1  0.65627385  0.38441882  0.63748626  1
  O  O56  1  0.42335010  0.49604335  0.90567402  1
  O  O57  1  0.99560075  0.25817418  0.39252609  1
  O  O58  1  0.21403005  0.78859591  0.83272531  1
  O  O59  1  0.82619142  0.19482588  0.88569442  1
  O  O60  1  0.71626084  0.66371149  0.33405199  1
  O  O61  1  0.62928626  0.64510092  0.66512643  1
  O  O62  1  0.91854589  0.84525615  0.07410812  1
  O  O63  1  0.66945360  0.93283594  0.36141824  1
  O  O64  1  0.92502604  0.67578045  0.40684283  1
  O  O65  1  0.86992617  0.45726704  0.83186582  1
  O  O66  1  0.49268989  0.85647683  0.89243821  1
  O  O67  1  0.76818447  0.00913165  0.57084168  1
  O  O68  1  0.99761070  0.73155045  0.63681727  1
  O  O69  1  0.75963245  0.83445878  0.90657141  1
