# generated using pymatgen
data_Ho3ReO8
_symmetry_space_group_name_H-M   'P 1'
_cell_length_a   7.19788763
_cell_length_b   7.18244672
_cell_length_c   6.28037142
_cell_angle_alpha   90.00000000
_cell_angle_beta   90.00000000
_cell_angle_gamma   111.87038109
_symmetry_Int_Tables_number   1
_chemical_formula_structural   Ho3ReO8
_chemical_formula_sum   'Ho6 Re2 O16'
_cell_volume   301.31747975
_cell_formula_units_Z   2
loop_
 _symmetry_equiv_pos_site_id
 _symmetry_equiv_pos_as_xyz
  1  'x, y, z'
loop_
 _atom_site_type_symbol
 _atom_site_label
 _atom_site_symmetry_multiplicity
 _atom_site_fract_x
 _atom_site_fract_y
 _atom_site_fract_z
 _atom_site_occupancy
  Ho  Ho0  1  0.10777948  0.32824227  0.75000000  1
  Ho  Ho1  1  0.40600045  0.59473431  0.25000000  1
  Ho  Ho2  1  0.33725000  0.10850110  0.25000000  1
  Ho  Ho3  1  0.66275000  0.89149890  0.75000000  1
  Ho  Ho4  1  0.59399955  0.40526569  0.75000000  1
  Ho  Ho5  1  0.89222052  0.67175773  0.25000000  1
  Re  Re6  1  0.17707830  0.81702849  0.75000000  1
  Re  Re7  1  0.82292170  0.18297151  0.25000000  1
  O  O8  1  0.04460856  0.43161540  0.25000000  1
  O  O9  1  0.18795476  0.81380372  0.05060214  1
  O  O10  1  0.18795476  0.81380372  0.44939786  1
  O  O11  1  0.98001192  0.03049833  0.25000000  1
  O  O12  1  0.33982802  0.65290371  0.75000000  1
  O  O13  1  0.33040476  0.32793530  0.99991801  1
  O  O14  1  0.33040476  0.32793530  0.50008199  1
  O  O15  1  0.57475158  0.95851018  0.25000000  1
  O  O16  1  0.42524842  0.04148982  0.75000000  1
  O  O17  1  0.66959524  0.67206470  0.00008199  1
  O  O18  1  0.66959524  0.67206470  0.49991801  1
  O  O19  1  0.66017198  0.34709629  0.25000000  1
  O  O20  1  0.01998808  0.96950167  0.75000000  1
  O  O21  1  0.81204524  0.18619628  0.94939786  1
  O  O22  1  0.81204524  0.18619628  0.55060214  1
  O  O23  1  0.95539144  0.56838460  0.75000000  1
