# generated using pymatgen
data_V2ZnO5
_symmetry_space_group_name_H-M   'P 1'
_cell_length_a   3.42557286
_cell_length_b   4.91592356
_cell_length_c   11.77908541
_cell_angle_alpha   89.98957480
_cell_angle_beta   89.99998752
_cell_angle_gamma   90.00435588
_symmetry_Int_Tables_number   1
_chemical_formula_structural   V2ZnO5
_chemical_formula_sum   'V4 Zn2 O10'
_cell_volume   198.35807886
_cell_formula_units_Z   2
loop_
 _symmetry_equiv_pos_site_id
 _symmetry_equiv_pos_as_xyz
  1  'x, y, z'
loop_
 _atom_site_type_symbol
 _atom_site_label
 _atom_site_symmetry_multiplicity
 _atom_site_fract_x
 _atom_site_fract_y
 _atom_site_fract_z
 _atom_site_occupancy
  V  V0  1  0.25000352  0.39900084  0.09942549  1
  V  V1  1  0.74998306  0.60109385  0.90056673  1
  V  V2  1  0.75000518  0.60101726  0.59939034  1
  V  V3  1  0.24998883  0.39896449  0.40060212  1
  Zn  Zn4  1  0.75005338  0.82935063  0.25004997  1
  Zn  Zn5  1  0.24993825  0.17064482  0.75000413  1
  O  O6  1  0.74998230  0.41370508  0.75000187  1
  O  O7  1  0.25002382  0.58629215  0.25000295  1
  O  O8  1  0.75001507  0.56835204  0.07242824  1
  O  O9  1  0.24998088  0.43167934  0.92755600  1
  O  O10  1  0.75000440  0.56827266  0.42754520  1
  O  O11  1  0.24999131  0.43168507  0.57245015  1
  O  O12  1  0.24995700  0.06804559  0.36443586  1
  O  O13  1  0.75005915  0.93189021  0.63554926  1
  O  O14  1  0.75003633  0.93182032  0.86437874  1
  O  O15  1  0.24996953  0.06818465  0.13561194  1
