# generated using pymatgen
data_Li3Mn4O8
_symmetry_space_group_name_H-M   'P 1'
_cell_length_a   5.76395683
_cell_length_b   5.93518283
_cell_length_c   6.02546163
_cell_angle_alpha   61.54934225
_cell_angle_beta   61.42557303
_cell_angle_gamma   90.00000000
_symmetry_Int_Tables_number   1
_chemical_formula_structural   Li3Mn4O8
_chemical_formula_sum   'Li3 Mn4 O8'
_cell_volume   152.07315561
_cell_formula_units_Z   1
loop_
 _symmetry_equiv_pos_site_id
 _symmetry_equiv_pos_as_xyz
  1  'x, y, z'
loop_
 _atom_site_type_symbol
 _atom_site_label
 _atom_site_symmetry_multiplicity
 _atom_site_fract_x
 _atom_site_fract_y
 _atom_site_fract_z
 _atom_site_occupancy
  Li  Li0  1  0.50000000  0.00000000  0.50000000  1
  Li  Li1  1  0.50000000  0.50000000  0.00000000  1
  Li  Li2  1  0.00000000  0.50000000  0.00000000  1
  Mn  Mn3  1  0.50000000  0.50000000  0.50000000  1
  Mn  Mn4  1  0.50000000  0.00000000  0.00000000  1
  Mn  Mn5  1  0.00000000  0.50000000  0.50000000  1
  Mn  Mn6  1  0.00000000  0.00000000  0.00000000  1
  O  O7  1  0.72152135  0.74110697  0.05695729  1
  O  O8  1  0.73963648  0.71361306  0.51241112  1
  O  O9  1  0.75204760  0.28638694  0.48758888  1
  O  O10  1  0.25622732  0.78672326  0.98754536  1
  O  O11  1  0.74377268  0.21327674  0.01245464  1
  O  O12  1  0.24795240  0.71361306  0.51241112  1
  O  O13  1  0.26036352  0.28638694  0.48758888  1
  O  O14  1  0.27847865  0.25889303  0.94304271  1
