# generated using pymatgen
data_Y(BO2)3
_symmetry_space_group_name_H-M   'P 1'
_cell_length_a   18.39919568
_cell_length_b   4.44450454
_cell_length_c   4.26953172
_cell_angle_alpha   90.00000000
_cell_angle_beta   90.00000000
_cell_angle_gamma   90.00000000
_symmetry_Int_Tables_number   1
_chemical_formula_structural   Y(BO2)3
_chemical_formula_sum   'Y4 B12 O24'
_cell_volume   349.14227454
_cell_formula_units_Z   4
loop_
 _symmetry_equiv_pos_site_id
 _symmetry_equiv_pos_as_xyz
  1  'x, y, z'
loop_
 _atom_site_type_symbol
 _atom_site_label
 _atom_site_symmetry_multiplicity
 _atom_site_fract_x
 _atom_site_fract_y
 _atom_site_fract_z
 _atom_site_occupancy
  Y  Y0  1  0.16534779  0.82137888  0.60086588  1
  Y  Y1  1  0.33465221  0.82137888  0.10086588  1
  Y  Y2  1  0.66534779  0.17862112  0.60086588  1
  Y  Y3  1  0.83465221  0.17862112  0.10086588  1
  B  B4  1  0.00126617  0.17487883  0.69698922  1
  B  B5  1  0.07368416  0.32945757  0.16909108  1
  B  B6  1  0.21258871  0.35477944  0.12598145  1
  B  B7  1  0.28741129  0.35477944  0.62598145  1
  B  B8  1  0.42631584  0.32945757  0.66909108  1
  B  B9  1  0.49873383  0.17487883  0.19698922  1
  B  B10  1  0.50126617  0.82512117  0.69698922  1
  B  B11  1  0.57368416  0.67054243  0.16909108  1
  B  B12  1  0.71258871  0.64522056  0.12598145  1
  B  B13  1  0.78741129  0.64522056  0.62598145  1
  B  B14  1  0.92631584  0.67054243  0.66909108  1
  B  B15  1  0.99873383  0.82512117  0.19698922  1
  O  O16  1  0.01596708  0.13396022  0.33916536  1
  O  O17  1  0.06269864  0.64428233  0.25523207  1
  O  O18  1  0.06861351  0.26901089  0.83427526  1
  O  O19  1  0.14584197  0.23544836  0.27544686  1
  O  O20  1  0.20958650  0.68176785  0.11775695  1
  O  O21  1  0.22327955  0.24054310  0.80663787  1
  O  O22  1  0.27672045  0.24054310  0.30663787  1
  O  O23  1  0.29041350  0.68176785  0.61775695  1
  O  O24  1  0.35415803  0.23544836  0.77544686  1
  O  O25  1  0.43138649  0.26901089  0.33427526  1
  O  O26  1  0.43730136  0.64428233  0.75523207  1
  O  O27  1  0.48403292  0.13396022  0.83916536  1
  O  O28  1  0.51596708  0.86603978  0.33916536  1
  O  O29  1  0.56269864  0.35571767  0.25523207  1
  O  O30  1  0.56861351  0.73098911  0.83427526  1
  O  O31  1  0.64584197  0.76455164  0.27544686  1
  O  O32  1  0.70958650  0.31823215  0.11775695  1
  O  O33  1  0.72327955  0.75945690  0.80663787  1
  O  O34  1  0.77672045  0.75945690  0.30663787  1
  O  O35  1  0.79041350  0.31823215  0.61775695  1
  O  O36  1  0.85415803  0.76455164  0.77544686  1
  O  O37  1  0.93138649  0.73098911  0.33427526  1
  O  O38  1  0.93730136  0.35571767  0.75523207  1
  O  O39  1  0.98403292  0.86603978  0.83916536  1
