# generated using pymatgen
data_Li21(FeO4)4
_symmetry_space_group_name_H-M   'P 1'
_cell_length_a   6.54643995
_cell_length_b   6.54666639
_cell_length_c   9.49582360
_cell_angle_alpha   89.90401959
_cell_angle_beta   90.09497471
_cell_angle_gamma   87.58602621
_symmetry_Int_Tables_number   1
_chemical_formula_structural   Li21(FeO4)4
_chemical_formula_sum   'Li21 Fe4 O16'
_cell_volume   406.60358990
_cell_formula_units_Z   1
loop_
 _symmetry_equiv_pos_site_id
 _symmetry_equiv_pos_as_xyz
  1  'x, y, z'
loop_
 _atom_site_type_symbol
 _atom_site_label
 _atom_site_symmetry_multiplicity
 _atom_site_fract_x
 _atom_site_fract_y
 _atom_site_fract_z
 _atom_site_occupancy
  Li  Li0  1  0.03584611  0.95004203  0.38785856  1
  Li  Li1  1  0.04458657  0.95587575  0.87962753  1
  Li  Li2  1  0.21905690  0.27270412  0.34743371  1
  Li  Li3  1  0.27648560  0.21959948  0.09767867  1
  Li  Li4  1  0.22207604  0.27564317  0.84607398  1
  Li  Li5  1  0.25012648  0.24368511  0.59650522  1
  Li  Li6  1  0.45582420  0.54457822  0.37043441  1
  Li  Li7  1  0.45010412  0.53589507  0.86215527  1
  Li  Li8  1  0.48143747  0.97369649  0.36395522  1
  Li  Li9  1  0.47367455  0.98144525  0.88606671  1
  Li  Li10  1  0.53511548  0.45642887  0.11511216  1
  Li  Li11  1  0.52914075  0.02915689  0.62500141  1
  Li  Li12  1  0.53077845  0.46485397  0.61696295  1
  Li  Li13  1  0.71961957  0.77642762  0.15236274  1
  Li  Li14  1  0.77556364  0.72208312  0.40393752  1
  Li  Li15  1  0.74368111  0.75013779  0.65349981  1
  Li  Li16  1  0.77275592  0.71905866  0.90259107  1
  Li  Li17  1  0.95647014  0.03508674  0.13493412  1
  Li  Li18  1  0.96483670  0.03076621  0.63303533  1
  Li  Li19  1  0.97714523  0.47712042  0.12506328  1
  Li  Li20  1  0.98430181  0.48430864  0.62496221  1
  Fe  Fe21  1  0.25390458  0.75377071  0.12505723  1
  Fe  Fe22  1  0.25333414  0.75332645  0.62497688  1
  Fe  Fe23  1  0.75609919  0.25549444  0.37354869  1
  Fe  Fe24  1  0.75538417  0.25612982  0.87600571  1
  O  O25  1  0.99822768  0.23935110  0.48726933  1
  O  O26  1  0.00016614  0.23420551  0.98886960  1
  O  O27  1  0.26531087  0.47861965  0.71436818  1
  O  O28  1  0.23734530  0.99730400  0.23927697  1
  O  O29  1  0.25481209  0.01981037  0.74018099  1
  O  O30  1  0.26474199  0.48847839  0.21340925  1
  O  O31  1  0.49300186  0.26460078  0.96488153  1
  O  O32  1  0.49391015  0.25089938  0.47208765  1
  O  O33  1  0.49728961  0.73735383  0.01077672  1
  O  O34  1  0.51979421  0.75481352  0.50982928  1
  O  O35  1  0.75091771  0.99392978  0.77789094  1
  O  O36  1  0.76460299  0.99292490  0.28512104  1
  O  O37  1  0.73424213  0.50015432  0.26113667  1
  O  O38  1  0.73937645  0.49821926  0.76274146  1
  O  O39  1  0.98847002  0.76467367  0.03667238  1
  O  O40  1  0.97859592  0.76531351  0.53564864  1
