# generated using pymatgen
data_LiMnPCO7
_symmetry_space_group_name_H-M   'P 1'
_cell_length_a   9.48560411
_cell_length_b   10.20354878
_cell_length_c   6.24434450
_cell_angle_alpha   90.00000000
_cell_angle_beta   90.00000000
_cell_angle_gamma   61.64543390
_symmetry_Int_Tables_number   1
_chemical_formula_structural   LiMnPCO7
_chemical_formula_sum   'Li4 Mn4 P4 C4 O28'
_cell_volume   531.86122396
_cell_formula_units_Z   4
loop_
 _symmetry_equiv_pos_site_id
 _symmetry_equiv_pos_as_xyz
  1  'x, y, z'
loop_
 _atom_site_type_symbol
 _atom_site_label
 _atom_site_symmetry_multiplicity
 _atom_site_fract_x
 _atom_site_fract_y
 _atom_site_fract_z
 _atom_site_occupancy
  Li  Li0  1  0.73867839  0.25460028  0.53200207  1
  Li  Li1  1  0.73867839  0.75460028  0.96799793  1
  Li  Li2  1  0.26132161  0.24539972  0.46799793  1
  Li  Li3  1  0.26132161  0.74539972  0.03200207  1
  Mn  Mn4  1  0.67084678  0.06153004  0.25065237  1
  Mn  Mn5  1  0.67084678  0.56153004  0.24934763  1
  Mn  Mn6  1  0.32915322  0.43846996  0.74934763  1
  Mn  Mn7  1  0.32915322  0.93846996  0.75065237  1
  P  P8  1  0.57519334  0.07388738  0.74961075  1
  P  P9  1  0.57519334  0.57388738  0.75038925  1
  P  P10  1  0.42480666  0.42611262  0.25038925  1
  P  P11  1  0.42480666  0.92611262  0.24961075  1
  C  C12  1  0.95206015  0.37849900  0.25839542  1
  C  C13  1  0.95206015  0.87849900  0.24160458  1
  C  C14  1  0.04793985  0.12150100  0.74160458  1
  C  C15  1  0.04793985  0.62150100  0.75839542  1
  O  O16  1  0.89768338  0.02358622  0.25620813  1
  O  O17  1  0.89768338  0.52358622  0.24379187  1
  O  O18  1  0.90627114  0.21679265  0.73339898  1
  O  O19  1  0.82962553  0.34864466  0.26493646  1
  O  O20  1  0.90627114  0.71679265  0.76660102  1
  O  O21  1  0.82962553  0.84864466  0.23506354  1
  O  O22  1  0.67551123  0.06871183  0.94625175  1
  O  O23  1  0.68766753  0.06068395  0.55949309  1
  O  O24  1  0.68766753  0.56068395  0.94050691  1
  O  O25  1  0.67551123  0.56871183  0.55374825  1
  O  O26  1  0.58521283  0.28069965  0.27224928  1
  O  O27  1  0.53695148  0.44103069  0.74003352  1
  O  O28  1  0.58521283  0.78069965  0.22775072  1
  O  O29  1  0.53695148  0.94103069  0.75996648  1
  O  O30  1  0.46304852  0.05896931  0.25996648  1
  O  O31  1  0.41478717  0.21930035  0.72775072  1
  O  O32  1  0.46304852  0.55896931  0.24003352  1
  O  O33  1  0.41478717  0.71930035  0.77224928  1
  O  O34  1  0.32448877  0.43128817  0.05374825  1
  O  O35  1  0.31233247  0.43931605  0.44050691  1
  O  O36  1  0.32448877  0.93128817  0.44625175  1
  O  O37  1  0.31233247  0.93931605  0.05949309  1
  O  O38  1  0.17037447  0.15135534  0.73506354  1
  O  O39  1  0.09372886  0.28320735  0.26660102  1
  O  O40  1  0.17037447  0.65135534  0.76493646  1
  O  O41  1  0.09372886  0.78320735  0.23339898  1
  O  O42  1  0.10231662  0.47641378  0.74379187  1
  O  O43  1  0.10231662  0.97641378  0.75620813  1
