# generated using pymatgen
data_NbVO5
_symmetry_space_group_name_H-M   'P 1'
_cell_length_a   6.87996454
_cell_length_b   6.87996454
_cell_length_c   4.29901442
_cell_angle_alpha   90.00000000
_cell_angle_beta   90.00000000
_cell_angle_gamma   90.00000000
_symmetry_Int_Tables_number   1
_chemical_formula_structural   NbVO5
_chemical_formula_sum   'Nb2 V2 O10'
_cell_volume   203.48917055
_cell_formula_units_Z   2
loop_
 _symmetry_equiv_pos_site_id
 _symmetry_equiv_pos_as_xyz
  1  'x, y, z'
loop_
 _atom_site_type_symbol
 _atom_site_label
 _atom_site_symmetry_multiplicity
 _atom_site_fract_x
 _atom_site_fract_y
 _atom_site_fract_z
 _atom_site_occupancy
  Nb  Nb0  1  0.25000000  0.25000000  0.79794326  1
  Nb  Nb1  1  0.75000000  0.75000000  0.20205774  1
  V  V2  1  0.25000000  0.75000000  0.50000000  1
  V  V3  1  0.75000000  0.25000000  0.50000000  1
  O  O4  1  0.03990550  0.74230652  0.27602577  1
  O  O5  1  0.24230652  0.96009450  0.72397423  1
  O  O6  1  0.25000000  0.25000000  0.21171888  1
  O  O7  1  0.25769348  0.53990550  0.72397423  1
  O  O8  1  0.46009450  0.75769348  0.27602577  1
  O  O9  1  0.53990550  0.24230652  0.72397423  1
  O  O10  1  0.74230652  0.46009450  0.27602577  1
  O  O11  1  0.75000000  0.75000000  0.78828112  1
  O  O12  1  0.75769348  0.03990550  0.27602577  1
  O  O13  1  0.96009450  0.25769348  0.72397423  1
