# generated using pymatgen
data_Li3Mn2P2(CO7)2
_symmetry_space_group_name_H-M   'P 1'
_cell_length_a   8.34556910
_cell_length_b   8.19872151
_cell_length_c   8.25768978
_cell_angle_alpha   76.04773874
_cell_angle_beta   87.42968525
_cell_angle_gamma   92.47763516
_symmetry_Int_Tables_number   1
_chemical_formula_structural   Li3Mn2P2(CO7)2
_chemical_formula_sum   'Li6 Mn4 P4 C4 O28'
_cell_volume   546.94284236
_cell_formula_units_Z   2
loop_
 _symmetry_equiv_pos_site_id
 _symmetry_equiv_pos_as_xyz
  1  'x, y, z'
loop_
 _atom_site_type_symbol
 _atom_site_label
 _atom_site_symmetry_multiplicity
 _atom_site_fract_x
 _atom_site_fract_y
 _atom_site_fract_z
 _atom_site_occupancy
  Li  Li0  1  0.73409751  0.09773118  0.85844981  1
  Li  Li1  1  0.75149145  0.61295889  0.37515199  1
  Li  Li2  1  0.74937834  0.38223976  0.12414656  1
  Li  Li3  1  0.24708674  0.61984051  0.87256361  1
  Li  Li4  1  0.26604092  0.11101292  0.34109269  1
  Li  Li5  1  0.25495855  0.38781252  0.62845081  1
  Mn  Mn6  1  0.66057284  0.01918729  0.23074211  1
  Mn  Mn7  1  0.67088215  0.52858503  0.72850683  1
  Mn  Mn8  1  0.33016947  0.48545554  0.26961072  1
  Mn  Mn9  1  0.33764093  0.97698002  0.77508185  1
  P  P10  1  0.57687327  0.23939309  0.50994638  1
  P  P11  1  0.57896418  0.73646787  0.01505471  1
  P  P12  1  0.42135384  0.26109537  0.98294107  1
  P  P13  1  0.42148420  0.76179237  0.49540652  1
  C  C14  1  0.95375054  0.48153414  0.76426569  1
  C  C15  1  0.94509479  0.98257004  0.27018893  1
  C  C16  1  0.05481912  0.02356298  0.73470309  1
  C  C17  1  0.04675973  0.51259535  0.22776889  1
  O  O18  1  0.90160262  0.59612962  0.64371088  1
  O  O19  1  0.88711163  0.10455251  0.15592039  1
  O  O20  1  0.91334109  0.05859915  0.71895123  1
  O  O21  1  0.83457251  0.39016830  0.86174847  1
  O  O22  1  0.89918177  0.53089102  0.21258874  1
  O  O23  1  0.82613173  0.87590674  0.34917108  1
  O  O24  1  0.68055103  0.38033546  0.55177483  1
  O  O25  1  0.68868877  0.67794203  0.89169865  1
  O  O26  1  0.67338568  0.18872684  0.36598272  1
  O  O27  1  0.67226414  0.88706429  0.05864955  1
  O  O28  1  0.54398343  0.09101883  0.66983729  1
  O  O29  1  0.58753430  0.69664385  0.54690579  1
  O  O30  1  0.59069197  0.20262922  0.04094828  1
  O  O31  1  0.54389284  0.58955554  0.17595786  1
  O  O32  1  0.45344524  0.42073340  0.83420369  1
  O  O33  1  0.40936986  0.29858839  0.45181042  1
  O  O34  1  0.41433711  0.78925017  0.94515310  1
  O  O35  1  0.45464777  0.92169798  0.34702646  1
  O  O36  1  0.32370073  0.12328252  0.92579679  1
  O  O37  1  0.32421779  0.81073065  0.64037916  1
  O  O38  1  0.31531200  0.62459874  0.45079661  1
  O  O39  1  0.32299167  0.29954665  0.12802618  1
  O  O40  1  0.17735488  0.11347352  0.63885997  1
  O  O41  1  0.09907603  0.45785426  0.78937844  1
  O  O42  1  0.15971532  0.59917113  0.12251548  1
  O  O43  1  0.08680710  0.96960417  0.30267080  1
  O  O44  1  0.10577786  0.40499573  0.35265421  1
  O  O45  1  0.10889255  0.89931342  0.84662666  1
