# generated using pymatgen
data_LiMnPCO7
_symmetry_space_group_name_H-M   'P 1'
_cell_length_a   8.42103575
_cell_length_b   10.25736961
_cell_length_c   6.24013448
_cell_angle_alpha   90.00000000
_cell_angle_beta   90.00000000
_cell_angle_gamma   85.84492735
_symmetry_Int_Tables_number   1
_chemical_formula_structural   LiMnPCO7
_chemical_formula_sum   'Li4 Mn4 P4 C4 O28'
_cell_volume   537.59158600
_cell_formula_units_Z   4
loop_
 _symmetry_equiv_pos_site_id
 _symmetry_equiv_pos_as_xyz
  1  'x, y, z'
loop_
 _atom_site_type_symbol
 _atom_site_label
 _atom_site_symmetry_multiplicity
 _atom_site_fract_x
 _atom_site_fract_y
 _atom_site_fract_z
 _atom_site_occupancy
  Li  Li0  1  0.25753498  0.12410828  0.02883698  1
  Li  Li1  1  0.25753498  0.62410828  0.47116302  1
  Li  Li2  1  0.74246502  0.37589172  0.97116302  1
  Li  Li3  1  0.74246502  0.87589172  0.52883698  1
  Mn  Mn4  1  0.33033746  0.39566921  0.74986722  1
  Mn  Mn5  1  0.33033746  0.89566921  0.75013278  1
  Mn  Mn6  1  0.66966254  0.10433079  0.25013278  1
  Mn  Mn7  1  0.66966254  0.60433079  0.24986722  1
  P  P8  1  0.42591171  0.36235073  0.24331597  1
  P  P9  1  0.42591171  0.86235073  0.25668403  1
  P  P10  1  0.57408829  0.13764927  0.75668403  1
  P  P11  1  0.57408829  0.63764927  0.74331597  1
  C  C12  1  0.05092588  0.35472201  0.75485687  1
  C  C13  1  0.05092588  0.85472201  0.74514313  1
  C  C14  1  0.94907412  0.14527799  0.24514313  1
  C  C15  1  0.94907412  0.64527799  0.25485687  1
  O  O16  1  0.10601060  0.47146776  0.73777512  1
  O  O17  1  0.09014285  0.16831398  0.23221978  1
  O  O18  1  0.10601060  0.97146776  0.76222488  1
  O  O19  1  0.17195877  0.26319273  0.75878536  1
  O  O20  1  0.09014285  0.66831398  0.26778022  1
  O  O21  1  0.17195877  0.76319273  0.74121464  1
  O  O22  1  0.31379449  0.40163176  0.05378151  1
  O  O23  1  0.32476820  0.40775393  0.44052930  1
  O  O24  1  0.32476820  0.90775393  0.05947070  1
  O  O25  1  0.31379449  0.90163176  0.44621849  1
  O  O26  1  0.41563957  0.07117629  0.76853858  1
  O  O27  1  0.46494100  0.21126783  0.23906610  1
  O  O28  1  0.41563957  0.57117629  0.73146142  1
  O  O29  1  0.46494100  0.71126783  0.26093390  1
  O  O30  1  0.53505900  0.28873217  0.76093390  1
  O  O31  1  0.58436043  0.42882371  0.23146142  1
  O  O32  1  0.53505900  0.78873217  0.73906610  1
  O  O33  1  0.58436043  0.92882371  0.26853858  1
  O  O34  1  0.68620551  0.09836824  0.94621849  1
  O  O35  1  0.67523180  0.09224607  0.55947070  1
  O  O36  1  0.68620551  0.59836824  0.55378151  1
  O  O37  1  0.67523180  0.59224607  0.94052930  1
  O  O38  1  0.82804123  0.23680727  0.24121464  1
  O  O39  1  0.90985715  0.33168602  0.76778022  1
  O  O40  1  0.82804123  0.73680727  0.25878536  1
  O  O41  1  0.89398940  0.02853224  0.26222488  1
  O  O42  1  0.90985715  0.83168602  0.73221978  1
  O  O43  1  0.89398940  0.52853224  0.23777512  1
