# generated using pymatgen
data_Be(FeO2)2
_symmetry_space_group_name_H-M   'P 1'
_cell_length_a   4.64980841
_cell_length_b   10.05975990
_cell_length_c   5.87237444
_cell_angle_alpha   89.71121138
_cell_angle_beta   89.90116311
_cell_angle_gamma   90.05832848
_symmetry_Int_Tables_number   1
_chemical_formula_structural   Be(FeO2)2
_chemical_formula_sum   'Be4 Fe8 O16'
_cell_volume   274.68188699
_cell_formula_units_Z   4
loop_
 _symmetry_equiv_pos_site_id
 _symmetry_equiv_pos_as_xyz
  1  'x, y, z'
loop_
 _atom_site_type_symbol
 _atom_site_label
 _atom_site_symmetry_multiplicity
 _atom_site_fract_x
 _atom_site_fract_y
 _atom_site_fract_z
 _atom_site_occupancy
  Be  Be0  1  0.07229083  0.59222689  0.24946632  1
  Be  Be1  1  0.42752110  0.09340104  0.24907144  1
  Be  Be2  1  0.57011918  0.90761323  0.75042775  1
  Be  Be3  1  0.93060284  0.40663058  0.75088736  1
  Fe  Fe4  1  0.99853237  0.00048101  0.00003078  1
  Fe  Fe5  1  0.99861328  0.00051024  0.49969643  1
  Fe  Fe6  1  0.00965540  0.72692901  0.74945097  1
  Fe  Fe7  1  0.49067085  0.22652167  0.74840104  1
  Fe  Fe8  1  0.50156680  0.50012273  0.50053159  1
  Fe  Fe9  1  0.50175376  0.49995656  -0.00003677  1
  Fe  Fe10  1  0.50744956  0.77356252  0.25147012  1
  Fe  Fe11  1  0.98958634  0.27403176  0.25066834  1
  O  O12  1  0.23159001  0.43983008  0.25030509  1
  O  O13  1  0.23479931  0.66257605  0.02582597  1
  O  O14  1  0.23633350  0.66259606  0.47251213  1
  O  O15  1  0.22817286  0.90825992  0.74931203  1
  O  O16  1  0.27183120  0.40810144  0.74943033  1
  O  O17  1  0.26462474  0.16362475  0.02628566  1
  O  O18  1  0.26346058  0.16311083  0.47230695  1
  O  O19  1  0.27005089  0.94023501  0.25008308  1
  O  O20  1  0.72782207  0.06006344  0.74969815  1
  O  O21  1  0.73523003  0.83702479  0.52763000  1
  O  O22  1  0.73336412  0.83656705  0.97352243  1
  O  O23  1  0.73058635  0.59094429  0.25079738  1
  O  O24  1  0.76936811  0.09207723  0.25036433  1
  O  O25  1  0.76530048  0.33660662  0.52850838  1
  O  O26  1  0.76635798  0.33671120  0.97344143  1
  O  O27  1  0.77274545  0.55968398  0.74991127  1
