# generated using pymatgen
data_LiCr2(SO4)3
_symmetry_space_group_name_H-M   'P 1'
_cell_length_a   8.42075569
_cell_length_b   8.74596335
_cell_length_c   12.42372087
_cell_angle_alpha   90.00000000
_cell_angle_beta   90.53075942
_cell_angle_gamma   90.00000000
_symmetry_Int_Tables_number   1
_chemical_formula_structural   LiCr2(SO4)3
_chemical_formula_sum   'Li4 Cr8 S12 O48'
_cell_volume   914.93822365
_cell_formula_units_Z   4
loop_
 _symmetry_equiv_pos_site_id
 _symmetry_equiv_pos_as_xyz
  1  'x, y, z'
loop_
 _atom_site_type_symbol
 _atom_site_label
 _atom_site_symmetry_multiplicity
 _atom_site_fract_x
 _atom_site_fract_y
 _atom_site_fract_z
 _atom_site_occupancy
  Li  Li0  1  0.19757077  0.71827386  0.81557242  1
  Li  Li1  1  0.30242923  0.21827386  0.68442758  1
  Li  Li2  1  0.69757077  0.78172614  0.31557242  1
  Li  Li3  1  0.80242923  0.28172614  0.18442758  1
  Cr  Cr4  1  0.24710473  0.96397810  0.38580770  1
  Cr  Cr5  1  0.25114249  0.53716039  0.60691885  1
  Cr  Cr6  1  0.25289527  0.46397810  0.11419230  1
  Cr  Cr7  1  0.24885751  0.03716039  0.89308115  1
  Cr  Cr8  1  0.75114249  0.96283961  0.10691885  1
  Cr  Cr9  1  0.74710473  0.53602190  0.88580770  1
  Cr  Cr10  1  0.74885751  0.46283961  0.39308115  1
  Cr  Cr11  1  0.75289527  0.03602190  0.61419230  1
  S  S12  1  0.03711825  0.24479180  0.50707966  1
  S  S13  1  0.10307231  0.11975904  0.15569843  1
  S  S14  1  0.10532132  0.39214085  0.85759446  1
  S  S15  1  0.39467868  0.89214085  0.64240554  1
  S  S16  1  0.39692769  0.61975904  0.34430157  1
  S  S17  1  0.46288175  0.74479180  0.99292034  1
  S  S18  1  0.53711825  0.25520820  0.00707966  1
  S  S19  1  0.60307231  0.38024096  0.65569843  1
  S  S20  1  0.60532132  0.10785915  0.35759446  1
  S  S21  1  0.89467868  0.60785915  0.14240554  1
  S  S22  1  0.89692769  0.88024096  0.84430157  1
  S  S23  1  0.96288175  0.75520820  0.49292034  1
  O  O24  1  0.04413501  0.63761416  0.55621948  1
  O  O25  1  0.06828279  0.61933410  0.12217907  1
  O  O26  1  0.06849004  0.90927560  0.82013344  1
  O  O27  1  0.06511697  0.81561364  0.40433283  1
  O  O28  1  0.08743934  0.12272805  0.43210106  1
  O  O29  1  0.12392072  0.28831895  0.17640581  1
  O  O30  1  0.13820100  0.08271283  0.04469166  1
  O  O31  1  0.13993765  0.50951365  0.77615622  1
  O  O32  1  0.17965435  0.31115462  0.56173785  1
  O  O33  1  0.16306616  0.24128212  0.81749916  1
  O  O34  1  0.19334942  0.43359989  0.95789002  1
  O  O35  1  0.20323122  0.02432460  0.22874980  1
  O  O36  1  0.29676878  0.52432460  0.27125020  1
  O  O37  1  0.30665058  0.93359989  0.54210998  1
  O  O38  1  0.33693384  0.74128212  0.68250084  1
  O  O39  1  0.32034565  0.81115462  0.93826215  1
  O  O40  1  0.36179900  0.58271283  0.45530834  1
  O  O41  1  0.36006235  0.00951365  0.72384378  1
  O  O42  1  0.37607928  0.78831895  0.32359419  1
  O  O43  1  0.41256066  0.62272805  0.06789894  1
  O  O44  1  0.43488303  0.31561364  0.09566717  1
  O  O45  1  0.43171721  0.11933410  0.37782093  1
  O  O46  1  0.43150996  0.40927560  0.67986656  1
  O  O47  1  0.45586499  0.13761416  0.94378052  1
  O  O48  1  0.54413501  0.86238584  0.05621948  1
  O  O49  1  0.56849004  0.59072440  0.32013344  1
  O  O50  1  0.56828279  0.88066590  0.62217907  1
  O  O51  1  0.56511697  0.68438636  0.90433283  1
  O  O52  1  0.58743934  0.37727195  0.93210106  1
  O  O53  1  0.62392072  0.21168105  0.67640581  1
  O  O54  1  0.63993765  0.99048635  0.27615622  1
  O  O55  1  0.63820100  0.41728717  0.54469166  1
  O  O56  1  0.67965435  0.18884538  0.06173785  1
  O  O57  1  0.66306616  0.25871788  0.31749916  1
  O  O58  1  0.69334942  0.06640011  0.45789002  1
  O  O59  1  0.70323122  0.47567540  0.72874980  1
  O  O60  1  0.79676878  0.97567540  0.77125020  1
  O  O61  1  0.80665058  0.56640011  0.04210998  1
  O  O62  1  0.83693384  0.75871788  0.18250084  1
  O  O63  1  0.82034565  0.68884538  0.43826215  1
  O  O64  1  0.86006235  0.49048635  0.22384378  1
  O  O65  1  0.86179900  0.91728717  0.95530834  1
  O  O66  1  0.87607928  0.71168105  0.82359419  1
  O  O67  1  0.91256066  0.87727195  0.56789894  1
  O  O68  1  0.93488303  0.18438636  0.59566717  1
  O  O69  1  0.93150996  0.09072440  0.17986656  1
  O  O70  1  0.93171721  0.38066590  0.87782093  1
  O  O71  1  0.95586499  0.36238584  0.44378052  1
