# generated using pymatgen
data_VPO5
_symmetry_space_group_name_H-M   'P 1'
_cell_length_a   12.58010776
_cell_length_b   6.23486997
_cell_length_c   10.61502882
_cell_angle_alpha   90.00000000
_cell_angle_beta   90.00000000
_cell_angle_gamma   90.00000000
_symmetry_Int_Tables_number   1
_chemical_formula_structural   VPO5
_chemical_formula_sum   'V8 P8 O40'
_cell_volume   832.59335312
_cell_formula_units_Z   8
loop_
 _symmetry_equiv_pos_site_id
 _symmetry_equiv_pos_as_xyz
  1  'x, y, z'
loop_
 _atom_site_type_symbol
 _atom_site_label
 _atom_site_symmetry_multiplicity
 _atom_site_fract_x
 _atom_site_fract_y
 _atom_site_fract_z
 _atom_site_occupancy
  V  V0  1  0.11572935  0.00060097  0.49703332  1
  V  V1  1  0.25020010  0.27333989  0.25345705  1
  V  V2  1  0.24979990  0.77333989  0.75345705  1
  V  V3  1  0.38427065  0.50060097  0.99703332  1
  V  V4  1  0.61572935  0.49939903  0.49703332  1
  V  V5  1  0.75020010  0.22666011  0.25345705  1
  V  V6  1  0.74979990  0.72666011  0.75345705  1
  V  V7  1  0.88427065  0.99939903  0.99703332  1
  P  P8  1  0.00296464  0.83724457  0.75961757  1
  P  P9  1  0.18607307  0.49593349  0.51767573  1
  P  P10  1  0.31392693  0.99593349  0.01767573  1
  P  P11  1  0.49703536  0.33724457  0.25961757  1
  P  P12  1  0.50296464  0.66275543  0.75961757  1
  P  P13  1  0.68607307  0.00406651  0.51767573  1
  P  P14  1  0.81392693  0.50406651  0.01767573  1
  P  P15  1  0.99703536  0.16275543  0.25961757  1
  O  O16  1  0.00680564  0.02356523  0.38337527  1
  O  O17  1  0.01344797  0.98045731  0.64494552  1
  O  O18  1  0.09774443  0.30497810  0.24971666  1
  O  O19  1  0.10314243  0.69615183  0.78150931  1
  O  O20  1  0.11420713  0.69321019  0.49362129  1
  O  O21  1  0.11426602  0.29988439  0.54420685  1
  O  O22  1  0.21578707  0.03679272  0.39644956  1
  O  O23  1  0.22122115  0.95883001  0.64637754  1
  O  O24  1  0.24371474  0.95392947  0.90053022  1
  O  O25  1  0.24254522  0.04183621  0.13452512  1
  O  O26  1  0.25745478  0.54183621  0.63452512  1
  O  O27  1  0.25628526  0.45392947  0.40053022  1
  O  O28  1  0.27877885  0.45883001  0.14637754  1
  O  O29  1  0.28421293  0.53679272  0.89644956  1
  O  O30  1  0.38573398  0.79988439  0.04420685  1
  O  O31  1  0.38579287  0.19321019  0.99362129  1
  O  O32  1  0.39685757  0.19615183  0.28150931  1
  O  O33  1  0.40225557  0.80497810  0.74971666  1
  O  O34  1  0.48655203  0.48045731  0.14494552  1
  O  O35  1  0.49319436  0.52356523  0.88337527  1
  O  O36  1  0.50680564  0.47643477  0.38337527  1
  O  O37  1  0.51344797  0.51954269  0.64494552  1
  O  O38  1  0.59774443  0.19502190  0.24971666  1
  O  O39  1  0.60314243  0.80384817  0.78150931  1
  O  O40  1  0.61420713  0.80678981  0.49362129  1
  O  O41  1  0.61426602  0.20011561  0.54420685  1
  O  O42  1  0.71578707  0.46320728  0.39644956  1
  O  O43  1  0.72122115  0.54116999  0.64637754  1
  O  O44  1  0.74371474  0.54607053  0.90053022  1
  O  O45  1  0.74254522  0.45816379  0.13452512  1
  O  O46  1  0.75745478  0.95816379  0.63452512  1
  O  O47  1  0.75628526  0.04607053  0.40053022  1
  O  O48  1  0.77877885  0.04116999  0.14637754  1
  O  O49  1  0.78421293  0.96320728  0.89644956  1
  O  O50  1  0.88573398  0.70011561  0.04420685  1
  O  O51  1  0.88579287  0.30678981  0.99362129  1
  O  O52  1  0.89685757  0.30384817  0.28150931  1
  O  O53  1  0.90225557  0.69502190  0.74971666  1
  O  O54  1  0.98655203  0.01954269  0.14494552  1
  O  O55  1  0.99319436  0.97643477  0.88337527  1
