# generated using pymatgen
data_Li2MnPCO7
_symmetry_space_group_name_H-M   'P 1'
_cell_length_a   16.73895492
_cell_length_b   5.02371098
_cell_length_c   6.54626728
_cell_angle_alpha   90.19185842
_cell_angle_beta   89.46252763
_cell_angle_gamma   86.01874801
_symmetry_Int_Tables_number   1
_chemical_formula_structural   Li2MnPCO7
_chemical_formula_sum   'Li8 Mn4 P4 C4 O28'
_cell_volume   549.12955989
_cell_formula_units_Z   4
loop_
 _symmetry_equiv_pos_site_id
 _symmetry_equiv_pos_as_xyz
  1  'x, y, z'
loop_
 _atom_site_type_symbol
 _atom_site_label
 _atom_site_symmetry_multiplicity
 _atom_site_fract_x
 _atom_site_fract_y
 _atom_site_fract_z
 _atom_site_occupancy
  Li  Li0  1  0.13071178  0.25622152  0.03347373  1
  Li  Li1  1  0.13100445  0.25356281  0.47228869  1
  Li  Li2  1  0.37319111  0.75243448  0.52826404  1
  Li  Li3  1  0.37202367  0.75329716  0.97057524  1
  Li  Li4  1  0.63112528  0.24053990  0.02843810  1
  Li  Li5  1  0.62935037  0.24608144  0.47172093  1
  Li  Li6  1  0.86371320  0.75386996  0.52905566  1
  Li  Li7  1  0.94392401  0.22934118  0.76252825  1
  Mn  Mn8  1  0.16862824  0.80661317  0.75337222  1
  Mn  Mn9  1  0.33377286  0.19740616  0.24994964  1
  Mn  Mn10  1  0.66795338  0.78758591  0.74631986  1
  Mn  Mn11  1  0.83629406  0.19697022  0.24548315  1
  P  P12  1  0.20792624  0.73313375  0.25129127  1
  P  P13  1  0.29384023  0.26983712  0.75062286  1
  P  P14  1  0.70884969  0.73222460  0.25320657  1
  P  P15  1  0.78945365  0.28501713  0.74627018  1
  C  C16  1  0.02043411  0.71240976  0.73796943  1
  C  C17  1  0.47736295  0.27431685  0.24915947  1
  C  C18  1  0.52572096  0.70584973  0.75221618  1
  C  C19  1  0.97850149  0.27836845  0.25803866  1
  O  O20  1  0.03433787  0.96133897  0.74710705  1
  O  O21  1  0.05086952  0.33641878  0.25669439  1
  O  O22  1  0.08561535  0.54092504  0.75219311  1
  O  O23  1  0.16167757  0.84235062  0.06229914  1
  O  O24  1  0.16192872  0.84182175  0.44321408  1
  O  O25  1  0.20557084  0.17552502  0.75237577  1
  O  O26  1  0.21798927  0.42235116  0.25019456  1
  O  O27  1  0.28552812  0.58093036  0.75045644  1
  O  O28  1  0.29461895  0.83320761  0.24909999  1
  O  O29  1  0.33861087  0.15824610  0.93850716  1
  O  O30  1  0.33866336  0.15636440  0.56070726  1
  O  O31  1  0.41549320  0.46188719  0.25068277  1
  O  O32  1  0.45189345  0.67615794  0.74988867  1
  O  O33  1  0.45421545  0.03466279  0.24802176  1
  O  O34  1  0.55574814  0.94141108  0.75755737  1
  O  O35  1  0.54848589  0.33868010  0.24891661  1
  O  O36  1  0.58104001  0.50823717  0.74909747  1
  O  O37  1  0.66529303  0.83253852  0.05968607  1
  O  O38  1  0.65609412  0.83542093  0.43542766  1
  O  O39  1  0.70691450  0.16660878  0.75147976  1
  O  O40  1  0.72104765  0.41977977  0.25505209  1
  O  O41  1  0.77199636  0.59415506  0.71586809  1
  O  O42  1  0.79307938  0.84490276  0.26868505  1
  O  O43  1  0.84076970  0.22521366  0.93464077  1
  O  O44  1  0.84416833  0.17521553  0.56879488  1
  O  O45  1  0.91825265  0.46359337  0.26449592  1
  O  O46  1  0.95291885  0.61952382  0.71502317  1
  O  O47  1  0.95528111  0.03778743  0.24977279  1
