# generated using pymatgen
data_Li5Fe2P2(CO7)2
_symmetry_space_group_name_H-M   'P 1'
_cell_length_a   8.46164880
_cell_length_b   8.18785939
_cell_length_c   8.27978511
_cell_angle_alpha   75.84179507
_cell_angle_beta   87.20145950
_cell_angle_gamma   94.04205740
_symmetry_Int_Tables_number   1
_chemical_formula_structural   Li5Fe2P2(CO7)2
_chemical_formula_sum   'Li10 Fe4 P4 C4 O28'
_cell_volume   553.54214021
_cell_formula_units_Z   2
loop_
 _symmetry_equiv_pos_site_id
 _symmetry_equiv_pos_as_xyz
  1  'x, y, z'
loop_
 _atom_site_type_symbol
 _atom_site_label
 _atom_site_symmetry_multiplicity
 _atom_site_fract_x
 _atom_site_fract_y
 _atom_site_fract_z
 _atom_site_occupancy
  Li  Li0  1  0.90065804  0.26017301  0.49617603  1
  Li  Li1  1  0.90462925  0.75053718  0.97592913  1
  Li  Li2  1  0.72813407  0.11048830  0.85193303  1
  Li  Li3  1  0.72585792  0.40817493  0.11124963  1
  Li  Li4  1  0.72222296  0.61672659  0.36310621  1
  Li  Li5  1  0.27414208  0.59182507  0.88875037  1
  Li  Li6  1  0.27777704  0.38327341  0.63689379  1
  Li  Li7  1  0.27186593  0.88951170  0.14806697  1
  Li  Li8  1  0.09934196  0.73982699  0.50382397  1
  Li  Li9  1  0.09537075  0.24946282  0.02407087  1
  Fe  Fe10  1  0.67948113  0.52994854  0.72496424  1
  Fe  Fe11  1  0.65739326  0.02266511  0.23224961  1
  Fe  Fe12  1  0.34260674  0.97733489  0.76775039  1
  Fe  Fe13  1  0.32051887  0.47005146  0.27503576  1
  P  P14  1  0.58574877  0.24411320  0.51723709  1
  P  P15  1  0.58219806  0.73794578  0.01599696  1
  P  P16  1  0.41780194  0.26205422  0.98400304  1
  P  P17  1  0.41425123  0.75588680  0.48276291  1
  C  C18  1  0.97264806  0.47330667  0.78034978  1
  C  C19  1  0.94741206  0.96134998  0.26343941  1
  C  C20  1  0.05258794  0.03865002  0.73656059  1
  C  C21  1  0.02735194  0.52669333  0.21965022  1
  O  O22  1  0.94083927  0.59458846  0.65717449  1
  O  O23  1  0.91707207  0.09880915  0.15488074  1
  O  O24  1  0.91419757  0.08460482  0.71026017  1
  O  O25  1  0.85437817  0.38474191  0.87735324  1
  O  O26  1  0.88295062  0.56176233  0.18941732  1
  O  O27  1  0.82146422  0.87082445  0.34661296  1
  O  O28  1  0.70991687  0.37595487  0.55605439  1
  O  O29  1  0.67781485  0.18333703  0.37717882  1
  O  O30  1  0.69235663  0.67854412  0.89190132  1
  O  O31  1  0.67492018  0.89894859  0.04529886  1
  O  O32  1  0.55254445  0.09561977  0.67936180  1
  O  O33  1  0.58173490  0.21627060  0.05325188  1
  O  O34  1  0.57114911  0.68601176  0.53281841  1
  O  O35  1  0.55454763  0.59591902  0.17950790  1
  O  O36  1  0.44545237  0.40408098  0.82049210  1
  O  O37  1  0.42885089  0.31398824  0.46718159  1
  O  O38  1  0.41826510  0.78372940  0.94674812  1
  O  O39  1  0.44745555  0.90438023  0.32063820  1
  O  O40  1  0.32507982  0.10105141  0.95470114  1
  O  O41  1  0.32218515  0.81666297  0.62282118  1
  O  O42  1  0.30764337  0.32145588  0.10809868  1
  O  O43  1  0.29008313  0.62404513  0.44394561  1
  O  O44  1  0.17853578  0.12917555  0.65338704  1
  O  O45  1  0.11704938  0.43823767  0.81058268  1
  O  O46  1  0.14562183  0.61525809  0.12264676  1
  O  O47  1  0.08580243  0.91539518  0.28973983  1
  O  O48  1  0.05916073  0.40541154  0.34282551  1
  O  O49  1  0.08292793  0.90119085  0.84511926  1
