# generated using pymatgen
data_Li3Mn3O8
_symmetry_space_group_name_H-M   'P 1'
_cell_length_a   8.27511889
_cell_length_b   8.27511311
_cell_length_c   8.27511554
_cell_angle_alpha   90.00004431
_cell_angle_beta   89.99987966
_cell_angle_gamma   89.99989046
_symmetry_Int_Tables_number   1
_chemical_formula_structural   Li3Mn3O8
_chemical_formula_sum   'Li12 Mn12 O32'
_cell_volume   566.65959523
_cell_formula_units_Z   4
loop_
 _symmetry_equiv_pos_site_id
 _symmetry_equiv_pos_as_xyz
  1  'x, y, z'
loop_
 _atom_site_type_symbol
 _atom_site_label
 _atom_site_symmetry_multiplicity
 _atom_site_fract_x
 _atom_site_fract_y
 _atom_site_fract_z
 _atom_site_occupancy
  Li  Li0  1  0.00358290  0.00358359  0.00358077  1
  Li  Li1  1  0.12499896  0.87500149  0.37500044  1
  Li  Li2  1  0.24641805  0.24641549  0.24641616  1
  Li  Li3  1  0.25358047  0.75358493  0.74641906  1
  Li  Li4  1  0.37499924  0.12499908  0.87500146  1
  Li  Li5  1  0.49641493  0.99641959  0.50358227  1
  Li  Li6  1  0.50357904  0.49641485  0.99641703  1
  Li  Li7  1  0.62500208  0.62500322  0.62500350  1
  Li  Li8  1  0.74641620  0.25357891  0.75358476  1
  Li  Li9  1  0.75358306  0.74641847  0.25358012  1
  Li  Li10  1  0.87500034  0.37499844  0.12499824  1
  Li  Li11  1  0.99641807  0.50358068  0.49641673  1
  Mn  Mn12  1  0.12233986  0.12767493  0.62500961  1
  Mn  Mn13  1  0.12500260  0.37765566  0.87233377  1
  Mn  Mn14  1  0.12766774  0.62500183  0.12233252  1
  Mn  Mn15  1  0.37232636  0.37499203  0.62233480  1
  Mn  Mn16  1  0.37499479  0.62233354  0.37233004  1
  Mn  Mn17  1  0.37766668  0.87233817  0.12499441  1
  Mn  Mn18  1  0.62233524  0.37232256  0.37499484  1
  Mn  Mn19  1  0.62499861  0.12233574  0.12765919  1
  Mn  Mn20  1  0.62766173  0.87500599  0.87766435  1
  Mn  Mn21  1  0.87233567  0.12499916  0.37766643  1
  Mn  Mn22  1  0.87500429  0.87766443  0.62766785  1
  Mn  Mn23  1  0.87766847  0.62767297  0.87500192  1
  O  O24  1  0.09887283  0.13006134  0.39334023  1
  O  O25  1  0.10665917  0.90112582  0.63005935  1
  O  O26  1  0.11531378  0.61531494  0.88468539  1
  O  O27  1  0.13006097  0.39334226  0.09887100  1
  O  O28  1  0.11993872  0.15113079  0.85665438  1
  O  O29  1  0.13468639  0.36531544  0.63468378  1
  O  O30  1  0.14334261  0.61993841  0.34887553  1
  O  O31  1  0.15112589  0.85665633  0.11993836  1
  O  O32  1  0.34887317  0.14334491  0.61993761  1
  O  O33  1  0.35665780  0.38006246  0.84887331  1
  O  O34  1  0.36531398  0.63468395  0.13468834  1
  O  O35  1  0.38006092  0.84887295  0.35666095  1
  O  O36  1  0.36993731  0.60666135  0.59887683  1
  O  O37  1  0.38468812  0.38468914  0.38468773  1
  O  O38  1  0.39334210  0.09886919  0.13006178  1
  O  O39  1  0.40112766  0.86993962  0.89334491  1
  O  O40  1  0.59887897  0.36993780  0.60666145  1
  O  O41  1  0.60665943  0.59888083  0.36993841  1
  O  O42  1  0.61531470  0.88468316  0.11531735  1
  O  O43  1  0.63005868  0.10665800  0.90112884  1
  O  O44  1  0.61993683  0.34887445  0.14334421  1
  O  O45  1  0.63468707  0.13468927  0.36531440  1
  O  O46  1  0.64334221  0.88005968  0.65112895  1
  O  O47  1  0.65112802  0.64333891  0.88005993  1
  O  O48  1  0.84887446  0.35665953  0.38006139  1
  O  O49  1  0.85665863  0.11993878  0.15112803  1
  O  O50  1  0.86531377  0.86531008  0.86531192  1
  O  O51  1  0.88005921  0.65112551  0.64334047  1
  O  O52  1  0.86993999  0.89334202  0.40112446  1
  O  O53  1  0.88468543  0.11531361  0.61531258  1
  O  O54  1  0.89334073  0.40112514  0.86993946  1
  O  O55  1  0.90112509  0.63005861  0.10665839  1
