# generated using pymatgen
data_Li2CoH8(SO6)2
_symmetry_space_group_name_H-M   'P 1'
_cell_length_a   10.62741288
_cell_length_b   8.15334917
_cell_length_c   5.44875278
_cell_angle_alpha   90.00000000
_cell_angle_beta   99.76717772
_cell_angle_gamma   90.00000000
_symmetry_Int_Tables_number   1
_chemical_formula_structural   Li2CoH8(SO6)2
_chemical_formula_sum   'Li4 Co2 H16 S4 O24'
_cell_volume   465.28562723
_cell_formula_units_Z   2
loop_
 _symmetry_equiv_pos_site_id
 _symmetry_equiv_pos_as_xyz
  1  'x, y, z'
loop_
 _atom_site_type_symbol
 _atom_site_label
 _atom_site_symmetry_multiplicity
 _atom_site_fract_x
 _atom_site_fract_y
 _atom_site_fract_z
 _atom_site_occupancy
  Li  Li0  1  0.13451715  0.56370668  0.89559948  1
  Li  Li1  1  0.36548285  0.06370668  0.10440052  1
  Li  Li2  1  0.63451715  0.93629332  0.89559948  1
  Li  Li3  1  0.86548285  0.43629332  0.10440052  1
  Co  Co4  1  0.00000000  0.00000000  0.00000000  1
  Co  Co5  1  0.50000000  0.50000000  0.00000000  1
  H  H6  1  0.01558980  0.71543474  0.23506924  1
  H  H7  1  0.16341083  0.14033912  0.77752273  1
  H  H8  1  0.18705031  0.94419646  0.77650832  1
  H  H9  1  0.14424607  0.80162918  0.32793851  1
  H  H10  1  0.35575393  0.30162918  0.67206149  1
  H  H11  1  0.31294969  0.44419646  0.22349168  1
  H  H12  1  0.33658917  0.64033912  0.22247727  1
  H  H13  1  0.48441020  0.21543474  0.76493076  1
  H  H14  1  0.51558980  0.78456526  0.23506924  1
  H  H15  1  0.66341083  0.35966088  0.77752273  1
  H  H16  1  0.68705031  0.55580354  0.77650832  1
  H  H17  1  0.64424607  0.69837082  0.32793851  1
  H  H18  1  0.85575393  0.19837082  0.67206149  1
  H  H19  1  0.81294969  0.05580354  0.22349168  1
  H  H20  1  0.83658917  0.85966088  0.22247727  1
  H  H21  1  0.98441020  0.28456526  0.76493076  1
  S  S22  1  0.13300499  0.28988938  0.37128708  1
  S  S23  1  0.36699501  0.78988938  0.62871292  1
  S  S24  1  0.63300499  0.21011062  0.37128708  1
  S  S25  1  0.86699501  0.71011062  0.62871292  1
  O  O26  1  0.06867489  0.12787788  0.32800143  1
  O  O27  1  0.06898310  0.41523521  0.19631938  1
  O  O28  1  0.08312732  0.77899522  0.17331523  1
  O  O29  1  0.12995762  0.33857367  0.63673646  1
  O  O30  1  0.17509788  0.04133386  0.88507526  1
  O  O31  1  0.22907566  0.77336642  0.65710461  1
  O  O32  1  0.27092434  0.27336642  0.34289539  1
  O  O33  1  0.32490212  0.54133386  0.11492474  1
  O  O34  1  0.37004238  0.83857367  0.36326354  1
  O  O35  1  0.41687268  0.27899522  0.82668477  1
  O  O36  1  0.43101690  0.91523521  0.80368062  1
  O  O37  1  0.43132511  0.62787788  0.67199857  1
  O  O38  1  0.56867489  0.37212212  0.32800143  1
  O  O39  1  0.56898310  0.08476479  0.19631938  1
  O  O40  1  0.58312732  0.72100478  0.17331523  1
  O  O41  1  0.62995762  0.16142633  0.63673646  1
  O  O42  1  0.67509788  0.45866614  0.88507526  1
  O  O43  1  0.72907566  0.72663358  0.65710461  1
  O  O44  1  0.77092434  0.22663358  0.34289539  1
  O  O45  1  0.82490212  0.95866614  0.11492474  1
  O  O46  1  0.87004238  0.66142633  0.36326354  1
  O  O47  1  0.91687268  0.22100478  0.82668477  1
  O  O48  1  0.93101690  0.58476479  0.80368062  1
  O  O49  1  0.93132511  0.87212212  0.67199857  1
