# generated using pymatgen
data_CoP2O7
_symmetry_space_group_name_H-M   'P 1'
_cell_length_a   7.10701854
_cell_length_b   8.27325483
_cell_length_c   9.09643367
_cell_angle_alpha   90.00000000
_cell_angle_beta   111.36096642
_cell_angle_gamma   90.00000000
_symmetry_Int_Tables_number   1
_chemical_formula_structural   CoP2O7
_chemical_formula_sum   'Co4 P8 O28'
_cell_volume   498.11148798
_cell_formula_units_Z   4
loop_
 _symmetry_equiv_pos_site_id
 _symmetry_equiv_pos_as_xyz
  1  'x, y, z'
loop_
 _atom_site_type_symbol
 _atom_site_label
 _atom_site_symmetry_multiplicity
 _atom_site_fract_x
 _atom_site_fract_y
 _atom_site_fract_z
 _atom_site_occupancy
  Co  Co0  1  0.37460705  0.08474541  0.63490352  1
  Co  Co1  1  0.62539295  0.91525459  0.36509648  1
  Co  Co2  1  0.12539295  0.58474541  0.86509648  1
  Co  Co3  1  0.87460705  0.41525459  0.13490352  1
  P  P4  1  0.18048512  0.72646128  0.24761811  1
  P  P5  1  0.42758366  0.24533637  0.96637598  1
  P  P6  1  0.68048512  0.77353872  0.74761811  1
  P  P7  1  0.92758366  0.25466363  0.46637598  1
  P  P8  1  0.31951488  0.22646128  0.25238189  1
  P  P9  1  0.07241634  0.74533637  0.53362402  1
  P  P10  1  0.57241634  0.75466363  0.03362402  1
  P  P11  1  0.81951488  0.27353872  0.75238189  1
  O  O12  1  0.36792758  0.16218046  0.10312899  1
  O  O13  1  0.57093782  0.61467273  0.68334849  1
  O  O14  1  0.07093782  0.88532727  0.18334849  1
  O  O15  1  0.30833779  0.40079692  0.91666604  1
  O  O16  1  0.63207242  0.83781954  0.89687101  1
  O  O17  1  0.39878111  0.08748382  0.37296287  1
  O  O18  1  0.69166221  0.59920308  0.08333396  1
  O  O19  1  0.36329349  0.11188494  0.83763202  1
  O  O20  1  0.15724541  0.23540382  0.52894856  1
  O  O21  1  0.60121889  0.91251618  0.62703713  1
  O  O22  1  0.89878111  0.41251618  0.87296287  1
  O  O23  1  0.90907823  0.74510534  0.80829371  1
  O  O24  1  0.59092177  0.24510534  0.69170629  1
  O  O25  1  0.86792758  0.33781954  0.60312899  1
  O  O26  1  0.10121889  0.58748382  0.12703713  1
  O  O27  1  0.92906218  0.11467273  0.81665151  1
  O  O28  1  0.09092177  0.25489466  0.19170629  1
  O  O29  1  0.63670651  0.88811506  0.16236798  1
  O  O30  1  0.65724541  0.26459618  0.02894856  1
  O  O31  1  0.34275459  0.73540382  0.97105144  1
  O  O32  1  0.19166221  0.90079692  0.58333396  1
  O  O33  1  0.86329349  0.38811506  0.33763202  1
  O  O34  1  0.13670651  0.61188494  0.66236798  1
  O  O35  1  0.42906218  0.38532727  0.31665151  1
  O  O36  1  0.40907823  0.75489466  0.30829371  1
  O  O37  1  0.80833779  0.09920308  0.41666604  1
  O  O38  1  0.84275459  0.76459618  0.47105144  1
  O  O39  1  0.13207242  0.66218046  0.39687101  1
