# generated using pymatgen
data_Li(CoO2)4
_symmetry_space_group_name_H-M   'P 1'
_cell_length_a   10.59285181
_cell_length_b   10.59285223
_cell_length_c   5.29232828
_cell_angle_alpha   31.62816400
_cell_angle_beta   31.62816869
_cell_angle_gamma   31.47993244
_symmetry_Int_Tables_number   1
_chemical_formula_structural   Li(CoO2)4
_chemical_formula_sum   'Li1 Co4 O8'
_cell_volume   144.59381662
_cell_formula_units_Z   1
loop_
 _symmetry_equiv_pos_site_id
 _symmetry_equiv_pos_as_xyz
  1  'x, y, z'
loop_
 _atom_site_type_symbol
 _atom_site_label
 _atom_site_symmetry_multiplicity
 _atom_site_fract_x
 _atom_site_fract_y
 _atom_site_fract_z
 _atom_site_occupancy
  Li  Li0  1  0.75000000  0.75000000  0.50000000  1
  Co  Co1  1  0.00372403  0.00372403  0.00253856  1
  Co  Co2  1  0.00050511  0.49949489  1.00000000  1
  Co  Co3  1  0.49949489  0.00050511  0.00000000  1
  Co  Co4  1  0.49627597  0.49627597  -0.00253856  1
  O  O5  1  0.13938936  0.13938936  0.25621971  1
  O  O6  1  0.11372059  0.63713175  0.30099382  1
  O  O7  1  0.63713175  0.11372059  0.30099382  1
  O  O8  1  0.64245076  0.64245076  0.22655479  1
  O  O9  1  0.36061064  0.36061064  0.74378029  1
  O  O10  1  0.38627941  0.86286825  0.69900618  1
  O  O11  1  0.86286825  0.38627941  0.69900618  1
  O  O12  1  0.85754924  0.85754924  0.77344521  1
