# generated using pymatgen
data_Na3CaPCO7
_symmetry_space_group_name_H-M   'P 1'
_cell_length_a   9.19613436
_cell_length_b   5.33289572
_cell_length_c   6.88654944
_cell_angle_alpha   90.00000000
_cell_angle_beta   90.00000000
_cell_angle_gamma   89.59911817
_symmetry_Int_Tables_number   1
_chemical_formula_structural   Na3CaPCO7
_chemical_formula_sum   'Na6 Ca2 P2 C2 O14'
_cell_volume   337.72206760
_cell_formula_units_Z   2
loop_
 _symmetry_equiv_pos_site_id
 _symmetry_equiv_pos_as_xyz
  1  'x, y, z'
loop_
 _atom_site_type_symbol
 _atom_site_label
 _atom_site_symmetry_multiplicity
 _atom_site_fract_x
 _atom_site_fract_y
 _atom_site_fract_z
 _atom_site_occupancy
  Na  Na0  1  0.01579481  0.98761729  0.48248100  1
  Na  Na1  1  0.17046321  0.50401518  0.19872830  1
  Na  Na2  1  0.48066504  0.53224563  0.47364146  1
  Na  Na3  1  0.51933496  0.46775437  0.97364146  1
  Na  Na4  1  0.82953679  0.49598482  0.69872830  1
  Na  Na5  1  0.98420519  0.01238271  0.98248100  1
  Ca  Ca6  1  0.30905861  0.97504148  0.76224797  1
  Ca  Ca7  1  0.69094139  0.02495852  0.26224797  1
  P  P8  1  0.33674455  0.99692109  0.23537200  1
  P  P9  1  0.66325545  0.00307891  0.73537200  1
  C  C10  1  0.14728872  0.48556146  0.74616498  1
  C  C11  1  0.85271128  0.51443854  0.24616498  1
  O  O12  1  0.06689001  0.28749424  0.72597987  1
  O  O13  1  0.08652591  0.70607992  0.76778005  1
  O  O14  1  0.22008696  0.08332070  0.08502481  1
  O  O15  1  0.26345842  0.93883804  0.43378199  1
  O  O16  1  0.28840281  0.46568939  0.74639234  1
  O  O17  1  0.41186482  0.75410310  0.16271301  1
  O  O18  1  0.45264147  0.20621261  0.25429223  1
  O  O19  1  0.54735853  0.79378739  0.75429223  1
  O  O20  1  0.58813518  0.24589690  0.66271301  1
  O  O21  1  0.71159719  0.53431061  0.24639234  1
  O  O22  1  0.73654158  0.06116196  0.93378199  1
  O  O23  1  0.77991304  0.91667930  0.58502481  1
  O  O24  1  0.91347409  0.29392008  0.26778005  1
  O  O25  1  0.93310999  0.71250576  0.22597987  1
