# generated using pymatgen
data_Li4Nb2Co3Sn3O16
_symmetry_space_group_name_H-M   'P 1'
_cell_length_a   6.18288094
_cell_length_b   6.16844686
_cell_length_c   9.89427769
_cell_angle_alpha   90.00205685
_cell_angle_beta   89.78322482
_cell_angle_gamma   119.94170856
_symmetry_Int_Tables_number   1
_chemical_formula_structural   Li4Nb2Co3Sn3O16
_chemical_formula_sum   'Li4 Nb2 Co3 Sn3 O16'
_cell_volume   326.98824121
_cell_formula_units_Z   1
loop_
 _symmetry_equiv_pos_site_id
 _symmetry_equiv_pos_as_xyz
  1  'x, y, z'
loop_
 _atom_site_type_symbol
 _atom_site_label
 _atom_site_symmetry_multiplicity
 _atom_site_fract_x
 _atom_site_fract_y
 _atom_site_fract_z
 _atom_site_occupancy
  Li  Li0  1  0.35045411  0.67490350  0.90098181  1
  Li  Li1  1  0.97757995  0.98861648  0.98304834  1
  Li  Li2  1  0.98938266  0.99525714  0.49829692  1
  Li  Li3  1  0.66223933  0.33180860  0.40539367  1
  Nb  Nb4  1  0.35154856  0.67616752  0.49810850  1
  Nb  Nb5  1  0.70100358  0.35000681  0.97930933  1
  Co  Co6  1  0.65614901  0.82860127  0.21376556  1
  Co  Co7  1  0.83502802  0.66053388  0.71198424  1
  Co  Co8  1  0.83488024  0.17395662  0.71172891  1
  Sn  Sn9  1  0.16775984  0.83138856  0.21419689  1
  Sn  Sn10  1  0.16868301  0.33663876  0.21432345  1
  Sn  Sn11  1  0.34529265  0.17281637  0.71562236  1
  O  O12  1  0.17852098  0.83567801  0.58833135  1
  O  O13  1  0.02468435  0.51221299  0.33964760  1
  O  O14  1  0.32765059  0.66389948  0.10218167  1
  O  O15  1  0.99312013  0.99664873  0.31180969  1
  O  O16  1  0.99917721  0.99940490  0.79734333  1
  O  O17  1  0.17885677  0.34315311  0.58814294  1
  O  O18  1  0.46959203  0.95588103  0.34676998  1
  O  O19  1  0.47044256  0.51494658  0.34659716  1
  O  O20  1  0.31751332  0.15856622  0.09475463  1
  O  O21  1  0.65810942  0.82932963  0.58819441  1
  O  O22  1  0.51763957  0.47552160  0.85318664  1
  O  O23  1  0.51735346  0.04165108  0.85310713  1
  O  O24  1  0.67040620  0.33515642  0.60989447  1
  O  O25  1  0.83125764  0.66180967  0.09218070  1
  O  O26  1  0.97422079  0.48637697  0.85648202  1
  O  O27  1  0.83145199  0.16936808  0.09245330  1
