# generated using pymatgen
data_MgMn2O4
_symmetry_space_group_name_H-M   'P 1'
_cell_length_a   3.00560697
_cell_length_b   9.03883999
_cell_length_c   10.48140953
_cell_angle_alpha   89.99686294
_cell_angle_beta   89.99905138
_cell_angle_gamma   89.99987305
_symmetry_Int_Tables_number   1
_chemical_formula_structural   MgMn2O4
_chemical_formula_sum   'Mg4 Mn8 O16'
_cell_volume   284.75055373
_cell_formula_units_Z   4
loop_
 _symmetry_equiv_pos_site_id
 _symmetry_equiv_pos_as_xyz
  1  'x, y, z'
loop_
 _atom_site_type_symbol
 _atom_site_label
 _atom_site_symmetry_multiplicity
 _atom_site_fract_x
 _atom_site_fract_y
 _atom_site_fract_z
 _atom_site_occupancy
  Mg  Mg0  1  0.75001095  0.24672722  0.34557542  1
  Mg  Mg1  1  0.25000022  0.75318175  0.65440238  1
  Mg  Mg2  1  0.74999524  0.74679093  0.15441226  1
  Mg  Mg3  1  0.24997894  0.25318630  0.84555443  1
  Mn  Mn4  1  0.24998683  0.41786834  0.10562263  1
  Mn  Mn5  1  0.74999844  0.08213923  0.60571020  1
  Mn  Mn6  1  0.25000543  0.91783861  0.39434025  1
  Mn  Mn7  1  0.74999997  0.58214362  0.89429013  1
  Mn  Mn8  1  0.75000524  0.56568430  0.38532915  1
  Mn  Mn9  1  0.25001900  0.43424743  0.61462513  1
  Mn  Mn10  1  0.74999519  0.06571043  0.11464142  1
  Mn  Mn11  1  0.24998895  0.93428999  0.88541325  1
  O  O12  1  0.24999206  0.90158315  0.07217656  1
  O  O13  1  0.75000026  0.09844817  0.92790606  1
  O  O14  1  0.25001865  0.40152449  0.42786523  1
  O  O15  1  0.75000002  0.59839766  0.57209804  1
  O  O16  1  0.24999359  0.02032472  0.71797660  1
  O  O17  1  0.74997901  0.97992858  0.28213764  1
  O  O18  1  0.24999344  0.52017047  0.78204997  1
  O  O19  1  0.75003760  0.47977824  0.21787724  1
  O  O20  1  0.25000993  0.61967853  0.03412458  1
  O  O21  1  0.75000280  0.38037456  0.96583078  1
  O  O22  1  0.24998310  0.11960954  0.46592275  1
  O  O23  1  0.74999468  0.88033112  0.53423238  1
  O  O24  1  0.74999124  0.78020562  0.81587364  1
  O  O25  1  0.25001076  0.21981248  0.18403496  1
  O  O26  1  0.24998556  0.71977570  0.31595155  1
  O  O27  1  0.75000889  0.28024783  0.68402538  1
