# generated using pymatgen
data_Li5Mn2Ni5O12
_symmetry_space_group_name_H-M   'P 1'
_cell_length_a   5.08168030
_cell_length_b   5.08168037
_cell_length_c   9.67190722
_cell_angle_alpha   84.76840674
_cell_angle_beta   95.23159650
_cell_angle_gamma   58.99926148
_symmetry_Int_Tables_number   1
_chemical_formula_structural   Li5Mn2Ni5O12
_chemical_formula_sum   'Li5 Mn2 Ni5 O12'
_cell_volume   210.38402038
_cell_formula_units_Z   1
loop_
 _symmetry_equiv_pos_site_id
 _symmetry_equiv_pos_as_xyz
  1  'x, y, z'
loop_
 _atom_site_type_symbol
 _atom_site_label
 _atom_site_symmetry_multiplicity
 _atom_site_fract_x
 _atom_site_fract_y
 _atom_site_fract_z
 _atom_site_occupancy
  Li  Li0  1  0.16501433  0.66714118  0.50800043  1
  Li  Li1  1  0.32983549  0.83690181  0.99068313  1
  Li  Li2  1  0.66714118  0.16501433  0.99199957  1
  Li  Li3  1  0.83690181  0.32983549  0.50931687  1
  Li  Li4  1  0.91567094  0.91567094  0.75000000  1
  Mn  Mn5  1  0.25294704  0.25294704  0.75000000  1
  Mn  Mn6  1  0.74869037  0.74869037  0.25000000  1
  Ni  Ni7  1  0.08016564  0.08016564  0.25000000  1
  Ni  Ni8  1  0.99561502  0.51128667  0.99341618  1
  Ni  Ni9  1  0.51128667  0.99561502  0.50658382  1
  Ni  Ni10  1  0.41700483  0.41700483  0.25000000  1
  Ni  Ni11  1  0.58308933  0.58308933  0.75000000  1
  O  O12  1  0.97351945  0.22301956  0.86994211  1
  O  O13  1  0.22301956  0.97351945  0.63005789  1
  O  O14  1  0.11406628  0.38617832  0.36565452  1
  O  O15  1  0.38617832  0.11406628  0.13434548  1
  O  O16  1  0.28978638  0.52221038  0.86934199  1
  O  O17  1  0.52221038  0.28978638  0.63065801  1
  O  O18  1  0.47625455  0.70890964  0.36821685  1
  O  O19  1  0.70890964  0.47625455  0.13178315  1
  O  O20  1  0.60410259  0.89124741  0.86829396  1
  O  O21  1  0.89124741  0.60410259  0.63170604  1
  O  O22  1  0.78778586  0.01955793  0.36950465  1
  O  O23  1  0.01955793  0.78778586  0.13049535  1
