# generated using pymatgen
data_Li2MnPO4F
_symmetry_space_group_name_H-M   'P 1'
_cell_length_a   13.18498829
_cell_length_b   5.14087113
_cell_length_c   13.27140400
_cell_angle_alpha   90.00000000
_cell_angle_beta   120.26021831
_cell_angle_gamma   90.00000000
_symmetry_Int_Tables_number   1
_chemical_formula_structural   Li2MnPO4F
_chemical_formula_sum   'Li16 Mn8 P8 O32 F8'
_cell_volume   776.99675857
_cell_formula_units_Z   8
loop_
 _symmetry_equiv_pos_site_id
 _symmetry_equiv_pos_as_xyz
  1  'x, y, z'
loop_
 _atom_site_type_symbol
 _atom_site_label
 _atom_site_symmetry_multiplicity
 _atom_site_fract_x
 _atom_site_fract_y
 _atom_site_fract_z
 _atom_site_occupancy
  Li  Li0  1  0.17871822  0.73332489  0.82742629  1
  Li  Li1  1  0.17760570  0.73083841  0.59858353  1
  Li  Li2  1  0.32239430  0.23083841  0.90141647  1
  Li  Li3  1  0.17265892  0.71874682  0.32200042  1
  Li  Li4  1  0.32128178  0.23332489  0.67257371  1
  Li  Li5  1  0.09228039  0.27416972  0.17416947  1
  Li  Li6  1  0.40771961  0.77416972  0.32583053  1
  Li  Li7  1  0.67265892  0.78125318  0.82200042  1
  Li  Li8  1  0.32734108  0.21874682  0.17799958  1
  Li  Li9  1  0.59228039  0.22583028  0.67416947  1
  Li  Li10  1  0.90771961  0.72583028  0.82583053  1
  Li  Li11  1  0.67871822  0.76667511  0.32742629  1
  Li  Li12  1  0.82734108  0.28125318  0.67799958  1
  Li  Li13  1  0.67760570  0.76916159  0.09858353  1
  Li  Li14  1  0.82239430  0.26916159  0.40141647  1
  Li  Li15  1  0.82128178  0.26667511  0.17257371  1
  Mn  Mn16  1  0.09147710  0.27424455  0.67038738  1
  Mn  Mn17  1  0.40852290  0.77424455  0.82961262  1
  Mn  Mn18  1  0.32912270  0.22936896  0.40639054  1
  Mn  Mn19  1  0.17087730  0.72936896  0.09360946  1
  Mn  Mn20  1  0.82912270  0.27063104  0.90639054  1
  Mn  Mn21  1  0.67087730  0.77063104  0.59360946  1
  Mn  Mn22  1  0.59147710  0.22575545  0.17038738  1
  Mn  Mn23  1  0.90852290  0.72575545  0.32961262  1
  P  P24  1  0.08562416  0.21785867  0.91884276  1
  P  P25  1  0.08369556  0.21487995  0.41644876  1
  P  P26  1  0.58369556  0.28512005  0.91644776  1
  P  P27  1  0.41437584  0.71785867  0.58115724  1
  P  P28  1  0.58562416  0.28214133  0.41884276  1
  P  P29  1  0.41630444  0.71487995  0.08355124  1
  P  P30  1  0.91630444  0.78512005  0.58355224  1
  P  P31  1  0.91437584  0.78214133  0.08115724  1
  O  O32  1  0.07959381  0.91244990  0.92201208  1
  O  O33  1  0.04339367  0.67574542  0.64649929  1
  O  O34  1  0.15151252  0.30333478  0.85539109  1
  O  O35  1  0.07747587  0.90945117  0.41410545  1
  O  O36  1  0.15131698  0.31315930  0.54439472  1
  O  O37  1  0.34868302  0.81315930  0.95560528  1
  O  O38  1  0.14841159  0.31283575  0.35306497  1
  O  O39  1  0.04070887  0.66719738  0.14643155  1
  O  O40  1  0.34848748  0.80333478  0.64460891  1
  O  O41  1  0.45660633  0.17574542  0.85350071  1
  O  O42  1  0.57747587  0.59054883  0.91410545  1
  O  O43  1  0.34712156  0.82317301  0.45392527  1
  O  O44  1  0.42040619  0.41244990  0.57798792  1
  O  O45  1  0.15287844  0.32317301  0.04607473  1
  O  O46  1  0.64841159  0.18716425  0.85306497  1
  O  O47  1  0.54070887  0.83280262  0.64643155  1
  O  O48  1  0.45929113  0.16719738  0.35356845  1
  O  O49  1  0.35158841  0.81283575  0.14693503  1
  O  O50  1  0.84712156  0.67682699  0.95392527  1
  O  O51  1  0.57959381  0.58755010  0.42201208  1
  O  O52  1  0.65287844  0.17682699  0.54607473  1
  O  O53  1  0.42252413  0.40945117  0.08589455  1
  O  O54  1  0.54339367  0.82425458  0.14649929  1
  O  O55  1  0.65151252  0.19666622  0.35539109  1
  O  O56  1  0.95929113  0.33280262  0.85356845  1
  O  O57  1  0.85158841  0.68716425  0.64693503  1
  O  O58  1  0.65131698  0.18684070  0.04439472  1
  O  O59  1  0.84868302  0.68684070  0.45560528  1
  O  O60  1  0.92252413  0.09054883  0.58589455  1
  O  O61  1  0.84848748  0.69666522  0.14460891  1
  O  O62  1  0.95660633  0.32425458  0.35350071  1
  O  O63  1  0.92040619  0.08755010  0.07798792  1
  F  F64  1  0.22746880  0.98917819  0.73690544  1
  F  F65  1  0.27253120  0.48917819  0.76309456  1
  F  F66  1  0.22085714  0.01368752  0.23296844  1
  F  F67  1  0.27914286  0.51368752  0.26703156  1
  F  F68  1  0.72085714  0.48631248  0.73296844  1
  F  F69  1  0.77914286  0.98631248  0.76703156  1
  F  F70  1  0.72746880  0.51082181  0.23690544  1
  F  F71  1  0.77253120  0.01082181  0.26309456  1
