# generated using pymatgen
data_Li3Fe3CuO8
_symmetry_space_group_name_H-M   'P 1'
_cell_length_a   10.33265554
_cell_length_b   10.45715016
_cell_length_c   14.68928750
_cell_angle_alpha   19.23116241
_cell_angle_beta   19.27986232
_cell_angle_gamma   33.24592439
_symmetry_Int_Tables_number   1
_chemical_formula_structural   Li3Fe3CuO8
_chemical_formula_sum   'Li3 Fe3 Cu1 O8'
_cell_volume   148.98965649
_cell_formula_units_Z   1
loop_
 _symmetry_equiv_pos_site_id
 _symmetry_equiv_pos_as_xyz
  1  'x, y, z'
loop_
 _atom_site_type_symbol
 _atom_site_label
 _atom_site_symmetry_multiplicity
 _atom_site_fract_x
 _atom_site_fract_y
 _atom_site_fract_z
 _atom_site_occupancy
  Li  Li0  1  0.99998769  0.50000595  0.49999149  1
  Li  Li1  1  0.50002013  0.00013862  0.49989788  1
  Li  Li2  1  0.49996070  0.50010279  0.49995949  1
  Fe  Fe3  1  0.00000478  0.50012505  0.99996560  1
  Fe  Fe4  1  0.50013438  0.00002183  -0.00012590  1
  Fe  Fe5  1  0.49983257  0.49989377  0.00016599  1
  Cu  Cu6  1  0.00010953  -0.00043081  0.00024407  1
  O  O7  1  0.99995173  0.01221497  0.24984983  1
  O  O8  1  -0.00000984  0.50811622  0.25356418  1
  O  O9  1  0.53077890  0.00512418  0.23693808  1
  O  O10  1  0.00001046  0.98791014  0.75007101  1
  O  O11  1  0.46940488  0.47452105  0.29822687  1
  O  O12  1  0.99998500  0.49188785  0.74644180  1
  O  O13  1  0.46927474  0.99490607  0.76300649  1
  O  O14  1  0.53055433  0.52546432  0.70180512  1
