# generated using pymatgen
data_Na3Li3Fe2P2(CO7)2
_symmetry_space_group_name_H-M   'P 1'
_cell_length_a   8.77040597
_cell_length_b   6.58203735
_cell_length_c   5.10149687
_cell_angle_alpha   90.01332009
_cell_angle_beta   88.20971852
_cell_angle_gamma   88.53012494
_symmetry_Int_Tables_number   1
_chemical_formula_structural   Na3Li3Fe2P2(CO7)2
_chemical_formula_sum   'Na3 Li3 Fe2 P2 C2 O14'
_cell_volume   294.25405824
_cell_formula_units_Z   1
loop_
 _symmetry_equiv_pos_site_id
 _symmetry_equiv_pos_as_xyz
  1  'x, y, z'
loop_
 _atom_site_type_symbol
 _atom_site_label
 _atom_site_symmetry_multiplicity
 _atom_site_fract_x
 _atom_site_fract_y
 _atom_site_fract_z
 _atom_site_occupancy
  Na  Na0  1  0.08239470  0.24343673  0.75890000  1
  Na  Na1  1  0.25868546  0.50014994  0.24812897  1
  Na  Na2  1  0.74135407  0.50092781  0.75238471  1
  Li  Li3  1  0.26851497  0.00857297  0.24310621  1
  Li  Li4  1  0.73265269  0.99185012  0.75663268  1
  Li  Li5  1  0.91599323  0.76159174  0.24368184  1
  Fe  Fe6  1  0.35227545  0.75216368  0.78559126  1
  Fe  Fe7  1  0.64838275  0.24719341  0.21445813  1
  P  P8  1  0.41402861  0.24117120  0.70064454  1
  P  P9  1  0.59082192  0.75772499  0.30041163  1
  C  C10  1  0.04847267  0.76017596  0.72838589  1
  C  C11  1  0.94523750  0.23958482  0.27037705  1
  O  O12  1  0.09341650  0.23085796  0.28327380  1
  O  O13  1  0.10033308  0.75167089  0.96534096  1
  O  O14  1  0.14350807  0.75897331  0.52720254  1
  O  O15  1  0.31439805  0.06338609  0.80405456  1
  O  O16  1  0.32335539  0.43962243  0.78397817  1
  O  O17  1  0.42666437  0.23204348  0.39492705  1
  O  O18  1  0.42996430  0.76701428  0.18369942  1
  O  O19  1  0.57485091  0.23262984  0.81470768  1
  O  O20  1  0.57414247  0.76745852  0.60549396  1
  O  O21  1  0.68269977  0.56041636  0.21815447  1
  O  O22  1  0.69412364  0.93309504  0.19950165  1
  O  O23  1  0.85929062  0.24093619  0.48204131  1
  O  O24  1  0.88157754  0.24809906  0.04404976  1
  O  O25  1  0.90286128  0.76925416  0.69087077  1
