# generated using pymatgen
data_Li2VFeO4
_symmetry_space_group_name_H-M   'P 1'
_cell_length_a   5.18353458
_cell_length_b   6.02033968
_cell_length_c   7.89510112
_cell_angle_alpha   78.77689357
_cell_angle_beta   71.26446584
_cell_angle_gamma   90.13294643
_symmetry_Int_Tables_number   1
_chemical_formula_structural   Li2VFeO4
_chemical_formula_sum   'Li6 V3 Fe3 O12'
_cell_volume   228.30414351
_cell_formula_units_Z   3
loop_
 _symmetry_equiv_pos_site_id
 _symmetry_equiv_pos_as_xyz
  1  'x, y, z'
loop_
 _atom_site_type_symbol
 _atom_site_label
 _atom_site_symmetry_multiplicity
 _atom_site_fract_x
 _atom_site_fract_y
 _atom_site_fract_z
 _atom_site_occupancy
  Li  Li0  1  0.00171766  0.50295616  0.00002038  1
  Li  Li1  1  0.00127356  0.33557467  0.66460837  1
  Li  Li2  1  -0.00129006  0.99632689  0.99930953  1
  Li  Li3  1  -0.00166670  0.66372042  0.33367038  1
  Li  Li4  1  0.00113458  0.17048565  0.33371556  1
  Li  Li5  1  0.99870327  0.83071544  0.66882670  1
  V  V6  1  0.50040476  0.24869386  0.00016678  1
  V  V7  1  0.49916690  0.91801467  0.33337903  1
  V  V8  1  0.50077146  0.08319056  0.66693288  1
  Fe  Fe9  1  0.49847178  0.74760254  -0.00042879  1
  Fe  Fe10  1  0.50048958  0.41969481  0.33349851  1
  Fe  Fe11  1  0.50044605  0.58350294  0.66644721  1
  O  O12  1  0.27356448  0.96183408  0.15958321  1
  O  O13  1  0.27088095  0.46176516  0.16387010  1
  O  O14  1  0.27377648  0.13112034  0.49673150  1
  O  O15  1  0.27233646  0.63036074  0.49370268  1
  O  O16  1  0.27536109  0.28908553  0.82650180  1
  O  O17  1  0.26918913  0.78297040  0.83080578  1
  O  O18  1  0.72763206  0.70668611  0.17060035  1
  O  O19  1  0.72552494  0.20525864  0.17258315  1
  O  O20  1  0.73070158  0.38334631  0.50210261  1
  O  O21  1  0.72566597  0.87682498  0.50763234  1
  O  O22  1  0.72747937  0.53613346  0.84009021  1
  O  O23  1  0.72826463  0.03413266  0.83565071  1
