# generated using pymatgen
data_Li4Mn3SnO8
_symmetry_space_group_name_H-M   'P 1'
_cell_length_a   10.57117684
_cell_length_b   10.56765654
_cell_length_c   14.81419104
_cell_angle_alpha   19.82877663
_cell_angle_beta   19.83369564
_cell_angle_gamma   34.34904163
_symmetry_Int_Tables_number   1
_chemical_formula_structural   Li4Mn3SnO8
_chemical_formula_sum   'Li4 Mn3 Sn1 O8'
_cell_volume   163.24600290
_cell_formula_units_Z   1
loop_
 _symmetry_equiv_pos_site_id
 _symmetry_equiv_pos_as_xyz
  1  'x, y, z'
loop_
 _atom_site_type_symbol
 _atom_site_label
 _atom_site_symmetry_multiplicity
 _atom_site_fract_x
 _atom_site_fract_y
 _atom_site_fract_z
 _atom_site_occupancy
  Li  Li0  1  0.99996840  0.99988210  0.50009702  1
  Li  Li1  1  0.99993674  0.49975391  0.50017689  1
  Li  Li2  1  0.49965380  0.99990161  0.50027522  1
  Li  Li3  1  0.49991738  0.49998038  0.50008611  1
  Mn  Mn4  1  0.00011219  0.50004220  -0.00011300  1
  Mn  Mn5  1  0.50004172  0.00011758  0.99987938  1
  Mn  Mn6  1  0.50027497  0.50017355  0.99963661  1
  Sn  Sn7  1  -0.00024217  0.99981686  0.00030850  1
  O  O8  1  0.05289119  0.05244868  0.19647557  1
  O  O9  1  0.96914321  0.48985653  0.28495351  1
  O  O10  1  0.49045587  0.97077039  0.28373178  1
  O  O11  1  0.94747214  0.94792335  0.80305979  1
  O  O12  1  0.46497269  0.46418059  0.29102653  1
  O  O13  1  0.03101402  0.51023575  0.71489429  1
  O  O14  1  0.50947267  0.02914883  0.71640798  1
  O  O15  1  0.53491615  0.53576867  0.70910582  1
