# generated using pymatgen
data_Li8FeO6
_symmetry_space_group_name_H-M   'P 1'
_cell_length_a   5.34692793
_cell_length_b   5.85519517
_cell_length_c   5.39490143
_cell_angle_alpha   117.37195245
_cell_angle_beta   116.93676387
_cell_angle_gamma   65.43557954
_symmetry_Int_Tables_number   1
_chemical_formula_structural   Li8FeO6
_chemical_formula_sum   'Li8 Fe1 O6'
_cell_volume   129.04532578
_cell_formula_units_Z   1
loop_
 _symmetry_equiv_pos_site_id
 _symmetry_equiv_pos_as_xyz
  1  'x, y, z'
loop_
 _atom_site_type_symbol
 _atom_site_label
 _atom_site_symmetry_multiplicity
 _atom_site_fract_x
 _atom_site_fract_y
 _atom_site_fract_z
 _atom_site_occupancy
  Li  Li0  1  0.23181045  0.35654941  0.48999288  1
  Li  Li1  1  0.09963167  0.65817140  0.24030957  1
  Li  Li2  1  0.48571900  0.64307500  0.89933738  1
  Li  Li3  1  0.36844675  0.97610231  0.66435821  1
  Li  Li4  1  0.63155325  0.02389769  0.33564179  1
  Li  Li5  1  0.51428100  0.35692500  0.10066262  1
  Li  Li6  1  0.90036833  0.34182860  0.75969043  1
  Li  Li7  1  0.76818955  0.64345059  0.51000712  1
  Fe  Fe8  1  0.00000000  0.00000000  0.00000000  1
  O  O9  1  0.10281978  0.76805473  0.63969208  1
  O  O10  1  0.21885719  0.23868939  0.08358921  1
  O  O11  1  0.60360063  0.23923671  0.75499112  1
  O  O12  1  0.39639937  0.76076329  0.24500888  1
  O  O13  1  0.78114281  0.76131061  0.91641079  1
  O  O14  1  0.89718022  0.23194527  0.36030792  1
