# generated using pymatgen
data_NaCuCSO7
_symmetry_space_group_name_H-M   'P 1'
_cell_length_a   8.83600115
_cell_length_b   7.19687830
_cell_length_c   5.03179420
_cell_angle_alpha   90.00000000
_cell_angle_beta   87.99073608
_cell_angle_gamma   90.00000000
_symmetry_Int_Tables_number   1
_chemical_formula_structural   NaCuCSO7
_chemical_formula_sum   'Na2 Cu2 C2 S2 O14'
_cell_volume   319.78323638
_cell_formula_units_Z   2
loop_
 _symmetry_equiv_pos_site_id
 _symmetry_equiv_pos_as_xyz
  1  'x, y, z'
loop_
 _atom_site_type_symbol
 _atom_site_label
 _atom_site_symmetry_multiplicity
 _atom_site_fract_x
 _atom_site_fract_y
 _atom_site_fract_z
 _atom_site_occupancy
  Na  Na0  1  0.24019151  0.47572289  0.23659078  1
  Na  Na1  1  0.75980849  0.97572289  0.76340922  1
  Cu  Cu2  1  0.34855925  0.76414018  0.77790216  1
  Cu  Cu3  1  0.65144075  0.26414018  0.22209784  1
  C  C4  1  0.08365107  0.74702906  0.72369071  1
  C  C5  1  0.91634893  0.24702906  0.27630929  1
  S  S6  1  0.42330733  0.25191781  0.72670795  1
  S  S7  1  0.57669267  0.75191881  0.27329205  1
  O  O8  1  0.05487403  0.24924044  0.30113313  1
  O  O9  1  0.15342145  0.75082913  0.95082762  1
  O  O10  1  0.18703584  0.74254853  0.52633466  1
  O  O11  1  0.33376255  0.08496393  0.77550873  1
  O  O12  1  0.33960515  0.42133487  0.80315075  1
  O  O13  1  0.42575170  0.74190316  0.13911030  1
  O  O14  1  0.46421935  0.26822099  0.42806384  1
  O  O15  1  0.53578065  0.76822099  0.57193616  1
  O  O16  1  0.57424830  0.24190316  0.86088970  1
  O  O17  1  0.66039485  0.92133487  0.19684925  1
  O  O18  1  0.66623745  0.58496393  0.22449127  1
  O  O19  1  0.81296416  0.24254853  0.47366534  1
  O  O20  1  0.84657855  0.25082913  0.04917238  1
  O  O21  1  0.94512597  0.74924044  0.69886687  1
