# generated using pymatgen
data_KSnPCO7
_symmetry_space_group_name_H-M   'P 1'
_cell_length_a   10.62040516
_cell_length_b   6.58253982
_cell_length_c   5.31685902
_cell_angle_alpha   90.00000000
_cell_angle_beta   88.06802319
_cell_angle_gamma   90.00000000
_symmetry_Int_Tables_number   1
_chemical_formula_structural   KSnPCO7
_chemical_formula_sum   'K2 Sn2 P2 C2 O14'
_cell_volume   371.48628367
_cell_formula_units_Z   2
loop_
 _symmetry_equiv_pos_site_id
 _symmetry_equiv_pos_as_xyz
  1  'x, y, z'
loop_
 _atom_site_type_symbol
 _atom_site_label
 _atom_site_symmetry_multiplicity
 _atom_site_fract_x
 _atom_site_fract_y
 _atom_site_fract_z
 _atom_site_occupancy
  K  K0  1  0.19436654  0.39331416  0.22287601  1
  K  K1  1  0.80563346  0.89331416  0.77712399  1
  Sn  Sn2  1  0.35842932  0.77990195  0.78099536  1
  Sn  Sn3  1  0.64157068  0.27990195  0.21900464  1
  P  P4  1  0.44353014  0.27651875  0.72555276  1
  P  P5  1  0.55646986  0.77651875  0.27444724  1
  C  C6  1  0.12578747  0.73411993  0.70799921  1
  C  C7  1  0.87421253  0.23411993  0.29200079  1
  O  O8  1  0.98657705  0.20008206  0.32840498  1
  O  O9  1  0.17519542  0.75516087  0.93645342  1
  O  O10  1  0.21528390  0.74929009  0.52163602  1
  O  O11  1  0.35699393  0.09334033  0.78981194  1
  O  O12  1  0.36097675  0.46094106  0.80055917  1
  O  O13  1  0.43165843  0.77208696  0.13426272  1
  O  O14  1  0.47634204  0.28309284  0.43702153  1
  O  O15  1  0.52365796  0.78309284  0.56297847  1
  O  O16  1  0.56834157  0.27208696  0.86573728  1
  O  O17  1  0.63902325  0.96094106  0.19944083  1
  O  O18  1  0.64300607  0.59334033  0.21018806  1
  O  O19  1  0.78471610  0.24929009  0.47836398  1
  O  O20  1  0.82480458  0.25516087  0.06354658  1
  O  O21  1  0.01342295  0.70008206  0.67159502  1
