# generated using pymatgen
data_AlGaO3
_symmetry_space_group_name_H-M   'P 1'
_cell_length_a   4.99509188
_cell_length_b   8.62502808
_cell_length_c   9.15976062
_cell_angle_alpha   90.00000000
_cell_angle_beta   90.00000000
_cell_angle_gamma   90.00000000
_symmetry_Int_Tables_number   1
_chemical_formula_structural   AlGaO3
_chemical_formula_sum   'Al8 Ga8 O24'
_cell_volume   394.62820562
_cell_formula_units_Z   8
loop_
 _symmetry_equiv_pos_site_id
 _symmetry_equiv_pos_as_xyz
  1  'x, y, z'
loop_
 _atom_site_type_symbol
 _atom_site_label
 _atom_site_symmetry_multiplicity
 _atom_site_fract_x
 _atom_site_fract_y
 _atom_site_fract_z
 _atom_site_occupancy
  Al  Al0  1  0.18054246  0.46609287  0.79031920  1
  Al  Al1  1  0.18970566  0.15730605  0.58468310  1
  Al  Al2  1  0.31029434  0.65730605  0.08468310  1
  Al  Al3  1  0.31945754  0.96609287  0.29031920  1
  Al  Al4  1  0.68054246  0.03390713  0.79031920  1
  Al  Al5  1  0.68970566  0.34269395  0.58468310  1
  Al  Al6  1  0.81029434  0.84269395  0.08468310  1
  Al  Al7  1  0.81945754  0.53390713  0.29031920  1
  Ga  Ga8  1  0.18254580  0.14940488  0.99172204  1
  Ga  Ga9  1  0.18631855  0.84208208  0.80759975  1
  Ga  Ga10  1  0.31368145  0.34208208  0.30759975  1
  Ga  Ga11  1  0.31745420  0.64940488  0.49172204  1
  Ga  Ga12  1  0.68254580  0.35059512  0.99172204  1
  Ga  Ga13  1  0.68631855  0.65791792  0.80759975  1
  Ga  Ga14  1  0.81368145  0.15791792  0.30759975  1
  Ga  Ga15  1  0.81745420  0.85059512  0.49172204  1
  O  O16  1  0.03216065  0.33601021  0.93243520  1
  O  O17  1  0.03788359  0.01253942  0.43279262  1
  O  O18  1  0.01945443  0.67927043  0.93469396  1
  O  O19  1  0.14861580  0.83101212  0.17004464  1
  O  O20  1  0.16866853  0.15436144  0.19702478  1
  O  O21  1  0.15033784  0.50795113  0.20307571  1
  O  O22  1  0.34966216  0.00795113  0.70307571  1
  O  O23  1  0.33133147  0.65436144  0.69702478  1
  O  O24  1  0.35138420  0.33101212  0.67004464  1
  O  O25  1  0.48054557  0.17927043  0.43469396  1
  O  O26  1  0.46211541  0.51253942  0.93279262  1
  O  O27  1  0.46783935  0.83601021  0.43243520  1
  O  O28  1  0.53216065  0.16398979  0.93243520  1
  O  O29  1  0.53788359  0.48746058  0.43279262  1
  O  O30  1  0.51945443  0.82072957  0.93469396  1
  O  O31  1  0.64861580  0.66898788  0.17004464  1
  O  O32  1  0.66866853  0.34563856  0.19702478  1
  O  O33  1  0.65033784  0.99204887  0.20307571  1
  O  O34  1  0.84966216  0.49204887  0.70307571  1
  O  O35  1  0.83133147  0.84563856  0.69702478  1
  O  O36  1  0.85138420  0.16898788  0.67004464  1
  O  O37  1  0.98054557  0.32072957  0.43469396  1
  O  O38  1  0.96211641  0.98746058  0.93279262  1
  O  O39  1  0.96783935  0.66398979  0.43243520  1
