# generated using pymatgen
data_Dy2Ge2O7
_symmetry_space_group_name_H-M   'P 1'
_cell_length_a   6.81969293
_cell_length_b   6.84493374
_cell_length_c   12.42329238
_cell_angle_alpha   94.82047254
_cell_angle_beta   88.03435392
_cell_angle_gamma   88.14049462
_symmetry_Int_Tables_number   1
_chemical_formula_structural   Dy2Ge2O7
_chemical_formula_sum   'Dy8 Ge8 O28'
_cell_volume   577.16873333
_cell_formula_units_Z   4
loop_
 _symmetry_equiv_pos_site_id
 _symmetry_equiv_pos_as_xyz
  1  'x, y, z'
loop_
 _atom_site_type_symbol
 _atom_site_label
 _atom_site_symmetry_multiplicity
 _atom_site_fract_x
 _atom_site_fract_y
 _atom_site_fract_z
 _atom_site_occupancy
  Dy  Dy0  1  0.04924143  0.66732333  0.88764402  1
  Dy  Dy1  1  0.11161470  0.90880777  0.64262015  1
  Dy  Dy2  1  0.31384110  0.16619388  0.88349761  1
  Dy  Dy3  1  0.37504034  0.78937899  0.36846645  1
  Dy  Dy4  1  0.62495966  0.21062101  0.63153355  1
  Dy  Dy5  1  0.68615890  0.83380612  0.11650239  1
  Dy  Dy6  1  0.88838530  0.09119223  0.35737985  1
  Dy  Dy7  1  0.95075857  0.33267667  0.11235598  1
  Ge  Ge8  1  0.13902132  0.37771260  0.62311787  1
  Ge  Ge9  1  0.16673521  0.85715557  0.11494758  1
  Ge  Ge10  1  0.38859017  0.27622403  0.40021331  1
  Ge  Ge11  1  0.51495551  0.66188221  0.83331105  1
  Ge  Ge12  1  0.48504449  0.33811779  0.16668895  1
  Ge  Ge13  1  0.61140983  0.72377597  0.59978669  1
  Ge  Ge14  1  0.83326479  0.14284443  0.88505242  1
  Ge  Ge15  1  0.86097868  0.62228740  0.37688213  1
  O  O16  1  0.00190207  0.33482742  0.91909839  1
  O  O17  1  0.98974047  0.02289743  0.18419081  1
  O  O18  1  0.04584449  0.78201117  0.42404665  1
  O  O19  1  0.06517579  0.59738509  0.69757466  1
  O  O20  1  0.24402624  0.90501467  0.98395232  1
  O  O21  1  0.22391240  0.09000140  0.37312110  1
  O  O22  1  0.28639087  0.20517970  0.68953545  1
  O  O23  1  0.29854075  0.44141765  0.51410115  1
  O  O24  1  0.28763439  0.28566101  0.08381641  1
  O  O25  1  0.36753411  0.79171269  0.18816454  1
  O  O26  1  0.34213561  0.50357526  0.88190742  1
  O  O27  1  0.39285519  0.86260621  0.77876602  1
  O  O28  1  0.40308051  0.84290089  0.55039449  1
  O  O29  1  0.39635812  0.45610431  0.30325736  1
  O  O30  1  0.60364188  0.54389569  0.69674264  1
  O  O31  1  0.59691949  0.15709911  0.44960551  1
  O  O32  1  0.60714481  0.13739379  0.22123398  1
  O  O33  1  0.65786439  0.49642474  0.11809258  1
  O  O34  1  0.63246589  0.20828731  0.81183546  1
  O  O35  1  0.71236561  0.71433899  0.91618359  1
  O  O36  1  0.70145925  0.55858235  0.48589885  1
  O  O37  1  0.71360913  0.79482030  0.31046455  1
  O  O38  1  0.77608760  0.90999860  0.62687890  1
  O  O39  1  0.75597376  0.09498533  0.01604768  1
  O  O40  1  0.93482421  0.40261491  0.30242534  1
  O  O41  1  0.95415551  0.21798883  0.57595335  1
  O  O42  1  0.01025953  0.97710257  0.81580919  1
  O  O43  1  0.99809793  0.66517258  0.08090161  1
