# generated using pymatgen
data_Dy2Ge2O7
_symmetry_space_group_name_H-M   'P 1'
_cell_length_a   13.95155959
_cell_length_b   5.29133970
_cell_length_c   8.31430100
_cell_angle_alpha   90.00063692
_cell_angle_beta   89.99830338
_cell_angle_gamma   90.00065255
_symmetry_Int_Tables_number   1
_chemical_formula_structural   Dy2Ge2O7
_chemical_formula_sum   'Dy8 Ge8 O28'
_cell_volume   613.78199598
_cell_formula_units_Z   4
loop_
 _symmetry_equiv_pos_site_id
 _symmetry_equiv_pos_as_xyz
  1  'x, y, z'
loop_
 _atom_site_type_symbol
 _atom_site_label
 _atom_site_symmetry_multiplicity
 _atom_site_fract_x
 _atom_site_fract_y
 _atom_site_fract_z
 _atom_site_occupancy
  Dy  Dy0  1  0.12400007  0.33836489  0.51509578  1
  Dy  Dy1  1  0.12522798  0.33542407  0.98596295  1
  Dy  Dy2  1  0.37478431  0.83540044  0.48595896  1
  Dy  Dy3  1  0.37600031  0.83837813  0.01509240  1
  Dy  Dy4  1  0.62399435  0.16165565  0.51509957  1
  Dy  Dy5  1  0.62522353  0.16455223  0.98594770  1
  Dy  Dy6  1  0.87476793  0.66456825  0.48592610  1
  Dy  Dy7  1  0.87600981  0.66164249  0.01506340  1
  Ge  Ge8  1  0.04869213  0.87086549  0.25194381  1
  Ge  Ge9  1  0.18593666  0.86915635  0.74922373  1
  Ge  Ge10  1  0.31406447  0.36914473  0.24923179  1
  Ge  Ge11  1  0.45130258  0.37084327  0.75195232  1
  Ge  Ge12  1  0.54868811  0.62913640  0.25194582  1
  Ge  Ge13  1  0.68592555  0.63085102  0.74923764  1
  Ge  Ge14  1  0.81406314  0.13084377  0.24924760  1
  Ge  Ge15  1  0.95131095  0.12913305  0.75195080  1
  O  O16  1  0.04928507  0.69586070  0.07220121  1
  O  O17  1  0.04778239  0.70368123  0.43482355  1
  O  O18  1  0.08197154  0.07970148  0.74962312  1
  O  O19  1  0.10698461  0.16589429  0.25080971  1
  O  O20  1  0.15455994  0.55026031  0.75051953  1
  O  O21  1  0.23569748  0.99624483  0.57267565  1
  O  O22  1  0.23709462  0.99719727  0.92457153  1
  O  O23  1  0.26291971  0.49716004  0.42459122  1
  O  O24  1  0.26430184  0.49623989  0.07268941  1
  O  O25  1  0.34545853  0.05025105  0.25052192  1
  O  O26  1  0.39302773  0.66589706  0.75080538  1
  O  O27  1  0.41802842  0.57970480  0.24961714  1
  O  O28  1  0.45221562  0.20361091  0.93480568  1
  O  O29  1  0.45070807  0.19586759  0.57219789  1
  O  O30  1  0.54929272  0.80409984  0.07219374  1
  O  O31  1  0.54776777  0.79638879  0.43480913  1
  O  O32  1  0.58196205  0.42030668  0.74965728  1
  O  O33  1  0.60697844  0.33410711  0.25081805  1
  O  O34  1  0.65454759  0.94974963  0.75050466  1
  O  O35  1  0.73567412  0.50379195  0.57267284  1
  O  O36  1  0.73708622  0.50283883  0.92457837  1
  O  O37  1  0.76291684  0.00282303  0.42460847  1
  O  O38  1  0.76430489  0.00380129  0.07268490  1
  O  O39  1  0.84546226  0.44972108  0.25050323  1
  O  O40  1  0.89302435  0.83409300  0.75079450  1
  O  O41  1  0.91802760  0.92028140  0.24960622  1
  O  O42  1  0.95221452  0.29633948  0.93482900  1
  O  O43  1  0.95071416  0.30412421  0.57220335  1
