# generated using pymatgen
data_La2WO6
_symmetry_space_group_name_H-M   'P 1'
_cell_length_a   8.02408988
_cell_length_b   5.65217717
_cell_length_c   11.99763535
_cell_angle_alpha   90.00000000
_cell_angle_beta   103.44967544
_cell_angle_gamma   90.00000000
_symmetry_Int_Tables_number   1
_chemical_formula_structural   La2WO6
_chemical_formula_sum   'La8 W4 O24'
_cell_volume   529.21254058
_cell_formula_units_Z   4
loop_
 _symmetry_equiv_pos_site_id
 _symmetry_equiv_pos_as_xyz
  1  'x, y, z'
loop_
 _atom_site_type_symbol
 _atom_site_label
 _atom_site_symmetry_multiplicity
 _atom_site_fract_x
 _atom_site_fract_y
 _atom_site_fract_z
 _atom_site_occupancy
  La  La0  1  0.00000000  0.26195088  0.75000000  1
  La  La1  1  0.00000000  0.73804912  0.25000000  1
  La  La2  1  0.20303010  0.80406352  0.57646922  1
  La  La3  1  0.20303010  0.19593648  0.07646922  1
  La  La4  1  0.50000000  0.31543999  0.75000000  1
  La  La5  1  0.50000000  0.68456001  0.25000000  1
  La  La6  1  0.79696990  0.80406352  0.92353078  1
  La  La7  1  0.79696990  0.19593648  0.42353078  1
  W  W8  1  0.27789295  0.74782091  0.88629788  1
  W  W9  1  0.27789295  0.25217909  0.38629788  1
  W  W10  1  0.72210705  0.74782091  0.61370212  1
  W  W11  1  0.72210705  0.25217909  0.11370212  1
  O  O12  1  0.06863606  0.95606286  0.89678062  1
  O  O13  1  0.14908092  0.49103621  0.92971153  1
  O  O14  1  0.06863606  0.04393714  0.39678062  1
  O  O15  1  0.21940043  0.54229510  0.73475733  1
  O  O16  1  0.14908092  0.50896379  0.42971153  1
  O  O17  1  0.29208411  0.00327093  0.77615336  1
  O  O18  1  0.21940043  0.45770390  0.23475733  1
  O  O19  1  0.36226628  0.15106348  0.54041157  1
  O  O20  1  0.50114977  0.63677049  0.88865129  1
  O  O21  1  0.29208411  0.99672907  0.27615336  1
  O  O22  1  0.49885023  0.63677049  0.61134871  1
  O  O23  1  0.63773372  0.15106348  0.95958843  1
  O  O24  1  0.36226628  0.84893652  0.04041157  1
  O  O25  1  0.50114977  0.36322951  0.38865129  1
  O  O26  1  0.70791589  0.00327093  0.72384664  1
  O  O27  1  0.49885023  0.36322951  0.11134871  1
  O  O28  1  0.63773372  0.84893652  0.45958843  1
  O  O29  1  0.78059957  0.54229510  0.76524267  1
  O  O30  1  0.70791589  0.99672907  0.22384664  1
  O  O31  1  0.85091908  0.49103621  0.57028847  1
  O  O32  1  0.78059957  0.45770390  0.26524267  1
  O  O33  1  0.93136394  0.95606286  0.60321938  1
  O  O34  1  0.85091908  0.50896379  0.07028847  1
  O  O35  1  0.93136394  0.04393714  0.10321938  1
