# generated using pymatgen
data_Ca(FeO2)4
_symmetry_space_group_name_H-M   'P 1'
_cell_length_a   3.09484754
_cell_length_b   7.09527660
_cell_length_c   7.19631879
_cell_angle_alpha   82.30972832
_cell_angle_beta   77.56645835
_cell_angle_gamma   77.42811306
_symmetry_Int_Tables_number   1
_chemical_formula_structural   Ca(FeO2)4
_chemical_formula_sum   'Ca1 Fe4 O8'
_cell_volume   149.98830774
_cell_formula_units_Z   1
loop_
 _symmetry_equiv_pos_site_id
 _symmetry_equiv_pos_as_xyz
  1  'x, y, z'
loop_
 _atom_site_type_symbol
 _atom_site_label
 _atom_site_symmetry_multiplicity
 _atom_site_fract_x
 _atom_site_fract_y
 _atom_site_fract_z
 _atom_site_occupancy
  Ca  Ca0  1  0.40869648  0.07117288  0.11175614  1
  Fe  Fe1  1  0.63451114  0.17369395  0.55752497  1
  Fe  Fe2  1  0.13633203  0.51032657  0.21699927  1
  Fe  Fe3  1  0.83221003  0.48961237  0.84621756  1
  Fe  Fe4  1  0.34125691  0.80743307  0.50987311  1
  O  O5  1  0.85279630  0.66886043  0.62533634  1
  O  O6  1  0.45040830  0.33010989  0.76975887  1
  O  O7  1  0.52701172  0.66950807  0.27647242  1
  O  O8  1  0.13815624  0.30348385  0.42063252  1
  O  O9  1  0.14919607  0.01723350  0.68431825  1
  O  O10  1  0.78970621  0.32733201  0.09376384  1
  O  O11  1  0.83074227  0.97672306  0.36180956  1
  O  O12  1  0.20645730  0.63061935  0.95618314  1
