# generated using pymatgen
data_Li9Fe23O32
_symmetry_space_group_name_H-M   'P 1'
_cell_length_a   8.55486878
_cell_length_b   8.59395612
_cell_length_c   8.59395612
_cell_angle_alpha   90.04200899
_cell_angle_beta   89.95397301
_cell_angle_gamma   89.95397301
_symmetry_Int_Tables_number   1
_chemical_formula_structural   Li9Fe23O32
_chemical_formula_sum   'Li9 Fe23 O32'
_cell_volume   631.82851078
_cell_formula_units_Z   1
loop_
 _symmetry_equiv_pos_site_id
 _symmetry_equiv_pos_as_xyz
  1  'x, y, z'
loop_
 _atom_site_type_symbol
 _atom_site_label
 _atom_site_symmetry_multiplicity
 _atom_site_fract_x
 _atom_site_fract_y
 _atom_site_fract_z
 _atom_site_occupancy
  Li  Li0  1  0.12500000  0.62812212  0.62187788  1
  Li  Li1  1  0.12342927  0.37772795  0.37753769  1
  Li  Li2  1  0.12500000  0.87161231  0.37838769  1
  Li  Li3  1  0.12657073  0.87246231  0.87227205  1
  Li  Li4  1  0.37439828  0.12343738  0.87055079  1
  Li  Li5  1  0.62248210  0.12467314  0.62748762  1
  Li  Li6  1  0.62751790  0.62251238  0.12532686  1
  Li  Li7  1  0.62500000  0.62564059  0.62435941  1
  Li  Li8  1  0.87560172  0.37944921  0.12656262  1
  Fe  Fe9  1  0.12500000  0.12319402  0.12680598  1
  Fe  Fe10  1  0.12660044  0.12077703  0.62230970  1
  Fe  Fe11  1  0.12339956  0.62769030  0.12922297  1
  Fe  Fe12  1  0.12500000  0.37742667  0.87257333  1
  Fe  Fe13  1  0.37253014  0.12803546  0.37945234  1
  Fe  Fe14  1  0.37336683  0.37881258  0.12632408  1
  Fe  Fe15  1  0.36356677  0.62102546  0.37604871  1
  Fe  Fe16  1  0.37220937  0.62776500  0.87165176  1
  Fe  Fe17  1  0.37441276  0.37201677  0.62790367  1
  Fe  Fe18  1  0.37103245  0.87552001  0.11547045  1
  Fe  Fe19  1  0.36626078  0.87731681  0.63281012  1
  Fe  Fe20  1  0.62500000  0.12661812  0.12338188  1
  Fe  Fe21  1  0.62584267  0.38154210  0.37918838  1
  Fe  Fe22  1  0.62500000  0.37984378  0.87015622  1
  Fe  Fe23  1  0.62500000  0.86762104  0.38237896  1
  Fe  Fe24  1  0.62415733  0.87081162  0.86845790  1
  Fe  Fe25  1  0.87896755  0.13452955  0.37447999  1
  Fe  Fe26  1  0.87779063  0.37834824  0.62223500  1
  Fe  Fe27  1  0.88373922  0.61718988  0.37268319  1
  Fe  Fe28  1  0.87558724  0.62209633  0.87798323  1
  Fe  Fe29  1  0.87663317  0.12367592  0.87118742  1
  Fe  Fe30  1  0.87746986  0.87054766  0.12196454  1
  Fe  Fe31  1  0.88643323  0.87395129  0.62897454  1
  O  O32  1  0.12835771  0.36654511  0.11319332  1
  O  O33  1  0.11942926  0.37187370  0.63863856  1
  O  O34  1  0.11948288  0.88413402  0.12356175  1
  O  O35  1  0.12760707  0.87441022  0.62523488  1
  O  O36  1  0.13051712  0.12643825  0.36586598  1
  O  O37  1  0.12164229  0.13680668  0.88345489  1
  O  O38  1  0.12239293  0.62476512  0.37558978  1
  O  O39  1  0.13057074  0.61136144  0.87812630  1
  O  O40  1  0.37507386  0.12317667  0.12363457  1
  O  O41  1  0.37547179  0.38734689  0.37818588  1
  O  O42  1  0.37979976  0.37244316  0.87368723  1
  O  O43  1  0.38365582  0.86508844  0.37910341  1
  O  O44  1  0.37473869  0.87812165  0.86845182  1
  O  O45  1  0.37704663  0.11771460  0.62664211  1
  O  O46  1  0.37611002  0.62847617  0.13901158  1
  O  O47  1  0.37420417  0.63213454  0.61249044  1
  O  O48  1  0.62036952  0.11586486  0.36442016  1
  O  O49  1  0.62195379  0.36388648  0.11979367  1
  O  O50  1  0.63131129  0.37389295  0.63118469  1
  O  O51  1  0.62881783  0.63381274  0.37368319  1
  O  O52  1  0.62804621  0.13020633  0.88611352  1
  O  O53  1  0.61868871  0.61881531  0.87610705  1
  O  O54  1  0.62963048  0.88557984  0.13413514  1
  O  O55  1  0.62118217  0.87631681  0.61618726  1
  O  O56  1  0.87492614  0.12636543  0.12682333  1
  O  O57  1  0.87388998  0.11098842  0.62152383  1
  O  O58  1  0.87526131  0.38154818  0.37187835  1
  O  O59  1  0.87295337  0.62335789  0.13228540  1
  O  O60  1  0.87579583  0.63750956  0.61786546  1
  O  O61  1  0.87020024  0.37631277  0.87755684  1
  O  O62  1  0.86634418  0.87089659  0.38491156  1
  O  O63  1  0.87452821  0.87181412  0.86265311  1
