# generated using pymatgen
data_Co5NiO12
_symmetry_space_group_name_H-M   'P 1'
_cell_length_a   4.89660431
_cell_length_b   4.90154515
_cell_length_c   9.61798930
_cell_angle_alpha   89.97518252
_cell_angle_beta   89.95031344
_cell_angle_gamma   60.03334494
_symmetry_Int_Tables_number   1
_chemical_formula_structural   Co5NiO12
_chemical_formula_sum   'Co5 Ni1 O12'
_cell_volume   199.98093917
_cell_formula_units_Z   1
loop_
 _symmetry_equiv_pos_site_id
 _symmetry_equiv_pos_as_xyz
  1  'x, y, z'
loop_
 _atom_site_type_symbol
 _atom_site_label
 _atom_site_symmetry_multiplicity
 _atom_site_fract_x
 _atom_site_fract_y
 _atom_site_fract_z
 _atom_site_occupancy
  Co  Co0  1  0.16666116  0.66667768  0.50000000  1
  Co  Co1  1  0.66666121  0.66667658  0.00000000  1
  Co  Co2  1  0.33333879  0.33332342  1.00000000  1
  Co  Co3  1  0.83333884  0.33332232  0.50000000  1
  Co  Co4  1  0.50000000  0.00000000  0.50000000  1
  Ni  Ni5  1  0.00000000  0.00000000  0.00000000  1
  O  O6  1  0.99982380  0.66769067  0.09817609  1
  O  O7  1  0.33248553  0.66769067  0.90182391  1
  O  O8  1  0.16728849  0.33292963  0.40185132  1
  O  O9  1  0.50021813  0.66707037  0.40185132  1
  O  O10  1  0.49978187  0.33292963  0.59814868  1
  O  O11  1  0.16683378  0.00000000  0.59815232  1
  O  O12  1  0.83271151  0.66707037  0.59814868  1
  O  O13  1  0.66751447  0.33230933  0.09817609  1
  O  O14  1  0.33233831  1.00000000  0.09822495  1
  O  O15  1  0.00017620  0.33230933  0.90182391  1
  O  O16  1  0.66766169  0.00000000  0.90177505  1
  O  O17  1  0.83316622  1.00000000  0.40184768  1
