# generated using pymatgen
data_V12Cu2O29
_symmetry_space_group_name_H-M   'P 1'
_cell_length_a   14.36526027
_cell_length_b   7.40004730
_cell_length_c   10.97105910
_cell_angle_alpha   70.30514034
_cell_angle_beta   96.90197185
_cell_angle_gamma   82.51582824
_symmetry_Int_Tables_number   1
_chemical_formula_structural   V12Cu2O29
_chemical_formula_sum   'V24 Cu4 O58'
_cell_volume   1071.73607373
_cell_formula_units_Z   2
loop_
 _symmetry_equiv_pos_site_id
 _symmetry_equiv_pos_as_xyz
  1  'x, y, z'
loop_
 _atom_site_type_symbol
 _atom_site_label
 _atom_site_symmetry_multiplicity
 _atom_site_fract_x
 _atom_site_fract_y
 _atom_site_fract_z
 _atom_site_occupancy
  V  V0  1  0.17253064  0.76897497  0.87672072  1
  V  V1  1  0.17668614  0.26546393  0.88042890  1
  V  V2  1  0.12494400  0.41644288  0.10295761  1
  V  V3  1  0.11833803  0.92365698  0.09394042  1
  V  V4  1  0.22455200  0.41721616  0.55459363  1
  V  V5  1  0.22395164  0.91571204  0.55389700  1
  V  V6  1  0.29239115  0.25134578  0.35128582  1
  V  V7  1  0.29785803  0.74854836  0.35303692  1
  V  V8  1  0.39569783  0.25385498  0.79284319  1
  V  V9  1  0.39882694  0.75191328  0.80078788  1
  V  V10  1  0.35286848  0.89245632  0.03379011  1
  V  V11  1  0.35552709  0.39574329  0.03057554  1
  V  V12  1  0.64517412  0.60411973  0.97066053  1
  V  V13  1  0.64414106  0.10383262  0.96914843  1
  V  V14  1  0.60726187  0.74713267  0.20335324  1
  V  V15  1  0.60401390  0.24609652  0.20529850  1
  V  V16  1  0.70612819  0.75446032  0.64990907  1
  V  V17  1  0.70614331  0.24353276  0.64893236  1
  V  V18  1  0.77510664  0.58242581  0.44800640  1
  V  V19  1  0.78333623  0.07972905  0.44828596  1
  V  V20  1  0.87972926  0.08118354  0.90141085  1
  V  V21  1  0.88323147  0.57582080  0.90280788  1
  V  V22  1  0.82184489  0.73729018  0.11476259  1
  V  V23  1  0.81937562  0.23550734  0.11834171  1
  Cu  Cu24  1  0.02981190  0.56495986  0.35030864  1
  Cu  Cu25  1  0.01643627  0.06734815  0.36270490  1
  Cu  Cu26  1  0.51686504  0.10843113  0.52838072  1
  Cu  Cu27  1  0.96270646  0.43591033  0.65592090  1
  O  O28  1  0.07007276  0.34105095  0.78412358  1
  O  O29  1  0.06952686  0.83850604  0.78477603  1
  O  O30  1  0.99833080  0.00340025  0.99782408  1
  O  O31  1  0.99753029  0.50145106  0.99441502  1
  O  O32  1  0.10566400  0.96145696  0.51660841  1
  O  O33  1  0.10458528  0.46937708  0.51595604  1
  O  O34  1  0.10436704  0.34698008  0.25913198  1
  O  O35  1  0.10285831  0.84663952  0.25080679  1
  O  O36  1  0.20355920  0.49399305  0.92605459  1
  O  O37  1  0.20122159  0.98236750  0.91946652  1
  O  O38  1  0.14022550  0.17819462  0.05798349  1
  O  O39  1  0.13748658  0.69509405  0.05468904  1
  O  O40  1  0.24927412  0.32391434  0.73067693  1
  O  O41  1  0.24989730  0.81935715  0.73545902  1
  O  O42  1  0.25359100  0.67351717  0.52850653  1
  O  O43  1  0.24834284  0.17325294  0.52597235  1
  O  O44  1  0.33031486  0.16742749  0.98427699  1
  O  O45  1  0.33595375  0.67483030  0.99591337  1
  O  O46  1  0.26321807  0.49677236  0.37747724  1
  O  O47  1  0.26297627  0.99385800  0.37751564  1
  O  O48  1  0.27335708  0.34331723  0.17490968  1
  O  O49  1  0.27653569  0.84547363  0.17121242  1
  O  O50  1  0.38828181  0.48682283  0.84988189  1
  O  O51  1  0.38792755  0.96903845  0.85277366  1
  O  O52  1  0.40217898  0.31736849  0.63523664  1
  O  O53  1  0.40512654  0.83697441  0.64425918  1
  O  O54  1  0.41157825  0.70198722  0.39000086  1
  O  O55  1  0.40912694  0.19946010  0.39462504  1
  O  O56  1  0.53203659  0.17683519  0.87749742  1
  O  O57  1  0.53148291  0.68109109  0.87645131  1
  O  O58  1  0.46373247  0.82558283  0.12309637  1
  O  O59  1  0.46629001  0.31838366  0.12424553  1
  O  O60  1  0.59041706  0.84320062  0.60892336  1
  O  O61  1  0.59054849  0.25416252  0.60940127  1
  O  O62  1  0.59845750  0.16812706  0.36543563  1
  O  O63  1  0.59566079  0.67241505  0.35781459  1
  O  O64  1  0.60938773  0.01326942  0.15128112  1
  O  O65  1  0.60887028  0.53134561  0.15042311  1
  O  O66  1  0.72637848  0.15845326  0.82503242  1
  O  O67  1  0.72474250  0.65384787  0.82496291  1
  O  O68  1  0.74798893  0.99913415  0.62790294  1
  O  O69  1  0.72533595  0.51111953  0.61544386  1
  O  O70  1  0.66628986  0.32177864  0.02416057  1
  O  O71  1  0.67494246  0.82121506  0.01922744  1
  O  O72  1  0.75279839  0.32225768  0.47533322  1
  O  O73  1  0.75297444  0.82608706  0.47507511  1
  O  O74  1  0.75309117  0.17832375  0.26759468  1
  O  O75  1  0.74926989  0.67745698  0.26937459  1
  O  O76  1  0.85898786  0.82007028  0.93515022  1
  O  O77  1  0.85750048  0.31242268  0.94270713  1
  O  O78  1  0.79674658  0.50696587  0.07395243  1
  O  O79  1  0.79702400  0.01949939  0.07610851  1
  O  O80  1  0.89534164  0.17799496  0.74653058  1
  O  O81  1  0.89541886  0.62678858  0.74573346  1
  O  O82  1  0.89993911  0.04066065  0.46885858  1
  O  O83  1  0.89496496  0.53363086  0.48410856  1
  O  O84  1  0.92949874  0.66103269  0.21287975  1
  O  O85  1  0.92878841  0.16379197  0.20903890  1
