# generated using pymatgen
data_MnO2
_symmetry_space_group_name_H-M   'P 1'
_cell_length_a   5.78872080
_cell_length_b   5.78587171
_cell_length_c   8.87613161
_cell_angle_alpha   89.94360416
_cell_angle_beta   90.00958760
_cell_angle_gamma   119.93020495
_symmetry_Int_Tables_number   1
_chemical_formula_structural   MnO2
_chemical_formula_sum   'Mn8 O16'
_cell_volume   257.63836700
_cell_formula_units_Z   8
loop_
 _symmetry_equiv_pos_site_id
 _symmetry_equiv_pos_as_xyz
  1  'x, y, z'
loop_
 _atom_site_type_symbol
 _atom_site_label
 _atom_site_symmetry_multiplicity
 _atom_site_fract_x
 _atom_site_fract_y
 _atom_site_fract_z
 _atom_site_occupancy
  Mn  Mn0  1  0.16752375  0.83081192  0.21093291  1
  Mn  Mn1  1  0.33326309  0.66410093  0.48707622  1
  Mn  Mn2  1  0.16686360  0.33309415  0.21137526  1
  Mn  Mn3  1  0.66526369  0.83057086  0.21099184  1
  Mn  Mn4  1  0.33016952  0.16491785  0.71095411  1
  Mn  Mn5  1  0.66420626  0.33149620  0.98750009  1
  Mn  Mn6  1  0.82998411  0.66209698  0.70976369  1
  Mn  Mn7  1  0.82669888  0.16281949  0.71054640  1
  O  O8  1  0.16476244  0.83034325  0.60136550  1
  O  O9  1  0.04120612  0.52027905  0.34056781  1
  O  O10  1  0.33277112  0.66411118  0.10263395  1
  O  O11  1  -0.00163857  -0.00292557  0.31635932  1
  O  O12  1  0.99620910  0.99634279  0.81598267  1
  O  O13  1  0.16170198  0.32801256  0.59944831  1
  O  O14  1  0.47959471  0.95520147  0.34031486  1
  O  O15  1  0.47762691  0.51838691  0.34006119  1
  O  O16  1  0.33144525  0.16662950  0.10063390  1
  O  O17  1  0.66856325  0.83212467  0.59784298  1
  O  O18  1  0.51688667  0.47698801  0.83907687  1
  O  O19  1  0.51655532  0.03937899  0.84008308  1
  O  O20  1  0.66198915  0.32912236  0.60102102  1
  O  O21  1  0.83574857  0.66958026  0.09825993  1
  O  O22  1  0.95365698  0.47382344  0.83982857  1
  O  O23  1  0.83308710  0.16427476  0.10008654  1
