# generated using pymatgen
data_Li5Mn7O12
_symmetry_space_group_name_H-M   'P 1'
_cell_length_a   5.24589652
_cell_length_b   5.24589621
_cell_length_c   9.97329826
_cell_angle_alpha   84.95020550
_cell_angle_beta   95.04979332
_cell_angle_gamma   59.73479199
_symmetry_Int_Tables_number   1
_chemical_formula_structural   Li5Mn7O12
_chemical_formula_sum   'Li5 Mn7 O12'
_cell_volume   233.31885862
_cell_formula_units_Z   1
loop_
 _symmetry_equiv_pos_site_id
 _symmetry_equiv_pos_as_xyz
  1  'x, y, z'
loop_
 _atom_site_type_symbol
 _atom_site_label
 _atom_site_symmetry_multiplicity
 _atom_site_fract_x
 _atom_site_fract_y
 _atom_site_fract_z
 _atom_site_occupancy
  Li  Li0  1  0.15811365  0.66409987  0.50300931  1
  Li  Li1  1  0.33206623  0.84369317  0.99518027  1
  Li  Li2  1  0.66409987  0.15811365  0.99699069  1
  Li  Li3  1  0.84369317  0.33206623  0.50481973  1
  Li  Li4  1  0.91545558  0.91545558  0.75000000  1
  Mn  Mn5  1  0.07870179  0.07870179  0.25000000  1
  Mn  Mn6  1  0.99826488  0.50881354  0.99417245  1
  Mn  Mn7  1  0.24928849  0.24928849  0.75000000  1
  Mn  Mn8  1  0.50881354  0.99826488  0.50582755  1
  Mn  Mn9  1  0.42141251  0.42141251  0.25000000  1
  Mn  Mn10  1  0.57758682  0.57758682  0.75000000  1
  Mn  Mn11  1  0.74993998  0.74993998  0.25000000  1
  O  O12  1  0.98221858  0.22480504  0.86933449  1
  O  O13  1  0.22480504  0.98221858  0.63066551  1
  O  O14  1  0.11033933  0.39164778  0.36754542  1
  O  O15  1  0.39164778  0.11033933  0.13245458  1
  O  O16  1  0.29394909  0.51775044  0.86536061  1
  O  O17  1  0.51775044  0.29394909  0.63463939  1
  O  O18  1  0.45118505  0.72446649  0.37506309  1
  O  O19  1  0.72446649  0.45118505  0.12493691  1
  O  O20  1  0.61240826  0.87234971  0.86857353  1
  O  O21  1  0.87234971  0.61240826  0.63142647  1
  O  O22  1  0.78161758  0.03982512  0.38062735  1
  O  O23  1  0.03982512  0.78161758  0.11937265  1
