# generated using pymatgen
data_Zn(Bi19O30)2
_symmetry_space_group_name_H-M   'P 1'
_cell_length_a   8.99915714
_cell_length_b   14.70323183
_cell_length_c   14.70323183
_cell_angle_alpha   60.00000000
_cell_angle_beta   90.00000000
_cell_angle_gamma   90.00000000
_symmetry_Int_Tables_number   1
_chemical_formula_structural   Zn(Bi19O30)2
_chemical_formula_sum   'Zn1 Bi38 O60'
_cell_volume   1684.83772187
_cell_formula_units_Z   1
loop_
 _symmetry_equiv_pos_site_id
 _symmetry_equiv_pos_as_xyz
  1  'x, y, z'
loop_
 _atom_site_type_symbol
 _atom_site_label
 _atom_site_symmetry_multiplicity
 _atom_site_fract_x
 _atom_site_fract_y
 _atom_site_fract_z
 _atom_site_occupancy
  Zn  Zn0  1  0.00031652  0.00000000  0.00000000  1
  Bi  Bi1  1  0.32179863  0.16551702  0.98160287  1
  Bi  Bi2  1  0.25403911  0.44357422  0.94764991  1
  Bi  Bi3  1  0.09640858  0.22053466  0.74064051  1
  Bi  Bi4  1  0.32179863  0.98160287  0.85288011  1
  Bi  Bi5  1  0.43837097  0.70471921  0.90485826  1
  Bi  Bi6  1  0.65988036  0.50094813  0.84816639  1
  Bi  Bi7  1  0.67444472  0.14511837  0.84613170  1
  Bi  Bi8  1  0.33740187  0.66666700  0.66666700  1
  Bi  Bi9  1  0.25403911  0.94764991  0.60877587  1
  Bi  Bi10  1  0.43837097  0.39042353  0.70471921  1
  Bi  Bi11  1  0.91771254  0.26529059  0.94961654  1
  Bi  Bi12  1  0.65988036  0.84816639  0.65088548  1
  Bi  Bi13  1  0.25403911  0.60877587  0.44357422  1
  Bi  Bi14  1  0.91771254  0.94961654  0.78509287  1
  Bi  Bi15  1  0.57484806  0.11071436  0.61851936  1
  Bi  Bi16  1  0.98551833  0.67668619  0.81535575  1
  Bi  Bi17  1  0.31506676  0.33655859  0.48604405  1
  Bi  Bi18  1  0.43837097  0.90485826  0.39042353  1
  Bi  Bi19  1  0.65988036  0.65088548  0.50094813  1
  Bi  Bi20  1  0.09640858  0.03882483  0.22053466  1
  Bi  Bi21  1  0.77660048  0.36890570  0.56514107  1
  Bi  Bi22  1  0.98551833  0.50795805  0.67668619  1
  Bi  Bi23  1  0.31506676  0.17739735  0.33655859  1
  Bi  Bi24  1  0.98497340  0.16971495  0.51328493  1
  Bi  Bi25  1  0.98551833  0.81535575  0.50795805  1
  Bi  Bi26  1  0.32179863  0.85288011  0.16551702  1
  Bi  Bi27  1  0.31506676  0.48604405  0.17739735  1
  Bi  Bi28  1  0.66232248  0.33333300  0.33333300  1
  Bi  Bi29  1  0.09640858  0.74064051  0.03882483  1
  Bi  Bi30  1  0.77660048  0.06595323  0.36890570  1
  Bi  Bi31  1  0.57484806  0.61851936  0.27076628  1
  Bi  Bi32  1  0.57484806  0.27076628  0.11071436  1
  Bi  Bi33  1  0.98497340  0.51328493  0.31700012  1
  Bi  Bi34  1  0.91771254  0.78509287  0.26529059  1
  Bi  Bi35  1  0.67444472  0.00874993  0.14511837  1
  Bi  Bi36  1  0.98497340  0.31700012  0.16971495  1
  Bi  Bi37  1  0.77660048  0.56514107  0.06595323  1
  Bi  Bi38  1  0.67444472  0.84613170  0.00874993  1
  O  O39  1  0.24943837  0.63512385  0.99847872  1
  O  O40  1  0.12743855  0.25005443  0.87524924  1
  O  O41  1  0.12743855  0.87524924  0.87469733  1
  O  O42  1  0.42519884  0.84005882  0.96139194  1
  O  O43  1  0.40698158  0.32929190  0.96030304  1
  O  O44  1  0.45687280  0.54340388  0.91454005  1
  O  O45  1  0.07090149  0.04888242  0.66866900  1
  O  O46  1  0.42519884  0.19854925  0.84005882  1
  O  O47  1  0.25808032  0.74317132  0.74086686  1
  O  O48  1  0.25808032  0.51596182  0.74317132  1
  O  O49  1  0.91293985  0.70890554  0.96837664  1
  O  O50  1  0.24943837  0.36639743  0.63512385  1
  O  O51  1  0.40698158  0.96030304  0.71040406  1
  O  O52  1  0.59956575  0.04629877  0.78948987  1
  O  O53  1  0.75394755  0.62154737  0.86903835  1
  O  O54  1  0.08085271  0.28993336  0.53321043  1
  O  O55  1  0.92468566  0.07568030  0.84948781  1
  O  O56  1  0.56415505  0.66666700  0.66666700  1
  O  O57  1  0.25808032  0.74086686  0.51596182  1
  O  O58  1  0.25815509  0.12112951  0.49604255  1
  O  O59  1  0.58642027  0.29935149  0.65878886  1
  O  O60  1  0.91853960  0.44935045  0.83304589  1
  O  O61  1  0.45687280  0.54205607  0.54340388  1
  O  O62  1  0.45687280  0.91454005  0.54205607  1
  O  O63  1  0.24943837  0.99847872  0.36639743  1
  O  O64  1  0.75394755  0.50941427  0.62154737  1
  O  O65  1  0.91293985  0.32271781  0.70890554  1
  O  O66  1  0.08085271  0.17685621  0.28993336  1
  O  O67  1  0.73573798  0.00465889  0.62015720  1
  O  O68  1  0.91853960  0.83304589  0.71760366  1
  O  O69  1  0.07090149  0.66866900  0.28244858  1
  O  O70  1  0.25815509  0.49604255  0.38282793  1
  O  O71  1  0.12743855  0.87469733  0.25005443  1
  O  O72  1  0.78921222  0.20917255  0.58124286  1
  O  O73  1  0.96043626  0.66666700  0.66666700  1
  O  O74  1  0.29547393  0.33333300  0.33333300  1
  O  O75  1  0.40698158  0.71040406  0.32929190  1
  O  O76  1  0.75394755  0.86903835  0.50941427  1
  O  O77  1  0.08085271  0.53321043  0.17685621  1
  O  O78  1  0.59108867  0.40876660  0.41014287  1
  O  O79  1  0.59108867  0.18109053  0.40876660  1
  O  O80  1  0.07090149  0.28244858  0.04888242  1
  O  O81  1  0.58642027  0.04185866  0.29935149  1
  O  O82  1  0.73573798  0.62015720  0.37518391  1
  O  O83  1  0.91853960  0.71760366  0.44935045  1
  O  O84  1  0.25815509  0.38282793  0.12112951  1
  O  O85  1  0.42519884  0.96139194  0.19854925  1
  O  O86  1  0.89000267  0.33333300  0.33333300  1
  O  O87  1  0.22781892  0.00000000  0.00000000  1
  O  O88  1  0.59108867  0.41014287  0.18109053  1
  O  O89  1  0.91293985  0.96837664  0.32271781  1
  O  O90  1  0.59956575  0.78948987  0.16421236  1
  O  O91  1  0.78921222  0.20958359  0.20917255  1
  O  O92  1  0.78921222  0.58124286  0.20958359  1
  O  O93  1  0.58642027  0.65878886  0.04185866  1
  O  O94  1  0.59956575  0.16421236  0.04629877  1
  O  O95  1  0.62491060  0.00000000  0.00000000  1
  O  O96  1  0.73573798  0.37518391  0.00465889  1
  O  O97  1  0.92468566  0.84948781  0.07483289  1
  O  O98  1  0.92468566  0.07483289  0.07568030  1
