# generated using pymatgen
data_LiFe3O4
_symmetry_space_group_name_H-M   'P 1'
_cell_length_a   6.03861352
_cell_length_b   3.05541372
_cell_length_c   6.03173361
_cell_angle_alpha   59.37333768
_cell_angle_beta   91.95158209
_cell_angle_gamma   120.14889033
_symmetry_Int_Tables_number   1
_chemical_formula_structural   LiFe3O4
_chemical_formula_sum   'Li1 Fe3 O4'
_cell_volume   79.04464009
_cell_formula_units_Z   1
loop_
 _symmetry_equiv_pos_site_id
 _symmetry_equiv_pos_as_xyz
  1  'x, y, z'
loop_
 _atom_site_type_symbol
 _atom_site_label
 _atom_site_symmetry_multiplicity
 _atom_site_fract_x
 _atom_site_fract_y
 _atom_site_fract_z
 _atom_site_occupancy
  Li  Li0  1  0.00006764  0.00665402  0.50038956  1
  Fe  Fe1  1  0.99985373  0.01046674  0.00054838  1
  Fe  Fe2  1  0.49985008  0.01036365  0.00059340  1
  Fe  Fe3  1  0.49991994  0.01042572  0.50055757  1
  O  O4  1  0.25197485  0.00912166  0.24294792  1
  O  O5  1  0.77470480  0.04784364  0.23707410  1
  O  O6  1  0.22499038  0.97332687  0.76413250  1
  O  O7  1  0.74765759  0.01071870  0.75835357  1
