# generated using pymatgen
data_Li4Fe2(PO4)3
_symmetry_space_group_name_H-M   'P 1'
_cell_length_a   9.23294828
_cell_length_b   8.49130864
_cell_length_c   8.39327052
_cell_angle_alpha   59.73829654
_cell_angle_beta   62.80942404
_cell_angle_gamma   62.52065177
_symmetry_Int_Tables_number   1
_chemical_formula_structural   Li4Fe2(PO4)3
_chemical_formula_sum   'Li8 Fe4 P6 O24'
_cell_volume   482.13015754
_cell_formula_units_Z   2
loop_
 _symmetry_equiv_pos_site_id
 _symmetry_equiv_pos_as_xyz
  1  'x, y, z'
loop_
 _atom_site_type_symbol
 _atom_site_label
 _atom_site_symmetry_multiplicity
 _atom_site_fract_x
 _atom_site_fract_y
 _atom_site_fract_z
 _atom_site_occupancy
  Li  Li0  1  0.14281528  0.66240638  0.27624636  1
  Li  Li1  1  0.13768848  0.27307008  0.92078460  1
  Li  Li2  1  0.10237320  0.93382249  0.68994619  1
  Li  Li3  1  0.58553217  0.21563164  0.46161899  1
  Li  Li4  1  0.41446783  0.78436836  0.53838101  1
  Li  Li5  1  0.89762680  0.06617751  0.31005381  1
  Li  Li6  1  0.86231152  0.72692992  0.07921540  1
  Li  Li7  1  0.85718472  0.33759362  0.72375364  1
  Fe  Fe8  1  0.03946151  0.64610669  0.65993991  1
  Fe  Fe9  1  0.55753378  0.15222557  0.14128788  1
  Fe  Fe10  1  0.44246622  0.84777443  0.85871212  1
  Fe  Fe11  1  0.96053849  0.35389331  0.34006009  1
  P  P12  1  0.24315968  0.24347157  0.55182558  1
  P  P13  1  0.25580346  0.95573174  0.25108497  1
  P  P14  1  0.25062305  0.54439898  0.95526170  1
  P  P15  1  0.74937695  0.45560102  0.04473830  1
  P  P16  1  0.74419654  0.04426826  0.74891503  1
  P  P17  1  0.75684032  0.75652843  0.44817442  1
  O  O18  1  0.10639000  0.14424517  0.20209925  1
  O  O19  1  0.09922286  0.56567669  0.13797306  1
  O  O20  1  0.09587106  0.20047582  0.55230403  1
  O  O21  1  0.19547212  0.45676629  0.50981323  1
  O  O22  1  0.26979033  0.11821345  0.75587777  1
  O  O23  1  0.41489980  0.18773202  0.40249595  1
  O  O24  1  0.27937009  0.84618425  0.13351778  1
  O  O25  1  0.20765123  0.83382261  0.47089591  1
  O  O26  1  0.20007246  0.49969517  0.83587704  1
  O  O27  1  0.58742899  0.60813071  0.99147368  1
  O  O28  1  0.71354721  0.25590553  0.17084383  1
  O  O29  1  0.57773713  0.00867105  0.79569903  1
  O  O30  1  0.42226287  0.99132895  0.20430097  1
  O  O31  1  0.28645279  0.74409447  0.82915617  1
  O  O32  1  0.41257101  0.39186929  0.00852632  1
  O  O33  1  0.79992754  0.50030483  0.16412296  1
  O  O34  1  0.79234877  0.16617739  0.52910409  1
  O  O35  1  0.72062991  0.15381575  0.86648222  1
  O  O36  1  0.58510020  0.81226798  0.59750405  1
  O  O37  1  0.73020967  0.88178655  0.24412223  1
  O  O38  1  0.80452788  0.54323371  0.49018677  1
  O  O39  1  0.90412894  0.79952418  0.44769597  1
  O  O40  1  0.90077714  0.43432331  0.86202694  1
  O  O41  1  0.89361000  0.85575483  0.79790075  1
