# generated using pymatgen
data_Li4Ti3V3Cr2O16
_symmetry_space_group_name_H-M   'P 1'
_cell_length_a   5.92542439
_cell_length_b   5.88557745
_cell_length_c   9.62822431
_cell_angle_alpha   89.98890284
_cell_angle_beta   90.12299463
_cell_angle_gamma   119.79293339
_symmetry_Int_Tables_number   1
_chemical_formula_structural   Li4Ti3V3Cr2O16
_chemical_formula_sum   'Li4 Ti3 V3 Cr2 O16'
_cell_volume   291.39798714
_cell_formula_units_Z   1
loop_
 _symmetry_equiv_pos_site_id
 _symmetry_equiv_pos_as_xyz
  1  'x, y, z'
loop_
 _atom_site_type_symbol
 _atom_site_label
 _atom_site_symmetry_multiplicity
 _atom_site_fract_x
 _atom_site_fract_y
 _atom_site_fract_z
 _atom_site_occupancy
  Li  Li0  1  0.33725227  0.66860766  0.89305929  1
  Li  Li1  1  0.99549224  0.99773873  0.99446675  1
  Li  Li2  1  0.00125689  0.00051554  0.49732621  1
  Li  Li3  1  0.66720219  0.33374158  0.39237251  1
  Ti  Ti4  1  0.17454265  0.83446241  0.21558365  1
  Ti  Ti5  1  0.17420160  0.33992158  0.21568371  1
  Ti  Ti6  1  0.33616345  0.16810564  0.72095486  1
  V  V7  1  0.66177109  0.83084427  0.20921479  1
  V  V8  1  0.83479166  0.18076986  0.70855746  1
  V  V9  1  0.83494975  0.65380941  0.70865569  1
  Cr  Cr10  1  0.33663006  0.66826798  0.48593433  1
  Cr  Cr11  1  0.67043735  0.33527497  0.98541780  1
  O  O12  1  0.16526397  0.83333043  0.60444530  1
  O  O13  1  0.04280277  0.52123731  0.33901736  1
  O  O14  1  0.31165733  0.65591595  0.10122779  1
  O  O15  1  0.01071837  0.00521370  0.31171270  1
  O  O16  1  0.00229689  0.00087755  0.80920822  1
  O  O17  1  0.16539160  0.33200803  0.60448759  1
  O  O18  1  0.47476811  0.96100741  0.33935621  1
  O  O19  1  0.47467390  0.51384074  0.33939969  1
  O  O20  1  0.32865139  0.16443034  0.10343518  1
  O  O21  1  0.67603296  0.83786335  0.60580293  1
  O  O22  1  0.51783987  0.47723709  0.83873991  1
  O  O23  1  0.51763064  0.04065106  0.83878907  1
  O  O24  1  0.64704523  0.32397084  0.59757201  1
  O  O25  1  0.83884910  0.67086787  0.10436509  1
  O  O26  1  0.96279951  0.48174921  0.83877140  1
  O  O27  1  0.83888814  0.16803952  0.10428150  1
