# generated using pymatgen
data_Bi3(TeCl5)2
_symmetry_space_group_name_H-M   'P 1'
_cell_length_a   7.01398070
_cell_length_b   9.99167964
_cell_length_c   15.21548375
_cell_angle_alpha   94.45579284
_cell_angle_beta   85.15268713
_cell_angle_gamma   80.73355695
_symmetry_Int_Tables_number   1
_chemical_formula_structural   Bi3(TeCl5)2
_chemical_formula_sum   'Bi6 Te4 Cl20'
_cell_volume   1044.11515989
_cell_formula_units_Z   2
loop_
 _symmetry_equiv_pos_site_id
 _symmetry_equiv_pos_as_xyz
  1  'x, y, z'
loop_
 _atom_site_type_symbol
 _atom_site_label
 _atom_site_symmetry_multiplicity
 _atom_site_fract_x
 _atom_site_fract_y
 _atom_site_fract_z
 _atom_site_occupancy
  Bi  Bi0  1  0.08713764  0.29532236  0.03535176  1
  Bi  Bi1  1  0.45345084  0.46346585  0.26858264  1
  Bi  Bi2  1  0.57922668  0.99019147  0.15910295  1
  Bi  Bi3  1  0.42077332  0.00980853  0.84089805  1
  Bi  Bi4  1  0.54654916  0.53653415  0.73141736  1
  Bi  Bi5  1  0.91286236  0.70467764  0.96464824  1
  Te  Te6  1  0.06717385  0.82738625  0.54611199  1
  Te  Te7  1  0.17185173  0.07550197  0.57773109  1
  Te  Te8  1  0.82814827  0.92449803  0.42226891  1
  Te  Te9  1  0.93282615  0.17261375  0.45388801  1
  Cl  Cl10  1  0.09630164  0.55119899  0.09990217  1
  Cl  Cl11  1  0.23276834  0.25178295  0.18834257  1
  Cl  Cl12  1  0.18311122  0.48327793  0.39033935  1
  Cl  Cl13  1  0.23996205  0.01651429  0.01932117  1
  Cl  Cl14  1  0.07746368  0.08122213  0.80173199  1
  Cl  Cl15  1  0.27049175  0.69318916  0.90043548  1
  Cl  Cl16  1  0.37078131  0.76013970  0.68486428  1
  Cl  Cl17  1  0.34813448  0.40093578  0.64248688  1
  Cl  Cl18  1  0.43280355  0.94020150  0.31268274  1
  Cl  Cl19  1  0.57081070  0.73791826  0.10399395  1
  Cl  Cl20  1  0.42918930  0.26208174  0.89600605  1
  Cl  Cl21  1  0.56719645  0.05979850  0.68731726  1
  Cl  Cl22  1  0.65186552  0.59906422  0.35751312  1
  Cl  Cl23  1  0.62921869  0.23986030  0.31513572  1
  Cl  Cl24  1  0.72950825  0.30681084  0.09956452  1
  Cl  Cl25  1  0.92253632  0.91877787  0.19826801  1
  Cl  Cl26  1  0.76003795  0.98348571  0.98067883  1
  Cl  Cl27  1  0.81688878  0.51672207  0.60966065  1
  Cl  Cl28  1  0.76723166  0.74821705  0.81165743  1
  Cl  Cl29  1  0.90369836  0.44880101  0.90009783  1
