# generated using pymatgen
data_Fe3P6WO24
_symmetry_space_group_name_H-M   'P 1'
_cell_length_a   8.95292223
_cell_length_b   8.95292199
_cell_length_c   8.95292179
_cell_angle_alpha   58.36571621
_cell_angle_beta   58.36572072
_cell_angle_gamma   58.36571595
_symmetry_Int_Tables_number   1
_chemical_formula_structural   Fe3P6WO24
_chemical_formula_sum   'Fe3 P6 W1 O24'
_cell_volume   488.44886606
_cell_formula_units_Z   1
loop_
 _symmetry_equiv_pos_site_id
 _symmetry_equiv_pos_as_xyz
  1  'x, y, z'
loop_
 _atom_site_type_symbol
 _atom_site_label
 _atom_site_symmetry_multiplicity
 _atom_site_fract_x
 _atom_site_fract_y
 _atom_site_fract_z
 _atom_site_occupancy
  Fe  Fe0  1  0.14392814  0.14392814  0.14392814  1
  Fe  Fe1  1  0.35825124  0.35825124  0.35825124  1
  Fe  Fe2  1  0.64168098  0.64168098  0.64168098  1
  P  P3  1  0.03414280  0.75276310  0.46034061  1
  P  P4  1  0.46034061  0.03414280  0.75276310  1
  P  P5  1  0.75276310  0.46034061  0.03414280  1
  P  P6  1  0.25417792  0.52934545  0.96774198  1
  P  P7  1  0.52934545  0.96774198  0.25417792  1
  P  P8  1  0.96774198  0.25417792  0.52934545  1
  W  W9  1  0.85799278  0.85799278  0.85799278  1
  O  O10  1  0.13851414  0.26895203  0.51160343  1
  O  O11  1  0.26895203  0.51160343  0.13851414  1
  O  O12  1  0.06032320  0.92275861  0.28638457  1
  O  O13  1  0.51160343  0.13851414  0.26895203  1
  O  O14  1  0.20782699  0.57812338  0.44778382  1
  O  O15  1  0.99391278  0.78957584  0.63559184  1
  O  O16  1  0.28638457  0.06032320  0.92275861  1
  O  O17  1  0.44778382  0.20782699  0.57812338  1
  O  O18  1  0.57812338  0.44778382  0.20782699  1
  O  O19  1  0.22365576  0.36528568  0.99149128  1
  O  O20  1  0.07618604  0.71234446  0.93047688  1
  O  O21  1  0.36528568  0.99149128  0.22365576  1
  O  O22  1  0.63559184  0.99391278  0.78957584  1
  O  O23  1  0.92275861  0.28638457  0.06032320  1
  O  O24  1  0.78957584  0.63559184  0.99391278  1
  O  O25  1  0.42262760  0.56215541  0.79317422  1
  O  O26  1  0.56215541  0.79317422  0.42262760  1
  O  O27  1  0.71234446  0.93047688  0.07618604  1
  O  O28  1  0.99149128  0.22365576  0.36528568  1
  O  O29  1  0.79317422  0.42262760  0.56215541  1
  O  O30  1  0.49368736  0.86467481  0.72252487  1
  O  O31  1  0.93047688  0.07618604  0.71234446  1
  O  O32  1  0.72252487  0.49368736  0.86467481  1
  O  O33  1  0.86467481  0.72252487  0.49368736  1
