# generated using pymatgen
data_Li9Cu3P8O29
_symmetry_space_group_name_H-M   'P 1'
_cell_length_a   9.80155453
_cell_length_b   9.80157744
_cell_length_c   13.77274003
_cell_angle_alpha   90.00026185
_cell_angle_beta   90.00024918
_cell_angle_gamma   59.99960486
_symmetry_Int_Tables_number   1
_chemical_formula_structural   Li9Cu3P8O29
_chemical_formula_sum   'Li18 Cu6 P16 O58'
_cell_volume   1145.88276746
_cell_formula_units_Z   2
loop_
 _symmetry_equiv_pos_site_id
 _symmetry_equiv_pos_as_xyz
  1  'x, y, z'
loop_
 _atom_site_type_symbol
 _atom_site_label
 _atom_site_symmetry_multiplicity
 _atom_site_fract_x
 _atom_site_fract_y
 _atom_site_fract_z
 _atom_site_occupancy
  Li  Li0  1  0.99999960  0.00000045  0.50000085  1
  Li  Li1  1  0.00000183  0.99999875  0.00000009  1
  Li  Li2  1  0.09769943  0.23522319  0.56444582  1
  Li  Li3  1  0.23524410  0.09775985  0.06447599  1
  Li  Li4  1  0.09776132  0.66699442  0.06447675  1
  Li  Li5  1  0.33331882  0.33331267  0.37875533  1
  Li  Li6  1  0.33336930  0.33331269  0.87885082  1
  Li  Li7  1  0.23522975  0.66707167  0.56444504  1
  Li  Li8  1  0.66707633  0.09770188  0.56444257  1
  Li  Li9  1  0.33299963  0.76475940  0.93552306  1
  Li  Li10  1  0.66699666  0.23524525  0.06447841  1
  Li  Li11  1  0.33292283  0.90229968  0.43555761  1
  Li  Li12  1  0.76477312  0.33292028  0.43555879  1
  Li  Li13  1  0.66668879  0.66668673  0.62125174  1
  Li  Li14  1  0.66668722  0.66668607  0.12115054  1
  Li  Li15  1  0.90224621  0.33300025  0.93552182  1
  Li  Li16  1  0.76475943  0.90224001  0.93552373  1
  Li  Li17  1  0.90230230  0.76477845  0.43555801  1
  Cu  Cu18  1  0.00001827  0.43454098  0.74998912  1
  Cu  Cu19  1  0.99998625  0.56544922  0.25000638  1
  Cu  Cu20  1  0.43456656  0.99998605  0.25000517  1
  Cu  Cu21  1  0.56544262  0.00001781  0.74998850  1
  Cu  Cu22  1  0.43455074  0.56544623  0.74999533  1
  Cu  Cu23  1  0.56544087  0.43456789  0.25000795  1
  P  P24  1  0.09073774  0.22811743  0.34334370  1
  P  P25  1  0.22812177  0.09074209  0.84333471  1
  P  P26  1  0.09074800  0.68113706  0.84333593  1
  P  P27  1  0.33332488  0.33332540  0.12450951  1
  P  P28  1  0.33334979  0.33332396  0.62449791  1
  P  P29  1  0.22811844  0.68114183  0.34334283  1
  P  P30  1  0.31886351  0.77188707  0.15666547  1
  P  P31  1  0.68114030  0.09074013  0.34334130  1
  P  P32  1  0.31885946  0.90926458  0.65665457  1
  P  P33  1  0.68114379  0.22811461  0.84333468  1
  P  P34  1  0.77187556  0.31886107  0.65665570  1
  P  P35  1  0.66667500  0.66667744  0.87548218  1
  P  P36  1  0.66667656  0.66667417  0.37551186  1
  P  P37  1  0.90924891  0.31886389  0.15666697  1
  P  P38  1  0.77188757  0.90925106  0.15666529  1
  P  P39  1  0.90927126  0.77187827  0.65665461  1
  O  O40  1  0.99999316  0.21394234  0.25000656  1
  O  O41  1  0.00105038  0.22673262  0.06720212  1
  O  O42  1  0.07768113  0.25296182  0.84469243  1
  O  O43  1  0.21393711  0.00000547  0.74999328  1
  O  O44  1  0.22670885  0.00106192  0.56719083  1
  O  O45  1  0.25295909  0.07769261  0.34470341  1
  O  O46  1  0.11125161  0.37296058  0.33317810  1
  O  O47  1  0.19014532  0.31931823  0.66008350  1
  O  O48  1  0.11129579  0.51576399  0.83316026  1
  O  O49  1  0.00106724  0.77222711  0.56719168  1
  O  O50  1  0.00000838  0.78605847  0.74999398  1
  O  O51  1  0.07769354  0.66934819  0.34469964  1
  O  O52  1  0.31933732  0.19012261  0.16012964  1
  O  O53  1  0.37294606  0.11128705  0.83316187  1
  O  O54  1  0.19012060  0.49052374  0.16012165  1
  O  O55  1  0.33331125  0.33331342  0.01395451  1
  O  O56  1  0.33337297  0.33330989  0.51392584  1
  O  O57  1  0.31933287  0.49053399  0.66009146  1
  O  O58  1  0.51578344  0.11125721  0.33317342  1
  O  O59  1  0.49055324  0.19013428  0.66010379  1
  O  O60  1  0.25296528  0.66935741  0.84469542  1
  O  O61  1  0.21394425  0.78606368  0.25000692  1
  O  O62  1  0.22673543  0.77221455  0.06720149  1
  O  O63  1  0.22777239  0.77328534  0.43280698  1
  O  O64  1  0.37296244  0.51577952  0.33317450  1
  O  O65  1  0.49052249  0.31934391  0.16011198  1
  O  O66  1  0.33064735  0.74704626  0.65529618  1
  O  O67  1  0.51577444  0.37294229  0.83316546  1
  O  O68  1  0.66936169  0.07767963  0.84469482  1
  O  O69  1  0.22778849  0.99894500  0.93279941  1
  O  O70  1  0.77221460  0.00105438  0.06720092  1
  O  O71  1  0.78606444  0.99999319  0.25000635  1
  O  O72  1  0.33064987  0.92231867  0.15530953  1
  O  O73  1  0.48423606  0.62705317  0.16684174  1
  O  O74  1  0.66934865  0.25296185  0.34469761  1
  O  O75  1  0.50947422  0.68066287  0.83989415  1
  O  O76  1  0.62704362  0.48422268  0.66682123  1
  O  O77  1  0.77222731  0.22671204  0.56719159  1
  O  O78  1  0.77327682  0.22777993  0.93280040  1
  O  O79  1  0.78606237  0.21393359  0.74999278  1
  O  O80  1  0.74702888  0.33064919  0.15531033  1
  O  O81  1  0.50946885  0.80986701  0.33990257  1
  O  O82  1  0.48421823  0.88874150  0.66681878  1
  O  O83  1  0.68067961  0.50946621  0.33991312  1
  O  O84  1  0.66669157  0.66669172  0.98604920  1
  O  O85  1  0.66668535  0.66668659  0.48607200  1
  O  O86  1  0.80987920  0.50947555  0.83988237  1
  O  O87  1  0.62705538  0.88871733  0.16684077  1
  O  O88  1  0.68066535  0.80988041  0.83987327  1
  O  O89  1  0.92231034  0.33064501  0.65529576  1
  O  O90  1  0.99893675  0.22777256  0.43280830  1
  O  O91  1  0.88871194  0.48423112  0.16684263  1
  O  O92  1  0.80986770  0.68068131  0.33989509  1
  O  O93  1  0.88874816  0.62703964  0.66681789  1
  O  O94  1  0.74705068  0.92230680  0.65529290  1
  O  O95  1  0.77328794  0.99894419  0.43280676  1
  O  O96  1  0.92231905  0.74703160  0.15530669  1
  O  O97  1  0.99894794  0.77326680  0.93279947  1
