# generated using pymatgen
data_Li3VP2H2O9
_symmetry_space_group_name_H-M   'P 1'
_cell_length_a   7.22141016
_cell_length_b   8.08611386
_cell_length_c   6.87361561
_cell_angle_alpha   85.99183847
_cell_angle_beta   90.00000000
_cell_angle_gamma   63.47863040
_symmetry_Int_Tables_number   1
_chemical_formula_structural   Li3VP2H2O9
_chemical_formula_sum   'Li6 V2 P4 H4 O18'
_cell_volume   358.03729486
_cell_formula_units_Z   2
loop_
 _symmetry_equiv_pos_site_id
 _symmetry_equiv_pos_as_xyz
  1  'x, y, z'
loop_
 _atom_site_type_symbol
 _atom_site_label
 _atom_site_symmetry_multiplicity
 _atom_site_fract_x
 _atom_site_fract_y
 _atom_site_fract_z
 _atom_site_occupancy
  Li  Li0  1  0.62251143  0.75497715  0.69837549  1
  Li  Li1  1  0.00000000  0.50000000  0.50000000  1
  Li  Li2  1  0.50000000  0.50000000  0.50000000  1
  Li  Li3  1  0.37748857  0.24502285  0.30162451  1
  Li  Li4  1  0.24868181  0.00000000  0.00000000  1
  Li  Li5  1  0.75131819  0.00000000  0.00000000  1
  V  V6  1  0.50000000  0.50000000  0.00000000  1
  V  V7  1  0.00000000  0.50000000  0.00000000  1
  P  P8  1  0.11909002  0.76181995  0.69062741  1
  P  P9  1  0.60684468  0.78631063  0.23661818  1
  P  P10  1  0.39315532  0.21368937  0.76338182  1
  P  P11  1  0.88090998  0.23818005  0.30937259  1
  H  H12  1  0.05402753  0.89194593  0.36777275  1
  H  H13  1  0.19042342  0.61915317  0.21625215  1
  H  H14  1  0.80957658  0.38084683  0.78374785  1
  H  H15  1  0.94597247  0.10805407  0.63222725  1
  O  O16  1  0.02364142  0.95271716  0.77382533  1
  O  O17  1  0.50134067  0.99731966  0.23651437  1
  O  O18  1  0.11585682  0.76828537  0.45952789  1
  O  O19  1  0.35269165  0.65190865  0.74743861  1
  O  O20  1  0.99539970  0.65190865  0.74743861  1
  O  O21  1  0.66337314  0.67325473  0.43743451  1
  O  O22  1  0.45433492  0.73512730  0.11873183  1
  O  O23  1  0.81053778  0.73512730  0.11873183  1
  O  O24  1  0.75744222  0.48511556  0.86606008  1
  O  O25  1  0.24255778  0.51488444  0.13393992  1
  O  O26  1  0.18946222  0.26487270  0.88126817  1
  O  O27  1  0.54566508  0.26487270  0.88126817  1
  O  O28  1  0.33662686  0.32674527  0.56256549  1
  O  O29  1  0.64730835  0.34809135  0.25256139  1
  O  O30  1  0.00460030  0.34809135  0.25256139  1
  O  O31  1  0.88414318  0.23171463  0.54047211  1
  O  O32  1  0.49865933  0.00268034  0.76348563  1
  O  O33  1  0.97635858  0.04728284  0.22617467  1
