# generated using pymatgen
data_FeCu3(PO4)4
_symmetry_space_group_name_H-M   'P 1'
_cell_length_a   5.08736466
_cell_length_b   9.94181524
_cell_length_c   6.01179624
_cell_angle_alpha   90.00000000
_cell_angle_beta   90.00000000
_cell_angle_gamma   87.96331773
_symmetry_Int_Tables_number   1
_chemical_formula_structural   FeCu3(PO4)4
_chemical_formula_sum   'Fe1 Cu3 P4 O16'
_cell_volume   303.87037991
_cell_formula_units_Z   1
loop_
 _symmetry_equiv_pos_site_id
 _symmetry_equiv_pos_as_xyz
  1  'x, y, z'
loop_
 _atom_site_type_symbol
 _atom_site_label
 _atom_site_symmetry_multiplicity
 _atom_site_fract_x
 _atom_site_fract_y
 _atom_site_fract_z
 _atom_site_occupancy
  Fe  Fe0  1  0.94686982  0.28678640  0.25000000  1
  Cu  Cu1  1  0.11703431  0.69289860  0.75000000  1
  Cu  Cu2  1  0.35995158  0.19448580  0.75000000  1
  Cu  Cu3  1  0.62710565  0.80760173  0.25000000  1
  P  P4  1  0.08279422  0.60530906  0.25000000  1
  P  P5  1  0.42942429  0.10433138  0.25000000  1
  P  P6  1  0.55893909  0.89164503  0.75000000  1
  P  P7  1  0.91872006  0.39695222  0.75000000  1
  O  O8  1  0.13743440  0.45266652  0.25000000  1
  O  O9  1  0.22449439  0.67098237  0.04891366  1
  O  O10  1  0.22449439  0.67098237  0.45108634  1
  O  O11  1  0.22289100  0.36930187  0.75000000  1
  O  O12  1  0.26110271  0.86592759  0.75000000  1
  O  O13  1  0.26417648  0.17549035  0.05703258  1
  O  O14  1  0.26417648  0.17549035  0.44296742  1
  O  O15  1  0.38420053  0.95142051  0.25000000  1
  O  O16  1  0.59194357  0.04656838  0.75000000  1
  O  O17  1  0.71406419  0.82603300  0.55187190  1
  O  O18  1  0.71406419  0.82603300  0.94812810  1
  O  O19  1  0.72033244  0.13144190  0.25000000  1
  O  O20  1  0.78106956  0.63299539  0.25000000  1
  O  O21  1  0.78693639  0.33558873  0.54309288  1
  O  O22  1  0.78693639  0.33558873  0.95690712  1
  O  O23  1  0.88084386  0.55348273  0.75000000  1
