# generated using pymatgen
data_LiSb(TeO4)3
_symmetry_space_group_name_H-M   'P 1'
_cell_length_a   5.34960053
_cell_length_b   10.69082133
_cell_length_c   9.38463303
_cell_angle_alpha   28.60122487
_cell_angle_beta   52.01402982
_cell_angle_gamma   57.28320637
_symmetry_Int_Tables_number   1
_chemical_formula_structural   LiSb(TeO4)3
_chemical_formula_sum   'Li1 Sb1 Te3 O12'
_cell_volume   202.50603683
_cell_formula_units_Z   1
loop_
 _symmetry_equiv_pos_site_id
 _symmetry_equiv_pos_as_xyz
  1  'x, y, z'
loop_
 _atom_site_type_symbol
 _atom_site_label
 _atom_site_symmetry_multiplicity
 _atom_site_fract_x
 _atom_site_fract_y
 _atom_site_fract_z
 _atom_site_occupancy
  Li  Li0  1  0.78030986  0.99841297  0.78197250  1
  Sb  Sb1  1  0.99281022  0.00161616  0.00072027  1
  Te  Te2  1  0.48860881  0.50132631  0.50071318  1
  Te  Te3  1  0.50469102  0.99973508  0.49387175  1
  Te  Te4  1  0.00037313  0.49832750  0.99522022  1
  O  O5  1  0.37824055  0.31171260  0.11568565  1
  O  O6  1  0.23379540  0.11953527  0.62110673  1
  O  O7  1  0.11705079  0.32798553  0.73095070  1
  O  O8  1  0.88018336  0.18466813  0.24646692  1
  O  O9  1  0.37936326  0.81121971  0.11914201  1
  O  O10  1  0.74260781  0.37008875  0.37409176  1
  O  O11  1  0.24732547  0.63356351  0.61560907  1
  O  O12  1  0.61797551  0.17955018  0.86540574  1
  O  O13  1  0.11974903  0.81039650  0.75087384  1
  O  O14  1  0.86106223  0.69382891  0.23397532  1
  O  O15  1  0.74063606  0.86637129  0.38698302  1
  O  O16  1  0.62241651  0.69166158  0.87441134  1
