# generated using pymatgen
data_CaV2O4
_symmetry_space_group_name_H-M   'P 1'
_cell_length_a   3.17573486
_cell_length_b   7.93192033
_cell_length_c   7.04368959
_cell_angle_alpha   77.36686237
_cell_angle_beta   76.98752942
_cell_angle_gamma   78.37790175
_symmetry_Int_Tables_number   1
_chemical_formula_structural   CaV2O4
_chemical_formula_sum   'Ca2 V4 O8'
_cell_volume   166.51105218
_cell_formula_units_Z   2
loop_
 _symmetry_equiv_pos_site_id
 _symmetry_equiv_pos_as_xyz
  1  'x, y, z'
loop_
 _atom_site_type_symbol
 _atom_site_label
 _atom_site_symmetry_multiplicity
 _atom_site_fract_x
 _atom_site_fract_y
 _atom_site_fract_z
 _atom_site_occupancy
  Ca  Ca0  1  0.34882663  0.16199672  0.14770250  1
  Ca  Ca1  1  0.65276336  0.81614467  0.88534565  1
  V  V2  1  0.63763310  0.16514851  0.56406405  1
  V  V3  1  0.13691400  0.52072972  0.21507545  1
  V  V4  1  0.86682162  0.45739762  0.81802709  1
  V  V5  1  0.36153581  0.81296906  0.46895813  1
  O  O6  1  0.86892980  0.67299342  0.59966927  1
  O  O7  1  0.46389001  0.29011483  0.79243974  1
  O  O8  1  0.54011269  0.68797384  0.24065194  1
  O  O9  1  0.13773773  0.30508039  0.43343163  1
  O  O10  1  0.16423393  0.98642052  0.68774873  1
  O  O11  1  0.76238188  0.37183615  0.11231021  1
  O  O12  1  0.83373987  0.99170265  0.34523748  1
  O  O13  1  0.24079058  0.60629291  0.92078111  1
