# generated using pymatgen
data_Li4Ti3Nb2V3O16
_symmetry_space_group_name_H-M   'P 1'
_cell_length_a   6.03935363
_cell_length_b   5.99547740
_cell_length_c   9.84299451
_cell_angle_alpha   89.99891359
_cell_angle_beta   89.99512697
_cell_angle_gamma   119.75913771
_symmetry_Int_Tables_number   1
_chemical_formula_structural   Li4Ti3Nb2V3O16
_chemical_formula_sum   'Li4 Ti3 Nb2 V3 O16'
_cell_volume   309.40053835
_cell_formula_units_Z   1
loop_
 _symmetry_equiv_pos_site_id
 _symmetry_equiv_pos_as_xyz
  1  'x, y, z'
loop_
 _atom_site_type_symbol
 _atom_site_label
 _atom_site_symmetry_multiplicity
 _atom_site_fract_x
 _atom_site_fract_y
 _atom_site_fract_z
 _atom_site_occupancy
  Li  Li0  1  0.32793691  0.66397845  0.90125406  1
  Li  Li1  1  0.00073135  0.00038052  0.98948392  1
  Li  Li2  1  0.00788137  0.00395268  0.49326374  1
  Li  Li3  1  0.66568452  0.33285088  0.40143959  1
  Ti  Ti4  1  0.18126376  0.83585573  0.21967534  1
  Ti  Ti5  1  0.18128462  0.34542845  0.21968193  1
  Ti  Ti6  1  0.35138782  0.17571288  0.72829665  1
  Nb  Nb7  1  0.34101289  0.67052574  0.49642240  1
  Nb  Nb8  1  0.68253381  0.34128077  0.99422858  1
  V  V9  1  0.65445936  0.82723764  0.21158941  1
  V  V10  1  0.83094868  0.65228852  0.71155630  1
  V  V11  1  0.83094913  0.17869207  0.71155323  1
  O  O12  1  0.17410501  0.83340048  0.59256728  1
  O  O13  1  0.03858257  0.51929866  0.33730387  1
  O  O14  1  0.31054083  0.65527739  0.10448159  1
  O  O15  1  0.00821045  0.00410542  0.30569011  1
  O  O16  1  0.01176826  0.00589903  0.80229102  1
  O  O17  1  0.17411178  0.34073352  0.59256441  1
  O  O18  1  0.46787403  0.96276804  0.34234003  1
  O  O19  1  0.46788269  0.50512559  0.34234431  1
  O  O20  1  0.33267948  0.16634557  0.09760327  1
  O  O21  1  0.66837662  0.83420430  0.58869926  1
  O  O22  1  0.50624264  0.47217859  0.84322194  1
  O  O23  1  0.50624482  0.03409161  0.84322054  1
  O  O24  1  0.63808584  0.31905933  0.60255066  1
  O  O25  1  0.84039682  0.66723243  0.09295800  1
  O  O26  1  0.95843325  0.47922973  0.84859949  1
  O  O27  1  0.84038971  0.17316699  0.09295809  1
