# generated using pymatgen
data_Na4MnO3
_symmetry_space_group_name_H-M   'P 1'
_cell_length_a   9.89947875
_cell_length_b   9.89947875
_cell_length_c   5.49871109
_cell_angle_alpha   73.87538712
_cell_angle_beta   106.12461288
_cell_angle_gamma   73.93867838
_symmetry_Int_Tables_number   1
_chemical_formula_structural   Na4MnO3
_chemical_formula_sum   'Na16 Mn4 O12'
_cell_volume   459.31082346
_cell_formula_units_Z   4
loop_
 _symmetry_equiv_pos_site_id
 _symmetry_equiv_pos_as_xyz
  1  'x, y, z'
loop_
 _atom_site_type_symbol
 _atom_site_label
 _atom_site_symmetry_multiplicity
 _atom_site_fract_x
 _atom_site_fract_y
 _atom_site_fract_z
 _atom_site_occupancy
  Na  Na0  1  0.46205307  0.37685948  0.00651331  1
  Na  Na1  1  0.52735579  0.02735579  0.25000000  1
  Na  Na2  1  0.96205307  0.87685948  0.07868029  1
  Na  Na3  1  0.75000000  0.75000000  0.09828097  1
  Na  Na4  1  0.25000000  0.25000000  0.40171903  1
  Na  Na5  1  0.37685948  0.46205307  0.42131971  1
  Na  Na6  1  0.12314052  0.03794693  0.50651331  1
  Na  Na7  1  0.02735579  0.52735579  0.25000000  1
  Na  Na8  1  0.97264421  0.47264421  0.75000000  1
  Na  Na9  1  0.87685948  0.96205307  0.49348669  1
  Na  Na10  1  0.62314052  0.53794693  0.57868029  1
  Na  Na11  1  0.75000000  0.75000000  0.59828097  1
  Na  Na12  1  0.25000000  0.25000000  0.90171903  1
  Na  Na13  1  0.03794693  0.12314052  0.92131971  1
  Na  Na14  1  0.47264421  0.97264421  0.75000000  1
  Na  Na15  1  0.53794693  0.62314052  0.99348669  1
  Mn  Mn16  1  0.82848838  0.32848838  0.25000000  1
  Mn  Mn17  1  0.32848838  0.82848838  0.25000000  1
  Mn  Mn18  1  0.67151162  0.17151162  0.75000000  1
  Mn  Mn19  1  0.17151162  0.67151162  0.75000000  1
  O  O20  1  0.85829432  0.14170568  0.10829432  1
  O  O21  1  0.28812272  0.04157264  0.28915617  1
  O  O22  1  0.21187728  0.45842736  0.04260610  1
  O  O23  1  0.64170568  0.35829432  0.39170568  1
  O  O24  1  0.54157264  0.78812272  0.21084383  1
  O  O25  1  0.95842736  0.71187728  0.45739390  1
  O  O26  1  0.45842736  0.21187728  0.78915617  1
  O  O27  1  0.04157264  0.28812272  0.54260610  1
  O  O28  1  0.35829432  0.64170568  0.60829432  1
  O  O29  1  0.71187728  0.95842736  0.71084383  1
  O  O30  1  0.78812272  0.54157264  0.95739390  1
  O  O31  1  0.14170568  0.85829432  0.89170568  1
