# generated using pymatgen
data_Li4(NiO2)7
_symmetry_space_group_name_H-M   'P 1'
_cell_length_a   7.65457935
_cell_length_b   6.43202135
_cell_length_c   4.92003060
_cell_angle_alpha   96.26953241
_cell_angle_beta   100.61946433
_cell_angle_gamma   87.79653399
_symmetry_Int_Tables_number   1
_chemical_formula_structural   Li4(NiO2)7
_chemical_formula_sum   'Li4 Ni7 O14'
_cell_volume   236.62045976
_cell_formula_units_Z   1
loop_
 _symmetry_equiv_pos_site_id
 _symmetry_equiv_pos_as_xyz
  1  'x, y, z'
loop_
 _atom_site_type_symbol
 _atom_site_label
 _atom_site_symmetry_multiplicity
 _atom_site_fract_x
 _atom_site_fract_y
 _atom_site_fract_z
 _atom_site_occupancy
  Li  Li0  1  0.14463407  0.14302051  0.57070561  1
  Li  Li1  1  0.42679493  0.42840849  0.71500939  1
  Li  Li2  1  0.71230150  0.71140676  0.86320236  1
  Li  Li3  1  0.85912750  0.86002224  0.42251264  1
  Ni  Ni4  1  0.06683292  0.57416334  0.78313823  1
  Ni  Ni5  1  0.50459608  0.99726466  0.50257577  1
  Ni  Ni6  1  0.64124231  0.14773401  0.07272364  1
  Ni  Ni7  1  0.21712047  0.70952959  0.35549656  1
  Ni  Ni8  1  0.35430853  0.86189941  0.93021744  1
  Ni  Ni9  1  0.78571400  0.28571400  0.64285700  1
  Ni  Ni10  1  0.93018569  0.42369499  0.21299036  1
  O  O11  1  0.01333877  0.30855930  0.86849510  1
  O  O12  1  0.40614030  0.11832187  0.80419502  1
  O  O13  1  0.16528870  0.45310613  0.48151998  1
  O  O14  1  0.29247810  0.59622315  0.01680585  1
  O  O15  1  0.11171584  0.83005303  0.65707910  1
  O  O16  1  0.55809023  0.26286970  0.41721890  1
  O  O17  1  0.73037579  0.01953094  0.73040351  1
  O  O18  1  0.27895090  0.97520485  0.26890915  1
  O  O19  1  0.68929481  0.40112659  0.94920250  1
  O  O20  1  0.88213319  0.17030241  0.33651150  1
  O  O21  1  0.45971216  0.74137497  0.62863490  1
  O  O22  1  0.60488217  0.89133364  0.19057946  1
  O  O23  1  0.84105221  0.55189806  0.55531149  1
  O  O24  1  0.96654583  0.68009436  0.09513454  1
