# generated using pymatgen
data_KLiTi2(PO5)2
_symmetry_space_group_name_H-M   'P 1'
_cell_length_a   12.83558917
_cell_length_b   6.50863990
_cell_length_c   10.61612643
_cell_angle_alpha   90.00000000
_cell_angle_beta   90.00000000
_cell_angle_gamma   90.00000000
_symmetry_Int_Tables_number   1
_chemical_formula_structural   KLiTi2(PO5)2
_chemical_formula_sum   'K4 Li4 Ti8 P8 O40'
_cell_volume   886.89485269
_cell_formula_units_Z   4
loop_
 _symmetry_equiv_pos_site_id
 _symmetry_equiv_pos_as_xyz
  1  'x, y, z'
loop_
 _atom_site_type_symbol
 _atom_site_label
 _atom_site_symmetry_multiplicity
 _atom_site_fract_x
 _atom_site_fract_y
 _atom_site_fract_z
 _atom_site_occupancy
  K  K0  1  0.09128036  0.63571244  0.09971270  1
  K  K1  1  0.40871964  0.13571244  0.59971270  1
  K  K2  1  0.59128036  0.86428756  0.09971270  1
  K  K3  1  0.90871964  0.36428756  0.59971270  1
  Li  Li4  1  0.10634715  0.06988684  0.99390136  1
  Li  Li5  1  0.39365285  0.56988684  0.49390136  1
  Li  Li6  1  0.60634715  0.43011316  0.99390136  1
  Li  Li7  1  0.89365285  0.93011316  0.49390136  1
  Ti  Ti8  1  0.13367889  0.99829515  0.51291819  1
  Ti  Ti9  1  0.24756753  0.74693598  0.76394692  1
  Ti  Ti10  1  0.25243247  0.24693598  0.26394692  1
  Ti  Ti11  1  0.36632111  0.49829515  0.01291819  1
  Ti  Ti12  1  0.63367889  0.50170485  0.51291819  1
  Ti  Ti13  1  0.74756753  0.75306402  0.76394692  1
  Ti  Ti14  1  0.75243247  0.25306402  0.26394692  1
  Ti  Ti15  1  0.86632111  0.00170485  0.01291819  1
  P  P16  1  0.99877326  0.84258155  0.76116491  1
  P  P17  1  0.18343583  0.50129984  0.51226646  1
  P  P18  1  0.31656417  0.00129984  0.01226646  1
  P  P19  1  0.50122674  0.34258155  0.26116491  1
  P  P20  1  0.49877326  0.65741845  0.76116491  1
  P  P21  1  0.68343583  0.99870016  0.51226646  1
  P  P22  1  0.81656417  0.49870016  0.01226646  1
  P  P23  1  0.00122674  0.15741845  0.26116491  1
  O  O24  1  0.00238589  0.97529355  0.63896275  1
  O  O25  1  0.00632858  0.02369628  0.38191304  1
  O  O26  1  0.09775472  0.30050881  0.24875695  1
  O  O27  1  0.09666986  0.70307371  0.77392596  1
  O  O28  1  0.11438315  0.69021287  0.48616730  1
  O  O29  1  0.11577920  0.31183498  0.54009330  1
  O  O30  1  0.22598556  0.04562808  0.38740065  1
  O  O31  1  0.22436350  0.95836502  0.64003387  1
  O  O32  1  0.23772555  0.04437293  0.12242334  1
  O  O33  1  0.23906646  0.96164095  0.90043231  1
  O  O34  1  0.26093354  0.46164095  0.40043231  1
  O  O35  1  0.26227445  0.54437293  0.62242334  1
  O  O36  1  0.27563650  0.45836502  0.14003387  1
  O  O37  1  0.27401444  0.54562808  0.88740065  1
  O  O38  1  0.38422080  0.81183498  0.04009330  1
  O  O39  1  0.38561685  0.19021287  0.98616730  1
  O  O40  1  0.40333114  0.20307371  0.27392596  1
  O  O41  1  0.40224528  0.80050881  0.74875695  1
  O  O42  1  0.49367142  0.52369628  0.88191304  1
  O  O43  1  0.49761411  0.47529355  0.13896275  1
  O  O44  1  0.50238589  0.52470645  0.63896275  1
  O  O45  1  0.50632858  0.47630372  0.38191304  1
  O  O46  1  0.59775472  0.19949119  0.24875695  1
  O  O47  1  0.59666886  0.79692629  0.77392596  1
  O  O48  1  0.61438315  0.80978713  0.48616730  1
  O  O49  1  0.61577920  0.18816502  0.54009330  1
  O  O50  1  0.72598556  0.45437192  0.38740065  1
  O  O51  1  0.72436350  0.54163498  0.64003387  1
  O  O52  1  0.73772555  0.45562707  0.12242334  1
  O  O53  1  0.73906646  0.53835905  0.90043231  1
  O  O54  1  0.76093354  0.03835905  0.40043231  1
  O  O55  1  0.76227445  0.95562707  0.62242334  1
  O  O56  1  0.77563650  0.04163498  0.14003387  1
  O  O57  1  0.77401444  0.95437192  0.88740065  1
  O  O58  1  0.88422080  0.68816502  0.04009330  1
  O  O59  1  0.88561685  0.30978713  0.98616730  1
  O  O60  1  0.90333114  0.29692629  0.27392596  1
  O  O61  1  0.90224528  0.69949119  0.74875695  1
  O  O62  1  0.99367142  0.97630372  0.88191304  1
  O  O63  1  0.99761411  0.02470645  0.13896275  1
