# generated using pymatgen
data_CrFe3Sb2(PO4)6
_symmetry_space_group_name_H-M   'P 1'
_cell_length_a   8.84389737
_cell_length_b   8.84389752
_cell_length_c   8.84389731
_cell_angle_alpha   58.71554724
_cell_angle_beta   58.71554668
_cell_angle_gamma   58.71554072
_symmetry_Int_Tables_number   1
_chemical_formula_structural   CrFe3Sb2(PO4)6
_chemical_formula_sum   'Cr1 Fe3 Sb2 P6 O24'
_cell_volume   474.76643542
_cell_formula_units_Z   1
loop_
 _symmetry_equiv_pos_site_id
 _symmetry_equiv_pos_as_xyz
  1  'x, y, z'
loop_
 _atom_site_type_symbol
 _atom_site_label
 _atom_site_symmetry_multiplicity
 _atom_site_fract_x
 _atom_site_fract_y
 _atom_site_fract_z
 _atom_site_occupancy
  Cr  Cr0  1  0.85446241  0.85446241  0.85446241  1
  Fe  Fe1  1  0.14937993  0.14937993  0.14937993  1
  Fe  Fe2  1  0.35067720  0.35067720  0.35067720  1
  Fe  Fe3  1  0.64900903  0.64900903  0.64900903  1
  Sb  Sb4  1  0.00294016  0.00294016  0.00294016  1
  Sb  Sb5  1  0.49956439  0.49956439  0.49956439  1
  P  P6  1  0.03945610  0.74967982  0.46204762  1
  P  P7  1  0.46204762  0.03945610  0.74967982  1
  P  P8  1  0.74967982  0.46204762  0.03945610  1
  P  P9  1  0.24932156  0.54061147  0.95852189  1
  P  P10  1  0.54061147  0.95852189  0.24932156  1
  P  P11  1  0.95852189  0.24932156  0.54061147  1
  O  O12  1  0.11606763  0.30044827  0.50875737  1
  O  O13  1  0.30044827  0.50875737  0.11606763  1
  O  O14  1  0.05947204  0.91730842  0.26684190  1
  O  O15  1  0.50875737  0.11606763  0.30044827  1
  O  O16  1  0.00824931  0.80087591  0.61768068  1
  O  O17  1  0.23322356  0.58297245  0.43923495  1
  O  O18  1  0.26684190  0.05947204  0.91730842  1
  O  O19  1  0.43923495  0.23322356  0.58297245  1
  O  O20  1  0.19795425  0.38277472  0.99223456  1
  O  O21  1  0.58297245  0.43923495  0.23322356  1
  O  O22  1  0.08171961  0.73230952  0.93895688  1
  O  O23  1  0.38277472  0.99223456  0.19795425  1
  O  O24  1  0.61768068  0.00824931  0.80087591  1
  O  O25  1  0.91730842  0.26684190  0.05947204  1
  O  O26  1  0.41721948  0.56000778  0.76647283  1
  O  O27  1  0.80087591  0.61768068  0.00824931  1
  O  O28  1  0.56000778  0.76647283  0.41721948  1
  O  O29  1  0.73230952  0.93895688  0.08171961  1
  O  O30  1  0.76647283  0.41721948  0.56000778  1
  O  O31  1  0.99223456  0.19795425  0.38277472  1
  O  O32  1  0.49249040  0.88356057  0.69749733  1
  O  O33  1  0.93895688  0.08171961  0.73230952  1
  O  O34  1  0.69749733  0.49249040  0.88356057  1
  O  O35  1  0.88356057  0.69749733  0.49249040  1
