# generated using pymatgen
data_V6O7F5
_symmetry_space_group_name_H-M   'P 1'
_cell_length_a   4.69653991
_cell_length_b   4.69653991
_cell_length_c   9.28552339
_cell_angle_alpha   89.92944904
_cell_angle_beta   90.07055096
_cell_angle_gamma   92.53175062
_symmetry_Int_Tables_number   1
_chemical_formula_structural   V6O7F5
_chemical_formula_sum   'V6 O7 F5'
_cell_volume   204.61509484
_cell_formula_units_Z   1
loop_
 _symmetry_equiv_pos_site_id
 _symmetry_equiv_pos_as_xyz
  1  'x, y, z'
loop_
 _atom_site_type_symbol
 _atom_site_label
 _atom_site_symmetry_multiplicity
 _atom_site_fract_x
 _atom_site_fract_y
 _atom_site_fract_z
 _atom_site_occupancy
  V  V0  1  0.98731995  0.00446144  0.00695737  1
  V  V1  1  0.02476668  0.02476668  0.33333300  1
  V  V2  1  0.00446144  0.98731995  0.65970863  1
  V  V3  1  0.52266345  0.46775875  0.15886037  1
  V  V4  1  0.49359965  0.49359965  0.83333300  1
  V  V5  1  0.46775875  0.52266345  0.50780563  1
  O  O6  1  0.18570947  0.81365371  0.49936131  1
  O  O7  1  0.31778075  0.31778075  0.33333300  1
  O  O8  1  0.30578673  0.29243036  0.98910759  1
  O  O9  1  0.29243036  0.30578673  0.67755941  1
  O  O10  1  0.69565620  0.68391836  0.99162750  1
  O  O11  1  0.68391836  0.69565620  0.67503850  1
  O  O12  1  0.81365371  0.18570947  0.16730569  1
  F  F13  1  0.21169877  0.79666005  0.16692549  1
  F  F14  1  0.19204938  0.79757659  0.83630379  1
  F  F15  1  0.70650669  0.70650669  0.33333300  1
  F  F16  1  0.79757659  0.19204938  0.83036321  1
  F  F17  1  0.79666005  0.21169877  0.49974151  1
