# generated using pymatgen
data_Na4Mn2C4SO16
_symmetry_space_group_name_H-M   'P 1'
_cell_length_a   9.84091818
_cell_length_b   9.87035370
_cell_length_c   9.84091767
_cell_angle_alpha   61.51711130
_cell_angle_beta   92.48481044
_cell_angle_gamma   61.51711163
_symmetry_Int_Tables_number   1
_chemical_formula_structural   Na4Mn2C4SO16
_chemical_formula_sum   'Na8 Mn4 C8 S2 O32'
_cell_volume   691.63804765
_cell_formula_units_Z   2
loop_
 _symmetry_equiv_pos_site_id
 _symmetry_equiv_pos_as_xyz
  1  'x, y, z'
loop_
 _atom_site_type_symbol
 _atom_site_label
 _atom_site_symmetry_multiplicity
 _atom_site_fract_x
 _atom_site_fract_y
 _atom_site_fract_z
 _atom_site_occupancy
  Na  Na0  1  0.82908689  0.84182722  0.07908689  1
  Na  Na1  1  0.83483288  0.25000000  0.08483288  1
  Na  Na2  1  0.58483288  0.75000000  0.33483288  1
  Na  Na3  1  0.57908689  0.34182722  0.32908689  1
  Na  Na4  1  0.42091311  0.65817278  0.67091311  1
  Na  Na5  1  0.41516712  0.25000000  0.66516712  1
  Na  Na6  1  0.16516712  0.75000000  0.91516712  1
  Na  Na7  1  0.17091311  0.15817278  0.92091311  1
  Mn  Mn8  1  0.50000000  0.00000000  0.50000000  1
  Mn  Mn9  1  0.00000000  0.50000000  0.00000000  1
  Mn  Mn10  1  0.00000000  0.50000000  0.50000000  1
  Mn  Mn11  1  0.00000000  0.00000000  0.50000000  1
  C  C12  1  0.77316822  0.93882360  0.35607444  1
  C  C13  1  0.78800818  0.93882360  0.70510196  1
  C  C14  1  0.85607444  0.43882360  0.27316822  1
  C  C15  1  0.79489804  0.56117640  0.71199182  1
  C  C16  1  0.20510196  0.43882360  0.28800818  1
  C  C17  1  0.14392556  0.56117640  0.72683178  1
  C  C18  1  0.21199182  0.06117640  0.29489804  1
  C  C19  1  0.22683178  0.06117640  0.64392556  1
  S  S20  1  0.37500000  0.75000000  0.12500000  1
  S  S21  1  0.62500000  0.25000000  0.87500000  1
  O  O22  1  0.88819037  0.97113029  0.35136973  1
  O  O23  1  0.89828625  0.80714369  0.84854591  1
  O  O24  1  0.79457006  0.80714369  0.34431040  1
  O  O25  1  0.86615946  0.54797329  0.13744328  1
  O  O26  1  0.91413276  0.45202671  0.68541658  1
  O  O27  1  0.64067934  0.97113029  0.67749998  1
  O  O28  1  0.85136973  0.47113029  0.38819037  1
  O  O29  1  0.82250002  0.52886971  0.85932066  1
  O  O30  1  0.84431040  0.30714369  0.29457006  1
  O  O31  1  0.65145409  0.69285631  0.60171375  1
  O  O32  1  0.43730618  0.87230507  0.06859875  1
  O  O33  1  0.80961125  0.12769493  0.94090382  1
  O  O34  1  0.81458342  0.04797329  0.58586724  1
  O  O35  1  0.36255672  0.95202671  0.63384054  1
  O  O36  1  0.44090382  0.62769493  0.30961125  1
  O  O37  1  0.43140125  0.62769493  0.06269382  1
  O  O38  1  0.56859875  0.37230507  0.93730618  1
  O  O39  1  0.55909618  0.37230507  0.69038875  1
  O  O40  1  0.63744328  0.04797329  0.36615946  1
  O  O41  1  0.18541658  0.95202671  0.41413276  1
  O  O42  1  0.19038875  0.87230507  0.05909618  1
  O  O43  1  0.56269382  0.12769493  0.93140125  1
  O  O44  1  0.34854591  0.30714369  0.39828625  1
  O  O45  1  0.15568960  0.69285631  0.70542994  1
  O  O46  1  0.17749998  0.47113029  0.14067934  1
  O  O47  1  0.14863027  0.52886971  0.61180963  1
  O  O48  1  0.35932066  0.02886971  0.32250002  1
  O  O49  1  0.08586724  0.54797329  0.31458342  1
  O  O50  1  0.13384054  0.45202671  0.86255672  1
  O  O51  1  0.20542994  0.19285631  0.65568960  1
  O  O52  1  0.10171375  0.19285631  0.15145409  1
  O  O53  1  0.11180963  0.02886971  0.64863027  1
