# generated using pymatgen
data_Mg(FeO2)2
_symmetry_space_group_name_H-M   'P 1'
_cell_length_a   5.12987382
_cell_length_b   5.89594909
_cell_length_c   10.32905866
_cell_angle_alpha   90.06237338
_cell_angle_beta   90.05905888
_cell_angle_gamma   89.95125185
_symmetry_Int_Tables_number   1
_chemical_formula_structural   Mg(FeO2)2
_chemical_formula_sum   'Mg4 Fe8 O16'
_cell_volume   312.40682064
_cell_formula_units_Z   4
loop_
 _symmetry_equiv_pos_site_id
 _symmetry_equiv_pos_as_xyz
  1  'x, y, z'
loop_
 _atom_site_type_symbol
 _atom_site_label
 _atom_site_symmetry_multiplicity
 _atom_site_fract_x
 _atom_site_fract_y
 _atom_site_fract_z
 _atom_site_occupancy
  Mg  Mg0  1  0.85346383  0.25032808  0.74991869  1
  Mg  Mg1  1  0.14663996  0.74966711  0.25008210  1
  Mg  Mg2  1  0.51600864  0.25054395  0.24993141  1
  Mg  Mg3  1  0.48393759  0.74946010  0.75007594  1
  Fe  Fe4  1  0.50951288  0.74971816  0.48018357  1
  Fe  Fe5  1  0.50922705  0.75008971  0.02022362  1
  Fe  Fe6  1  0.49048971  0.25028654  0.51984979  1
  Fe  Fe7  1  0.49078583  0.24991554  0.97974725  1
  Fe  Fe8  1  -0.00004036  0.50005724  0.49999238  1
  Fe  Fe9  1  -0.00005448  -0.00005614  0.00000449  1
  Fe  Fe10  1  -0.00004007  -0.00005952  0.49998848  1
  Fe  Fe11  1  -0.00004435  0.50004932  0.00000289  1
  O  O12  1  0.85527095  0.74949075  0.39129850  1
  O  O13  1  0.85581860  0.75078316  0.10831843  1
  O  O14  1  0.14473577  0.25049610  0.60868775  1
  O  O15  1  0.14422374  0.24922759  0.89169446  1
  O  O16  1  0.19773939  0.74949090  0.59888760  1
  O  O17  1  0.19781449  0.74946354  0.90044266  1
  O  O18  1  0.80224992  0.25050568  0.40112099  1
  O  O19  1  0.80219931  0.25054026  0.09954855  1
  O  O20  1  0.66788509  0.50419509  0.61540482  1
  O  O21  1  0.66674203  0.99572071  0.88465408  1
  O  O22  1  0.33248661  0.00307943  0.38481293  1
  O  O23  1  0.33317763  0.49734078  0.11531603  1
  O  O24  1  0.33211986  0.49581598  0.38460780  1
  O  O25  1  0.33328537  0.00427269  0.11533550  1
  O  O26  1  0.66751655  0.99689396  0.61519141  1
  O  O27  1  0.66684848  0.50268330  0.88467787  1
