# generated using pymatgen
data_Li2MnP2O7
_symmetry_space_group_name_H-M   'P 1'
_cell_length_a   5.13762073
_cell_length_b   7.05019574
_cell_length_c   8.55882582
_cell_angle_alpha   93.14207340
_cell_angle_beta   92.50964789
_cell_angle_gamma   108.09107214
_symmetry_Int_Tables_number   1
_chemical_formula_structural   Li2MnP2O7
_chemical_formula_sum   'Li4 Mn2 P4 O14'
_cell_volume   293.63804286
_cell_formula_units_Z   2
loop_
 _symmetry_equiv_pos_site_id
 _symmetry_equiv_pos_as_xyz
  1  'x, y, z'
loop_
 _atom_site_type_symbol
 _atom_site_label
 _atom_site_symmetry_multiplicity
 _atom_site_fract_x
 _atom_site_fract_y
 _atom_site_fract_z
 _atom_site_occupancy
  Li  Li0  1  0.58591276  0.64162179  0.86612168  1
  Li  Li1  1  0.02056076  0.31205185  0.67330293  1
  Li  Li2  1  0.05841471  0.94622471  0.41833362  1
  Li  Li3  1  0.41449166  0.37316527  0.14165937  1
  Mn  Mn4  1  0.51455564  0.50722614  0.49536292  1
  Mn  Mn5  1  0.00280189  0.00105701  0.00731944  1
  P  P6  1  0.54445316  0.15985897  0.78296317  1
  P  P7  1  0.11877389  0.74993979  0.69810881  1
  P  P8  1  0.88109962  0.24686119  0.30722095  1
  P  P9  1  0.46108598  0.83917741  0.21845466  1
  O  O10  1  0.40151360  0.20746860  0.92671021  1
  O  O11  1  0.98444721  0.74521220  0.85455066  1
  O  O12  1  0.80072778  0.09763860  0.81239019  1
  O  O13  1  0.29518554  0.60730383  0.69729070  1
  O  O14  1  0.61807454  0.33140636  0.67384897  1
  O  O15  1  0.31985945  0.97605577  0.67571337  1
  O  O16  1  0.92094675  0.72011796  0.55389562  1
  O  O17  1  0.08467468  0.27840963  0.45113671  1
  O  O18  1  0.71733913  0.00695097  0.32205764  1
  O  O19  1  0.39336100  0.66026364  0.31700333  1
  O  O20  1  0.67247678  0.35962842  0.31103438  1
  O  O21  1  0.22894448  0.93227422  0.20824502  1
  O  O22  1  0.01938474  0.26379619  0.15156017  1
  O  O23  1  0.57762625  0.79895847  0.06196648  1
