# generated using pymatgen
data_Li2V3(FeO6)2
_symmetry_space_group_name_H-M   'P 1'
_cell_length_a   12.74388232
_cell_length_b   9.24139449
_cell_length_c   9.18098876
_cell_angle_alpha   89.99998150
_cell_angle_beta   90.02954379
_cell_angle_gamma   90.00070044
_symmetry_Int_Tables_number   1
_chemical_formula_structural   Li2V3(FeO6)2
_chemical_formula_sum   'Li8 V12 Fe8 O48'
_cell_volume   1081.25632319
_cell_formula_units_Z   4
loop_
 _symmetry_equiv_pos_site_id
 _symmetry_equiv_pos_as_xyz
  1  'x, y, z'
loop_
 _atom_site_type_symbol
 _atom_site_label
 _atom_site_symmetry_multiplicity
 _atom_site_fract_x
 _atom_site_fract_y
 _atom_site_fract_z
 _atom_site_occupancy
  Li  Li0  1  0.18908164  0.22144780  0.27303667  1
  Li  Li1  1  0.18909347  0.77855464  0.77302927  1
  Li  Li2  1  0.31066967  0.27861044  0.77329835  1
  Li  Li3  1  0.31067368  0.72140633  0.27329020  1
  Li  Li4  1  0.68935523  0.27861065  0.72671647  1
  Li  Li5  1  0.68933072  0.72140236  0.22671668  1
  Li  Li6  1  0.81091624  0.22146193  0.22695964  1
  Li  Li7  1  0.81090798  0.77855953  0.72694672  1
  V  V8  1  0.00000053  0.46455630  0.24998975  1
  V  V9  1  0.00000673  0.53545406  0.75000638  1
  V  V10  1  0.49999762  0.03526327  0.75002387  1
  V  V11  1  0.49999153  0.96472638  0.24998442  1
  V  V12  1  0.14343853  0.10143642  0.60563051  1
  V  V13  1  0.14343398  0.89857253  0.10563425  1
  V  V14  1  0.35662010  0.39859775  0.10567437  1
  V  V15  1  0.35662135  0.60138941  0.60566383  1
  V  V16  1  0.64338762  0.39858768  0.39433902  1
  V  V17  1  0.64335429  0.60142574  0.89433908  1
  V  V18  1  0.85657529  0.10144150  0.89438639  1
  V  V19  1  0.85657735  0.89856023  0.39438213  1
  Fe  Fe20  1  0.12012998  0.25089894  0.96770156  1
  Fe  Fe21  1  0.12023668  0.74910061  0.46766623  1
  Fe  Fe22  1  0.37967676  0.75077756  0.96760140  1
  Fe  Fe23  1  0.37981590  0.24916424  0.46762253  1
  Fe  Fe24  1  0.62020494  0.24916733  0.03238440  1
  Fe  Fe25  1  0.62020479  0.75084581  0.53238465  1
  Fe  Fe26  1  0.87982977  0.25090507  0.53231542  1
  Fe  Fe27  1  0.87983507  0.74910667  0.03232173  1
  O  O28  1  0.01744175  0.15147658  0.56044774  1
  O  O29  1  0.01744357  0.84853678  0.06044530  1
  O  O30  1  0.06896152  0.57127540  0.37005401  1
  O  O31  1  0.06897479  0.42871268  0.87006031  1
  O  O32  1  0.09051505  0.35051444  0.16106225  1
  O  O33  1  0.09051759  0.64948204  0.66110145  1
  O  O34  1  0.16042301  0.08784122  0.10519920  1
  O  O35  1  0.16043683  0.91214134  0.60518073  1
  O  O36  1  0.17476838  0.16697638  0.77801294  1
  O  O37  1  0.17474650  0.83298479  0.27799979  1
  O  O38  1  0.22821362  0.82386101  0.97609769  1
  O  O39  1  0.22822951  0.17611070  0.47609651  1
  O  O40  1  0.27173410  0.32385811  0.97607696  1
  O  O41  1  0.27174036  0.67612621  0.47603865  1
  O  O42  1  0.32525305  0.66695184  0.77796033  1
  O  O43  1  0.32526799  0.33301548  0.27797382  1
  O  O44  1  0.33958889  0.41217801  0.60520308  1
  O  O45  1  0.33960780  0.58783940  0.10521176  1
  O  O46  1  0.40948906  0.14947363  0.66112979  1
  O  O47  1  0.40947061  0.85054201  0.16109424  1
  O  O48  1  0.43101677  0.07120121  0.37005879  1
  O  O49  1  0.43100614  0.92876572  0.87006979  1
  O  O50  1  0.48251769  0.65142726  0.56044190  1
  O  O51  1  0.48252365  0.34856343  0.06044768  1
  O  O52  1  0.51748232  0.34857573  0.43956972  1
  O  O53  1  0.51745513  0.65145615  0.93955772  1
  O  O54  1  0.56900344  0.07119464  0.12995716  1
  O  O55  1  0.56900941  0.92882875  0.62996148  1
  O  O56  1  0.59054684  0.14947985  0.83885265  1
  O  O57  1  0.59052892  0.85054185  0.33886880  1
  O  O58  1  0.66042779  0.41219346  0.89479053  1
  O  O59  1  0.66042022  0.58782254  0.39478764  1
  O  O60  1  0.67474597  0.33306762  0.22202488  1
  O  O61  1  0.67474946  0.66695080  0.72201619  1
  O  O62  1  0.72828197  0.32386095  0.52395381  1
  O  O63  1  0.72825831  0.67614062  0.02396789  1
  O  O64  1  0.77178297  0.17612492  0.02392027  1
  O  O65  1  0.77176388  0.82388182  0.52389198  1
  O  O66  1  0.82525076  0.16693386  0.72198554  1
  O  O67  1  0.82522670  0.83306630  0.22198394  1
  O  O68  1  0.83956242  0.08786185  0.39479474  1
  O  O69  1  0.83953605  0.91216678  0.89478721  1
  O  O70  1  0.90946443  0.35051986  0.33889226  1
  O  O71  1  0.90946640  0.64949001  0.83887608  1
  O  O72  1  0.93101403  0.42873477  0.62996296  1
  O  O73  1  0.93101908  0.57124664  0.12996478  1
  O  O74  1  0.98257676  0.15145604  0.93956545  1
  O  O75  1  0.98257108  0.84851736  0.43955570  1
