# generated using pymatgen
data_Li8FeO5F
_symmetry_space_group_name_H-M   'P 1'
_cell_length_a   5.62291403
_cell_length_b   5.62291592
_cell_length_c   10.97795994
_cell_angle_alpha   89.99958786
_cell_angle_beta   90.00040217
_cell_angle_gamma   119.99815915
_symmetry_Int_Tables_number   1
_chemical_formula_structural   Li8FeO5F
_chemical_formula_sum   'Li16 Fe2 O10 F2'
_cell_volume   300.59611428
_cell_formula_units_Z   2
loop_
 _symmetry_equiv_pos_site_id
 _symmetry_equiv_pos_as_xyz
  1  'x, y, z'
loop_
 _atom_site_type_symbol
 _atom_site_label
 _atom_site_symmetry_multiplicity
 _atom_site_fract_x
 _atom_site_fract_y
 _atom_site_fract_z
 _atom_site_occupancy
  Li  Li0  1  0.97150298  0.68776201  0.77626471  1
  Li  Li1  1  0.01703057  0.62344487  0.12275243  1
  Li  Li2  1  0.98296505  0.37658531  0.62275170  1
  Li  Li3  1  0.02845327  0.31223430  0.27626688  1
  Li  Li4  1  0.33330421  0.66665778  0.41753140  1
  Li  Li5  1  0.33333271  0.66667929  0.92772008  1
  Li  Li6  1  0.31224970  0.28377350  0.77626331  1
  Li  Li7  1  0.37657131  0.39361290  0.12275238  1
  Li  Li8  1  0.62338167  0.60635408  0.62275188  1
  Li  Li9  1  0.28375843  0.97152798  0.27626724  1
  Li  Li10  1  0.68775276  0.71625072  0.27626997  1
  Li  Li11  1  0.39361898  0.01704346  0.62274864  1
  Li  Li12  1  0.66666945  0.33333666  0.91752731  1
  Li  Li13  1  0.66664508  0.33332002  0.42772428  1
  Li  Li14  1  0.60639060  0.98295889  0.12274819  1
  Li  Li15  1  0.71621425  0.02846213  0.77626052  1
  Fe  Fe16  1  0.99996546  0.99998032  0.49506740  1
  Fe  Fe17  1  0.00000768  0.00001875  0.99504584  1
  O  O18  1  0.00170907  0.67733670  0.95008929  1
  O  O19  1  0.99826512  0.32264952  0.45010103  1
  O  O20  1  0.33332788  0.66666303  0.21485442  1
  O  O21  1  0.99999758  0.99999320  0.17547046  1
  O  O22  1  0.00000469  0.00001008  0.67549451  1
  O  O23  1  0.32269434  0.32441476  0.95008847  1
  O  O24  1  0.32434852  0.00170522  0.45009770  1
  O  O25  1  0.67728679  0.67559087  0.45010016  1
  O  O26  1  0.66667153  0.33334060  0.71484183  1
  O  O27  1  0.67561207  0.99829274  0.95008825  1
  F  F28  1  0.33338211  0.66669607  0.70774429  1
  F  F29  1  0.66668517  0.33330225  0.20775441  1
