# generated using pymatgen
data_LiNbO3
_symmetry_space_group_name_H-M   'P 1'
_cell_length_a   5.56891042
_cell_length_b   15.14908233
_cell_length_c   5.30247711
_cell_angle_alpha   90.00000000
_cell_angle_beta   90.00000000
_cell_angle_gamma   90.00000000
_symmetry_Int_Tables_number   1
_chemical_formula_structural   LiNbO3
_chemical_formula_sum   'Li8 Nb8 O24'
_cell_volume   447.33755555
_cell_formula_units_Z   8
loop_
 _symmetry_equiv_pos_site_id
 _symmetry_equiv_pos_as_xyz
  1  'x, y, z'
loop_
 _atom_site_type_symbol
 _atom_site_label
 _atom_site_symmetry_multiplicity
 _atom_site_fract_x
 _atom_site_fract_y
 _atom_site_fract_z
 _atom_site_occupancy
  Li  Li0  1  0.21734615  0.75000000  0.74932174  1
  Li  Li1  1  0.25000000  0.00000000  0.74535600  1
  Li  Li2  1  0.25000000  0.50000000  0.74535600  1
  Li  Li3  1  0.28265385  0.25000000  0.74932174  1
  Li  Li4  1  0.71734615  0.75000000  0.25067826  1
  Li  Li5  1  0.75000000  0.00000000  0.25464400  1
  Li  Li6  1  0.75000000  0.50000000  0.25464400  1
  Li  Li7  1  0.78265385  0.25000000  0.25067826  1
  Nb  Nb8  1  0.23506573  0.62502072  0.24298414  1
  Nb  Nb9  1  0.23506573  0.87497928  0.24298414  1
  Nb  Nb10  1  0.26493427  0.37497928  0.24298414  1
  Nb  Nb11  1  0.26493427  0.12502072  0.24298414  1
  Nb  Nb12  1  0.73506573  0.62502072  0.75701586  1
  Nb  Nb13  1  0.73506573  0.87497928  0.75701586  1
  Nb  Nb14  1  0.76493427  0.37497928  0.75701586  1
  Nb  Nb15  1  0.76493427  0.12502072  0.75701586  1
  O  O16  1  0.04100102  0.15536837  0.56599748  1
  O  O17  1  0.04100102  0.34463163  0.56599748  1
  O  O18  1  0.07794818  0.59497296  0.93595178  1
  O  O19  1  0.07794818  0.90502704  0.93595178  1
  O  O20  1  0.19201092  0.25000000  0.13531207  1
  O  O21  1  0.25000000  0.00000000  0.37029380  1
  O  O22  1  0.25000000  0.50000000  0.37029380  1
  O  O23  1  0.30798908  0.75000000  0.13531207  1
  O  O24  1  0.42205182  0.09497296  0.93595178  1
  O  O25  1  0.42205182  0.40502704  0.93595178  1
  O  O26  1  0.45899898  0.65536837  0.56599748  1
  O  O27  1  0.45899898  0.84463163  0.56599748  1
  O  O28  1  0.54100102  0.15536837  0.43400252  1
  O  O29  1  0.54100102  0.34463163  0.43400252  1
  O  O30  1  0.57794818  0.59497296  0.06404822  1
  O  O31  1  0.57794818  0.90502704  0.06404822  1
  O  O32  1  0.69201092  0.25000000  0.86468793  1
  O  O33  1  0.75000000  0.00000000  0.62970620  1
  O  O34  1  0.75000000  0.50000000  0.62970620  1
  O  O35  1  0.80798908  0.75000000  0.86468793  1
  O  O36  1  0.92205182  0.40502704  0.06404822  1
  O  O37  1  0.92205182  0.09497296  0.06404822  1
  O  O38  1  0.95899898  0.65536837  0.43400252  1
  O  O39  1  0.95899898  0.84463163  0.43400252  1
