# generated using pymatgen
data_Li2TiFe3O8
_symmetry_space_group_name_H-M   'P 1'
_cell_length_a   8.46811584
_cell_length_b   8.60300710
_cell_length_c   8.36164393
_cell_angle_alpha   90.00780173
_cell_angle_beta   89.98142593
_cell_angle_gamma   90.00890446
_symmetry_Int_Tables_number   1
_chemical_formula_structural   Li2TiFe3O8
_chemical_formula_sum   'Li8 Ti4 Fe12 O32'
_cell_volume   609.15625648
_cell_formula_units_Z   4
loop_
 _symmetry_equiv_pos_site_id
 _symmetry_equiv_pos_as_xyz
  1  'x, y, z'
loop_
 _atom_site_type_symbol
 _atom_site_label
 _atom_site_symmetry_multiplicity
 _atom_site_fract_x
 _atom_site_fract_y
 _atom_site_fract_z
 _atom_site_occupancy
  Li  Li0  1  0.99953239  0.00006945  0.99681166  1
  Li  Li1  1  0.25140811  0.25006596  0.25225182  1
  Li  Li2  1  0.24865418  0.74971671  0.75462875  1
  Li  Li3  1  0.50112069  0.00028303  0.49722940  1
  Li  Li4  1  0.49896914  0.50018549  0.00230316  1
  Li  Li5  1  0.75124353  0.24962765  0.74599005  1
  Li  Li6  1  0.74810089  0.74985011  0.24794219  1
  Li  Li7  1  0.00082572  0.50018047  0.50332622  1
  Ti  Ti8  1  0.12033456  0.86590358  0.38115670  1
  Ti  Ti9  1  0.38453688  0.13342216  0.87717027  1
  Ti  Ti10  1  0.61491375  0.63318358  0.62348324  1
  Ti  Ti11  1  0.88044985  0.36656491  0.11997414  1
  Fe  Fe12  1  0.12634824  0.12488918  0.62550658  1
  Fe  Fe13  1  0.12302436  0.37666284  0.86994671  1
  Fe  Fe14  1  0.12764097  0.62561117  0.12069952  1
  Fe  Fe15  1  0.37258429  0.37317668  0.62084541  1
  Fe  Fe16  1  0.37907775  0.62263151  0.36731094  1
  Fe  Fe17  1  0.37197620  0.87607990  0.12418024  1
  Fe  Fe18  1  0.62780674  0.37611782  0.37556836  1
  Fe  Fe19  1  0.62097317  0.12310183  0.13250213  1
  Fe  Fe20  1  0.62749675  0.87363711  0.87913111  1
  Fe  Fe21  1  0.87269309  0.12521323  0.37900296  1
  Fe  Fe22  1  0.87647945  0.87658005  0.62968522  1
  Fe  Fe23  1  0.87382407  0.62499834  0.87440361  1
  O  O24  1  0.11640307  0.11090021  0.39624588  1
  O  O25  1  0.11921285  0.88342136  0.61001528  1
  O  O26  1  0.10811500  0.61054160  0.88123390  1
  O  O27  1  0.13787609  0.13541699  0.85476415  1
  O  O28  1  0.10601483  0.38530682  0.11810772  1
  O  O29  1  0.13771575  0.36125932  0.63100343  1
  O  O30  1  0.13476218  0.64320630  0.36608956  1
  O  O31  1  0.14058917  0.86774535  0.13819366  1
  O  O32  1  0.36251697  0.13278729  0.63876315  1
  O  O33  1  0.36591381  0.35679063  0.86617148  1
  O  O34  1  0.36223895  0.63656705  0.13077276  1
  O  O35  1  0.39073336  0.61390215  0.61674240  1
  O  O36  1  0.36221912  0.86530229  0.35453114  1
  O  O37  1  0.39531519  0.38789738  0.38112740  1
  O  O38  1  0.38107025  0.11867968  0.10797885  1
  O  O39  1  0.38323832  0.89035390  0.89432474  1
  O  O40  1  0.61659125  0.39014767  0.60545530  1
  O  O41  1  0.61889818  0.61845586  0.39228490  1
  O  O42  1  0.60428130  0.88814794  0.11869064  1
  O  O43  1  0.63759313  0.36557063  0.14554435  1
  O  O44  1  0.60885616  0.11435929  0.88312850  1
  O  O45  1  0.63812479  0.13683814  0.36928020  1
  O  O46  1  0.63380350  0.85663469  0.63384305  1
  O  O47  1  0.63755647  0.63298120  0.86125473  1
  O  O48  1  0.85974478  0.36814060  0.36155437  1
  O  O49  1  0.86529976  0.14355989  0.13375253  1
  O  O50  1  0.86228328  0.86158108  0.86874696  1
  O  O51  1  0.89432666  0.88498838  0.38176594  1
  O  O52  1  0.86208622  0.63537433  0.64530663  1
  O  O53  1  0.89203223  0.11041699  0.61854255  1
  O  O54  1  0.88081488  0.38378980  0.89027389  1
  O  O55  1  0.88375975  0.61131941  0.10359855  1
