# generated using pymatgen
data_Li2MnP2O7
_symmetry_space_group_name_H-M   'P 1'
_cell_length_a   5.13502052
_cell_length_b   6.90942815
_cell_length_c   16.30491370
_cell_angle_alpha   89.99979723
_cell_angle_beta   89.42202721
_cell_angle_gamma   89.99963723
_symmetry_Int_Tables_number   1
_chemical_formula_structural   Li2MnP2O7
_chemical_formula_sum   'Li8 Mn4 P8 O28'
_cell_volume   578.46980725
_cell_formula_units_Z   4
loop_
 _symmetry_equiv_pos_site_id
 _symmetry_equiv_pos_as_xyz
  1  'x, y, z'
loop_
 _atom_site_type_symbol
 _atom_site_label
 _atom_site_symmetry_multiplicity
 _atom_site_fract_x
 _atom_site_fract_y
 _atom_site_fract_z
 _atom_site_occupancy
  Li  Li0  1  0.24311815  0.96955049  0.24182045  1
  Li  Li1  1  0.24311355  0.53044265  0.74182375  1
  Li  Li2  1  0.26695750  0.20459355  0.50722981  1
  Li  Li3  1  0.26695652  0.29541012  0.00722945  1
  Li  Li4  1  0.73284610  0.70423107  0.99285994  1
  Li  Li5  1  0.73283281  0.79579724  0.49286818  1
  Li  Li6  1  0.75687590  0.46955318  0.25820975  1
  Li  Li7  1  0.75687333  0.03042951  0.75820879  1
  Mn  Mn8  1  0.25618159  0.57910686  0.36892506  1
  Mn  Mn9  1  0.25617964  0.92090365  0.86891810  1
  Mn  Mn10  1  0.74384123  0.07909257  0.13108394  1
  Mn  Mn11  1  0.74384190  0.42090856  0.63109123  1
  P  P12  1  0.25078475  0.78688560  0.07281526  1
  P  P13  1  0.25078181  0.71311489  0.57282657  1
  P  P14  1  0.25642532  0.40490149  0.16559943  1
  P  P15  1  0.25642113  0.09509617  0.66560318  1
  P  P16  1  0.74365861  0.90494250  0.33437986  1
  P  P17  1  0.74363579  0.59507970  0.83439111  1
  P  P18  1  0.74919613  0.28688273  0.42719231  1
  P  P19  1  0.74919634  0.21312331  0.92719558  1
  O  O20  1  0.04491467  0.31752477  0.42410275  1
  O  O21  1  0.04489752  0.18247115  0.92410218  1
  O  O22  1  0.09230800  0.25108569  0.12296933  1
  O  O23  1  0.09231812  0.24892403  0.62296725  1
  O  O24  1  0.12187784  0.51071546  0.23703309  1
  O  O25  1  0.12188102  0.98929573  0.73702799  1
  O  O26  1  0.30579315  0.55467855  0.08816396  1
  O  O27  1  0.30579729  0.94532296  0.58816245  1
  O  O28  1  0.37598975  0.69071100  0.48760939  1
  O  O29  1  0.37597128  0.80928063  0.98760620  1
  O  O30  1  0.39585531  0.89656106  0.13942827  1
  O  O31  1  0.39586679  0.60344964  0.63943552  1
  O  O32  1  0.47238648  0.82993257  0.31277591  1
  O  O33  1  0.47237611  0.67005465  0.81277595  1
  O  O34  1  0.52763083  0.32992436  0.18723070  1
  O  O35  1  0.52763754  0.17007175  0.68722968  1
  O  O36  1  0.60406149  0.39650847  0.36058577  1
  O  O37  1  0.60404734  0.10350562  0.86057580  1
  O  O38  1  0.62399479  0.19075426  0.01240836  1
  O  O39  1  0.62400353  0.30924294  0.51241202  1
  O  O40  1  0.69434958  0.05464961  0.41185112  1
  O  O41  1  0.69435208  0.44535269  0.91184950  1
  O  O42  1  0.87807042  0.01078588  0.26296805  1
  O  O43  1  0.87808204  0.48921140  0.76295887  1
  O  O44  1  0.90777441  0.75106929  0.37698672  1
  O  O45  1  0.90774556  0.74892833  0.87698245  1
  O  O46  1  0.95503621  0.81745571  0.07590937  1
  O  O47  1  0.95505473  0.68255398  0.57591357  1
