# generated using pymatgen
data_NaNiPO4
_symmetry_space_group_name_H-M   'P 1'
_cell_length_a   10.22963894
_cell_length_b   6.16704839
_cell_length_c   4.98790114
_cell_angle_alpha   90.00001684
_cell_angle_beta   89.99998565
_cell_angle_gamma   89.99999911
_symmetry_Int_Tables_number   1
_chemical_formula_structural   NaNiPO4
_chemical_formula_sum   'Na4 Ni4 P4 O16'
_cell_volume   314.67011489
_cell_formula_units_Z   4
loop_
 _symmetry_equiv_pos_site_id
 _symmetry_equiv_pos_as_xyz
  1  'x, y, z'
loop_
 _atom_site_type_symbol
 _atom_site_label
 _atom_site_symmetry_multiplicity
 _atom_site_fract_x
 _atom_site_fract_y
 _atom_site_fract_z
 _atom_site_occupancy
  Na  Na0  1  0.00000078  0.99999952  0.00000283  1
  Na  Na1  1  0.00000098  0.50000051  0.00000304  1
  Na  Na2  1  0.50000071  0.99999960  0.49999735  1
  Na  Na3  1  0.50000056  0.50000041  0.49999679  1
  Ni  Ni4  1  0.22019862  0.75000019  0.48589255  1
  Ni  Ni5  1  0.27980187  0.25000003  0.98589187  1
  Ni  Ni6  1  0.72019892  0.74999895  0.01410755  1
  Ni  Ni7  1  0.77980170  0.24999895  0.51410803  1
  P  P8  1  0.10607638  0.24999974  0.43442141  1
  P  P9  1  0.39392314  0.74999997  0.93442029  1
  P  P10  1  0.60607635  0.25000011  0.06557822  1
  P  P11  1  0.89392306  0.75000029  0.56557982  1
  O  O12  1  0.03900867  0.74999977  0.65997283  1
  O  O13  1  0.11450457  0.24999981  0.74176414  1
  O  O14  1  0.17659347  0.05165060  0.29747727  1
  O  O15  1  0.17659359  0.44834963  0.29747675  1
  O  O16  1  0.32340560  0.55165042  0.79747275  1
  O  O17  1  0.32340530  0.94835003  0.79747245  1
  O  O18  1  0.38549549  0.74999999  0.24175846  1
  O  O19  1  0.46099236  0.25000026  0.15996609  1
  O  O20  1  0.53900825  0.74999971  0.84002746  1
  O  O21  1  0.61450478  0.25000043  0.75823634  1
  O  O22  1  0.67659349  0.05165060  0.20252279  1
  O  O23  1  0.67659367  0.44834982  0.20252222  1
  O  O24  1  0.82340551  0.55165002  0.70252801  1
  O  O25  1  0.82340588  0.94835044  0.70252750  1
  O  O26  1  0.88549555  0.75000007  0.25824127  1
  O  O27  1  0.96099275  0.25000016  0.34003391  1
