# generated using pymatgen
data_MgMn2O4
_symmetry_space_group_name_H-M   'P 1'
_cell_length_a   5.15062813
_cell_length_b   6.02677322
_cell_length_c   10.29129213
_cell_angle_alpha   91.72094545
_cell_angle_beta   89.82318658
_cell_angle_gamma   89.74683990
_symmetry_Int_Tables_number   1
_chemical_formula_structural   MgMn2O4
_chemical_formula_sum   'Mg4 Mn8 O16'
_cell_volume   319.31000494
_cell_formula_units_Z   4
loop_
 _symmetry_equiv_pos_site_id
 _symmetry_equiv_pos_as_xyz
  1  'x, y, z'
loop_
 _atom_site_type_symbol
 _atom_site_label
 _atom_site_symmetry_multiplicity
 _atom_site_fract_x
 _atom_site_fract_y
 _atom_site_fract_z
 _atom_site_occupancy
  Mg  Mg0  1  0.85131720  0.25074536  0.74976432  1
  Mg  Mg1  1  0.14873600  0.74925447  0.25030756  1
  Mg  Mg2  1  0.48869153  0.24686440  0.24997975  1
  Mg  Mg3  1  0.51132509  0.75312914  0.75009987  1
  Mn  Mn4  1  0.51160721  0.75052149  0.48420695  1
  Mn  Mn5  1  0.51188499  0.74892112  0.01565435  1
  Mn  Mn6  1  0.48863150  0.24950702  0.51557201  1
  Mn  Mn7  1  0.48815479  0.25106665  0.98437117  1
  Mn  Mn8  1  -0.00023336  0.50019713  0.49990709  1
  Mn  Mn9  1  0.00002967  0.00012599  0.00001580  1
  Mn  Mn10  1  -0.00017951  -0.00019711  0.49985949  1
  Mn  Mn11  1  0.00005465  0.49998747  0.00005638  1
  O  O12  1  0.85808814  0.74221528  0.39818105  1
  O  O13  1  0.85890306  0.75889050  0.10152677  1
  O  O14  1  0.14180990  0.25763286  0.60179005  1
  O  O15  1  0.14128362  0.24110585  0.89844303  1
  O  O16  1  0.23447018  0.75349427  0.60304630  1
  O  O17  1  0.23283184  0.74824219  0.89751251  1
  O  O18  1  0.76553448  0.24655208  0.39702176  1
  O  O19  1  0.76712947  0.25173302  0.10251231  1
  O  O20  1  0.68188301  0.48475906  0.61843283  1
  O  O21  1  0.67806095  0.02178840  0.88016541  1
  O  O22  1  0.30918013  0.01624097  0.38759165  1
  O  O23  1  0.30867808  0.47746099  0.11188954  1
  O  O24  1  0.31818841  0.51528728  0.38170511  1
  O  O25  1  0.32199073  0.97826378  0.11979959  1
  O  O26  1  0.69064701  0.98368489  0.61240629  1
  O  O27  1  0.69130122  0.52252545  0.88818108  1
