# generated using pymatgen
data_LiMn2F5
_symmetry_space_group_name_H-M   'P 1'
_cell_length_a   7.88435488
_cell_length_b   10.98506142
_cell_length_c   7.88435488
_cell_angle_alpha   88.66042865
_cell_angle_beta   94.18143016
_cell_angle_gamma   91.33957135
_symmetry_Int_Tables_number   1
_chemical_formula_structural   LiMn2F5
_chemical_formula_sum   'Li6 Mn12 F30'
_cell_volume   680.70026682
_cell_formula_units_Z   6
loop_
 _symmetry_equiv_pos_site_id
 _symmetry_equiv_pos_as_xyz
  1  'x, y, z'
loop_
 _atom_site_type_symbol
 _atom_site_label
 _atom_site_symmetry_multiplicity
 _atom_site_fract_x
 _atom_site_fract_y
 _atom_site_fract_z
 _atom_site_occupancy
  Li  Li0  1  0.05702582  0.55087002  0.71685799  1
  Li  Li1  1  0.28314201  0.05087002  0.94297418  1
  Li  Li2  1  0.65402468  0.75000000  0.65402468  1
  Li  Li3  1  0.34597532  0.25000000  0.34597532  1
  Li  Li4  1  0.71685799  0.94912998  0.05702582  1
  Li  Li5  1  0.94297418  0.44912998  0.28314201  1
  Mn  Mn6  1  0.01051016  0.93567567  0.70975304  1
  Mn  Mn7  1  0.29024696  0.43567567  0.98948984  1
  Mn  Mn8  1  0.00056589  0.74997957  0.36586411  1
  Mn  Mn9  1  0.63413589  0.24997957  0.99943411  1
  Mn  Mn10  1  0.34482281  0.56217419  0.37692976  1
  Mn  Mn11  1  0.37692976  0.93782581  0.34482281  1
  Mn  Mn12  1  0.62307024  0.06217419  0.65517719  1
  Mn  Mn13  1  0.65517719  0.43782581  0.62307024  1
  Mn  Mn14  1  0.36586411  0.75002043  0.00056589  1
  Mn  Mn15  1  0.99943411  0.25002043  0.63413589  1
  Mn  Mn16  1  0.70975304  0.56432433  0.01051016  1
  Mn  Mn17  1  0.98948984  0.06432433  0.29024696  1
  F  F18  1  0.21133839  0.61130040  0.89413255  1
  F  F19  1  0.10586745  0.11130040  0.78866161  1
  F  F20  1  0.22551921  0.88362604  0.86282733  1
  F  F21  1  0.13717267  0.38362604  0.77448079  1
  F  F22  1  0.13158497  0.60640852  0.50599952  1
  F  F23  1  0.13991823  0.92634898  0.47260418  1
  F  F24  1  0.49400048  0.10640852  0.86841503  1
  F  F25  1  0.52739582  0.42634898  0.86008177  1
  F  F26  1  0.59665007  0.71890409  0.88711316  1
  F  F27  1  0.11288684  0.21890409  0.40334993  1
  F  F28  1  0.78538709  0.95857843  0.83167787  1
  F  F29  1  0.53960383  0.88787869  0.55356187  1
  F  F30  1  0.16832213  0.45857843  0.21461291  1
  F  F31  1  0.25642611  0.75000000  0.25642611  1
  F  F32  1  0.44643813  0.38787869  0.46039617  1
  F  F33  1  0.55356187  0.61212131  0.53960383  1
  F  F34  1  0.74357389  0.25000000  0.74357389  1
  F  F35  1  0.83167787  0.54142157  0.78538709  1
  F  F36  1  0.46039617  0.11212131  0.44643813  1
  F  F37  1  0.21461291  0.04142157  0.16832213  1
  F  F38  1  0.88711316  0.78109591  0.59665007  1
  F  F39  1  0.40334993  0.28109591  0.11288684  1
  F  F40  1  0.47260418  0.57365102  0.13991823  1
  F  F41  1  0.50599952  0.89359148  0.13158497  1
  F  F42  1  0.86008177  0.07365102  0.52739582  1
  F  F43  1  0.86841503  0.39359148  0.49400048  1
  F  F44  1  0.86282733  0.61637396  0.22551921  1
  F  F45  1  0.77448079  0.11637396  0.13717267  1
  F  F46  1  0.89413255  0.88869960  0.21133839  1
  F  F47  1  0.78866161  0.38869960  0.10586745  1
