# generated using pymatgen
data_Li3FeF6
_symmetry_space_group_name_H-M   'P 1'
_cell_length_a   5.12702008
_cell_length_b   5.12703963
_cell_length_c   9.64977128
_cell_angle_alpha   89.99949645
_cell_angle_beta   90.00040305
_cell_angle_gamma   120.00207729
_symmetry_Int_Tables_number   1
_chemical_formula_structural   Li3FeF6
_chemical_formula_sum   'Li6 Fe2 F12'
_cell_volume   219.66974876
_cell_formula_units_Z   2
loop_
 _symmetry_equiv_pos_site_id
 _symmetry_equiv_pos_as_xyz
  1  'x, y, z'
loop_
 _atom_site_type_symbol
 _atom_site_label
 _atom_site_symmetry_multiplicity
 _atom_site_fract_x
 _atom_site_fract_y
 _atom_site_fract_z
 _atom_site_occupancy
  Li  Li0  1  0.33335504  0.66667718  0.94552548  1
  Li  Li1  1  0.99996943  0.99997511  0.25000031  1
  Li  Li2  1  0.00000467  0.00002414  0.74999861  1
  Li  Li3  1  0.33337609  0.66669946  0.55447484  1
  Li  Li4  1  0.66663485  0.33333307  0.05447497  1
  Li  Li5  1  0.66663441  0.33329510  0.44552438  1
  Fe  Fe6  1  0.33327306  0.66662781  0.24999161  1
  Fe  Fe7  1  0.66669052  0.33337028  0.75000429  1
  F  F8  1  0.02773610  0.67257929  0.36839266  1
  F  F9  1  0.32737100  0.97221548  0.13160904  1
  F  F10  1  0.02770761  0.35512865  0.13160197  1
  F  F11  1  0.32736591  0.35514475  0.36838903  1
  F  F12  1  0.64478957  0.97216083  0.36840364  1
  F  F13  1  0.35517626  0.32739546  0.86839914  1
  F  F14  1  0.64477653  0.67259300  0.13159542  1
  F  F15  1  0.35519544  0.02781759  0.63159939  1
  F  F16  1  0.67263299  0.64487825  0.63162385  1
  F  F17  1  0.97225539  0.64485473  0.86839750  1
  F  F18  1  0.67261525  0.02779162  0.86839056  1
  F  F19  1  0.97223887  0.32743820  0.63160331  1
