# generated using pymatgen
data_Ti3Mn2Cu(PO4)6
_symmetry_space_group_name_H-M   'P 1'
_cell_length_a   8.63639977
_cell_length_b   8.63639940
_cell_length_c   8.63640008
_cell_angle_alpha   60.16823808
_cell_angle_beta   60.16823232
_cell_angle_gamma   60.16823531
_symmetry_Int_Tables_number   1
_chemical_formula_structural   Ti3Mn2Cu(PO4)6
_chemical_formula_sum   'Ti3 Mn2 Cu1 P6 O24'
_cell_volume   457.23012440
_cell_formula_units_Z   1
loop_
 _symmetry_equiv_pos_site_id
 _symmetry_equiv_pos_as_xyz
  1  'x, y, z'
loop_
 _atom_site_type_symbol
 _atom_site_label
 _atom_site_symmetry_multiplicity
 _atom_site_fract_x
 _atom_site_fract_y
 _atom_site_fract_z
 _atom_site_occupancy
  Ti  Ti0  1  0.14367550  0.14367550  0.14367550  1
  Ti  Ti1  1  0.35379226  0.35379226  0.35379226  1
  Ti  Ti2  1  0.64708844  0.64708844  0.64708844  1
  Mn  Mn3  1  0.99536453  0.99536453  0.99536453  1
  Mn  Mn4  1  0.49915392  0.49915392  0.49915392  1
  Cu  Cu5  1  0.85353031  0.85353031  0.85353031  1
  P  P6  1  0.25180116  0.54205967  0.95554731  1
  P  P7  1  0.54205967  0.95554731  0.25180116  1
  P  P8  1  0.95554731  0.25180116  0.54205967  1
  P  P9  1  0.04603023  0.75220819  0.45704824  1
  P  P10  1  0.45704824  0.04603023  0.75220819  1
  P  P11  1  0.75220819  0.45704824  0.04603023  1
  O  O12  1  0.11467270  0.32373557  0.48679184  1
  O  O13  1  0.32373557  0.48679184  0.11467270  1
  O  O14  1  0.05901754  0.91332939  0.26014900  1
  O  O15  1  0.48679184  0.11467270  0.32373557  1
  O  O16  1  0.01945265  0.80826932  0.60969987  1
  O  O17  1  0.23831952  0.58570498  0.43019595  1
  O  O18  1  0.26014900  0.05901754  0.91332939  1
  O  O19  1  0.43019595  0.23831952  0.58570498  1
  O  O20  1  0.19019233  0.37830257  0.00127190  1
  O  O21  1  0.58570498  0.43019595  0.23831952  1
  O  O22  1  0.09389719  0.73243451  0.94799665  1
  O  O23  1  0.37830257  0.00127190  0.19019233  1
  O  O24  1  0.60969987  0.01945265  0.80826932  1
  O  O25  1  0.91332939  0.26014900  0.05901754  1
  O  O26  1  0.41815461  0.55230064  0.76365374  1
  O  O27  1  0.80826932  0.60969987  0.01945265  1
  O  O28  1  0.55230064  0.76365374  0.41815461  1
  O  O29  1  0.73243451  0.94799665  0.09389719  1
  O  O30  1  0.76365374  0.41815461  0.55230064  1
  O  O31  1  0.00127190  0.19019233  0.37830257  1
  O  O32  1  0.50370291  0.87908966  0.69236518  1
  O  O33  1  0.94799665  0.09389719  0.73243451  1
  O  O34  1  0.69236518  0.50370291  0.87908966  1
  O  O35  1  0.87908966  0.69236518  0.50370291  1
