# generated using pymatgen
data_LiFe2OF3
_symmetry_space_group_name_H-M   'P 1'
_cell_length_a   5.18074362
_cell_length_b   10.48246398
_cell_length_c   6.24199125
_cell_angle_alpha   90.00547915
_cell_angle_beta   90.00136456
_cell_angle_gamma   90.00621487
_symmetry_Int_Tables_number   1
_chemical_formula_structural   LiFe2OF3
_chemical_formula_sum   'Li4 Fe8 O4 F12'
_cell_volume   338.98355547
_cell_formula_units_Z   4
loop_
 _symmetry_equiv_pos_site_id
 _symmetry_equiv_pos_as_xyz
  1  'x, y, z'
loop_
 _atom_site_type_symbol
 _atom_site_label
 _atom_site_symmetry_multiplicity
 _atom_site_fract_x
 _atom_site_fract_y
 _atom_site_fract_z
 _atom_site_occupancy
  Li  Li0  1  0.02235620  0.59189335  0.25005183  1
  Li  Li1  1  0.47764357  0.09183186  0.24999107  1
  Li  Li2  1  0.52239372  0.90812773  0.75001246  1
  Li  Li3  1  0.97768094  0.40816048  0.74995126  1
  Fe  Fe4  1  0.00011490  0.99997764  -0.00015435  1
  Fe  Fe5  1  0.00010070  0.99998300  0.50012072  1
  Fe  Fe6  1  0.00036114  0.74058896  0.75009179  1
  Fe  Fe7  1  0.49961381  0.24060000  0.75003470  1
  Fe  Fe8  1  0.49980568  0.49993512  0.50017700  1
  Fe  Fe9  1  0.49987429  0.49997404  -0.00017828  1
  Fe  Fe10  1  0.50037054  0.75942962  0.24998576  1
  Fe  Fe11  1  0.99966998  0.25938382  0.24992214  1
  O  O12  1  0.15581290  0.91397145  0.75002189  1
  O  O13  1  0.34422765  0.41399912  0.74998540  1
  O  O14  1  0.65581154  0.58603468  0.25001431  1
  O  O15  1  0.84420014  0.08601375  0.24997870  1
  F  F16  1  0.20460080  0.42734059  0.25004607  1
  F  F17  1  0.22441031  0.66642417  0.01690143  1
  F  F18  1  0.22430362  0.66642684  0.48314148  1
  F  F19  1  0.27555239  0.16642637  0.01682374  1
  F  F20  1  0.27573649  0.16636487  0.48310345  1
  F  F21  1  0.29529779  0.92731312  0.25008026  1
  F  F22  1  0.70463813  0.07267164  0.74991431  1
  F  F23  1  0.72447478  0.83355846  0.98318278  1
  F  F24  1  0.72428075  0.83363284  0.51690451  1
  F  F25  1  0.77568091  0.33361446  0.51685155  1
  F  F26  1  0.77559629  0.33362189  0.98309354  1
  F  F27  1  0.79539006  0.57270011  0.74995048  1
