# generated using pymatgen
data_Co4(P2O7)3
_symmetry_space_group_name_H-M   'P 1'
_cell_length_a   7.38670497
_cell_length_b   21.62100168
_cell_length_c   9.62660328
_cell_angle_alpha   90.00000000
_cell_angle_beta   90.61693865
_cell_angle_gamma   90.00000000
_symmetry_Int_Tables_number   1
_chemical_formula_structural   Co4(P2O7)3
_chemical_formula_sum   'Co16 P24 O84'
_cell_volume   1537.35604979
_cell_formula_units_Z   4
loop_
 _symmetry_equiv_pos_site_id
 _symmetry_equiv_pos_as_xyz
  1  'x, y, z'
loop_
 _atom_site_type_symbol
 _atom_site_label
 _atom_site_symmetry_multiplicity
 _atom_site_fract_x
 _atom_site_fract_y
 _atom_site_fract_z
 _atom_site_occupancy
  Co  Co0  1  0.03387622  0.75887807  0.70965419  1
  Co  Co1  1  0.03725851  0.49941411  0.26553611  1
  Co  Co2  1  0.05727238  0.25364634  0.77719881  1
  Co  Co3  1  0.05398608  0.99400031  0.24644698  1
  Co  Co4  1  0.44601392  0.49400031  0.25355302  1
  Co  Co5  1  0.44272762  0.75364634  0.72280119  1
  Co  Co6  1  0.46274149  0.99941411  0.23446389  1
  Co  Co7  1  0.46612378  0.25887807  0.79034581  1
  Co  Co8  1  0.53387622  0.74112193  0.20965419  1
  Co  Co9  1  0.53725851  0.00058589  0.76553611  1
  Co  Co10  1  0.55727238  0.24635366  0.27719881  1
  Co  Co11  1  0.55398608  0.50599969  0.74644698  1
  Co  Co12  1  0.94601392  0.00599969  0.75355302  1
  Co  Co13  1  0.94272762  0.74635366  0.22280119  1
  Co  Co14  1  0.96274149  0.50058589  0.73446389  1
  Co  Co15  1  0.96612378  0.24112193  0.29034581  1
  P  P16  1  0.23243278  0.68699688  0.99357979  1
  P  P17  1  0.23645536  0.89008448  0.83187851  1
  P  P18  1  0.23958165  0.85843624  0.15700370  1
  P  P19  1  0.23993038  0.69993855  0.44562446  1
  P  P20  1  0.25353484  0.54700440  0.96830897  1
  P  P21  1  0.25245414  0.56041129  0.52579735  1
  P  P22  1  0.24754586  0.06041129  0.97420265  1
  P  P23  1  0.24646516  0.04700440  0.53169103  1
  P  P24  1  0.26006962  0.19993855  0.05437554  1
  P  P25  1  0.26041835  0.35843624  0.34299630  1
  P  P26  1  0.26354464  0.39008448  0.66812149  1
  P  P27  1  0.26756722  0.18699688  0.50642021  1
  P  P28  1  0.73243278  0.81300312  0.49357979  1
  P  P29  1  0.73645536  0.60991552  0.33187851  1
  P  P30  1  0.73958165  0.64156376  0.65700370  1
  P  P31  1  0.73993038  0.80006145  0.94562446  1
  P  P32  1  0.75353484  0.95299560  0.46830897  1
  P  P33  1  0.75245414  0.93958871  0.02579735  1
  P  P34  1  0.74754586  0.43958871  0.47420265  1
  P  P35  1  0.74646516  0.45299560  0.03169103  1
  P  P36  1  0.76006962  0.30006145  0.55437554  1
  P  P37  1  0.76041835  0.14156376  0.84299630  1
  P  P38  1  0.76354464  0.10991552  0.16812149  1
  P  P39  1  0.76756722  0.31300312  0.00642021  1
  O  O40  1  0.06004796  0.04192037  0.59652229  1
  O  O41  1  0.05863333  0.70825502  0.37403727  1
  O  O42  1  0.07073024  0.92883013  0.78925982  1
  O  O43  1  0.07980124  0.55428148  0.60830487  1
  O  O44  1  0.06659370  0.82369763  0.20042262  1
  O  O45  1  0.06802402  0.70510397  0.07708256  1
  O  O46  1  0.07362811  0.04944047  0.89504239  1
  O  O47  1  0.08791591  0.32025449  0.32557960  1
  O  O48  1  0.08172262  0.42297624  0.68238102  1
  O  O49  1  0.08659054  0.19041764  0.42836547  1
  O  O50  1  0.09463225  0.21864797  0.13492537  1
  O  O51  1  0.10850313  0.51046261  0.88981360  1
  O  O52  1  0.19020428  0.61639633  0.95456850  1
  O  O53  1  0.21361197  0.87349202  0.99412870  1
  O  O54  1  0.23437861  0.82918448  0.74940473  1
  O  O55  1  0.23429082  0.12938484  0.02535906  1
  O  O56  1  0.24703172  0.41975916  0.26137181  1
  O  O57  1  0.23994276  0.71859628  0.85106355  1
  O  O58  1  0.23865934  0.73358640  0.58652613  1
  O  O59  1  0.24652804  0.03012004  0.37643091  1
  O  O60  1  0.25545165  0.02122645  0.10769456  1
  O  O61  1  0.24454835  0.52122645  0.39230544  1
  O  O62  1  0.25347196  0.53012004  0.12356909  1
  O  O63  1  0.26134066  0.23358640  0.91347387  1
  O  O64  1  0.26005724  0.21859628  0.64893645  1
  O  O65  1  0.25296828  0.91975916  0.23862819  1
  O  O66  1  0.26570918  0.62938484  0.47464094  1
  O  O67  1  0.26562139  0.32918448  0.75059527  1
  O  O68  1  0.28638803  0.37349202  0.50587130  1
  O  O69  1  0.30979572  0.11639633  0.54543150  1
  O  O70  1  0.39149687  0.01046261  0.61018640  1
  O  O71  1  0.40536775  0.71864797  0.36507463  1
  O  O72  1  0.41340946  0.69041764  0.07163453  1
  O  O73  1  0.41827738  0.92297624  0.81761898  1
  O  O74  1  0.41208409  0.82025449  0.17442040  1
  O  O75  1  0.42637189  0.54944047  0.60495761  1
  O  O76  1  0.43197598  0.20510397  0.42291744  1
  O  O77  1  0.43340630  0.32369763  0.29957738  1
  O  O78  1  0.42019876  0.05428148  0.89169513  1
  O  O79  1  0.42926976  0.42883013  0.71074018  1
  O  O80  1  0.44136667  0.20825502  0.12596273  1
  O  O81  1  0.43995204  0.54192037  0.90347771  1
  O  O82  1  0.56004796  0.45807963  0.09652229  1
  O  O83  1  0.55863333  0.79174498  0.87403727  1
  O  O84  1  0.57073024  0.57116987  0.28925982  1
  O  O85  1  0.57980124  0.94571852  0.10830487  1
  O  O86  1  0.56659370  0.67630237  0.70042262  1
  O  O87  1  0.56802402  0.79489603  0.57708256  1
  O  O88  1  0.57362811  0.45055953  0.39504239  1
  O  O89  1  0.58791591  0.17974551  0.82557960  1
  O  O90  1  0.58172262  0.07702376  0.18238102  1
  O  O91  1  0.58659054  0.30958236  0.92836547  1
  O  O92  1  0.59463225  0.28135203  0.63492537  1
  O  O93  1  0.60850313  0.98953739  0.38981360  1
  O  O94  1  0.69020428  0.88360367  0.45456850  1
  O  O95  1  0.71361197  0.62650798  0.49412870  1
  O  O96  1  0.73437861  0.67081552  0.24940473  1
  O  O97  1  0.73429082  0.37061516  0.52535906  1
  O  O98  1  0.74703172  0.08024084  0.76137181  1
  O  O99  1  0.73994276  0.78140372  0.35106355  1
  O  O100  1  0.73865934  0.76641360  0.08652613  1
  O  O101  1  0.74652804  0.46987996  0.87643091  1
  O  O102  1  0.75545165  0.47877355  0.60769456  1
  O  O103  1  0.74454835  0.97877355  0.89230544  1
  O  O104  1  0.75347196  0.96987996  0.62356909  1
  O  O105  1  0.76134066  0.26641360  0.41347387  1
  O  O106  1  0.76005724  0.28140372  0.14893645  1
  O  O107  1  0.75296828  0.58024084  0.73862819  1
  O  O108  1  0.76570918  0.87061516  0.97464094  1
  O  O109  1  0.76562139  0.17081552  0.25059527  1
  O  O110  1  0.78638803  0.12650798  0.00587130  1
  O  O111  1  0.80979572  0.38360367  0.04543150  1
  O  O112  1  0.89149687  0.48953739  0.11018640  1
  O  O113  1  0.90536775  0.78135203  0.86507463  1
  O  O114  1  0.91340946  0.80958236  0.57163453  1
  O  O115  1  0.91827738  0.57702376  0.31761898  1
  O  O116  1  0.91208409  0.67974551  0.67442040  1
  O  O117  1  0.92637189  0.95055953  0.10495761  1
  O  O118  1  0.93197598  0.29489603  0.92291744  1
  O  O119  1  0.93340630  0.17630237  0.79957738  1
  O  O120  1  0.92019876  0.44571852  0.39169513  1
  O  O121  1  0.92926976  0.07116987  0.21074018  1
  O  O122  1  0.94136667  0.29174498  0.62596273  1
  O  O123  1  0.93995204  0.95807963  0.40347771  1
