# generated using pymatgen
data_Mn6OF11
_symmetry_space_group_name_H-M   'P 1'
_cell_length_a   7.62695608
_cell_length_b   5.91623957
_cell_length_c   5.91623957
_cell_angle_alpha   72.74667503
_cell_angle_beta   74.05698512
_cell_angle_gamma   74.05698512
_symmetry_Int_Tables_number   1
_chemical_formula_structural   Mn6OF11
_chemical_formula_sum   'Mn6 O1 F11'
_cell_volume   239.65132950
_cell_formula_units_Z   1
loop_
 _symmetry_equiv_pos_site_id
 _symmetry_equiv_pos_as_xyz
  1  'x, y, z'
loop_
 _atom_site_type_symbol
 _atom_site_label
 _atom_site_symmetry_multiplicity
 _atom_site_fract_x
 _atom_site_fract_y
 _atom_site_fract_z
 _atom_site_occupancy
  Mn  Mn0  1  0.83306514  0.66709005  0.66709005  1
  Mn  Mn1  1  0.64760684  0.33661789  0.33661789  1
  Mn  Mn2  1  0.32856431  0.65269249  0.65269249  1
  Mn  Mn3  1  0.17897802  0.34013982  0.34013982  1
  Mn  Mn4  1  0.49888635  0.99748033  0.99748033  1
  Mn  Mn5  1  0.00533721  0.00380484  0.00380484  1
  O  O6  1  0.35991969  0.43143649  0.43143649  1
  F  F7  1  0.66964545  0.03005372  0.63735224  1
  F  F8  1  0.32904537  0.36131441  0.97845609  1
  F  F9  1  0.30013922  0.88880317  0.88880317  1
  F  F10  1  0.62737814  0.56651444  0.56651444  1
  F  F11  1  0.97203387  0.24123133  0.24123133  1
  F  F12  1  0.70777691  0.10039423  0.10039423  1
  F  F13  1  0.03414709  0.77086701  0.77086701  1
  F  F14  1  0.32904537  0.97845609  0.36131441  1
  F  F15  1  0.66964545  0.63735224  0.03005372  1
  F  F16  1  0.00439377  0.30414249  0.69160996  1
  F  F17  1  0.00439377  0.69160996  0.30414249  1
