# generated using pymatgen
data_Ca5W3O14
_symmetry_space_group_name_H-M   'P 1'
_cell_length_a   10.65665530
_cell_length_b   10.53165447
_cell_length_c   10.52300309
_cell_angle_alpha   90.00000000
_cell_angle_beta   90.00000000
_cell_angle_gamma   90.00000000
_symmetry_Int_Tables_number   1
_chemical_formula_structural   Ca5W3O14
_chemical_formula_sum   'Ca20 W12 O56'
_cell_volume   1181.01990763
_cell_formula_units_Z   4
loop_
 _symmetry_equiv_pos_site_id
 _symmetry_equiv_pos_as_xyz
  1  'x, y, z'
loop_
 _atom_site_type_symbol
 _atom_site_label
 _atom_site_symmetry_multiplicity
 _atom_site_fract_x
 _atom_site_fract_y
 _atom_site_fract_z
 _atom_site_occupancy
  Ca  Ca0  1  0.00000000  0.00000000  0.50000000  1
  Ca  Ca1  1  0.00000000  0.50000000  0.00000000  1
  Ca  Ca2  1  0.00420746  0.25582149  0.22266946  1
  Ca  Ca3  1  0.00420746  0.24417851  0.72266946  1
  Ca  Ca4  1  0.23721382  0.51918904  0.25753363  1
  Ca  Ca5  1  0.23721382  0.98081096  0.75753363  1
  Ca  Ca6  1  0.26278618  0.48081096  0.75753363  1
  Ca  Ca7  1  0.26278618  0.01918904  0.25753363  1
  Ca  Ca8  1  0.49579254  0.75582149  0.22266946  1
  Ca  Ca9  1  0.49579254  0.74417851  0.72266946  1
  Ca  Ca10  1  0.50000000  0.50000000  0.50000000  1
  Ca  Ca11  1  0.50000000  0.00000000  0.00000000  1
  Ca  Ca12  1  0.50420746  0.25582149  0.27733054  1
  Ca  Ca13  1  0.50420746  0.24417851  0.77733054  1
  Ca  Ca14  1  0.73721382  0.98081096  0.74246637  1
  Ca  Ca15  1  0.73721382  0.51918904  0.24246637  1
  Ca  Ca16  1  0.76278618  0.01918904  0.24246637  1
  Ca  Ca17  1  0.76278618  0.48081096  0.74246637  1
  Ca  Ca18  1  0.99579254  0.74417851  0.77733054  1
  Ca  Ca19  1  0.99579254  0.75582149  0.27733054  1
  W  W20  1  0.00000000  0.00000000  0.00000000  1
  W  W21  1  0.00000000  0.50000000  0.50000000  1
  W  W22  1  0.24673026  0.74429513  0.00236148  1
  W  W23  1  0.24673026  0.75570487  0.50236148  1
  W  W24  1  0.25326974  0.24429513  0.00236148  1
  W  W25  1  0.25326974  0.25570487  0.50236148  1
  W  W26  1  0.50000000  0.00000000  0.50000000  1
  W  W27  1  0.50000000  0.50000000  0.00000000  1
  W  W28  1  0.74673026  0.75570487  0.99763852  1
  W  W29  1  0.74673026  0.74429513  0.49763852  1
  W  W30  1  0.75326974  0.25570487  0.99763852  1
  W  W31  1  0.75326974  0.24429513  0.49763852  1
  O  O32  1  0.01499939  0.44246229  0.33140722  1
  O  O33  1  0.01499939  0.05753771  0.83140722  1
  O  O34  1  0.12116622  0.62892055  0.44846026  1
  O  O35  1  0.12116622  0.87107945  0.94846026  1
  O  O36  1  0.13231813  0.11435434  0.06333542  1
  O  O37  1  0.13231813  0.38564566  0.56333542  1
  O  O38  1  0.13689913  0.67673866  0.13353535  1
  O  O39  1  0.13689913  0.82326134  0.63353535  1
  O  O40  1  0.15095335  0.18826970  0.36829616  1
  O  O41  1  0.15095335  0.31173030  0.86829616  1
  O  O42  1  0.16076081  0.87578040  0.38950269  1
  O  O43  1  0.16076081  0.62421960  0.88950269  1
  O  O44  1  0.16936192  0.36620487  0.11182641  1
  O  O45  1  0.16936192  0.13379513  0.61182641  1
  O  O46  1  0.33063808  0.63379513  0.61182641  1
  O  O47  1  0.33063808  0.86620487  0.11182641  1
  O  O48  1  0.33923919  0.12421960  0.88950269  1
  O  O49  1  0.33923919  0.37578040  0.38950269  1
  O  O50  1  0.34904565  0.81173030  0.86829616  1
  O  O51  1  0.34904565  0.68826970  0.36829616  1
  O  O52  1  0.36310087  0.32326134  0.63353535  1
  O  O53  1  0.36310087  0.17673866  0.13353535  1
  O  O54  1  0.36768187  0.61435434  0.06333542  1
  O  O55  1  0.36768187  0.88564566  0.56333542  1
  O  O56  1  0.37883378  0.12892055  0.44846026  1
  O  O57  1  0.37883378  0.37107945  0.94846026  1
  O  O58  1  0.48500061  0.55753771  0.83140722  1
  O  O59  1  0.48500061  0.94246229  0.33140722  1
  O  O60  1  0.51499939  0.44246229  0.16859278  1
  O  O61  1  0.51499939  0.05753771  0.66859278  1
  O  O62  1  0.62116622  0.62892055  0.05153974  1
  O  O63  1  0.62116622  0.87107945  0.55153974  1
  O  O64  1  0.63231813  0.11435434  0.43666458  1
  O  O65  1  0.63231813  0.38564566  0.93666458  1
  O  O66  1  0.63689913  0.67673866  0.36646465  1
  O  O67  1  0.63689913  0.82326134  0.86646465  1
  O  O68  1  0.65095435  0.18826970  0.13170384  1
  O  O69  1  0.65095435  0.31173030  0.63170384  1
  O  O70  1  0.66076081  0.62421960  0.61049731  1
  O  O71  1  0.66076081  0.87578040  0.11049731  1
  O  O72  1  0.66936192  0.36620487  0.38817359  1
  O  O73  1  0.66936192  0.13379513  0.88817359  1
  O  O74  1  0.83063808  0.63379513  0.88817359  1
  O  O75  1  0.83063808  0.86620487  0.38817359  1
  O  O76  1  0.83923919  0.12421960  0.61049731  1
  O  O77  1  0.83923919  0.37578040  0.11049731  1
  O  O78  1  0.84904565  0.68826970  0.13170384  1
  O  O79  1  0.84904565  0.81173030  0.63170384  1
  O  O80  1  0.86310087  0.17673866  0.36646465  1
  O  O81  1  0.86310087  0.32326134  0.86646465  1
  O  O82  1  0.86768187  0.61435434  0.43666458  1
  O  O83  1  0.86768187  0.88564566  0.93666458  1
  O  O84  1  0.87883378  0.12892055  0.05153974  1
  O  O85  1  0.87883378  0.37107945  0.55153974  1
  O  O86  1  0.98500061  0.94246229  0.16859278  1
  O  O87  1  0.98500061  0.55753771  0.66859278  1
