# generated using pymatgen
data_LiCo3NiO8
_symmetry_space_group_name_H-M   'P 1'
_cell_length_a   5.67832815
_cell_length_b   5.67832815
_cell_length_c   5.98511396
_cell_angle_alpha   61.68160211
_cell_angle_beta   90.00000238
_cell_angle_gamma   120.00000435
_symmetry_Int_Tables_number   1
_chemical_formula_structural   LiCo3NiO8
_chemical_formula_sum   'Li1 Co3 Ni1 O8'
_cell_volume   139.82394432
_cell_formula_units_Z   1
loop_
 _symmetry_equiv_pos_site_id
 _symmetry_equiv_pos_as_xyz
  1  'x, y, z'
loop_
 _atom_site_type_symbol
 _atom_site_label
 _atom_site_symmetry_multiplicity
 _atom_site_fract_x
 _atom_site_fract_y
 _atom_site_fract_z
 _atom_site_occupancy
  Li  Li0  1  0.50000000  0.00000000  0.50000000  1
  Co  Co1  1  0.00000000  0.50000000  0.00000000  1
  Co  Co2  1  0.50000000  0.00000000  0.00000000  1
  Co  Co3  1  0.50000000  0.50000000  0.00000000  1
  Ni  Ni4  1  0.00000000  0.00000000  0.00000000  1
  O  O5  1  0.28403479  0.04437270  0.19528939  1
  O  O6  1  0.27079303  0.54158506  0.18762191  1
  O  O7  1  0.76033791  0.04437270  0.19528939  1
  O  O8  1  0.76033791  0.52067582  0.19528939  1
  O  O9  1  0.23966209  0.47932418  0.80471061  1
  O  O10  1  0.23966209  0.95562730  0.80471061  1
  O  O11  1  0.72920697  0.45841494  0.81237809  1
  O  O12  1  0.71596521  0.95562730  0.80471061  1
