# generated using pymatgen
data_MgMn2O4
_symmetry_space_group_name_H-M   'P 1'
_cell_length_a   2.87109800
_cell_length_b   8.06328471
_cell_length_c   7.91114869
_cell_angle_alpha   73.77031531
_cell_angle_beta   79.53805347
_cell_angle_gamma   79.72988660
_symmetry_Int_Tables_number   1
_chemical_formula_structural   MgMn2O4
_chemical_formula_sum   'Mg2 Mn4 O8'
_cell_volume   171.34010052
_cell_formula_units_Z   2
loop_
 _symmetry_equiv_pos_site_id
 _symmetry_equiv_pos_as_xyz
  1  'x, y, z'
loop_
 _atom_site_type_symbol
 _atom_site_label
 _atom_site_symmetry_multiplicity
 _atom_site_fract_x
 _atom_site_fract_y
 _atom_site_fract_z
 _atom_site_occupancy
  Mg  Mg0  1  0.30393383  0.15939888  0.23190602  1
  Mg  Mg1  1  0.69138292  0.81767947  0.80055471  1
  Mn  Mn2  1  0.60908229  0.17335034  0.60912593  1
  Mn  Mn3  1  0.14673275  0.50687090  0.19793402  1
  Mn  Mn4  1  0.84872646  0.47029450  0.83404161  1
  Mn  Mn5  1  0.38643481  0.80341532  0.42340569  1
  O  O6  1  0.85399522  0.70700688  0.58493092  1
  O  O7  1  0.44357143  0.33498360  0.78018652  1
  O  O8  1  0.55186582  0.64237419  0.25165695  1
  O  O9  1  0.14158584  0.26992049  0.44737240  1
  O  O10  1  0.13242292  0.00549040  0.73077317  1
  O  O11  1  0.76003709  0.34840123  0.13083658  1
  O  O12  1  0.86307550  0.97148609  0.30158198  1
  O  O13  1  0.23542911  0.62866372  0.90131252  1
