# generated using pymatgen
data_Ti17(NO4)6
_symmetry_space_group_name_H-M   'P 1'
_cell_length_a   11.48828208
_cell_length_b   9.66252229
_cell_length_c   10.02793953
_cell_angle_alpha   90.00000000
_cell_angle_beta   90.00000000
_cell_angle_gamma   90.00000000
_symmetry_Int_Tables_number   1
_chemical_formula_structural   Ti17(NO4)6
_chemical_formula_sum   'Ti34 N12 O48'
_cell_volume   1113.15926609
_cell_formula_units_Z   2
loop_
 _symmetry_equiv_pos_site_id
 _symmetry_equiv_pos_as_xyz
  1  'x, y, z'
loop_
 _atom_site_type_symbol
 _atom_site_label
 _atom_site_symmetry_multiplicity
 _atom_site_fract_x
 _atom_site_fract_y
 _atom_site_fract_z
 _atom_site_occupancy
  Ti  Ti0  1  0.00000000  0.36405045  0.42951175  1
  Ti  Ti1  1  0.00000000  0.63690355  0.94261753  1
  Ti  Ti2  1  0.00000000  0.36405045  0.07048825  1
  Ti  Ti3  1  0.00000000  0.30181984  0.75000000  1
  Ti  Ti4  1  0.00000000  0.63690355  0.55738247  1
  Ti  Ti5  1  0.16677765  0.13795668  0.92784853  1
  Ti  Ti6  1  0.16206767  0.85643533  0.42320298  1
  Ti  Ti7  1  0.16677765  0.13795668  0.57215147  1
  Ti  Ti8  1  0.16515716  0.19567331  0.25000000  1
  Ti  Ti9  1  0.16206767  0.85643533  0.07679702  1
  Ti  Ti10  1  0.16207566  0.80147034  0.75000000  1
  Ti  Ti11  1  0.33484284  0.30432669  0.75000000  1
  Ti  Ti12  1  0.33322235  0.36204332  0.07215147  1
  Ti  Ti13  1  0.33793233  0.64356467  0.57679702  1
  Ti  Ti14  1  0.33793233  0.64356467  0.92320298  1
  Ti  Ti15  1  0.33322235  0.36204332  0.42784853  1
  Ti  Ti16  1  0.33792434  0.69852966  0.25000000  1
  Ti  Ti17  1  0.50000000  0.13594955  0.57048825  1
  Ti  Ti18  1  0.50000000  0.19818016  0.25000000  1
  Ti  Ti19  1  0.50000000  0.86309645  0.05738247  1
  Ti  Ti20  1  0.50000000  0.86309645  0.44261753  1
  Ti  Ti21  1  0.50000000  0.13594955  0.92951175  1
  Ti  Ti22  1  0.66206767  0.64356467  0.57679702  1
  Ti  Ti23  1  0.66677765  0.36204332  0.07215147  1
  Ti  Ti24  1  0.66677765  0.36204332  0.42784853  1
  Ti  Ti25  1  0.66207566  0.69852966  0.25000000  1
  Ti  Ti26  1  0.66515716  0.30432669  0.75000000  1
  Ti  Ti27  1  0.66206767  0.64356467  0.92320298  1
  Ti  Ti28  1  0.83322235  0.13795668  0.57215147  1
  Ti  Ti29  1  0.83792434  0.80147034  0.75000000  1
  Ti  Ti30  1  0.83793233  0.85643533  0.42320298  1
  Ti  Ti31  1  0.83322235  0.13795668  0.92784853  1
  Ti  Ti32  1  0.83484284  0.19567331  0.25000000  1
  Ti  Ti33  1  0.83793233  0.85643533  0.07679702  1
  N  N34  1  0.00000000  0.26655997  0.25000000  1
  N  N35  1  0.00000000  0.72708833  0.75000000  1
  N  N36  1  0.16796047  0.23115154  0.75000000  1
  N  N37  1  0.18198475  0.77988642  0.25000000  1
  N  N38  1  0.33203953  0.26884846  0.25000000  1
  N  N39  1  0.31801525  0.72011358  0.75000000  1
  N  N40  1  0.50000000  0.23344003  0.75000000  1
  N  N41  1  0.50000000  0.77291167  0.25000000  1
  N  N42  1  0.66796047  0.26884846  0.25000000  1
  N  N43  1  0.68198475  0.72011358  0.75000000  1
  N  N44  1  0.81801525  0.77988642  0.25000000  1
  N  N45  1  0.83203953  0.23115154  0.75000000  1
  O  O46  1  0.00000000  0.18317278  0.56612964  1
  O  O47  1  0.00000000  0.54355351  0.38996285  1
  O  O48  1  0.00000000  0.44965320  0.87843856  1
  O  O49  1  0.00000000  0.82412394  0.05249818  1
  O  O50  1  0.00000000  0.54355351  0.11003715  1
  O  O51  1  0.00000000  0.18317278  0.93387036  1
  O  O52  1  0.00000000  0.44965320  0.62156144  1
  O  O53  1  0.00000000  0.82412394  0.44750182  1
  O  O54  1  0.16626392  0.04831167  0.11876006  1
  O  O55  1  0.16626392  0.04831167  0.38123994  1
  O  O56  1  0.16486871  0.69060943  0.56155434  1
  O  O57  1  0.16634383  0.31161424  0.43655877  1
  O  O58  1  0.16634383  0.31161424  0.06344123  1
  O  O59  1  0.16486871  0.69060943  0.93844566  1
  O  O60  1  0.16884589  0.95325849  0.88028410  1
  O  O61  1  0.16884589  0.95325849  0.61971590  1
  O  O62  1  0.33365617  0.18838576  0.56344123  1
  O  O63  1  0.33365617  0.18838576  0.93655877  1
  O  O64  1  0.33373608  0.45168833  0.88123994  1
  O  O65  1  0.33115411  0.54674151  0.11971590  1
  O  O66  1  0.33373608  0.45168833  0.61876006  1
  O  O67  1  0.33513129  0.80939057  0.06155434  1
  O  O68  1  0.33115411  0.54674151  0.38028410  1
  O  O69  1  0.33513129  0.80939057  0.43844566  1
  O  O70  1  0.50000000  0.31682722  0.43387036  1
  O  O71  1  0.50000000  0.31682722  0.06612964  1
  O  O72  1  0.50000000  0.67587606  0.55249818  1
  O  O73  1  0.50000000  0.95644649  0.61003715  1
  O  O74  1  0.50000000  0.05034680  0.12156144  1
  O  O75  1  0.50000000  0.05034680  0.37843856  1
  O  O76  1  0.50000000  0.67587606  0.94750182  1
  O  O77  1  0.50000000  0.95644649  0.88996285  1
  O  O78  1  0.66634383  0.18838576  0.56344123  1
  O  O79  1  0.66626392  0.45168833  0.61876006  1
  O  O80  1  0.66884589  0.54674151  0.38028410  1
  O  O81  1  0.66884589  0.54674151  0.11971590  1
  O  O82  1  0.66486871  0.80939057  0.43844566  1
  O  O83  1  0.66486871  0.80939057  0.06155434  1
  O  O84  1  0.66634383  0.18838576  0.93655877  1
  O  O85  1  0.66626392  0.45168833  0.88123994  1
  O  O86  1  0.83513129  0.69060943  0.56155434  1
  O  O87  1  0.83513129  0.69060943  0.93844566  1
  O  O88  1  0.83115411  0.95325849  0.61971590  1
  O  O89  1  0.83115411  0.95325849  0.88028410  1
  O  O90  1  0.83373608  0.04831167  0.11876006  1
  O  O91  1  0.83373608  0.04831167  0.38123994  1
  O  O92  1  0.83365617  0.31161424  0.43655877  1
  O  O93  1  0.83365617  0.31161424  0.06344123  1
