# generated using pymatgen
data_LiMn2P2HO9
_symmetry_space_group_name_H-M   'P 1'
_cell_length_a   6.16328418
_cell_length_b   6.83976662
_cell_length_c   8.93149721
_cell_angle_alpha   90.00000000
_cell_angle_beta   107.28798335
_cell_angle_gamma   90.00000000
_symmetry_Int_Tables_number   1
_chemical_formula_structural   LiMn2P2HO9
_chemical_formula_sum   'Li2 Mn4 P4 H2 O18'
_cell_volume   359.50147918
_cell_formula_units_Z   2
loop_
 _symmetry_equiv_pos_site_id
 _symmetry_equiv_pos_as_xyz
  1  'x, y, z'
loop_
 _atom_site_type_symbol
 _atom_site_label
 _atom_site_symmetry_multiplicity
 _atom_site_fract_x
 _atom_site_fract_y
 _atom_site_fract_z
 _atom_site_occupancy
  Li  Li0  1  0.98906820  0.75000000  0.14582542  1
  Li  Li1  1  0.01093180  0.25000000  0.85417458  1
  Mn  Mn2  1  0.52794444  0.75000000  0.70653979  1
  Mn  Mn3  1  0.47205556  0.25000000  0.29346021  1
  Mn  Mn4  1  0.50000000  0.50000000  0.00000000  1
  Mn  Mn5  1  0.50000000  0.00000000  0.00000000  1
  P  P6  1  0.09481055  0.75000000  0.80419158  1
  P  P7  1  0.44163439  0.25000000  0.66276409  1
  P  P8  1  0.55836561  0.75000000  0.33723591  1
  P  P9  1  0.90518945  0.25000000  0.19580842  1
  H  H10  1  0.07198362  0.25000000  0.51289701  1
  H  H11  1  0.92801638  0.75000000  0.48710299  1
  O  O12  1  0.16365580  0.56227679  0.90659607  1
  O  O13  1  0.16365580  0.93772321  0.90659607  1
  O  O14  1  0.16895637  0.25000000  0.62264677  1
  O  O15  1  0.20224368  0.75000000  0.66693392  1
  O  O16  1  0.15922363  0.25000000  0.27772992  1
  O  O17  1  0.58658220  0.75000000  0.94001172  1
  O  O18  1  0.52794101  0.06871816  0.76486374  1
  O  O19  1  0.52794101  0.43128184  0.76486374  1
  O  O20  1  0.47161805  0.75000000  0.48011920  1
  O  O21  1  0.52838195  0.25000000  0.51988080  1
  O  O22  1  0.47205899  0.56871816  0.23513626  1
  O  O23  1  0.47205899  0.93128184  0.23513626  1
  O  O24  1  0.41341780  0.25000000  0.05998828  1
  O  O25  1  0.84077637  0.75000000  0.72227008  1
  O  O26  1  0.79775632  0.25000000  0.33306608  1
  O  O27  1  0.83104363  0.75000000  0.37735323  1
  O  O28  1  0.83634420  0.06227679  0.09340393  1
  O  O29  1  0.83634420  0.43772321  0.09340393  1
