# generated using pymatgen
data_Ba2MgO3
_symmetry_space_group_name_H-M   'P 1'
_cell_length_a   6.00106183
_cell_length_b   6.51464493
_cell_length_c   12.74137905
_cell_angle_alpha   88.61913807
_cell_angle_beta   92.86418417
_cell_angle_gamma   117.32259760
_symmetry_Int_Tables_number   1
_chemical_formula_structural   Ba2MgO3
_chemical_formula_sum   'Ba8 Mg4 O12'
_cell_volume   441.99599064
_cell_formula_units_Z   4
loop_
 _symmetry_equiv_pos_site_id
 _symmetry_equiv_pos_as_xyz
  1  'x, y, z'
loop_
 _atom_site_type_symbol
 _atom_site_label
 _atom_site_symmetry_multiplicity
 _atom_site_fract_x
 _atom_site_fract_y
 _atom_site_fract_z
 _atom_site_occupancy
  Ba  Ba0  1  0.13472234  0.78670206  0.92397619  1
  Ba  Ba1  1  0.03383462  0.58893697  0.34924236  1
  Ba  Ba2  1  0.44423078  0.41086921  0.84819029  1
  Ba  Ba3  1  0.65496335  0.78816625  0.57482793  1
  Ba  Ba4  1  0.34950443  0.21273100  0.42358425  1
  Ba  Ba5  1  0.55637959  0.58628626  0.14839712  1
  Ba  Ba6  1  0.96786544  0.41065271  0.64888666  1
  Ba  Ba7  1  0.86546162  0.21099256  0.07440207  1
  Mg  Mg8  1  0.26513639  0.99560014  0.16500737  1
  Mg  Mg9  1  0.26628603  0.00260267  0.66527520  1
  Mg  Mg10  1  0.73365310  0.99639699  0.33310419  1
  Mg  Mg11  1  0.73449325  0.00321954  0.83350566  1
  O  O12  1  0.12325302  0.80565630  0.53658847  1
  O  O13  1  0.15545203  0.66051436  0.13170513  1
  O  O14  1  0.41317764  0.82834213  0.74973879  1
  O  O15  1  0.00209614  0.00724443  0.74900972  1
  O  O16  1  0.50889257  0.66222371  0.36797509  1
  O  O17  1  0.67850625  0.80535257  0.96242449  1
  O  O18  1  0.32035941  0.19226510  0.03564516  1
  O  O19  1  0.49276225  0.33691612  0.63153156  1
  O  O20  1  0.58674265  0.17013155  0.24823337  1
  O  O21  1  0.99938848  0.99345691  0.24972124  1
  O  O22  1  0.84442725  0.33793735  0.86694060  1
  O  O23  1  0.87153138  0.19461910  0.46178809  1
