# generated using pymatgen
data_Rb2CoO3
_symmetry_space_group_name_H-M   'P 1'
_cell_length_a   6.66574662
_cell_length_b   13.66789339
_cell_length_c   16.93553522
_cell_angle_alpha   90.00000000
_cell_angle_beta   107.72847788
_cell_angle_gamma   90.00000000
_symmetry_Int_Tables_number   1
_chemical_formula_structural   Rb2CoO3
_chemical_formula_sum   'Rb24 Co12 O36'
_cell_volume   1469.66708345
_cell_formula_units_Z   12
loop_
 _symmetry_equiv_pos_site_id
 _symmetry_equiv_pos_as_xyz
  1  'x, y, z'
loop_
 _atom_site_type_symbol
 _atom_site_label
 _atom_site_symmetry_multiplicity
 _atom_site_fract_x
 _atom_site_fract_y
 _atom_site_fract_z
 _atom_site_occupancy
  Rb  Rb0  1  0.00497748  0.11215212  0.91824856  1
  Rb  Rb1  1  0.12561497  0.37928645  0.85885139  1
  Rb  Rb2  1  0.12054414  0.69747403  0.80435564  1
  Rb  Rb3  1  0.43612410  0.84579498  0.98971073  1
  Rb  Rb4  1  0.00497748  0.38784788  0.41824856  1
  Rb  Rb5  1  0.36135305  0.99257956  0.77713189  1
  Rb  Rb6  1  0.12561497  0.12071355  0.35885139  1
  Rb  Rb7  1  0.26419505  0.91305713  0.53129509  1
  Rb  Rb8  1  0.12054414  0.80252597  0.30435564  1
  Rb  Rb9  1  0.73580495  0.41305713  0.96870491  1
  Rb  Rb10  1  0.43612410  0.65420502  0.48971073  1
  Rb  Rb11  1  0.63864695  0.49257956  0.72286811  1
  Rb  Rb12  1  0.36135305  0.50742044  0.27713189  1
  Rb  Rb13  1  0.56387590  0.34579498  0.51028927  1
  Rb  Rb14  1  0.26419505  0.58694287  0.03129509  1
  Rb  Rb15  1  0.87945586  0.19747403  0.69564436  1
  Rb  Rb16  1  0.73580495  0.08694287  0.46870491  1
  Rb  Rb17  1  0.87438503  0.87928645  0.64114861  1
  Rb  Rb18  1  0.63864695  0.00742044  0.22286811  1
  Rb  Rb19  1  0.99502252  0.61215212  0.58175144  1
  Rb  Rb20  1  0.56387590  0.15420502  0.01028927  1
  Rb  Rb21  1  0.87945586  0.30252597  0.19564436  1
  Rb  Rb22  1  0.87438503  0.62071355  0.14114861  1
  Rb  Rb23  1  0.99502252  0.88784788  0.08175144  1
  Co  Co24  1  0.15897248  0.38102410  0.63234068  1
  Co  Co25  1  0.27140429  0.15350289  0.60277961  1
  Co  Co26  1  0.47034582  0.24289066  0.79232255  1
  Co  Co27  1  0.52965418  0.74289066  0.70767745  1
  Co  Co28  1  0.72859571  0.65350289  0.89722039  1
  Co  Co29  1  0.15897248  0.11897590  0.13234068  1
  Co  Co30  1  0.84102752  0.88102410  0.86765932  1
  Co  Co31  1  0.27140429  0.34649711  0.10277961  1
  Co  Co32  1  0.47034582  0.25710934  0.29232255  1
  Co  Co33  1  0.52965418  0.75710934  0.20767745  1
  Co  Co34  1  0.72859571  0.84649711  0.39722039  1
  Co  Co35  1  0.84102752  0.61897590  0.36765932  1
  O  O36  1  0.07779057  0.91006672  0.85073992  1
  O  O37  1  0.09245586  0.06113676  0.61117148  1
  O  O38  1  0.29950201  0.19029336  0.83952665  1
  O  O39  1  0.10644789  0.25892720  0.57158473  1
  O  O40  1  0.33633454  0.35482805  0.74037558  1
  O  O41  1  0.07779057  0.58993328  0.35073992  1
  O  O42  1  0.26815676  0.77462669  0.66225045  1
  O  O43  1  0.28761110  0.45319892  0.57777452  1
  O  O44  1  0.58998915  0.63645714  0.96836146  1
  O  O45  1  0.47033134  0.15971053  0.70136393  1
  O  O46  1  0.52966866  0.65971053  0.79863607  1
  O  O47  1  0.41001085  0.13645714  0.53163854  1
  O  O48  1  0.71238890  0.95319892  0.92222548  1
  O  O49  1  0.09245586  0.43886324  0.11117148  1
  O  O50  1  0.29950201  0.30970664  0.33952665  1
  O  O51  1  0.73184324  0.27462669  0.83774955  1
  O  O52  1  0.10644789  0.24107280  0.07158473  1
  O  O53  1  0.66366546  0.85482805  0.75962442  1
  O  O54  1  0.33633454  0.14517195  0.24037558  1
  O  O55  1  0.89355211  0.75892720  0.92841527  1
  O  O56  1  0.26815676  0.72537331  0.16225045  1
  O  O57  1  0.70049799  0.69029336  0.66047335  1
  O  O58  1  0.90754414  0.56113676  0.88882852  1
  O  O59  1  0.28761110  0.04680108  0.07777452  1
  O  O60  1  0.58998915  0.86354286  0.46836146  1
  O  O61  1  0.47033134  0.34028947  0.20136393  1
  O  O62  1  0.52966866  0.84028947  0.29863607  1
  O  O63  1  0.41001085  0.36354286  0.03163854  1
  O  O64  1  0.71238890  0.54680108  0.42222548  1
  O  O65  1  0.73184324  0.22537331  0.33774955  1
  O  O66  1  0.92220943  0.41006672  0.64926008  1
  O  O67  1  0.66366546  0.64517195  0.25962442  1
  O  O68  1  0.89355211  0.74107280  0.42841527  1
  O  O69  1  0.70049799  0.80970664  0.16047335  1
  O  O70  1  0.90754414  0.93886324  0.38882852  1
  O  O71  1  0.92220943  0.08993328  0.14926008  1
