# generated using pymatgen
data_LiMnO2
_symmetry_space_group_name_H-M   'P 1'
_cell_length_a   5.94467922
_cell_length_b   6.00847256
_cell_length_c   14.60724669
_cell_angle_alpha   91.02254114
_cell_angle_beta   89.90918553
_cell_angle_gamma   60.18417382
_symmetry_Int_Tables_number   1
_chemical_formula_structural   LiMnO2
_chemical_formula_sum   'Li12 Mn12 O24'
_cell_volume   452.57835006
_cell_formula_units_Z   12
loop_
 _symmetry_equiv_pos_site_id
 _symmetry_equiv_pos_as_xyz
  1  'x, y, z'
loop_
 _atom_site_type_symbol
 _atom_site_label
 _atom_site_symmetry_multiplicity
 _atom_site_fract_x
 _atom_site_fract_y
 _atom_site_fract_z
 _atom_site_occupancy
  Li  Li0  1  0.85833068  0.83237174  0.17215795  1
  Li  Li1  1  0.83688815  0.33942073  0.16612294  1
  Li  Li2  1  0.49831157  0.99417464  0.50076883  1
  Li  Li3  1  0.82857716  0.33201692  0.66633639  1
  Li  Li4  1  0.34823822  0.85099842  0.15886699  1
  Li  Li5  1  0.49302550  0.48416841  0.50087749  1
  Li  Li6  1  0.65196468  0.17958594  0.83090916  1
  Li  Li7  1  0.16884311  0.66576216  0.33376074  1
  Li  Li8  1  0.50004840  0.00782372  0.99830231  1
  Li  Li9  1  0.16155288  0.67174136  0.83168424  1
  Li  Li10  1  0.99231542  0.48341884  0.50884645  1
  Li  Li11  1  0.14758776  0.18061561  0.82461464  1
  Mn  Mn12  1  0.66623408  0.66754246  0.33339250  1
  Mn  Mn13  1  0.65951235  0.67737153  0.83175332  1
  Mn  Mn14  1  0.99835282  0.00601459  0.99867168  1
  Mn  Mn15  1  0.33742680  0.33864559  0.16644536  1
  Mn  Mn16  1  0.00084378  0.98994283  0.50038002  1
  Mn  Mn17  1  0.33149529  0.33195790  0.66647866  1
  Mn  Mn18  1  0.83102955  0.83248586  0.66660671  1
  Mn  Mn19  1  0.49916419  0.50695463  0.99962769  1
  Mn  Mn20  1  0.33094797  0.83169974  0.66557369  1
  Mn  Mn21  1  0.16661091  0.16755190  0.33261536  1
  Mn  Mn22  1  0.99926486  0.50593297  0.99978754  1
  Mn  Mn23  1  0.66769061  0.16678313  0.33275791  1
  O  O24  1  0.00850651  0.97796776  0.73842406  1
  O  O25  1  0.82285208  0.86451748  0.41034303  1
  O  O26  1  0.83735498  0.80920295  0.91981921  1
  O  O27  1  0.98293856  0.51914003  0.74814715  1
  O  O28  1  0.67543073  0.65010888  0.07199147  1
  O  O29  1  0.98814539  0.02466718  0.25996192  1
  O  O30  1  0.80151868  0.33690005  0.41339865  1
  O  O31  1  0.48291863  0.02731233  0.75379341  1
  O  O32  1  0.80521878  0.33563252  0.91874276  1
  O  O33  1  0.65559860  0.68681007  0.59404075  1
  O  O34  1  0.65003896  0.20301984  0.07734395  1
  O  O35  1  0.51274813  0.46965426  0.25464486  1
  O  O36  1  0.31238506  0.86058444  0.41132502  1
  O  O37  1  0.34903626  0.81042930  0.92229756  1
  O  O38  1  0.67901478  0.14225413  0.58555305  1
  O  O39  1  0.49176797  0.52778009  0.74784308  1
  O  O40  1  0.19292280  0.67956281  0.08171728  1
  O  O41  1  0.53404853  0.99587893  0.25054295  1
  O  O42  1  0.34758982  0.30801307  0.40334677  1
  O  O43  1  0.32288514  0.36451966  0.92938885  1
  O  O44  1  0.17506574  0.63685868  0.57894681  1
  O  O45  1  0.16418440  0.19891305  0.08087801  1
  O  O46  1  0.02071626  0.47789848  0.25245207  1
  O  O47  1  0.16686347  0.14017038  0.58352275  1
