# generated using pymatgen
data_Ba8Nb7O24
_symmetry_space_group_name_H-M   'P 1'
_cell_length_a   5.93496147
_cell_length_b   5.93495626
_cell_length_c   19.23357270
_cell_angle_alpha   90.00067153
_cell_angle_beta   90.00005440
_cell_angle_gamma   119.99796496
_symmetry_Int_Tables_number   1
_chemical_formula_structural   Ba8Nb7O24
_chemical_formula_sum   'Ba8 Nb7 O24'
_cell_volume   586.72545038
_cell_formula_units_Z   1
loop_
 _symmetry_equiv_pos_site_id
 _symmetry_equiv_pos_as_xyz
  1  'x, y, z'
loop_
 _atom_site_type_symbol
 _atom_site_label
 _atom_site_symmetry_multiplicity
 _atom_site_fract_x
 _atom_site_fract_y
 _atom_site_fract_z
 _atom_site_occupancy
  Ba  Ba0  1  0.33334873  0.66668758  0.13220902  1
  Ba  Ba1  1  0.33333372  0.66667268  0.75525436  1
  Ba  Ba2  1  0.99998499  0.99999004  0.98564108  1
  Ba  Ba3  1  0.33335414  0.66670256  0.36598165  1
  Ba  Ba4  1  0.99998625  0.99997747  0.50431179  1
  Ba  Ba5  1  0.66679365  0.33359041  0.24915231  1
  Ba  Ba6  1  0.66664568  0.33334581  0.85457533  1
  Ba  Ba7  1  0.66665415  0.33331372  0.63248064  1
  Nb  Nb8  1  0.33331239  0.66666751  0.56339713  1
  Nb  Nb9  1  0.00002815  0.00005047  0.18270650  1
  Nb  Nb10  1  0.00003149  0.00002207  0.31816511  1
  Nb  Nb11  1  0.99998537  0.99999765  0.69734676  1
  Nb  Nb12  1  0.33332344  0.66665027  0.93366053  1
  Nb  Nb13  1  0.66667120  0.33333250  0.05946896  1
  Nb  Nb14  1  0.66666456  0.33333258  0.43892262  1
  O  O15  1  0.16119593  0.83885478  0.25041292  1
  O  O16  1  0.99510031  0.49752861  0.00760142  1
  O  O17  1  0.00133134  0.50066195  0.49880949  1
  O  O18  1  0.17000427  0.83001365  0.62053577  1
  O  O19  1  0.17646772  0.82350897  0.88326769  1
  O  O20  1  0.16997927  0.33999649  0.62054344  1
  O  O21  1  0.17647830  0.35292255  0.88326876  1
  O  O22  1  0.16120449  0.32240178  0.25041771  1
  O  O23  1  0.32716622  0.16362361  0.74127862  1
  O  O24  1  0.66000018  0.82999957  0.62054134  1
  O  O25  1  0.64705989  0.82351561  0.88327195  1
  O  O26  1  0.50245606  0.49752589  0.00760268  1
  O  O27  1  0.49932661  0.50065893  0.49881207  1
  O  O28  1  0.33962946  0.16982281  0.12697215  1
  O  O29  1  0.33859295  0.16929389  0.37686600  1
  O  O30  1  0.67766953  0.83875784  0.25041457  1
  O  O31  1  0.83070746  0.66141954  0.37686235  1
  O  O32  1  0.50244901  0.00488590  0.00760667  1
  O  O33  1  0.49933711  0.99866306  0.49880890  1
  O  O34  1  0.83022373  0.66041267  0.12696635  1
  O  O35  1  0.83642329  0.67281469  0.74127680  1
  O  O36  1  0.83020488  0.16981503  0.12697605  1
  O  O37  1  0.83070696  0.16931225  0.37685895  1
  O  O38  1  0.83637013  0.16355462  0.74128157  1
