# generated using pymatgen
data_Mn6OF11
_symmetry_space_group_name_H-M   'P 1'
_cell_length_a   4.91077514
_cell_length_b   4.91077514
_cell_length_c   9.97718613
_cell_angle_alpha   90.00000000
_cell_angle_beta   90.00000000
_cell_angle_gamma   88.59546068
_symmetry_Int_Tables_number   1
_chemical_formula_structural   Mn6OF11
_chemical_formula_sum   'Mn6 O1 F11'
_cell_volume   240.53466222
_cell_formula_units_Z   1
loop_
 _symmetry_equiv_pos_site_id
 _symmetry_equiv_pos_as_xyz
  1  'x, y, z'
loop_
 _atom_site_type_symbol
 _atom_site_label
 _atom_site_symmetry_multiplicity
 _atom_site_fract_x
 _atom_site_fract_y
 _atom_site_fract_z
 _atom_site_occupancy
  Mn  Mn0  1  0.01119806  0.98880194  0.01035712  1
  Mn  Mn1  1  0.01119806  0.98880194  0.32297588  1
  Mn  Mn2  1  0.99980149  0.00019851  0.66666700  1
  Mn  Mn3  1  0.50407519  0.49592481  0.83528095  1
  Mn  Mn4  1  0.47728931  0.52271069  0.16666700  1
  Mn  Mn5  1  0.50407519  0.49592481  0.49805205  1
  O  O6  1  0.20163129  0.79836871  0.16666700  1
  F  F7  1  0.19685049  0.80314951  0.49933189  1
  F  F8  1  0.19685049  0.80314951  0.83400111  1
  F  F9  1  0.30214029  0.31042526  0.00382896  1
  F  F10  1  0.30214029  0.31042526  0.32950504  1
  F  F11  1  0.30879383  0.30201713  0.66666700  1
  F  F12  1  0.68957474  0.69785971  0.00382896  1
  F  F13  1  0.68957474  0.69785971  0.32950504  1
  F  F14  1  0.69798287  0.69120617  0.66666700  1
  F  F15  1  0.78251145  0.21748855  0.16666700  1
  F  F16  1  0.81215712  0.18784288  0.49189659  1
  F  F17  1  0.81215712  0.18784288  0.84143641  1
