# generated using pymatgen
data_Na6V2P(CO4)4
_symmetry_space_group_name_H-M   'P 1'
_cell_length_a   9.96705020
_cell_length_b   9.96704965
_cell_length_c   9.96704974
_cell_angle_alpha   59.99999934
_cell_angle_beta   60.00000178
_cell_angle_gamma   60.00000150
_symmetry_Int_Tables_number   1
_chemical_formula_structural   Na6V2P(CO4)4
_chemical_formula_sum   'Na12 V4 P2 C8 O32'
_cell_volume   700.14002156
_cell_formula_units_Z   2
loop_
 _symmetry_equiv_pos_site_id
 _symmetry_equiv_pos_as_xyz
  1  'x, y, z'
loop_
 _atom_site_type_symbol
 _atom_site_label
 _atom_site_symmetry_multiplicity
 _atom_site_fract_x
 _atom_site_fract_y
 _atom_site_fract_z
 _atom_site_occupancy
  Na  Na0  1  0.16925229  0.08074771  0.08074771  1
  Na  Na1  1  0.16925229  0.66925229  0.08074771  1
  Na  Na2  1  0.16925229  0.08074771  0.66925229  1
  Na  Na3  1  0.41925229  0.33074771  0.33074771  1
  Na  Na4  1  0.58074771  0.08074771  0.66925229  1
  Na  Na5  1  0.58074771  0.66925229  0.08074771  1
  Na  Na6  1  0.41925229  0.33074771  0.91925229  1
  Na  Na7  1  0.41925229  0.91925229  0.33074771  1
  Na  Na8  1  0.58074771  0.66925229  0.66925229  1
  Na  Na9  1  0.83074771  0.33074771  0.91925229  1
  Na  Na10  1  0.83074771  0.91925229  0.33074771  1
  Na  Na11  1  0.83074771  0.91925229  0.91925229  1
  V  V12  1  0.00000000  0.00000000  0.50000000  1
  V  V13  1  0.00000000  0.50000000  0.00000000  1
  V  V14  1  0.00000000  0.50000000  0.50000000  1
  V  V15  1  0.50000000  0.50000000  0.50000000  1
  P  P16  1  0.62500000  0.12500000  0.12500000  1
  P  P17  1  0.37500000  0.87500000  0.87500000  1
  C  C18  1  0.14683244  0.28438952  0.28438952  1
  C  C19  1  0.21561048  0.35316756  0.71561048  1
  C  C20  1  0.21561048  0.71561048  0.35316756  1
  C  C21  1  0.21561048  0.71561048  0.71561048  1
  C  C22  1  0.78438952  0.28438952  0.28438952  1
  C  C23  1  0.78438952  0.64683244  0.28438952  1
  C  C24  1  0.78438952  0.28438952  0.64683244  1
  C  C25  1  0.85316756  0.71561048  0.71561048  1
  O  O26  1  0.14790080  0.30785653  0.14354195  1
  O  O27  1  0.14790080  0.14354195  0.40070071  1
  O  O28  1  0.14790080  0.40070071  0.30785653  1
  O  O29  1  0.09929929  0.69214347  0.35209920  1
  O  O30  1  0.56099179  0.06099179  0.06099179  1
  O  O31  1  0.19214347  0.35209920  0.59929929  1
  O  O32  1  0.09929929  0.35209920  0.85645805  1
  O  O33  1  0.56099179  0.31702564  0.06099179  1
  O  O34  1  0.56099179  0.06099179  0.31702564  1
  O  O35  1  0.19214347  0.85645805  0.35209920  1
  O  O36  1  0.35645805  0.59929929  0.35209920  1
  O  O37  1  0.81702564  0.06099179  0.06099179  1
  O  O38  1  0.09929929  0.85645805  0.69214347  1
  O  O39  1  0.35645805  0.35209920  0.69214347  1
  O  O40  1  0.19214347  0.59929929  0.85645805  1
  O  O41  1  0.64354195  0.30785653  0.40070071  1
  O  O42  1  0.35645805  0.69214347  0.59929929  1
  O  O43  1  0.80785653  0.40070071  0.14354195  1
  O  O44  1  0.64354195  0.64790080  0.30785653  1
  O  O45  1  0.90070071  0.14354195  0.30785653  1
  O  O46  1  0.18297436  0.93900821  0.93900821  1
  O  O47  1  0.64354195  0.40070071  0.64790080  1
  O  O48  1  0.80785653  0.14354195  0.64790080  1
  O  O49  1  0.43900821  0.93900821  0.68297436  1
  O  O50  1  0.43900821  0.68297436  0.93900821  1
  O  O51  1  0.90070071  0.64790080  0.14354195  1
  O  O52  1  0.80785653  0.64790080  0.40070071  1
  O  O53  1  0.43900821  0.93900821  0.93900821  1
  O  O54  1  0.90070071  0.30785653  0.64790080  1
  O  O55  1  0.85209920  0.59929929  0.69214347  1
  O  O56  1  0.85209920  0.85645805  0.59929929  1
  O  O57  1  0.85209920  0.69214347  0.85645805  1
