# generated using pymatgen
data_Al2(BiO3)3
_symmetry_space_group_name_H-M   'P 1'
_cell_length_a   5.75529702
_cell_length_b   17.79884833
_cell_length_c   5.75226700
_cell_angle_alpha   56.21914898
_cell_angle_beta   54.43799718
_cell_angle_gamma   56.21632611
_symmetry_Int_Tables_number   1
_chemical_formula_structural   Al2(BiO3)3
_chemical_formula_sum   'Al4 Bi6 O18'
_cell_volume   374.08233514
_cell_formula_units_Z   2
loop_
 _symmetry_equiv_pos_site_id
 _symmetry_equiv_pos_as_xyz
  1  'x, y, z'
loop_
 _atom_site_type_symbol
 _atom_site_label
 _atom_site_symmetry_multiplicity
 _atom_site_fract_x
 _atom_site_fract_y
 _atom_site_fract_z
 _atom_site_occupancy
  Al  Al0  1  0.72785883  0.24317164  0.70715762  1
  Al  Al1  1  0.73312212  0.89237907  0.72735884  1
  Al  Al2  1  0.22771466  0.39238045  0.23210722  1
  Al  Al3  1  0.20711854  0.74308526  0.22846935  1
  Bi  Bi4  1  0.99915573  0.34914136  0.98992750  1
  Bi  Bi5  1  0.01330673  0.65299657  0.04373334  1
  Bi  Bi6  1  0.00608913  0.01375545  0.01233209  1
  Bi  Bi7  1  0.54338424  0.15291526  0.51384123  1
  Bi  Bi8  1  0.51286973  0.51370835  0.50578533  1
  Bi  Bi9  1  0.49008088  0.84916815  0.49944081  1
  O  O10  1  0.43530573  0.28780894  0.04822404  1
  O  O11  1  0.39319663  0.63284643  0.10652802  1
  O  O12  1  0.47433693  0.93582685  0.05956597  1
  O  O13  1  0.89619175  0.22407604  0.33232688  1
  O  O14  1  0.98133410  0.49929508  0.35834013  1
  O  O15  1  0.94706482  0.85469225  0.35960032  1
  O  O16  1  0.05159791  0.15467372  0.83336249  1
  O  O17  1  0.09233090  0.46805411  0.89210227  1
  O  O18  1  0.08405977  0.81409756  0.82938399  1
  O  O19  1  0.60561654  0.13305000  0.89377943  1
  O  O20  1  0.55965664  0.43584917  0.97411404  1
  O  O21  1  0.54802099  0.78771030  0.93595035  1
  O  O22  1  0.32877440  0.31404276  0.58374131  1
  O  O23  1  0.33381882  0.65452592  0.55208449  1
  O  O24  1  0.39350720  0.96804923  0.59188697  1
  O  O25  1  0.85867270  0.35487851  0.44713749  1
  O  O26  1  0.83227627  0.72402155  0.39693131  1
  O  O27  1  0.85975732  0.99920702  0.48100315  1
