# generated using pymatgen
data_Fe2Sb(PO4)3
_symmetry_space_group_name_H-M   'P 1'
_cell_length_a   8.85185889
_cell_length_b   8.85185905
_cell_length_c   8.85185944
_cell_angle_alpha   58.79418554
_cell_angle_beta   58.79418946
_cell_angle_gamma   58.79419263
_symmetry_Int_Tables_number   1
_chemical_formula_structural   Fe2Sb(PO4)3
_chemical_formula_sum   'Fe4 Sb2 P6 O24'
_cell_volume   476.93715967
_cell_formula_units_Z   2
loop_
 _symmetry_equiv_pos_site_id
 _symmetry_equiv_pos_as_xyz
  1  'x, y, z'
loop_
 _atom_site_type_symbol
 _atom_site_label
 _atom_site_symmetry_multiplicity
 _atom_site_fract_x
 _atom_site_fract_y
 _atom_site_fract_z
 _atom_site_occupancy
  Fe  Fe0  1  0.14915483  0.14915483  0.14915483  1
  Fe  Fe1  1  0.35084517  0.35084517  0.35084517  1
  Fe  Fe2  1  0.64915483  0.64915483  0.64915483  1
  Fe  Fe3  1  0.85084517  0.85084517  0.85084517  1
  Sb  Sb4  1  0.00000000  0.00000000  0.00000000  1
  Sb  Sb5  1  0.50000000  0.50000000  0.50000000  1
  P  P6  1  0.04073940  0.75000000  0.45926060  1
  P  P7  1  0.45926060  0.04073940  0.75000000  1
  P  P8  1  0.75000000  0.45926060  0.04073940  1
  P  P9  1  0.25000000  0.54073940  0.95926060  1
  P  P10  1  0.54073940  0.95926060  0.25000000  1
  P  P11  1  0.95926060  0.25000000  0.54073940  1
  O  O12  1  0.11622671  0.30272208  0.50706161  1
  O  O13  1  0.30272208  0.50706161  0.11622671  1
  O  O14  1  0.05999385  0.91707702  0.26677613  1
  O  O15  1  0.50706161  0.11622671  0.30272208  1
  O  O16  1  0.00706161  0.80272208  0.61622671  1
  O  O17  1  0.23322387  0.58292298  0.44000615  1
  O  O18  1  0.26677613  0.05999385  0.91707702  1
  O  O19  1  0.44000615  0.23322387  0.58292298  1
  O  O20  1  0.19727792  0.38377329  0.99293839  1
  O  O21  1  0.58292298  0.44000615  0.23322387  1
  O  O22  1  0.08292298  0.73322387  0.94000615  1
  O  O23  1  0.38377329  0.99293839  0.19727792  1
  O  O24  1  0.61622671  0.00706161  0.80272208  1
  O  O25  1  0.91707702  0.26677613  0.05999385  1
  O  O26  1  0.41707702  0.55999385  0.76677613  1
  O  O27  1  0.80272208  0.61622671  0.00706161  1
  O  O28  1  0.55999385  0.76677613  0.41707702  1
  O  O29  1  0.73322387  0.94000615  0.08292298  1
  O  O30  1  0.76677613  0.41707702  0.55999385  1
  O  O31  1  0.99293839  0.19727792  0.38377329  1
  O  O32  1  0.49293839  0.88377329  0.69727792  1
  O  O33  1  0.94000615  0.08292298  0.73322387  1
  O  O34  1  0.69727792  0.49293839  0.88377329  1
  O  O35  1  0.88377329  0.69727792  0.49293839  1
