# generated using pymatgen
data_Ti3N2O3
_symmetry_space_group_name_H-M   'P 1'
_cell_length_a   3.81654943
_cell_length_b   5.29433897
_cell_length_c   9.97358425
_cell_angle_alpha   90.46924960
_cell_angle_beta   90.00000000
_cell_angle_gamma   111.12701934
_symmetry_Int_Tables_number   1
_chemical_formula_structural   Ti3N2O3
_chemical_formula_sum   'Ti6 N4 O6'
_cell_volume   187.97413188
_cell_formula_units_Z   2
loop_
 _symmetry_equiv_pos_site_id
 _symmetry_equiv_pos_as_xyz
  1  'x, y, z'
loop_
 _atom_site_type_symbol
 _atom_site_label
 _atom_site_symmetry_multiplicity
 _atom_site_fract_x
 _atom_site_fract_y
 _atom_site_fract_z
 _atom_site_occupancy
  Ti  Ti0  1  0.19170036  0.38339973  0.24868847  1
  Ti  Ti1  1  0.14423901  0.28847903  0.94706310  1
  Ti  Ti2  1  0.13469578  0.26939155  0.55304610  1
  Ti  Ti3  1  0.79753262  0.59506423  0.74718929  1
  Ti  Ti4  1  0.85605110  0.71210220  0.04810776  1
  Ti  Ti5  1  0.86467440  0.72934879  0.44321725  1
  N  N6  1  0.30601007  0.61202113  0.07688492  1
  N  N7  1  0.04582376  0.09164852  0.38174530  1
  N  N8  1  0.69473032  0.38946064  0.57525283  1
  N  N9  1  0.69251756  0.38503513  0.92205508  1
  O  O10  1  0.31522118  0.63044336  0.42431737  1
  O  O11  1  0.24730200  0.49460300  0.75291106  1
  O  O12  1  0.04582713  0.09165426  0.11764342  1
  O  O13  1  0.75416642  0.50833285  0.25805099  1
  O  O14  1  0.95413684  0.90827369  0.88276005  1
  O  O15  1  0.95537045  0.91074191  0.62106801  1
