# generated using pymatgen
data_Li5Mn6(BO3)6
_symmetry_space_group_name_H-M   'P 1'
_cell_length_a   5.94256933
_cell_length_b   8.29135316
_cell_length_c   9.06754331
_cell_angle_alpha   67.80994095
_cell_angle_beta   102.75710549
_cell_angle_gamma   77.54145150
_symmetry_Int_Tables_number   1
_chemical_formula_structural   Li5Mn6(BO3)6
_chemical_formula_sum   'Li5 Mn6 B6 O18'
_cell_volume   380.69683301
_cell_formula_units_Z   1
loop_
 _symmetry_equiv_pos_site_id
 _symmetry_equiv_pos_as_xyz
  1  'x, y, z'
loop_
 _atom_site_type_symbol
 _atom_site_label
 _atom_site_symmetry_multiplicity
 _atom_site_fract_x
 _atom_site_fract_y
 _atom_site_fract_z
 _atom_site_occupancy
  Li  Li0  1  0.92971045  0.38898112  0.77270910  1
  Li  Li1  1  0.59225651  0.72832095  0.10745689  1
  Li  Li2  1  0.40575196  0.27308523  0.89655447  1
  Li  Li3  1  0.07825973  0.61309029  0.22869873  1
  Li  Li4  1  0.28342189  0.05825038  0.43713346  1
  Mn  Mn5  1  0.78110699  0.97793966  0.22983719  1
  Mn  Mn6  1  0.87791436  0.36931109  0.11012584  1
  Mn  Mn7  1  0.55863964  0.68861888  0.46142433  1
  Mn  Mn8  1  0.47385371  0.28828521  0.55274163  1
  Mn  Mn9  1  0.10426672  0.65147018  0.86603041  1
  Mn  Mn10  1  0.21035015  0.03080779  0.78421010  1
  B  B11  1  0.90011842  0.36951577  0.44797258  1
  B  B12  1  0.77746217  0.96417485  0.89459348  1
  B  B13  1  0.54883934  0.70436389  0.77745727  1
  B  B14  1  0.43435085  0.30892476  0.20632529  1
  B  B15  1  0.21931069  0.03642417  0.12061592  1
  B  B16  1  0.11547274  0.61609444  0.55098694  1
  O  O17  1  0.84250800  0.85683530  0.06659874  1
  O  O18  1  0.88125780  0.74778022  0.45869599  1
  O  O19  1  0.92069445  0.92337738  0.80394264  1
  O  O20  1  0.82195852  0.48216193  0.27746096  1
  O  O21  1  0.76282466  0.40757499  0.54704220  1
  O  O22  1  0.76888450  0.55774306  0.85232485  1
  O  O23  1  0.43139415  0.88248495  0.20309644  1
  O  O24  1  0.57102813  0.26222311  0.11090951  1
  O  O25  1  0.45078827  0.80668688  0.60458980  1
  O  O26  1  0.51040598  0.19789541  0.37567210  1
  O  O27  1  0.42643698  0.74768715  0.87983927  1
  O  O28  1  0.55822519  0.11346273  0.80773664  1
  O  O29  1  0.21931314  0.46081984  0.12378834  1
  O  O30  1  0.26778400  0.58380273  0.45781372  1
  O  O31  1  0.18503371  0.51229788  0.72128120  1
  O  O32  1  0.08561206  0.08327430  0.21663511  1
  O  O33  1  0.12039916  0.22371497  0.53068335  1
  O  O34  1  0.14942699  0.14894352  0.94943652  1
