# generated using pymatgen
data_V6O7F5
_symmetry_space_group_name_H-M   'P 1'
_cell_length_a   4.72211971
_cell_length_b   7.76713409
_cell_length_c   5.63567792
_cell_angle_alpha   93.97806557
_cell_angle_beta   92.46034653
_cell_angle_gamma   88.33059845
_symmetry_Int_Tables_number   1
_chemical_formula_structural   V6O7F5
_chemical_formula_sum   'V6 O7 F5'
_cell_volume   205.94261805
_cell_formula_units_Z   1
loop_
 _symmetry_equiv_pos_site_id
 _symmetry_equiv_pos_as_xyz
  1  'x, y, z'
loop_
 _atom_site_type_symbol
 _atom_site_label
 _atom_site_symmetry_multiplicity
 _atom_site_fract_x
 _atom_site_fract_y
 _atom_site_fract_z
 _atom_site_occupancy
  V  V0  1  0.54897711  0.66380592  0.14547323  1
  V  V1  1  0.52357440  0.01072390  0.49624455  1
  V  V2  1  0.48951546  0.33381993  0.83484485  1
  V  V3  1  0.99613528  0.66867249  0.67178314  1
  V  V4  1  0.99409743  0.32099104  0.34040855  1
  V  V5  1  0.95918651  0.99967328  0.00201130  1
  O  O6  1  0.80464901  0.09925542  0.30050484  1
  O  O7  1  0.79279610  0.76390954  0.95932736  1
  O  O8  1  0.69700567  0.10858813  0.80538895  1
  O  O9  1  0.68857069  0.76103021  0.45623179  1
  O  O10  1  0.70520638  0.43838546  0.13355455  1
  O  O11  1  0.30227714  0.56854992  0.87708225  1
  O  O12  1  0.30406829  0.23748740  0.53800858  1
  F  F13  1  0.80311086  0.43453542  0.63664998  1
  F  F14  1  0.30291995  0.89567541  0.19015066  1
  F  F15  1  0.19695194  0.22393244  0.04023254  1
  F  F16  1  0.19385298  0.90377290  0.70018768  1
  F  F17  1  0.19710580  0.56719021  0.37191620  1
