# generated using pymatgen
data_Sr9La5Cl33
_symmetry_space_group_name_H-M   'P 1'
_cell_length_a   11.31749724
_cell_length_b   11.28138124
_cell_length_c   21.58775702
_cell_angle_alpha   99.91292610
_cell_angle_beta   80.17798068
_cell_angle_gamma   71.11970212
_symmetry_Int_Tables_number   1
_chemical_formula_structural   Sr9La5Cl33
_chemical_formula_sum   'Sr18 La10 Cl66'
_cell_volume   2492.16200062
_cell_formula_units_Z   2
loop_
 _symmetry_equiv_pos_site_id
 _symmetry_equiv_pos_as_xyz
  1  'x, y, z'
loop_
 _atom_site_type_symbol
 _atom_site_label
 _atom_site_symmetry_multiplicity
 _atom_site_fract_x
 _atom_site_fract_y
 _atom_site_fract_z
 _atom_site_occupancy
  Sr  Sr0  1  0.75103678  0.92494623  0.93093293  1
  Sr  Sr1  1  0.91166943  0.31948349  0.96989576  1
  Sr  Sr2  1  0.97756644  0.47229893  0.19339980  1
  Sr  Sr3  1  0.73068637  0.87004208  0.33839440  1
  Sr  Sr4  1  0.86798067  0.24459578  0.37810995  1
  Sr  Sr5  1  0.59699996  0.68134857  0.53801876  1
  Sr  Sr6  1  0.75538840  0.06884390  0.56202164  1
  Sr  Sr7  1  0.64557480  0.76039707  0.12083167  1
  Sr  Sr8  1  0.78230617  0.13109573  0.15794941  1
  Sr  Sr9  1  0.21769383  0.86890427  0.84205059  1
  Sr  Sr10  1  0.35442520  0.23960293  0.87916833  1
  Sr  Sr11  1  0.24461160  0.93115610  0.43797836  1
  Sr  Sr12  1  0.40300004  0.31865143  0.46198124  1
  Sr  Sr13  1  0.13201933  0.75540422  0.62189005  1
  Sr  Sr14  1  0.26931363  0.12995792  0.66160560  1
  Sr  Sr15  1  0.02243356  0.52770107  0.80660020  1
  Sr  Sr16  1  0.08833057  0.68051651  0.03010424  1
  Sr  Sr17  1  0.24896322  0.07505377  0.06906707  1
  La  La18  1  0.95691493  0.38066028  0.58601913  1
  La  La19  1  0.85910013  0.17721040  0.76612414  1
  La  La20  1  0.64806772  0.85666303  0.73340655  1
  La  La21  1  0.54297712  0.62738733  0.92682961  1
  La  La22  1  0.45952605  0.46254369  0.68658045  1
  La  La23  1  0.54047395  0.53745631  0.31341955  1
  La  La24  1  0.45702288  0.37261267  0.07317039  1
  La  La25  1  0.35193228  0.14333697  0.26659345  1
  La  La26  1  0.14089987  0.82278960  0.23387586  1
  La  La27  1  0.04308507  0.61933972  0.41398087  1
  Cl  Cl28  1  0.86012747  0.77237263  0.78744237  1
  Cl  Cl29  1  0.85106486  0.94447261  0.67212569  1
  Cl  Cl30  1  0.79449941  0.62530868  0.91811838  1
  Cl  Cl31  1  0.95396331  0.73751060  0.19373039  1
  Cl  Cl32  1  0.99150867  0.15644708  0.63607633  1
  Cl  Cl33  1  0.92790202  0.05946251  0.87636212  1
  Cl  Cl34  1  0.81297294  0.65517319  0.62407779  1
  Cl  Cl35  1  0.81601011  0.44476718  0.73896405  1
  Cl  Cl36  1  0.77353272  0.81277716  0.47593032  1
  Cl  Cl37  1  0.88012176  0.58824687  0.33529008  1
  Cl  Cl38  1  0.87830650  0.47742727  0.47143687  1
  Cl  Cl39  1  0.95966822  0.15495396  0.48621739  1
  Cl  Cl40  1  0.70697456  0.35603383  0.88431538  1
  Cl  Cl41  1  0.81600984  0.88615108  0.06040066  1
  Cl  Cl42  1  0.54171406  0.82391017  0.85724398  1
  Cl  Cl43  1  0.89428609  0.55450289  0.07264399  1
  Cl  Cl44  1  0.56658472  0.94768812  0.62473781  1
  Cl  Cl45  1  0.96176633  0.24359643  0.09343362  1
  Cl  Cl46  1  0.69630765  0.39399607  0.58807525  1
  Cl  Cl47  1  0.62552404  0.97717004  0.22401022  1
  Cl  Cl48  1  0.79767384  0.34503191  0.26298971  1
  Cl  Cl49  1  0.68512838  0.65986280  0.23806601  1
  Cl  Cl50  1  0.87649989  0.03585775  0.27562092  1
  Cl  Cl51  1  0.64334320  0.24383045  0.70734744  1
  Cl  Cl52  1  0.49768705  0.70614854  0.68977931  1
  Cl  Cl53  1  0.64302657  0.07986900  0.82500599  1
  Cl  Cl54  1  0.53408079  0.75677280  0.40868876  1
  Cl  Cl55  1  0.43319965  0.57524435  0.82100371  1
  Cl  Cl56  1  0.60907449  0.44763827  0.42624298  1
  Cl  Cl57  1  0.27961747  0.80443442  0.97050913  1
  Cl  Cl58  1  0.38576259  0.46905756  0.96195345  1
  Cl  Cl59  1  0.68183281  0.12327258  0.43687246  1
  Cl  Cl60  1  0.46928336  0.14470982  0.98108379  1
  Cl  Cl61  1  0.53071664  0.85529018  0.01891621  1
  Cl  Cl62  1  0.31816719  0.87672742  0.56312754  1
  Cl  Cl63  1  0.61423741  0.53094244  0.03804655  1
  Cl  Cl64  1  0.72038253  0.19556558  0.02949087  1
  Cl  Cl65  1  0.39092551  0.55236173  0.57375702  1
  Cl  Cl66  1  0.56680035  0.42475565  0.17899629  1
  Cl  Cl67  1  0.46591921  0.24322720  0.59131124  1
  Cl  Cl68  1  0.35697343  0.92013100  0.17499401  1
  Cl  Cl69  1  0.50231295  0.29385146  0.31022069  1
  Cl  Cl70  1  0.35665680  0.75616955  0.29265256  1
  Cl  Cl71  1  0.12350011  0.96414225  0.72437908  1
  Cl  Cl72  1  0.31487162  0.34013720  0.76193399  1
  Cl  Cl73  1  0.20232616  0.65496809  0.73701029  1
  Cl  Cl74  1  0.37447596  0.02282996  0.77598978  1
  Cl  Cl75  1  0.30369235  0.60600393  0.41192475  1
  Cl  Cl76  1  0.03823367  0.75640357  0.90656638  1
  Cl  Cl77  1  0.43341528  0.05231188  0.37526219  1
  Cl  Cl78  1  0.10571391  0.44549711  0.92735601  1
  Cl  Cl79  1  0.45828594  0.17608983  0.14275602  1
  Cl  Cl80  1  0.18399016  0.11384892  0.93959934  1
  Cl  Cl81  1  0.29302544  0.64396617  0.11568462  1
  Cl  Cl82  1  0.04033178  0.84504604  0.51378261  1
  Cl  Cl83  1  0.12169350  0.52257173  0.52856313  1
  Cl  Cl84  1  0.11987824  0.41175313  0.66470992  1
  Cl  Cl85  1  0.22646728  0.18722284  0.52406968  1
  Cl  Cl86  1  0.18398989  0.55523282  0.26103595  1
  Cl  Cl87  1  0.18702706  0.34482681  0.37592221  1
  Cl  Cl88  1  0.07209798  0.94053749  0.12363788  1
  Cl  Cl89  1  0.00849133  0.84355292  0.36392367  1
  Cl  Cl90  1  0.04603669  0.26248940  0.80626961  1
  Cl  Cl91  1  0.20550059  0.37469132  0.08188162  1
  Cl  Cl92  1  0.14893514  0.05552739  0.32787431  1
  Cl  Cl93  1  0.13987253  0.22762737  0.21255763  1
