# generated using pymatgen
data_CrAgO4
_symmetry_space_group_name_H-M   'P 1'
_cell_length_a   5.50753087
_cell_length_b   8.36936140
_cell_length_c   7.25197126
_cell_angle_alpha   90.00000000
_cell_angle_beta   93.51749889
_cell_angle_gamma   90.00000000
_symmetry_Int_Tables_number   1
_chemical_formula_structural   CrAgO4
_chemical_formula_sum   'Cr4 Ag4 O16'
_cell_volume   333.64636650
_cell_formula_units_Z   4
loop_
 _symmetry_equiv_pos_site_id
 _symmetry_equiv_pos_as_xyz
  1  'x, y, z'
loop_
 _atom_site_type_symbol
 _atom_site_label
 _atom_site_symmetry_multiplicity
 _atom_site_fract_x
 _atom_site_fract_y
 _atom_site_fract_z
 _atom_site_occupancy
  Cr  Cr0  1  0.23369323  0.68742358  0.84343968  1
  Cr  Cr1  1  0.26630677  0.18742358  0.65656032  1
  Cr  Cr2  1  0.73369323  0.81257642  0.34343968  1
  Cr  Cr3  1  0.76630677  0.31257642  0.15656032  1
  Ag  Ag4  1  0.25143960  0.52812078  0.33606612  1
  Ag  Ag5  1  0.24856040  0.02812078  0.16393388  1
  Ag  Ag6  1  0.75143960  0.97187922  0.83606612  1
  Ag  Ag7  1  0.74856040  0.47187922  0.66393388  1
  O  O8  1  0.01440307  0.77388098  0.28550239  1
  O  O9  1  0.07543668  0.60632747  0.65836477  1
  O  O10  1  0.09339128  0.86049691  0.90760977  1
  O  O11  1  0.25645651  0.05820035  0.48686054  1
  O  O12  1  0.24354349  0.55820035  0.01313946  1
  O  O13  1  0.40660872  0.36049691  0.59239023  1
  O  O14  1  0.42456332  0.10632747  0.84163523  1
  O  O15  1  0.51440307  0.72611902  0.78550239  1
  O  O16  1  0.48559693  0.27388098  0.21449761  1
  O  O17  1  0.57543668  0.89367253  0.15836477  1
  O  O18  1  0.59339128  0.63950309  0.40760977  1
  O  O19  1  0.75645651  0.44179965  0.98686054  1
  O  O20  1  0.74354349  0.94179965  0.51313946  1
  O  O21  1  0.90660872  0.13950309  0.09239023  1
  O  O22  1  0.92456332  0.39367253  0.34163523  1
  O  O23  1  0.98559693  0.22611902  0.71449761  1
