# generated using pymatgen
data_Na6Ni2As(CO4)4
_symmetry_space_group_name_H-M   'P 1'
_cell_length_a   9.88804576
_cell_length_b   9.88804628
_cell_length_c   9.88804576
_cell_angle_alpha   59.99999845
_cell_angle_beta   119.99999709
_cell_angle_gamma   90.00000032
_symmetry_Int_Tables_number   1
_chemical_formula_structural   Na6Ni2As(CO4)4
_chemical_formula_sum   'Na12 Ni4 As2 C8 O32'
_cell_volume   683.62264222
_cell_formula_units_Z   2
loop_
 _symmetry_equiv_pos_site_id
 _symmetry_equiv_pos_as_xyz
  1  'x, y, z'
loop_
 _atom_site_type_symbol
 _atom_site_label
 _atom_site_symmetry_multiplicity
 _atom_site_fract_x
 _atom_site_fract_y
 _atom_site_fract_z
 _atom_site_occupancy
  Na  Na0  1  0.09017117  0.65982883  0.18034234  1
  Na  Na1  1  0.09017117  0.09017117  0.75000000  1
  Na  Na2  1  0.34017117  0.34017117  0.25000000  1
  Na  Na3  1  0.65982883  0.09017117  0.31965766  1
  Na  Na4  1  0.90982883  0.34017117  0.25000000  1
  Na  Na5  1  0.34017117  0.90982883  0.25000000  1
  Na  Na6  1  0.65982883  0.09017117  0.75000000  1
  Na  Na7  1  0.09017117  0.65982883  0.75000000  1
  Na  Na8  1  0.34017117  0.90982883  0.68034234  1
  Na  Na9  1  0.90982883  0.34017117  0.81965766  1
  Na  Na10  1  0.90982883  0.90982883  0.25000000  1
  Na  Na11  1  0.65982883  0.65982883  0.75000000  1
  Ni  Ni12  1  0.50000000  0.00000000  0.00000000  1
  Ni  Ni13  1  0.50000000  0.50000000  0.00000000  1
  Ni  Ni14  1  0.00000000  0.50000000  0.50000000  1
  Ni  Ni15  1  0.50000000  0.50000000  0.50000000  1
  As  As16  1  0.12500000  0.12500000  0.25000000  1
  As  As17  1  0.87500000  0.87500000  0.75000000  1
  C  C18  1  0.28418607  0.28418607  0.56837215  1
  C  C19  1  0.35255822  0.71581393  0.06837215  1
  C  C20  1  0.71581393  0.71581393  0.06837215  1
  C  C21  1  0.28418607  0.28418607  0.93162785  1
  C  C22  1  0.71581393  0.35255822  0.43162785  1
  C  C23  1  0.28418607  0.64744178  0.56837215  1
  C  C24  1  0.64744178  0.28418607  0.93162785  1
  C  C25  1  0.71581393  0.71581393  0.43162785  1
  O  O26  1  0.05399325  0.05399325  0.10798649  1
  O  O27  1  0.05399325  0.05399325  0.39201351  1
  O  O28  1  0.05399325  0.33802026  0.10798649  1
  O  O29  1  0.39995167  0.14144572  0.05036800  1
  O  O30  1  0.33802026  0.05399325  0.39201351  1
  O  O31  1  0.14144572  0.39995167  0.44963200  1
  O  O32  1  0.65041633  0.30818628  0.05036800  1
  O  O33  1  0.30818628  0.14144572  0.70813795  1
  O  O34  1  0.34958367  0.60004833  0.20813795  1
  O  O35  1  0.60004833  0.34958367  0.29186205  1
  O  O36  1  0.14144572  0.30818628  0.79186205  1
  O  O37  1  0.39995167  0.30818628  0.54139739  1
  O  O38  1  0.34958367  0.85855428  0.04139739  1
  O  O39  1  0.69181372  0.60004833  0.04139739  1
  O  O40  1  0.14144572  0.65041633  0.54139739  1
  O  O41  1  0.30818628  0.65041633  0.44963200  1
  O  O42  1  0.69181372  0.34958367  0.55036800  1
  O  O43  1  0.30818628  0.39995167  0.95860261  1
  O  O44  1  0.85855428  0.34958367  0.45860261  1
  O  O45  1  0.65041633  0.14144572  0.95860261  1
  O  O46  1  0.60004833  0.69181372  0.45860261  1
  O  O47  1  0.85855428  0.69181372  0.20813795  1
  O  O48  1  0.39995167  0.65041633  0.70813795  1
  O  O49  1  0.65041633  0.39995167  0.79186205  1
  O  O50  1  0.69181372  0.85855428  0.29186205  1
  O  O51  1  0.34958367  0.69181372  0.94963200  1
  O  O52  1  0.85855428  0.60004833  0.55036800  1
  O  O53  1  0.66197974  0.94600675  0.60798649  1
  O  O54  1  0.60004833  0.85855428  0.94963200  1
  O  O55  1  0.94600675  0.66197974  0.89201351  1
  O  O56  1  0.94600675  0.94600675  0.60798649  1
  O  O57  1  0.94600675  0.94600675  0.89201351  1
