# generated using pymatgen
data_V3(O2F)2
_symmetry_space_group_name_H-M   'P 1'
_cell_length_a   7.37805858
_cell_length_b   5.59326423
_cell_length_c   5.59543172
_cell_angle_alpha   70.86346311
_cell_angle_beta   71.54890816
_cell_angle_gamma   71.65473712
_symmetry_Int_Tables_number   1
_chemical_formula_structural   V3(O2F)2
_chemical_formula_sum   'V6 O8 F4'
_cell_volume   201.11813011
_cell_formula_units_Z   2
loop_
 _symmetry_equiv_pos_site_id
 _symmetry_equiv_pos_as_xyz
  1  'x, y, z'
loop_
 _atom_site_type_symbol
 _atom_site_label
 _atom_site_symmetry_multiplicity
 _atom_site_fract_x
 _atom_site_fract_y
 _atom_site_fract_z
 _atom_site_occupancy
  V  V0  1  0.84101364  0.67848011  0.70086614  1
  V  V1  1  0.67235382  0.32809223  0.34281190  1
  V  V2  1  0.32084579  0.64656849  0.64968987  1
  V  V3  1  0.16882500  0.31957284  0.33028699  1
  V  V4  1  0.49561395  0.99946938  0.00172952  1
  V  V5  1  0.00027281  0.03031790  0.98370663  1
  O  O6  1  0.66978034  0.02290138  0.64668701  1
  O  O7  1  0.33427482  0.36747509  0.95406528  1
  O  O8  1  0.96524784  0.22987305  0.22927837  1
  O  O9  1  0.03586205  0.76948347  0.76862993  1
  O  O10  1  0.37304979  0.42764517  0.43128522  1
  O  O11  1  0.99153692  0.32158239  0.68737815  1
  O  O12  1  0.67189123  0.63843299  0.03359931  1
  O  O13  1  0.33505078  0.94452947  0.37211217  1
  F  F14  1  0.63278799  0.57149890  0.57473224  1
  F  F15  1  0.29923404  0.89384852  0.89016493  1
  F  F16  1  0.69900957  0.10358106  0.10287581  1
  F  F17  1  0.99335160  0.70664756  0.30010054  1
