# generated using pymatgen
data_Mn6OF11
_symmetry_space_group_name_H-M   'P 1'
_cell_length_a   4.96577071
_cell_length_b   5.88084877
_cell_length_c   16.21650184
_cell_angle_alpha   89.47645192
_cell_angle_beta   89.99503625
_cell_angle_gamma   91.30659498
_symmetry_Int_Tables_number   1
_chemical_formula_structural   Mn6OF11
_chemical_formula_sum   'Mn12 O2 F22'
_cell_volume   473.42671866
_cell_formula_units_Z   2
loop_
 _symmetry_equiv_pos_site_id
 _symmetry_equiv_pos_as_xyz
  1  'x, y, z'
loop_
 _atom_site_type_symbol
 _atom_site_label
 _atom_site_symmetry_multiplicity
 _atom_site_fract_x
 _atom_site_fract_y
 _atom_site_fract_z
 _atom_site_occupancy
  Mn  Mn0  1  0.01415619  0.17034812  0.40686074  1
  Mn  Mn1  1  0.01302532  0.85576558  0.24991527  1
  Mn  Mn2  1  0.01723302  0.18101946  0.08872760  1
  Mn  Mn3  1  0.99791939  0.16940513  0.75042715  1
  Mn  Mn4  1  0.00311294  0.83294952  0.58143238  1
  Mn  Mn5  1  0.99628817  0.82909915  0.92206943  1
  Mn  Mn6  1  0.50779010  0.32668751  0.58125073  1
  Mn  Mn7  1  0.50491998  0.32898364  0.91829434  1
  Mn  Mn8  1  0.46928797  0.33018841  0.24737959  1
  Mn  Mn9  1  0.49761914  0.64660398  0.08922061  1
  Mn  Mn10  1  0.49584049  0.66917426  0.41478864  1
  Mn  Mn11  1  0.49412336  0.67145732  0.75007776  1
  O  O12  1  0.21813446  0.11616650  0.29823733  1
  O  O13  1  0.29563341  0.38702879  0.14476364  1
  F  F14  1  0.23354900  0.10400733  0.64115122  1
  F  F15  1  0.22197869  0.10856909  0.97609639  1
  F  F16  1  0.22630070  0.88211877  0.13814594  1
  F  F17  1  0.23484974  0.89791961  0.47196647  1
  F  F18  1  0.22583141  0.89401708  0.80910143  1
  F  F19  1  0.25631910  0.61816184  0.30724424  1
  F  F20  1  0.26485357  0.39384827  0.47268352  1
  F  F21  1  0.27013659  0.60299633  0.63898244  1
  F  F22  1  0.26968841  0.39397577  0.80934516  1
  F  F23  1  0.27878051  0.60610438  0.97649538  1
  F  F24  1  0.74417247  0.39712521  0.02721863  1
  F  F25  1  0.73519962  0.61427423  0.20277199  1
  F  F26  1  0.69588337  0.37429798  0.35261564  1
  F  F27  1  0.72913591  0.60735843  0.52350020  1
  F  F28  1  0.73226862  0.60565840  0.85958645  1
  F  F29  1  0.72884769  0.39587530  0.69276446  1
  F  F30  1  0.76712805  0.10618322  0.19310050  1
  F  F31  1  0.78246485  0.11287197  0.51951337  1
  F  F32  1  0.78064856  0.88437485  0.35851810  1
  F  F33  1  0.76099166  0.88653540  0.03397434  1
  F  F34  1  0.76812970  0.10161216  0.86138412  1
  F  F35  1  0.76775983  0.89723599  0.69039479  1
