# generated using pymatgen
data_Na8NiO6
_symmetry_space_group_name_H-M   'P 1'
_cell_length_a   6.32800608
_cell_length_b   6.32291277
_cell_length_c   12.81984491
_cell_angle_alpha   90.00492142
_cell_angle_beta   89.98739611
_cell_angle_gamma   120.09139277
_symmetry_Int_Tables_number   1
_chemical_formula_structural   Na8NiO6
_chemical_formula_sum   'Na16 Ni2 O12'
_cell_volume   443.80968614
_cell_formula_units_Z   2
loop_
 _symmetry_equiv_pos_site_id
 _symmetry_equiv_pos_as_xyz
  1  'x, y, z'
loop_
 _atom_site_type_symbol
 _atom_site_label
 _atom_site_symmetry_multiplicity
 _atom_site_fract_x
 _atom_site_fract_y
 _atom_site_fract_z
 _atom_site_occupancy
  Na  Na0  1  0.99982125  0.70979699  0.77206029  1
  Na  Na1  1  0.00057056  0.61842580  0.11984179  1
  Na  Na2  1  0.99987266  0.38153709  0.62032148  1
  Na  Na3  1  0.99992625  0.29002724  0.27232216  1
  Na  Na4  1  0.33412768  0.66732445  0.41550864  1
  Na  Na5  1  0.33287973  0.66621508  0.91504047  1
  Na  Na6  1  0.29075254  0.29089152  0.77190545  1
  Na  Na7  1  0.38221375  0.38188367  0.11999008  1
  Na  Na8  1  0.61803871  0.61766094  0.62032453  1
  Na  Na9  1  0.28924017  0.00020641  0.27242214  1
  Na  Na10  1  0.70977383  0.71029716  0.27232742  1
  Na  Na11  1  0.38153360  0.99948883  0.62022753  1
  Na  Na12  1  0.66581155  0.33259376  0.91504102  1
  Na  Na13  1  0.66713534  0.33391520  0.41554982  1
  Na  Na14  1  0.61878649  0.99999088  0.11997919  1
  Na  Na15  1  0.70917642  0.00000792  0.77183948  1
  Ni  Ni16  1  -0.00018019  -0.00035391  0.99537806  1
  Ni  Ni17  1  0.00041520  0.00017291  0.49541338  1
  O  O18  1  0.99995477  0.71993608  0.95090162  1
  O  O19  1  0.00001436  0.27965687  0.45099948  1
  O  O20  1  0.33340575  0.66741700  0.22078065  1
  O  O21  1  0.99965597  0.99983377  0.14869826  1
  O  O22  1  0.00017890  0.00032429  0.64863573  1
  O  O23  1  0.33264344  0.66654779  0.72063542  1
  O  O24  1  0.28019039  0.28022272  0.95083172  1
  O  O25  1  0.27997405  0.99997153  0.45107487  1
  O  O26  1  0.71969297  0.71964277  0.45097405  1
  O  O27  1  0.66649448  0.33289164  0.72062487  1
  O  O28  1  0.66714109  0.33348171  0.22076495  1
  O  O29  1  0.72055730  -0.00000808  0.95084445  1
