# generated using pymatgen
data_Ca3Cu6(AsO4)8
_symmetry_space_group_name_H-M   'P 1'
_cell_length_a   5.03297937
_cell_length_b   9.48753441
_cell_length_c   14.94476153
_cell_angle_alpha   96.18259422
_cell_angle_beta   90.32511581
_cell_angle_gamma   89.06272162
_symmetry_Int_Tables_number   1
_chemical_formula_structural   Ca3Cu6(AsO4)8
_chemical_formula_sum   'Ca3 Cu6 As8 O32'
_cell_volume   709.36977191
_cell_formula_units_Z   1
loop_
 _symmetry_equiv_pos_site_id
 _symmetry_equiv_pos_as_xyz
  1  'x, y, z'
loop_
 _atom_site_type_symbol
 _atom_site_label
 _atom_site_symmetry_multiplicity
 _atom_site_fract_x
 _atom_site_fract_y
 _atom_site_fract_z
 _atom_site_occupancy
  Ca  Ca0  1  0.04258560  0.95503459  0.26417075  1
  Ca  Ca1  1  0.01006434  0.00353153  0.99307791  1
  Ca  Ca2  1  0.50534604  0.49663153  0.50328434  1
  Cu  Cu3  1  0.03304298  0.33864098  0.11782362  1
  Cu  Cu4  1  0.97878295  0.66760568  0.88027434  1
  Cu  Cu5  1  0.51840479  0.17385265  0.38360684  1
  Cu  Cu6  1  0.48142149  0.83047062  0.62033181  1
  Cu  Cu7  1  0.50099317  0.49998187  0.99958063  1
  Cu  Cu8  1  0.00040480  0.99994950  0.50252996  1
  As  As9  1  0.49878385  0.88103017  0.83912523  1
  As  As10  1  0.00763826  0.34434925  0.90412468  1
  As  As11  1  0.50459582  0.15512018  0.59614335  1
  As  As12  1  0.49224176  0.84505365  0.40786291  1
  As  As13  1  0.50464996  0.11983197  0.15903319  1
  As  As14  1  0.99499290  0.65624879  0.09098780  1
  As  As15  1  0.00295610  0.37633749  0.33772730  1
  As  As16  1  0.00311243  0.62042835  0.66211909  1
  O  O17  1  0.05893155  0.57559698  0.77041469  1
  O  O18  1  0.58269278  0.24643606  0.50252001  1
  O  O19  1  0.09594999  0.23677101  0.81537336  1
  O  O20  1  0.12028000  0.78906164  0.64680281  1
  O  O21  1  0.90244637  0.76129667  0.18171439  1
  O  O22  1  0.44762899  0.07985540  0.27029047  1
  O  O23  1  0.59465931  0.26278980  0.68480694  1
  O  O24  1  0.81982158  0.90263038  0.40197460  1
  O  O25  1  0.85813338  0.50854294  0.40611762  1
  O  O26  1  0.94335153  0.42224370  0.22996489  1
  O  O27  1  0.38837299  0.28897616  0.14624487  1
  O  O28  1  0.17726993  0.09814787  0.59808383  1
  O  O29  1  0.18861790  0.50741223  0.92935355  1
  O  O30  1  0.13919602  0.48458653  0.59425673  1
  O  O31  1  0.83893833  0.11097547  0.14042361  1
  O  O32  1  0.33407695  0.36523159  0.36588956  1
  O  O33  1  0.68709332  0.99054514  0.57106649  1
  O  O34  1  0.37616134  0.76840006  0.31049320  1
  O  O35  1  0.33325693  0.98469777  0.10355609  1
  O  O36  1  0.32256613  0.59667640  0.09740707  1
  O  O37  1  0.67142691  0.63755478  0.63453017  1
  O  O38  1  0.17049445  0.86466387  0.86538985  1
  O  O39  1  0.42367330  0.75046491  0.49760168  1
  O  O40  1  0.08045989  0.25482710  0.99934368  1
  O  O41  1  0.80803997  0.49607901  0.07389605  1
  O  O42  1  0.55514700  0.92429467  0.73025537  1
  O  O43  1  0.89110916  0.20321597  0.34928660  1
  O  O44  1  0.63126807  0.01563199  0.90781136  1
  O  O45  1  0.91326087  0.74896553  -0.00012768  1
  O  O46  1  0.67763092  0.40339298  0.90257809  1
  O  O47  1  0.29815796  0.00904910  0.42603228  1
  O  O48  1  0.62162493  0.71085955  0.85202797  1
