# generated using pymatgen
data_Li2MnSiO4
_symmetry_space_group_name_H-M   'P 1'
_cell_length_a   6.50751207
_cell_length_b   11.02492138
_cell_length_c   5.09114328
_cell_angle_alpha   90.00000000
_cell_angle_beta   90.00000000
_cell_angle_gamma   91.22727983
_symmetry_Int_Tables_number   1
_chemical_formula_structural   Li2MnSiO4
_chemical_formula_sum   'Li8 Mn4 Si4 O16'
_cell_volume   365.17931004
_cell_formula_units_Z   4
loop_
 _symmetry_equiv_pos_site_id
 _symmetry_equiv_pos_as_xyz
  1  'x, y, z'
loop_
 _atom_site_type_symbol
 _atom_site_label
 _atom_site_symmetry_multiplicity
 _atom_site_fract_x
 _atom_site_fract_y
 _atom_site_fract_z
 _atom_site_occupancy
  Li  Li0  1  0.99946911  0.58693310  0.31343712  1
  Li  Li1  1  0.99946911  0.08693310  0.18656288  1
  Li  Li2  1  0.21988244  0.67166928  0.81285223  1
  Li  Li3  1  0.21988244  0.17166928  0.68714777  1
  Li  Li4  1  0.78011756  0.82833072  0.31285223  1
  Li  Li5  1  0.78011756  0.32833072  0.18714777  1
  Li  Li6  1  0.00053089  0.91306690  0.81343712  1
  Li  Li7  1  0.00053089  0.41306690  0.68656288  1
  Mn  Mn8  1  0.50852073  0.90212229  0.79610068  1
  Mn  Mn9  1  0.50852073  0.40212229  0.70389932  1
  Mn  Mn10  1  0.49147927  0.59787771  0.29610068  1
  Mn  Mn11  1  0.49147927  0.09787771  0.20389932  1
  Si  Si12  1  0.23732087  0.83818963  0.31466499  1
  Si  Si13  1  0.23732087  0.33818963  0.18533501  1
  Si  Si14  1  0.76267913  0.66181037  0.81466499  1
  Si  Si15  1  0.76267913  0.16181037  0.68533501  1
  O  O16  1  0.03873137  0.90964065  0.20570657  1
  O  O17  1  0.03873137  0.40964065  0.29429343  1
  O  O18  1  0.24182223  0.83545305  0.64002017  1
  O  O19  1  0.24182223  0.33545305  0.85997983  1
  O  O20  1  0.24043075  0.69653182  0.20332724  1
  O  O21  1  0.24043075  0.19653182  0.29667276  1
  O  O22  1  0.46063261  0.90650727  0.21739728  1
  O  O23  1  0.46063261  0.40650727  0.28260272  1
  O  O24  1  0.53936739  0.59349273  0.71739728  1
  O  O25  1  0.53936739  0.09349273  0.78260272  1
  O  O26  1  0.75956925  0.80346818  0.70332724  1
  O  O27  1  0.75956925  0.30346818  0.79667276  1
  O  O28  1  0.75817777  0.66454695  0.14002017  1
  O  O29  1  0.75817777  0.16454695  0.35997983  1
  O  O30  1  0.96126863  0.59035935  0.70570657  1
  O  O31  1  0.96126863  0.09035935  0.79429343  1
