# generated using pymatgen
data_Li5Mn6(BO3)6
_symmetry_space_group_name_H-M   'P 1'
_cell_length_a   5.93879462
_cell_length_b   13.99419026
_cell_length_c   5.22387746
_cell_angle_alpha   100.53320986
_cell_angle_beta   112.77156610
_cell_angle_gamma   99.17772820
_symmetry_Int_Tables_number   1
_chemical_formula_structural   Li5Mn6(BO3)6
_chemical_formula_sum   'Li5 Mn6 B6 O18'
_cell_volume   380.65703362
_cell_formula_units_Z   1
loop_
 _symmetry_equiv_pos_site_id
 _symmetry_equiv_pos_as_xyz
  1  'x, y, z'
loop_
 _atom_site_type_symbol
 _atom_site_label
 _atom_site_symmetry_multiplicity
 _atom_site_fract_x
 _atom_site_fract_y
 _atom_site_fract_z
 _atom_site_occupancy
  Li  Li0  1  0.67936166  0.45803187  0.98274189  1
  Li  Li1  1  0.67703450  0.79148572  0.65003695  1
  Li  Li2  1  0.34675482  0.20707077  0.35628989  1
  Li  Li3  1  0.32121382  0.54005953  0.01381447  1
  Li  Li4  1  0.31883493  0.87388607  0.68327230  1
  Mn  Mn5  1  0.76332332  0.24844431  0.91013251  1
  Mn  Mn6  1  0.76102043  0.58576900  0.57295746  1
  Mn  Mn7  1  0.75715963  0.92325765  0.24559939  1
  Mn  Mn8  1  0.25134457  0.07889562  0.77081103  1
  Mn  Mn9  1  0.23902950  0.41522615  0.42465043  1
  Mn  Mn10  1  0.24207006  0.74963163  0.09381003  1
  B  B11  1  0.73622143  0.02270677  0.77857006  1
  B  B12  1  0.73977131  0.36154461  0.45599234  1
  B  B13  1  0.73932489  0.69444605  0.11782629  1
  B  B14  1  0.26069338  0.30458801  0.88329113  1
  B  B15  1  0.26099122  0.64147754  0.54799986  1
  B  B16  1  0.25847162  0.97586794  0.21392695  1
  O  O17  1  0.87604578  0.04471180  0.62256562  1
  O  O18  1  0.82696409  0.37831525  0.24762215  1
  O  O19  1  0.71111560  0.27021585  0.51143554  1
  O  O20  1  0.70286732  0.59939985  0.15834598  1
  O  O21  1  0.62251262  0.09553090  0.86028700  1
  O  O22  1  0.67227123  0.44005650  0.59517894  1
  O  O23  1  0.68045067  0.77244856  0.26840340  1
  O  O24  1  0.82809582  0.71312294  0.91392301  1
  O  O25  1  0.26682072  0.06713206  0.15311286  1
  O  O26  1  0.69625175  0.92957088  0.82555621  1
  O  O27  1  0.17158662  0.28642877  0.08753419  1
  O  O28  1  0.32688658  0.22646217  0.74210137  1
  O  O29  1  0.31829199  0.56471314  0.39451673  1
  O  O30  1  0.33412587  0.90063105  0.07874891  1
  O  O31  1  0.29844975  0.39929789  0.84043693  1
  O  O32  1  0.29555268  0.73703311  0.50805255  1
  O  O33  1  0.17720096  0.62320150  0.75566108  1
  O  O34  1  0.17337287  0.95733853  0.42206155  1
