# generated using pymatgen
data_Li2Cr2(PO4)3
_symmetry_space_group_name_H-M   'P 1'
_cell_length_a   8.93514215
_cell_length_b   8.31952035
_cell_length_c   8.36566212
_cell_angle_alpha   60.34550584
_cell_angle_beta   90.24299879
_cell_angle_gamma   62.01696018
_symmetry_Int_Tables_number   1
_chemical_formula_structural   Li2Cr2(PO4)3
_chemical_formula_sum   'Li4 Cr4 P6 O24'
_cell_volume   454.03317120
_cell_formula_units_Z   2
loop_
 _symmetry_equiv_pos_site_id
 _symmetry_equiv_pos_as_xyz
  1  'x, y, z'
loop_
 _atom_site_type_symbol
 _atom_site_label
 _atom_site_symmetry_multiplicity
 _atom_site_fract_x
 _atom_site_fract_y
 _atom_site_fract_z
 _atom_site_occupancy
  Li  Li0  1  0.85613145  0.81296010  0.92366122  1
  Li  Li1  1  0.86521728  0.05395641  0.26294303  1
  Li  Li2  1  0.13478272  0.94604359  0.73705697  1
  Li  Li3  1  0.14386855  0.18703990  0.07633878  1
  Cr  Cr4  1  0.94990721  0.69650046  0.64899524  1
  Cr  Cr5  1  0.56862525  0.28768417  0.85233813  1
  Cr  Cr6  1  0.43137475  0.71231583  0.14766187  1
  Cr  Cr7  1  0.05009279  0.30349954  0.35100476  1
  P  P8  1  0.75059375  0.49715095  0.96383640  1
  P  P9  1  0.75043473  0.21411879  0.53652281  1
  P  P10  1  0.74804491  0.78508480  0.25275466  1
  P  P11  1  0.25195509  0.21491520  0.74724534  1
  P  P12  1  0.24956527  0.78588121  0.46347719  1
  P  P13  1  0.24940625  0.50284905  0.03616360  1
  O  O14  1  0.79979678  0.66236831  0.82939803  1
  O  O15  1  0.72604761  0.37963438  0.88133224  1
  O  O16  1  0.90913339  0.24664922  0.53296115  1
  O  O17  1  0.73514411  0.13259835  0.74411319  1
  O  O18  1  0.58035025  0.61825118  0.00406604  1
  O  O19  1  0.80141457  0.02676821  0.50486235  1
  O  O20  1  0.80463603  0.70512595  0.46378193  1
  O  O21  1  0.88949490  0.62433239  0.20531769  1
  O  O22  1  0.91193753  0.30118208  0.15775937  1
  O  O23  1  0.43010098  0.18622018  0.80248478  1
  O  O24  1  0.26397080  0.99432596  0.88372762  1
  O  O25  1  0.57627138  0.41880329  0.38564505  1
  O  O26  1  0.42372862  0.58119671  0.61435495  1
  O  O27  1  0.73602920  0.00567404  0.11627238  1
  O  O28  1  0.56989902  0.81377982  0.19751522  1
  O  O29  1  0.08806247  0.69881792  0.84224063  1
  O  O30  1  0.11050510  0.37566761  0.79468231  1
  O  O31  1  0.19536397  0.29487405  0.53621807  1
  O  O32  1  0.19858543  0.97323179  0.49513765  1
  O  O33  1  0.41964975  0.38174882  0.99593396  1
  O  O34  1  0.26485589  0.86740165  0.25588681  1
  O  O35  1  0.09086661  0.75335078  0.46703885  1
  O  O36  1  0.27395339  0.62036562  0.11866776  1
  O  O37  1  0.20020322  0.33763169  0.17060197  1
