# generated using pymatgen
data_VOF3
_symmetry_space_group_name_H-M   'P 1'
_cell_length_a   5.59223251
_cell_length_b   5.42050370
_cell_length_c   9.56209259
_cell_angle_alpha   90.08287766
_cell_angle_beta   89.33748194
_cell_angle_gamma   93.41511826
_symmetry_Int_Tables_number   1
_chemical_formula_structural   VOF3
_chemical_formula_sum   'V4 O4 F12'
_cell_volume   289.31884303
_cell_formula_units_Z   4
loop_
 _symmetry_equiv_pos_site_id
 _symmetry_equiv_pos_as_xyz
  1  'x, y, z'
loop_
 _atom_site_type_symbol
 _atom_site_label
 _atom_site_symmetry_multiplicity
 _atom_site_fract_x
 _atom_site_fract_y
 _atom_site_fract_z
 _atom_site_occupancy
  V  V0  1  0.04468717  0.94517294  0.00971668  1
  V  V1  1  0.47499976  0.45095910  0.99159573  1
  V  V2  1  0.96253373  0.54437803  0.50537227  1
  V  V3  1  0.45338162  0.03455643  0.49419074  1
  O  O4  1  0.27548086  0.77897608  0.03716597  1
  O  O5  1  0.22733874  0.19733539  0.46695540  1
  O  O6  1  0.79671740  0.77237440  0.53154138  1
  O  O7  1  0.22578917  0.27442022  0.96977859  1
  F  F8  1  0.79545087  0.71729025  0.03353930  1
  F  F9  1  0.04366499  0.56712191  0.32580429  1
  F  F10  1  0.50366337  0.44589842  0.17547410  1
  F  F11  1  0.51543253  0.90607802  0.32803506  1
  F  F12  1  0.97577554  0.08993291  0.17060429  1
  F  F13  1  0.27597045  0.72331787  0.54320737  1
  F  F14  1  0.71317283  0.29183909  0.45678160  1
  F  F15  1  0.00784298  0.94195397  0.82614115  1
  F  F16  1  0.51582308  0.07700137  0.67408245  1
  F  F17  1  0.51230494  0.60408697  0.82869494  1
  F  F18  1  0.98665963  0.40662342  0.67221706  1
  F  F19  1  0.69331334  0.23068222  0.95910162  1
