# generated using pymatgen
data_LiFePO4
_symmetry_space_group_name_H-M   'P 1'
_cell_length_a   9.39610570
_cell_length_b   6.31792510
_cell_length_c   4.97094816
_cell_angle_alpha   90.03491841
_cell_angle_beta   89.99179089
_cell_angle_gamma   90.00199020
_symmetry_Int_Tables_number   1
_chemical_formula_structural   LiFePO4
_chemical_formula_sum   'Li4 Fe4 P4 O16'
_cell_volume   295.09477218
_cell_formula_units_Z   4
loop_
 _symmetry_equiv_pos_site_id
 _symmetry_equiv_pos_as_xyz
  1  'x, y, z'
loop_
 _atom_site_type_symbol
 _atom_site_label
 _atom_site_symmetry_multiplicity
 _atom_site_fract_x
 _atom_site_fract_y
 _atom_site_fract_z
 _atom_site_occupancy
  Li  Li0  1  0.16883329  0.74993979  0.47573631  1
  Li  Li1  1  0.33117556  0.25009137  0.97574663  1
  Li  Li2  1  0.66882229  0.74990901  0.02425226  1
  Li  Li3  1  0.83116709  0.25005965  0.52425867  1
  Fe  Fe4  1  0.00000556  0.99997025  0.00002048  1
  Fe  Fe5  1  0.00000318  0.49999611  0.99999342  1
  Fe  Fe6  1  0.50000141  0.00001539  0.50000021  1
  Fe  Fe7  1  0.49999719  0.50001096  0.49999433  1
  P  P8  1  0.17778676  0.25005523  0.47128014  1
  P  P9  1  0.32222685  0.75003323  0.97130399  1
  P  P10  1  0.67777394  0.24996736  0.02869831  1
  P  P11  1  0.82221221  0.74994713  0.52872124  1
  O  O12  1  0.11755598  0.04707889  0.33978385  1
  O  O13  1  0.11767827  0.45267731  0.33989936  1
  O  O14  1  0.13975786  0.25011333  0.77738520  1
  O  O15  1  0.15676227  0.74984710  0.91528033  1
  O  O16  1  0.34323160  0.24980931  0.41524215  1
  O  O17  1  0.36019880  0.75021184  0.27737095  1
  O  O18  1  0.38244724  0.54737548  0.83980652  1
  O  O19  1  0.38231751  0.95292592  0.83992505  1
  O  O20  1  0.61767959  0.04707478  0.16007402  1
  O  O21  1  0.61754900  0.45262691  0.16018978  1
  O  O22  1  0.63979963  0.24978931  0.72262669  1
  O  O23  1  0.65676717  0.75019490  0.58475528  1
  O  O24  1  0.84323850  0.25014963  0.08472503  1
  O  O25  1  0.86024144  0.74988617  0.22261145  1
  O  O26  1  0.88232181  0.54732295  0.66009774  1
  O  O27  1  0.88244801  0.95292070  0.66022058  1
