# generated using pymatgen
data_Ti5Fe11O24
_symmetry_space_group_name_H-M   'P 1'
_cell_length_a   5.59102501
_cell_length_b   5.16601016
_cell_length_c   15.06563862
_cell_angle_alpha   89.81013250
_cell_angle_beta   95.65066907
_cell_angle_gamma   90.08515522
_symmetry_Int_Tables_number   1
_chemical_formula_structural   Ti5Fe11O24
_chemical_formula_sum   'Ti5 Fe11 O24'
_cell_volume   433.02807272
_cell_formula_units_Z   1
loop_
 _symmetry_equiv_pos_site_id
 _symmetry_equiv_pos_as_xyz
  1  'x, y, z'
loop_
 _atom_site_type_symbol
 _atom_site_label
 _atom_site_symmetry_multiplicity
 _atom_site_fract_x
 _atom_site_fract_y
 _atom_site_fract_z
 _atom_site_occupancy
  Ti  Ti0  1  0.20866989  0.49829097  0.82133126  1
  Ti  Ti1  1  0.79268210  0.50688043  0.67455738  1
  Ti  Ti2  1  0.29423699  0.99770675  0.42941220  1
  Ti  Ti3  1  0.20570098  0.50373333  0.32092668  1
  Ti  Ti4  1  0.70735507  0.99844140  0.07473528  1
  Fe  Fe5  1  0.29334720  0.00101972  0.92601682  1
  Fe  Fe6  1  0.70979187  0.00431387  0.82246470  1
  Fe  Fe7  1  0.79417521  0.49875654  0.92531561  1
  Fe  Fe8  1  0.29055877  0.99591222  0.67582926  1
  Fe  Fe9  1  0.70716899  0.99930912  0.57505419  1
  Fe  Fe10  1  0.78506126  0.49943767  0.42667266  1
  Fe  Fe11  1  0.20782920  0.50302915  0.57379607  1
  Fe  Fe12  1  0.71526918  0.00413333  0.32269743  1
  Fe  Fe13  1  0.29133223  0.99464337  0.17666132  1
  Fe  Fe14  1  0.78891566  0.49806933  0.17697265  1
  Fe  Fe15  1  0.21158069  0.50129099  0.07300675  1
  O  O16  1  0.48958872  0.32074316  0.87484608  1
  O  O17  1  0.65675795  0.84903065  0.95749157  1
  O  O18  1  0.85175141  0.63254175  0.79756641  1
  O  O19  1  0.01168410  0.20696910  0.87820278  1
  O  O20  1  0.65727354  0.17716148  0.69740954  1
  O  O21  1  0.14617058  0.65513513  0.95211512  1
  O  O22  1  0.83744723  0.34727677  0.54725098  1
  O  O23  1  0.33973552  0.82931907  0.80444629  1
  O  O24  1  0.98481912  0.80285290  0.62551402  1
  O  O25  1  0.15242985  0.36385905  0.70755030  1
  O  O26  1  0.34510767  0.13298296  0.54201662  1
  O  O27  1  0.52226698  0.68819240  0.63050922  1
  O  O28  1  0.48544100  0.31578931  0.37443002  1
  O  O29  1  0.64623776  0.84756176  0.45051948  1
  O  O30  1  0.85571538  0.62721946  0.30063225  1
  O  O31  1  0.02705280  0.20138629  0.38065344  1
  O  O32  1  0.14939644  0.67201253  0.44700477  1
  O  O33  1  0.66501520  0.15068609  0.19638741  1
  O  O34  1  0.33777305  0.82918080  0.30139713  1
  O  O35  1  0.84755747  0.32821876  0.04771507  1
  O  O36  1  0.97568050  0.80011511  0.11876702  1
  O  O37  1  0.15563771  0.37178532  0.20304798  1
  O  O38  1  0.35221082  0.15585493  0.04781391  1
  O  O39  1  0.50357490  0.68915303  0.12126032  1
