# generated using pymatgen
data_ScGeAu
_symmetry_space_group_name_H-M   'P 1'
_cell_length_a   4.45024495
_cell_length_b   4.45021884
_cell_length_c   4.45022395
_cell_angle_alpha   60.00017033
_cell_angle_beta   59.99982731
_cell_angle_gamma   59.99994372
_symmetry_Int_Tables_number   1
_chemical_formula_structural   ScGeAu
_chemical_formula_sum   'Sc1 Ge1 Au1'
_cell_volume   62.32064797
_cell_formula_units_Z   1
loop_
 _symmetry_equiv_pos_site_id
 _symmetry_equiv_pos_as_xyz
  1  'x, y, z'
loop_
 _atom_site_type_symbol
 _atom_site_label
 _atom_site_symmetry_multiplicity
 _atom_site_fract_x
 _atom_site_fract_y
 _atom_site_fract_z
 _atom_site_occupancy
  Sc  Sc0  1  0.50000026  0.49999975  0.50000120  1
  Ge  Ge1  1  0.00000009  -0.00000010  -0.00000071  1
  Au  Au2  1  0.24999966  0.25000035  0.24999951  1
