# generated using pymatgen
data_Ca3Mn2(FeO5)2
_symmetry_space_group_name_H-M   'P 1'
_cell_length_a   5.41662673
_cell_length_b   5.62016557
_cell_length_c   14.41512906
_cell_angle_alpha   88.64807966
_cell_angle_beta   90.00000000
_cell_angle_gamma   90.00000000
_symmetry_Int_Tables_number   1
_chemical_formula_structural   Ca3Mn2(FeO5)2
_chemical_formula_sum   'Ca6 Mn4 Fe4 O20'
_cell_volume   438.70809333
_cell_formula_units_Z   2
loop_
 _symmetry_equiv_pos_site_id
 _symmetry_equiv_pos_as_xyz
  1  'x, y, z'
loop_
 _atom_site_type_symbol
 _atom_site_label
 _atom_site_symmetry_multiplicity
 _atom_site_fract_x
 _atom_site_fract_y
 _atom_site_fract_z
 _atom_site_occupancy
  Ca  Ca0  1  0.01566201  0.53787430  0.88891692  1
  Ca  Ca1  1  0.51409981  0.96545054  0.60947245  1
  Ca  Ca2  1  0.98972608  0.47315455  0.40407318  1
  Ca  Ca3  1  0.98590019  0.46545054  0.10947245  1
  Ca  Ca4  1  0.48433799  0.03787430  0.38891692  1
  Ca  Ca5  1  0.51027392  0.97315455  0.90407318  1
  Mn  Mn6  1  0.00542493  0.00181163  0.00581212  1
  Mn  Mn7  1  0.49457507  0.50181163  0.50581212  1
  Mn  Mn8  1  0.50303783  0.49318900  0.00608205  1
  Mn  Mn9  1  0.99696217  0.99318900  0.50608205  1
  Fe  Fe10  1  0.05468963  0.08596417  0.74722640  1
  Fe  Fe11  1  0.55845750  0.42774798  0.74856823  1
  Fe  Fe12  1  0.44531037  0.58596417  0.24722640  1
  Fe  Fe13  1  0.94154250  0.92774798  0.24856823  1
  O  O14  1  0.76130459  0.73237364  0.00771856  1
  O  O15  1  0.25282042  0.75083369  0.48017252  1
  O  O16  1  0.76250015  0.25974264  0.97983014  1
  O  O17  1  0.26083142  0.23042966  0.51152215  1
  O  O18  1  0.24717958  0.25083369  0.98017252  1
  O  O19  1  0.73869541  0.23237364  0.50771856  1
  O  O20  1  0.23916858  0.73042966  0.01152215  1
  O  O21  1  0.73749985  0.75974264  0.47983014  1
  O  O22  1  0.98462349  0.94540427  0.86471752  1
  O  O23  1  0.48312159  0.56446843  0.63373870  1
  O  O24  1  0.52626319  0.44115639  0.13574836  1
  O  O25  1  0.02153347  0.06657738  0.36249719  1
  O  O26  1  0.01687841  0.06446843  0.13373870  1
  O  O27  1  0.51537651  0.44540427  0.36471752  1
  O  O28  1  0.47846653  0.56657738  0.86249719  1
  O  O29  1  0.97373681  0.94115639  0.63574836  1
  O  O30  1  0.90337558  0.38368791  0.75337388  1
  O  O31  1  0.41289520  0.11338981  0.75198065  1
  O  O32  1  0.59662442  0.88368791  0.25337388  1
  O  O33  1  0.08710480  0.61338981  0.25198065  1
