# generated using pymatgen
data_Ca10V6O25
_symmetry_space_group_name_H-M   'P 1'
_cell_length_a   6.80407194
_cell_length_b   10.02516309
_cell_length_c   10.02523411
_cell_angle_alpha   120.00047448
_cell_angle_beta   90.00087227
_cell_angle_gamma   89.99968562
_symmetry_Int_Tables_number   1
_chemical_formula_structural   Ca10V6O25
_chemical_formula_sum   'Ca10 V6 O25'
_cell_volume   592.22047933
_cell_formula_units_Z   1
loop_
 _symmetry_equiv_pos_site_id
 _symmetry_equiv_pos_as_xyz
  1  'x, y, z'
loop_
 _atom_site_type_symbol
 _atom_site_label
 _atom_site_symmetry_multiplicity
 _atom_site_fract_x
 _atom_site_fract_y
 _atom_site_fract_z
 _atom_site_occupancy
  Ca  Ca0  1  0.72784032  0.22710234  0.98171533  1
  Ca  Ca1  1  0.27215968  0.77289766  0.01828467  1
  Ca  Ca2  1  0.72783222  0.75461476  0.77289908  1
  Ca  Ca3  1  0.27216778  0.24538524  0.22710092  1
  Ca  Ca4  1  0.72781753  0.01828616  0.24539039  1
  Ca  Ca5  1  0.27218247  0.98171384  0.75460961  1
  Ca  Ca6  1  0.98654240  0.66665872  0.33333778  1
  Ca  Ca7  1  0.01345760  0.33334128  0.66666222  1
  Ca  Ca8  1  0.49182196  0.66667894  0.33334741  1
  Ca  Ca9  1  0.50817804  0.33332106  0.66665259  1
  V  V10  1  0.24114339  0.97349376  0.37548904  1
  V  V11  1  0.75885661  0.02650624  0.62451096  1
  V  V12  1  0.24115312  0.40198466  0.02654040  1
  V  V13  1  0.75884688  0.59801534  0.97345960  1
  V  V14  1  0.24117027  0.62452111  0.59799756  1
  V  V15  1  0.75882973  0.37547889  0.40200244  1
  O  O16  1  0.94525706  0.24038913  0.31419487  1
  O  O17  1  0.05474294  0.75961087  0.68580513  1
  O  O18  1  0.94528602  0.07380745  0.75962382  1
  O  O19  1  0.05471398  0.92619255  0.24037618  1
  O  O20  1  0.94523636  0.68579130  0.92619977  1
  O  O21  1  0.05476364  0.31420870  0.07380023  1
  O  O22  1  0.77540035  0.47197888  0.60515032  1
  O  O23  1  0.22459965  0.52802112  0.39484968  1
  O  O24  1  0.77541497  0.13318246  0.52801884  1
  O  O25  1  0.22458503  0.86681754  0.47198116  1
  O  O26  1  0.77539314  0.39486818  0.86683586  1
  O  O27  1  0.22460686  0.60513182  0.13316414  1
  O  O28  1  0.55261370  0.09797685  0.74031409  1
  O  O29  1  0.44738630  0.90202315  0.25968591  1
  O  O30  1  0.55265050  0.64234379  0.90204196  1
  O  O31  1  0.44734950  0.35765621  0.09795804  1
  O  O32  1  0.55261570  0.25968955  0.35767127  1
  O  O33  1  0.44738430  0.74031045  0.64232873  1
  O  O34  1  0.74369923  0.83180191  0.50040258  1
  O  O35  1  0.25630077  0.16819809  0.49959742  1
  O  O36  1  0.74369022  0.66860757  0.16819267  1
  O  O37  1  0.25630978  0.33139243  0.83180733  1
  O  O38  1  0.74367860  0.49960167  0.33139606  1
  O  O39  1  0.25632140  0.50039833  0.66860394  1
  O  O40  1  0.50000000  0.00000000  0.00000000  1
