# generated using pymatgen
data_MnV3Cu2(PO4)6
_symmetry_space_group_name_H-M   'P 1'
_cell_length_a   8.56776703
_cell_length_b   8.58775404
_cell_length_c   8.58775442
_cell_angle_alpha   59.99999835
_cell_angle_beta   59.92280119
_cell_angle_gamma   59.92280143
_symmetry_Int_Tables_number   1
_chemical_formula_structural   MnV3Cu2(PO4)6
_chemical_formula_sum   'Mn1 V3 Cu2 P6 O24'
_cell_volume   446.27659725
_cell_formula_units_Z   1
loop_
 _symmetry_equiv_pos_site_id
 _symmetry_equiv_pos_as_xyz
  1  'x, y, z'
loop_
 _atom_site_type_symbol
 _atom_site_label
 _atom_site_symmetry_multiplicity
 _atom_site_fract_x
 _atom_site_fract_y
 _atom_site_fract_z
 _atom_site_occupancy
  Mn  Mn0  1  0.57160359  0.14279847  0.14279847  1
  V  V1  1  0.07149320  0.64283593  0.64283593  1
  V  V2  1  0.42652785  0.85782372  0.85782372  1
  V  V3  1  0.92736316  0.35754528  0.35754528  1
  Cu  Cu4  1  0.99930495  0.00023135  0.00023135  1
  Cu  Cu5  1  0.49859138  0.50046954  0.50046954  1
  P  P6  1  0.25017905  0.24966876  0.54148805  1
  P  P7  1  0.25017905  0.95866314  0.24966876  1
  P  P8  1  0.25017905  0.54148805  0.95866314  1
  P  P9  1  0.75147282  0.45887030  0.04016707  1
  P  P10  1  0.75147282  0.04016707  0.74948981  1
  P  P11  1  0.75147282  0.74948981  0.45887030  1
  O  O12  1  0.06707207  0.12326276  0.30508694  1
  O  O13  1  0.06707207  0.50457824  0.12326276  1
  O  O14  1  0.06707207  0.30508694  0.50457824  1
  O  O15  1  0.23784184  0.08254799  0.73720260  1
  O  O16  1  0.43324676  0.19551524  0.38438123  1
  O  O17  1  0.25308337  0.41769216  0.56415775  1
  O  O18  1  0.23784184  0.94240757  0.08254799  1
  O  O19  1  0.25308337  0.76506672  0.41769216  1
  O  O20  1  0.56755863  0.62199761  0.00391257  1
  O  O21  1  0.25308337  0.56415775  0.76506672  1
  O  O22  1  0.76927355  0.26640979  0.05042761  1
  O  O23  1  0.56755863  0.00391257  0.80653119  1
  O  O24  1  0.43324676  0.98685677  0.19551524  1
  O  O25  1  0.23784184  0.73720260  0.94240757  1
  O  O26  1  0.74014109  0.44481477  0.23408928  1
  O  O27  1  0.43324676  0.38438123  0.98685677  1
  O  O28  1  0.74014109  0.23408928  0.58095385  1
  O  O29  1  0.76927355  0.05042761  0.91388905  1
  O  O30  1  0.74014109  0.58095385  0.44481477  1
  O  O31  1  0.56755863  0.80653119  0.62199761  1
  O  O32  1  0.76927355  0.91388905  0.26640979  1
  O  O33  1  0.93183611  0.68653441  0.50214653  1
  O  O34  1  0.93183611  0.50214653  0.87948294  1
  O  O35  1  0.93183611  0.87948294  0.68653441  1
