# generated using pymatgen
data_Pr6Fe13Si
_symmetry_space_group_name_H-M   'P 1'
_cell_length_a   8.04176567
_cell_length_b   8.04176568
_cell_length_c   12.92210033
_cell_angle_alpha   108.12934779
_cell_angle_beta   108.12934782
_cell_angle_gamma   90.00000000
_symmetry_Int_Tables_number   1
_chemical_formula_structural   Pr6Fe13Si
_chemical_formula_sum   'Pr12 Fe26 Si2'
_cell_volume   750.41073636
_cell_formula_units_Z   2
loop_
 _symmetry_equiv_pos_site_id
 _symmetry_equiv_pos_as_xyz
  1  'x, y, z'
loop_
 _atom_site_type_symbol
 _atom_site_label
 _atom_site_symmetry_multiplicity
 _atom_site_fract_x
 _atom_site_fract_y
 _atom_site_fract_z
 _atom_site_occupancy
  Si  Si0  1  0.75000000  0.75000000  0.50000000  1
  Si  Si1  1  0.25000000  0.25000000  0.50000000  1
  Fe  Fe2  1  0.98159639  0.70739138  0.18898777  1
  Fe  Fe3  1  0.01840361  0.29260862  0.81101223  1
  Fe  Fe4  1  0.79260862  0.51840361  0.81101223  1
  Fe  Fe5  1  0.29260862  0.79260862  0.81101223  1
  Fe  Fe6  1  0.51840361  0.01840361  0.81101223  1
  Fe  Fe7  1  0.48159639  0.98159639  0.18898777  1
  Fe  Fe8  1  0.70739138  0.20739138  0.18898777  1
  Fe  Fe9  1  0.20739138  0.48159639  0.18898777  1
  Fe  Fe10  1  0.73798422  0.88054304  0.11852726  1
  Fe  Fe11  1  0.26201578  0.11945696  0.88147274  1
  Fe  Fe12  1  0.50000000  0.00000000  0.00000000  1
  Fe  Fe13  1  0.00000000  0.50000000  0.00000000  1
  Fe  Fe14  1  0.79107225  0.06617864  0.00000000  1
  Fe  Fe15  1  0.93382136  0.79107225  0.00000000  1
  Fe  Fe16  1  0.06617864  0.20892775  0.00000000  1
  Fe  Fe17  1  0.29107225  0.43382136  0.00000000  1
  Fe  Fe18  1  0.70892775  0.56617864  0.00000000  1
  Fe  Fe19  1  0.56617864  0.29107225  0.00000000  1
  Fe  Fe20  1  0.43382136  0.70892775  0.00000000  1
  Fe  Fe21  1  0.20892775  0.93382136  0.00000000  1
  Fe  Fe22  1  0.38054304  0.23798422  0.11852726  1
  Fe  Fe23  1  0.88054304  0.38054304  0.11852726  1
  Fe  Fe24  1  0.23798422  0.73798422  0.11852726  1
  Fe  Fe25  1  0.76201578  0.26201578  0.88147274  1
  Fe  Fe26  1  0.11945696  0.61945696  0.88147274  1
  Fe  Fe27  1  0.61945696  0.76201578  0.88147274  1
  Pr  Pr28  1  0.85548204  0.02243087  0.37791291  1
  Pr  Pr29  1  0.14451796  0.97756913  0.62208709  1
  Pr  Pr30  1  0.47756913  0.64451796  0.62208709  1
  Pr  Pr31  1  0.97756913  0.47756913  0.62208709  1
  Pr  Pr32  1  0.64451796  0.14451796  0.62208709  1
  Pr  Pr33  1  0.35548204  0.85548204  0.37791291  1
  Pr  Pr34  1  0.02243087  0.52243087  0.37791291  1
  Pr  Pr35  1  0.52243087  0.35548204  0.37791291  1
  Pr  Pr36  1  0.60883301  0.60883301  0.21766601  1
  Pr  Pr37  1  0.89116699  0.89116699  0.78233399  1
  Pr  Pr38  1  0.39116699  0.39116699  0.78233399  1
  Pr  Pr39  1  0.10883301  0.10883301  0.21766601  1
