# generated using pymatgen
data_Mg(MoO3)2
_symmetry_space_group_name_H-M   'P 1'
_cell_length_a   5.26504381
_cell_length_b   5.42440505
_cell_length_c   7.57590715
_cell_angle_alpha   90.00549995
_cell_angle_beta   90.72968154
_cell_angle_gamma   89.99834608
_symmetry_Int_Tables_number   1
_chemical_formula_structural   Mg(MoO3)2
_chemical_formula_sum   'Mg2 Mo4 O12'
_cell_volume   216.34831771
_cell_formula_units_Z   2
loop_
 _symmetry_equiv_pos_site_id
 _symmetry_equiv_pos_as_xyz
  1  'x, y, z'
loop_
 _atom_site_type_symbol
 _atom_site_label
 _atom_site_symmetry_multiplicity
 _atom_site_fract_x
 _atom_site_fract_y
 _atom_site_fract_z
 _atom_site_occupancy
  Mg  Mg0  1  0.51400945  0.55603248  0.24886269  1
  Mg  Mg1  1  0.01395387  0.94400382  0.74867898  1
  Mo  Mo2  1  0.50662801  0.99729859  0.99451531  1
  Mo  Mo3  1  0.99447771  0.48603066  0.99683152  1
  Mo  Mo4  1  0.00682330  0.50264315  0.49441309  1
  Mo  Mo5  1  0.49468134  0.01395236  0.49689876  1
  O  O6  1  0.67136973  0.32181628  0.43414042  1
  O  O7  1  0.16747353  0.18643174  0.56325551  1
  O  O8  1  0.79750944  0.78948686  0.05598246  1
  O  O9  1  0.30448702  0.71428069  0.95441823  1
  O  O10  1  0.29780970  0.71036472  0.55579258  1
  O  O11  1  0.80476116  0.78583731  0.45447066  1
  O  O12  1  0.17113735  0.17816733  0.93409249  1
  O  O13  1  0.66733367  0.31357529  0.06322549  1
  O  O14  1  0.13437949  0.46772039  0.24514956  1
  O  O15  1  0.63428623  0.03223082  0.74521670  1
  O  O16  1  0.42054435  0.94775280  0.25700371  1
  O  O17  1  0.92051565  0.55243472  0.75694485  1
