# generated using pymatgen
data_Li(Mg4Al3)4
_symmetry_space_group_name_H-M   'P 1'
_cell_length_a   9.11072958
_cell_length_b   9.11072922
_cell_length_c   9.11072958
_cell_angle_alpha   109.47121925
_cell_angle_beta   109.47122319
_cell_angle_gamma   109.47121925
_symmetry_Int_Tables_number   1
_chemical_formula_structural   Li(Mg4Al3)4
_chemical_formula_sum   'Li1 Mg16 Al12'
_cell_volume   582.15356604
_cell_formula_units_Z   1
loop_
 _symmetry_equiv_pos_site_id
 _symmetry_equiv_pos_as_xyz
  1  'x, y, z'
loop_
 _atom_site_type_symbol
 _atom_site_label
 _atom_site_symmetry_multiplicity
 _atom_site_fract_x
 _atom_site_fract_y
 _atom_site_fract_z
 _atom_site_occupancy
  Li  Li0  1  0.00000000  0.00000000  0.00000000  1
  Mg  Mg1  1  0.60105453  0.31503090  0.00000000  1
  Mg  Mg2  1  0.00000100  0.33838477  0.00000100  1
  Mg  Mg3  1  0.31503090  0.60105353  0.00000100  1
  Mg  Mg4  1  0.33838477  0.00000000  0.00000100  1
  Mg  Mg5  1  0.68496810  0.68496910  0.28602264  1
  Mg  Mg6  1  0.00000100  0.60105353  0.31503090  1
  Mg  Mg7  1  0.60105353  0.00000100  0.31503090  1
  Mg  Mg8  1  0.00000100  0.00000000  0.33838477  1
  Mg  Mg9  1  0.39894747  0.71397836  0.39894747  1
  Mg  Mg10  1  0.71397836  0.39894747  0.39894847  1
  Mg  Mg11  1  0.31503090  0.00000100  0.60105353  1
  Mg  Mg12  1  0.00000000  0.31503090  0.60105453  1
  Mg  Mg13  1  0.66161523  0.66161523  0.66161523  1
  Mg  Mg14  1  0.28602264  0.68496910  0.68496810  1
  Mg  Mg15  1  0.68496910  0.28602264  0.68496910  1
  Mg  Mg16  1  0.39894847  0.39894747  0.71397836  1
  Al  Al17  1  0.63243278  0.81386625  0.99999900  1
  Al  Al18  1  0.81386625  0.63243278  1.00000000  1
  Al  Al19  1  0.36756722  0.36756722  0.18143247  1
  Al  Al20  1  0.18613275  0.81856653  0.18613275  1
  Al  Al21  1  0.81856553  0.18613375  0.18613375  1
  Al  Al22  1  0.36756722  0.18143247  0.36756722  1
  Al  Al23  1  0.18143247  0.36756722  0.36756722  1
  Al  Al24  1  0.99999900  0.81386625  0.63243278  1
  Al  Al25  1  0.81386525  0.00000000  0.63243378  1
  Al  Al26  1  0.63243378  0.00000000  0.81386525  1
  Al  Al27  1  1.00000000  0.63243278  0.81386625  1
  Al  Al28  1  0.18613375  0.18613375  0.81856553  1
