# generated using pymatgen
data_Sm2PdRh
_symmetry_space_group_name_H-M   'P 1'
_cell_length_a   5.01703368
_cell_length_b   5.01702908
_cell_length_c   5.01703829
_cell_angle_alpha   60.00037942
_cell_angle_beta   60.00034832
_cell_angle_gamma   59.99995799
_symmetry_Int_Tables_number   1
_chemical_formula_structural   Sm2PdRh
_chemical_formula_sum   'Sm2 Pd1 Rh1'
_cell_volume   89.29523893
_cell_formula_units_Z   1
loop_
 _symmetry_equiv_pos_site_id
 _symmetry_equiv_pos_as_xyz
  1  'x, y, z'
loop_
 _atom_site_type_symbol
 _atom_site_label
 _atom_site_symmetry_multiplicity
 _atom_site_fract_x
 _atom_site_fract_y
 _atom_site_fract_z
 _atom_site_occupancy
  Sm  Sm0  1  0.00000020  -0.00000015  -0.00000031  1
  Sm  Sm1  1  0.49999940  0.50000061  0.49999913  1
  Pd  Pd2  1  0.24999848  0.25000016  0.25000029  1
  Rh  Rh3  1  0.75000193  0.74999939  0.75000089  1
