# generated using pymatgen
data_Li(Mg4Al3)4
_symmetry_space_group_name_H-M   'P 1'
_cell_length_a   9.11609897
_cell_length_b   9.14619799
_cell_length_c   9.07814555
_cell_angle_alpha   109.57155692
_cell_angle_beta   109.43693577
_cell_angle_gamma   109.64083935
_symmetry_Int_Tables_number   1
_chemical_formula_structural   Li(Mg4Al3)4
_chemical_formula_sum   'Li1 Mg16 Al12'
_cell_volume   580.97068171
_cell_formula_units_Z   1
loop_
 _symmetry_equiv_pos_site_id
 _symmetry_equiv_pos_as_xyz
  1  'x, y, z'
loop_
 _atom_site_type_symbol
 _atom_site_label
 _atom_site_symmetry_multiplicity
 _atom_site_fract_x
 _atom_site_fract_y
 _atom_site_fract_z
 _atom_site_occupancy
  Li  Li0  1  0.60685545  0.31595869  0.99999900  1
  Mg  Mg1  1  0.31489467  0.60310126  0.00000000  1
  Mg  Mg2  1  0.35220270  0.00886138  -0.00000000  1
  Mg  Mg3  1  0.00058732  0.99925956  -0.00000000  1
  Mg  Mg4  1  0.00023040  0.34314955  -0.00000000  1
  Mg  Mg5  1  0.68220704  0.67940038  0.28012900  1
  Mg  Mg6  1  0.99693126  0.59887461  0.31334648  1
  Mg  Mg7  1  0.60146192  0.99925263  0.31502512  1
  Mg  Mg8  1  0.99888352  0.99981521  0.34477029  1
  Mg  Mg9  1  0.71157238  0.39697553  0.39601373  1
  Mg  Mg10  1  0.39748382  0.71392923  0.39794336  1
  Mg  Mg11  1  0.99954045  0.31598587  0.60205764  1
  Mg  Mg12  1  0.31555765  0.00096179  0.60398627  1
  Mg  Mg13  1  0.65411223  0.65504292  0.65522771  1
  Mg  Mg14  1  0.28643780  0.68422751  0.68497488  1
  Mg  Mg15  1  0.68358378  0.28552714  0.68665252  1
  Mg  Mg16  1  0.40207804  0.39927238  0.71987100  1
  Al  Al17  1  0.63501341  0.81501602  0.99999900  1
  Al  Al18  1  0.81350978  0.63122592  0.00000000  1
  Al  Al19  1  0.36580674  0.36708663  0.18164617  1
  Al  Al20  1  0.81790261  0.18655814  0.18478198  1
  Al  Al21  1  0.18526538  0.81988720  0.18552619  1
  Al  Al22  1  0.36605986  0.18123415  0.36712907  1
  Al  Al23  1  0.18161881  0.36554077  0.36736798  1
  Al  Al24  1  0.81424983  0.99817079  0.63263202  1
  Al  Al25  1  0.99893179  0.81410708  0.63287193  1
  Al  Al26  1  0.99973919  0.63436300  0.81447381  1
  Al  Al27  1  0.63312162  0.00177516  0.81521802  1
  Al  Al28  1  0.18416057  0.18543946  0.81835283  1
