# generated using pymatgen
data_YHo3
_symmetry_space_group_name_H-M   'P 1'
_cell_length_a   5.01359480
_cell_length_b   5.01357186
_cell_length_c   5.01361345
_cell_angle_alpha   89.99959819
_cell_angle_beta   90.00007200
_cell_angle_gamma   90.00109298
_symmetry_Int_Tables_number   1
_chemical_formula_structural   YHo3
_chemical_formula_sum   'Y1 Ho3'
_cell_volume   126.02227694
_cell_formula_units_Z   1
loop_
 _symmetry_equiv_pos_site_id
 _symmetry_equiv_pos_as_xyz
  1  'x, y, z'
loop_
 _atom_site_type_symbol
 _atom_site_label
 _atom_site_symmetry_multiplicity
 _atom_site_fract_x
 _atom_site_fract_y
 _atom_site_fract_z
 _atom_site_occupancy
  Y  Y0  1  0.99999960  0.99999909  0.00000148  1
  Ho  Ho1  1  0.99999785  0.49999765  0.50000014  1
  Ho  Ho2  1  0.50000219  0.00000344  0.50000061  1
  Ho  Ho3  1  0.50000237  0.50000182  0.99999977  1
