# generated using pymatgen
data_HoPaOs2
_symmetry_space_group_name_H-M   'P 1'
_cell_length_a   4.84777335
_cell_length_b   4.84763764
_cell_length_c   4.84770554
_cell_angle_alpha   60.00204755
_cell_angle_beta   59.99932362
_cell_angle_gamma   59.99953384
_symmetry_Int_Tables_number   1
_chemical_formula_structural   HoPaOs2
_chemical_formula_sum   'Ho1 Pa1 Os2'
_cell_volume   80.55577119
_cell_formula_units_Z   1
loop_
 _symmetry_equiv_pos_site_id
 _symmetry_equiv_pos_as_xyz
  1  'x, y, z'
loop_
 _atom_site_type_symbol
 _atom_site_label
 _atom_site_symmetry_multiplicity
 _atom_site_fract_x
 _atom_site_fract_y
 _atom_site_fract_z
 _atom_site_occupancy
  Ho  Ho0  1  0.24999801  0.24999971  0.25000012  1
  Pa  Pa1  1  0.75000045  0.74999925  0.74999974  1
  Os  Os2  1  -0.00000054  0.00000047  -0.00000092  1
  Os  Os3  1  0.50000108  0.49999957  0.50000006  1
