# generated using pymatgen
data_RbSnF3
_symmetry_space_group_name_H-M   'P 1'
_cell_length_a   4.63933845
_cell_length_b   4.60990802
_cell_length_c   5.30034888
_cell_angle_alpha   85.56058861
_cell_angle_beta   96.68175288
_cell_angle_gamma   90.43722534
_symmetry_Int_Tables_number   1
_chemical_formula_structural   RbSnF3
_chemical_formula_sum   'Rb1 Sn1 F3'
_cell_volume   112.25029836
_cell_formula_units_Z   1
loop_
 _symmetry_equiv_pos_site_id
 _symmetry_equiv_pos_as_xyz
  1  'x, y, z'
loop_
 _atom_site_type_symbol
 _atom_site_label
 _atom_site_symmetry_multiplicity
 _atom_site_fract_x
 _atom_site_fract_y
 _atom_site_fract_z
 _atom_site_occupancy
  Rb  Rb0  1  0.03384481  0.97639609  0.92031407  1
  Sn  Sn1  1  0.48529909  0.50741763  0.49055268  1
  F  F2  1  0.49701673  0.02453538  0.56884532  1
  F  F3  1  0.51341323  0.48806238  0.88897022  1
  F  F4  1  0.96042714  0.50358853  0.57131571  1
