# generated using pymatgen
data_LaWN3
_symmetry_space_group_name_H-M   'P 1'
_cell_length_a   5.65469326
_cell_length_b   5.69262783
_cell_length_c   8.00222049
_cell_angle_alpha   90.00000000
_cell_angle_beta   90.00000000
_cell_angle_gamma   90.00000000
_symmetry_Int_Tables_number   1
_chemical_formula_structural   LaWN3
_chemical_formula_sum   'La4 W4 N12'
_cell_volume   257.59199149
_cell_formula_units_Z   4
loop_
 _symmetry_equiv_pos_site_id
 _symmetry_equiv_pos_as_xyz
  1  'x, y, z'
loop_
 _atom_site_type_symbol
 _atom_site_label
 _atom_site_symmetry_multiplicity
 _atom_site_fract_x
 _atom_site_fract_y
 _atom_site_fract_z
 _atom_site_occupancy
  La  La0  1  0.98232426  0.00200537  0.25000000  1
  La  La1  1  0.01767574  0.99799463  0.75000000  1
  La  La2  1  0.48232426  0.49799463  0.25000000  1
  La  La3  1  0.51767574  0.50200537  0.75000000  1
  W  W4  1  0.50000000  0.00000000  0.50000000  1
  W  W5  1  0.00000000  0.50000000  0.00000000  1
  W  W6  1  0.00000000  0.50000000  0.50000000  1
  W  W7  1  0.50000000  0.00000000  0.00000000  1
  N  N8  1  0.27264298  0.72926633  0.53047884  1
  N  N9  1  0.22735702  0.22926633  0.03047884  1
  N  N10  1  0.22735702  0.22926633  0.46952116  1
  N  N11  1  0.27264298  0.72926633  0.96952116  1
  N  N12  1  0.77264298  0.77073367  0.53047884  1
  N  N13  1  0.72735702  0.27073367  0.03047884  1
  N  N14  1  0.99489500  0.44133890  0.75000000  1
  N  N15  1  0.00510500  0.55866110  0.25000000  1
  N  N16  1  0.50510500  0.94133890  0.25000000  1
  N  N17  1  0.72735702  0.27073367  0.46952116  1
  N  N18  1  0.77264298  0.77073367  0.96952116  1
  N  N19  1  0.49489500  0.05866110  0.75000000  1
