# generated using pymatgen
data_KGeCl3
_symmetry_space_group_name_H-M   'P 1'
_cell_length_a   5.33510817
_cell_length_b   5.35783878
_cell_length_c   5.35448384
_cell_angle_alpha   89.15415443
_cell_angle_beta   88.99004154
_cell_angle_gamma   89.17755728
_symmetry_Int_Tables_number   1
_chemical_formula_structural   KGeCl3
_chemical_formula_sum   'K1 Ge1 Cl3'
_cell_volume   153.00038462
_cell_formula_units_Z   1
loop_
 _symmetry_equiv_pos_site_id
 _symmetry_equiv_pos_as_xyz
  1  'x, y, z'
loop_
 _atom_site_type_symbol
 _atom_site_label
 _atom_site_symmetry_multiplicity
 _atom_site_fract_x
 _atom_site_fract_y
 _atom_site_fract_z
 _atom_site_occupancy
  K  K0  1  0.99888144  0.99666375  0.99600159  1
  Ge  Ge1  1  0.46717499  0.47936137  0.47760810  1
  Cl  Cl2  1  0.48139325  0.02431007  0.49424290  1
  Cl  Cl3  1  0.00750723  0.50129507  0.50001619  1
  Cl  Cl4  1  0.48504509  0.49836674  0.02212923  1
