# generated using pymatgen
data_Al5(CuO4)3
_symmetry_space_group_name_H-M   'P 1'
_cell_length_a   5.76061566
_cell_length_b   5.76061562
_cell_length_c   17.34816721
_cell_angle_alpha   59.94028089
_cell_angle_beta   59.94028073
_cell_angle_gamma   60.07597777
_symmetry_Int_Tables_number   1
_chemical_formula_structural   Al5(CuO4)3
_chemical_formula_sum   'Al10 Cu6 O24'
_cell_volume   406.94160315
_cell_formula_units_Z   2
loop_
 _symmetry_equiv_pos_site_id
 _symmetry_equiv_pos_as_xyz
  1  'x, y, z'
loop_
 _atom_site_type_symbol
 _atom_site_label
 _atom_site_symmetry_multiplicity
 _atom_site_fract_x
 _atom_site_fract_y
 _atom_site_fract_z
 _atom_site_occupancy
  Al  Al0  1  0.49951144  0.49951144  0.16799856  1
  Al  Al1  1  0.49843465  0.99518792  0.16903436  1
  Al  Al2  1  0.50290937  0.50290937  0.49913562  1
  Al  Al3  1  0.99518792  0.49843465  0.16903436  1
  Al  Al4  1  0.50188559  0.50188559  0.66864937  1
  Al  Al5  1  0.50326838  0.99600529  0.49872022  1
  Al  Al6  1  0.99600529  0.50326738  0.49872022  1
  Al  Al7  1  0.49778740  0.99784066  0.83501624  1
  Al  Al8  1  0.99784066  0.49778740  0.83501624  1
  Al  Al9  1  0.88032519  0.88032519  0.95721080  1
  Cu  Cu10  1  0.13162799  0.13162799  0.03705545  1
  Cu  Cu11  1  0.49550850  0.49550850  0.00030562  1
  Cu  Cu12  1  0.12706365  0.12706365  0.37266031  1
  Cu  Cu13  1  0.11984732  0.11984632  0.71180426  1
  Cu  Cu14  1  0.50299913  0.50299913  0.33014793  1
  Cu  Cu15  1  0.86545864  0.86545864  0.63253487  1
  O  O16  1  0.24928634  0.24928634  0.09432938  1
  O  O17  1  0.26504975  0.26504975  0.23464804  1
  O  O18  1  0.25654134  0.71140658  0.09093732  1
  O  O19  1  0.71140658  0.25654134  0.09093732  1
  O  O20  1  0.25863734  0.25863734  0.42332398  1
  O  O21  1  0.30034205  0.73724078  0.24099173  1
  O  O22  1  0.74623339  0.74623339  0.08535879  1
  O  O23  1  0.26467683  0.26467583  0.56820848  1
  O  O24  1  0.25911611  0.71184576  0.42330845  1
  O  O25  1  0.73724078  0.30034205  0.24099173  1
  O  O26  1  0.71184576  0.25911611  0.42330845  1
  O  O27  1  0.73891224  0.73891224  0.24064567  1
  O  O28  1  0.28775106  0.73559975  0.57952553  1
  O  O29  1  0.26339690  0.26339690  0.75365728  1
  O  O30  1  0.72906526  0.72906626  0.43724712  1
  O  O31  1  0.73559975  0.28775106  0.57952553  1
  O  O32  1  0.24893792  0.24893792  0.90567566  1
  O  O33  1  0.24511664  0.72027916  0.74789695  1
  O  O34  1  0.72027916  0.24511664  0.74789695  1
  O  O35  1  0.73848006  0.73847906  0.57891913  1
  O  O36  1  0.26220723  0.76820262  0.91722951  1
  O  O37  1  0.75351496  0.75351496  0.76334623  1
  O  O38  1  0.76820262  0.26220723  0.91722951  1
  O  O39  1  0.75438281  0.75438281  0.91110687  1
