# generated using pymatgen
data_Si3H
_symmetry_space_group_name_H-M   'P 1'
_cell_length_a   3.86176536
_cell_length_b   3.86181677
_cell_length_c   11.30219885
_cell_angle_alpha   89.99974981
_cell_angle_beta   89.99999999
_cell_angle_gamma   119.99955211
_symmetry_Int_Tables_number   1
_chemical_formula_structural   Si3H
_chemical_formula_sum   'Si6 H2'
_cell_volume   145.97318455
_cell_formula_units_Z   2
loop_
 _symmetry_equiv_pos_site_id
 _symmetry_equiv_pos_as_xyz
  1  'x, y, z'
loop_
 _atom_site_type_symbol
 _atom_site_label
 _atom_site_symmetry_multiplicity
 _atom_site_fract_x
 _atom_site_fract_y
 _atom_site_fract_z
 _atom_site_occupancy
  Si  Si0  1  0.66666736  0.33333472  0.46503890  1
  Si  Si1  1  0.33333264  0.66666528  0.53496110  1
  Si  Si2  1  0.66666933  0.33333865  0.25333515  1
  Si  Si3  1  0.33333067  0.66666135  0.74666485  1
  Si  Si4  1  0.33333047  0.66666093  0.18525103  1
  Si  Si5  1  0.66666953  0.33333907  0.81474897  1
  H  H6  1  0.33332937  0.66665875  0.05272232  1
  H  H7  1  0.66667063  0.33334125  0.94727768  1
