# generated using pymatgen
data_LaMoN3
_symmetry_space_group_name_H-M   'P 1'
_cell_length_a   5.72756775
_cell_length_b   5.72756722
_cell_length_c   5.74091026
_cell_angle_alpha   60.07684692
_cell_angle_beta   60.07684821
_cell_angle_gamma   59.99999571
_symmetry_Int_Tables_number   1
_chemical_formula_structural   LaMoN3
_chemical_formula_sum   'La2 Mo2 N6'
_cell_volume   133.32440554
_cell_formula_units_Z   2
loop_
 _symmetry_equiv_pos_site_id
 _symmetry_equiv_pos_as_xyz
  1  'x, y, z'
loop_
 _atom_site_type_symbol
 _atom_site_label
 _atom_site_symmetry_multiplicity
 _atom_site_fract_x
 _atom_site_fract_y
 _atom_site_fract_z
 _atom_site_occupancy
  La  La0  1  0.26031000  0.26031000  0.21907000  1
  La  La1  1  0.76031000  0.76031000  0.71907000  1
  Mo  Mo2  1  0.51159000  0.51159000  0.46523000  1
  Mo  Mo3  1  0.01159000  0.01159000  0.96523000  1
  N  N4  1  0.29458000  0.17788000  0.79020000  1
  N  N5  1  0.17788000  0.73734000  0.79020000  1
  N  N6  1  0.73734000  0.29458000  0.79020000  1
  N  N7  1  0.67788000  0.79458000  0.29020000  1
  N  N8  1  0.79458000  0.23734000  0.29020000  1
  N  N9  1  0.23734000  0.67788000  0.29020000  1
