# generated using pymatgen
data_Zn2Co3O8
_symmetry_space_group_name_H-M   'P 1'
_cell_length_a   4.82265257
_cell_length_b   5.66543571
_cell_length_c   5.81041014
_cell_angle_alpha   119.17801118
_cell_angle_beta   107.26691451
_cell_angle_gamma   89.99999725
_symmetry_Int_Tables_number   1
_chemical_formula_structural   Zn2Co3O8
_chemical_formula_sum   'Zn2 Co3 O8'
_cell_volume   130.35433285
_cell_formula_units_Z   1
loop_
 _symmetry_equiv_pos_site_id
 _symmetry_equiv_pos_as_xyz
  1  'x, y, z'
loop_
 _atom_site_type_symbol
 _atom_site_label
 _atom_site_symmetry_multiplicity
 _atom_site_fract_x
 _atom_site_fract_y
 _atom_site_fract_z
 _atom_site_occupancy
  Zn  Zn0  1  0.65694274  0.71839241  0.43678382  1
  Zn  Zn1  1  0.34305626  0.28160859  0.56321618  1
  Co  Co2  1  0.50000000  0.99999900  0.00000000  1
  Co  Co3  1  0.99999900  0.74368742  1.00000000  1
  Co  Co4  1  0.99999900  0.25631258  0.00000000  1
  O  O5  1  0.06799573  0.39646155  0.79292409  1
  O  O6  1  0.93200427  0.60353745  0.20707591  1
  O  O7  1  0.08525675  0.89617396  0.79234793  1
  O  O8  1  0.91474325  0.10382504  0.20765107  1
  O  O9  1  0.39995534  0.33629698  0.22254209  1
  O  O10  1  0.39995534  0.88624510  0.22254209  1
  O  O11  1  0.60004566  0.11375390  0.77745791  1
  O  O12  1  0.60004566  0.66370302  0.77745791  1
