# generated using pymatgen
data_TeWO6
_symmetry_space_group_name_H-M   'P 1'
_cell_length_a   5.17904944
_cell_length_b   5.33616861
_cell_length_c   7.44346564
_cell_angle_alpha   90.00000000
_cell_angle_beta   90.01282150
_cell_angle_gamma   90.00000000
_symmetry_Int_Tables_number   1
_chemical_formula_structural   TeWO6
_chemical_formula_sum   'Te2 W2 O12'
_cell_volume   205.70970344
_cell_formula_units_Z   2
loop_
 _symmetry_equiv_pos_site_id
 _symmetry_equiv_pos_as_xyz
  1  'x, y, z'
loop_
 _atom_site_type_symbol
 _atom_site_label
 _atom_site_symmetry_multiplicity
 _atom_site_fract_x
 _atom_site_fract_y
 _atom_site_fract_z
 _atom_site_occupancy
  Te  Te0  1  0.50000000  0.00000000  0.00000000  1
  Te  Te1  1  0.00000100  0.49999900  0.50000000  1
  W  W2  1  0.50000000  0.00000000  0.49999900  1
  W  W3  1  0.00000000  0.49999900  0.00000000  1
  O  O4  1  0.70010072  0.29731268  0.45010249  1
  O  O5  1  0.79989928  0.79731368  0.04989751  1
  O  O6  1  0.29989828  0.70268732  0.54989751  1
  O  O7  1  0.20010172  0.20268632  0.95010249  1
  O  O8  1  0.19779169  0.20265187  0.54889518  1
  O  O9  1  0.30220831  0.70265087  0.95110482  1
  O  O10  1  0.80220931  0.79734813  0.45110482  1
  O  O11  1  0.69779069  0.29734913  0.04889518  1
  O  O12  1  0.09905756  0.48318690  0.25066335  1
  O  O13  1  0.40094344  0.98318790  0.24933565  1
  O  O14  1  0.59905756  0.01681210  0.75066435  1
  O  O15  1  0.90094344  0.51681310  0.74933665  1
