# generated using pymatgen
data_CaCu2(P2O7)2
_symmetry_space_group_name_H-M   'P 1'
_cell_length_a   5.41887068
_cell_length_b   7.99159944
_cell_length_c   12.87680256
_cell_angle_alpha   90.19229163
_cell_angle_beta   93.55514812
_cell_angle_gamma   90.21367155
_symmetry_Int_Tables_number   1
_chemical_formula_structural   CaCu2(P2O7)2
_chemical_formula_sum   'Ca2 Cu4 P8 O28'
_cell_volume   556.55505804
_cell_formula_units_Z   2
loop_
 _symmetry_equiv_pos_site_id
 _symmetry_equiv_pos_as_xyz
  1  'x, y, z'
loop_
 _atom_site_type_symbol
 _atom_site_label
 _atom_site_symmetry_multiplicity
 _atom_site_fract_x
 _atom_site_fract_y
 _atom_site_fract_z
 _atom_site_occupancy
  Ca  Ca0  1  0.70507673  0.68441451  0.73067914  1
  Ca  Ca1  1  0.29492327  0.31558549  0.26932086  1
  Cu  Cu2  1  0.27421941  0.35905780  0.61935942  1
  Cu  Cu3  1  0.23415105  0.86048277  0.87880426  1
  Cu  Cu4  1  0.72578059  0.64094220  0.38064058  1
  Cu  Cu5  1  0.76584895  0.13951723  0.12119574  1
  P  P6  1  0.81472004  0.30330741  0.48743622  1
  P  P7  1  0.69025718  0.80096720  0.01158397  1
  P  P8  1  0.18527996  0.69669259  0.51256378  1
  P  P9  1  0.30974282  0.19903280  0.98841603  1
  P  P10  1  0.26471370  0.97030242  0.66731547  1
  P  P11  1  0.22950512  0.47386664  0.83014689  1
  P  P12  1  0.73528630  0.02969758  0.33268453  1
  P  P13  1  0.77049488  0.52613336  0.16985311  1
  O  O14  1  0.70028285  0.32428038  0.58906199  1
  O  O15  1  0.80388909  0.79801589  0.90783540  1
  O  O16  1  0.29971715  0.67571962  0.41093801  1
  O  O17  1  0.19611091  0.20198411  0.09216460  1
  O  O18  1  0.59451285  0.16377997  0.99267643  1
  O  O19  1  0.89876087  0.66317005  0.51337605  1
  O  O20  1  0.40548715  0.83622003  0.00732357  1
  O  O21  1  0.10123913  0.33682995  0.48662395  1
  O  O22  1  0.96279337  0.47962906  0.79397677  1
  O  O23  1  0.52945905  0.94349164  0.70429252  1
  O  O24  1  0.03720663  0.52037094  0.20602323  1
  O  O25  1  0.47054095  0.05650836  0.29570748  1
  O  O26  1  0.27262605  0.38655597  0.94126062  1
  O  O27  1  0.21697668  0.88798880  0.55253925  1
  O  O28  1  0.72737395  0.61344403  0.05873938  1
  O  O29  1  0.78302332  0.11201120  0.44746075  1
  O  O30  1  0.64536429  0.34989948  0.15589245  1
  O  O31  1  0.83496143  0.85109395  0.34436097  1
  O  O32  1  0.35463571  0.65010052  0.84410755  1
  O  O33  1  0.16503857  0.14890605  0.65563903  1
  O  O34  1  0.68385187  0.40468612  0.39510113  1
  O  O35  1  0.81685903  0.91136179  0.09835769  1
  O  O36  1  0.31614813  0.59531388  0.60489887  1
  O  O37  1  0.18314097  0.08863821  0.90164231  1
  O  O38  1  0.91811039  0.12228806  0.26180541  1
  O  O39  1  0.59082134  0.61427488  0.24259134  1
  O  O40  1  0.08188961  0.87771194  0.73819459  1
  O  O41  1  0.40917866  0.38572512  0.75740866  1
