# generated using pymatgen
data_CaSbF5
_symmetry_space_group_name_H-M   'P 1'
_cell_length_a   5.85657175
_cell_length_b   5.90822090
_cell_length_c   8.56590135
_cell_angle_alpha   98.47648690
_cell_angle_beta   110.16841785
_cell_angle_gamma   106.52104743
_symmetry_Int_Tables_number   1
_chemical_formula_structural   CaSbF5
_chemical_formula_sum   'Ca2 Sb2 F10'
_cell_volume   256.62356210
_cell_formula_units_Z   2
loop_
 _symmetry_equiv_pos_site_id
 _symmetry_equiv_pos_as_xyz
  1  'x, y, z'
loop_
 _atom_site_type_symbol
 _atom_site_label
 _atom_site_symmetry_multiplicity
 _atom_site_fract_x
 _atom_site_fract_y
 _atom_site_fract_z
 _atom_site_occupancy
  Ca  Ca0  1  0.22094644  0.50429341  0.71732363  1
  Ca  Ca1  1  0.70940060  0.49541153  0.21450278  1
  Sb  Sb2  1  0.03077696  0.04475345  -0.01385720  1
  Sb  Sb3  1  0.44050110  0.95906679  0.48980889  1
  F  F4  1  0.36463366  0.14985150  0.20311541  1
  F  F5  1  0.55170793  0.83313709  0.70184461  1
  F  F6  1  0.58286423  0.71299603  0.38481956  1
  F  F7  1  0.91024861  0.24920955  0.14689719  1
  F  F8  1  0.88981298  0.77176569  0.09030505  1
  F  F9  1  0.07763162  0.63062113  0.46779397  1
  F  F10  1  0.33504942  0.38610265  0.96748941  1
  F  F11  1  0.82287306  0.19458389  0.58887527  1
  F  F12  1  0.19067488  0.80375481  0.89413224  1
  F  F13  1  0.41318150  0.24792348  0.65514319  1
