# generated using pymatgen
data_MgMn2O4
_symmetry_space_group_name_H-M   'P 1'
_cell_length_a   6.03724182
_cell_length_b   6.05690025
_cell_length_c   24.20028273
_cell_angle_alpha   59.96264929
_cell_angle_beta   59.98890039
_cell_angle_gamma   59.89222744
_symmetry_Int_Tables_number   1
_chemical_formula_structural   MgMn2O4
_chemical_formula_sum   'Mg8 Mn16 O32'
_cell_volume   625.00076719
_cell_formula_units_Z   8
loop_
 _symmetry_equiv_pos_site_id
 _symmetry_equiv_pos_as_xyz
  1  'x, y, z'
loop_
 _atom_site_type_symbol
 _atom_site_label
 _atom_site_symmetry_multiplicity
 _atom_site_fract_x
 _atom_site_fract_y
 _atom_site_fract_z
 _atom_site_occupancy
  Mg  Mg0  1  0.14500528  0.11858918  0.02945459  1
  Mg  Mg1  1  0.00095607  0.49939814  0.12506141  1
  Mg  Mg2  1  0.14301466  0.11579956  0.28134631  1
  Mg  Mg3  1  -0.00009143  0.49927183  0.37538694  1
  Mg  Mg4  1  0.00001702  0.50028367  0.62485366  1
  Mg  Mg5  1  0.49816921  0.50053573  0.50019008  1
  Mg  Mg6  1  0.00121582  0.50015278  0.87461965  1
  Mg  Mg7  1  0.50205661  0.50021660  0.74937705  1
  Mn  Mn8  1  0.49915649  0.49922904  0.12502452  1
  Mn  Mn9  1  0.49646121  0.50051930  0.25062480  1
  Mn  Mn10  1  0.49915649  0.00151637  0.12502452  1
  Mn  Mn11  1  0.13495756  0.11377398  0.53437337  1
  Mn  Mn12  1  0.50273530  0.49712913  0.37550095  1
  Mn  Mn13  1  0.85936632  0.88072728  0.21979478  1
  Mn  Mn14  1  0.13924282  0.11731071  0.78153394  1
  Mn  Mn15  1  0.50273530  0.99813275  0.37550095  1
  Mn  Mn16  1  0.50029003  0.50037933  0.62477925  1
  Mn  Mn17  1  0.86144323  0.88401714  0.46763037  1
  Mn  Mn18  1  0.50029003  0.00021364  0.62477925  1
  Mn  Mn19  1  0.49662907  0.00405567  0.87437496  1
  Mn  Mn20  1  0.49662907  0.50181542  0.87437496  1
  Mn  Mn21  1  0.86411243  0.88608836  0.71592721  1
  Mn  Mn22  1  0.50217419  0.49733410  0.00078965  1
  Mn  Mn23  1  0.86178151  0.88130533  0.96890171  1
  O  O24  1  0.27798721  0.25753641  0.06377868  1
  O  O25  1  0.27823681  0.25457681  0.17815239  1
  O  O26  1  0.27798721  0.70936365  0.06377868  1
  O  O27  1  0.74074969  0.25670626  0.06145970  1
  O  O28  1  0.26375502  0.74165907  0.18823121  1
  O  O29  1  0.28185275  0.25439872  0.31418191  1
  O  O30  1  0.71878087  0.29502976  0.18630670  1
  O  O31  1  0.27647942  0.25499601  0.42838164  1
  O  O32  1  0.28185275  0.70702091  0.31418191  1
  O  O33  1  0.71799670  0.74362266  0.07368925  1
  O  O34  1  0.72687856  0.25451106  0.31602533  1
  O  O35  1  0.71878087  0.74096256  0.18630670  1
  O  O36  1  0.27453833  0.24634319  0.56800303  1
  O  O37  1  0.27867928  0.75008750  0.43028618  1
  O  O38  1  0.72859689  0.29207325  0.43108703  1
  O  O39  1  0.27888848  0.25471909  0.67791859  1
  O  O40  1  0.27453833  0.70710537  0.56800303  1
  O  O41  1  0.72170508  0.74425325  0.32244685  1
  O  O42  1  0.71509883  0.25425281  0.56909889  1
  O  O43  1  0.72859689  0.75498275  0.43108703  1
  O  O44  1  0.28484286  0.74665122  0.68046342  1
  O  O45  1  0.26995783  0.24585081  0.81875942  1
  O  O46  1  0.72578033  0.29331062  0.68153782  1
  O  O47  1  0.27757040  0.25495989  0.92812696  1
  O  O48  1  0.26995783  0.70915170  0.81875942  1
  O  O49  1  0.72202976  0.74609013  0.57144774  1
  O  O50  1  0.72392820  0.25133220  0.81835185  1
  O  O51  1  0.72578033  0.75475976  0.68153782  1
  O  O52  1  0.27850483  0.74016277  0.93529266  1
  O  O53  1  0.71583087  0.29718485  0.93598811  1
  O  O54  1  0.72050263  0.74552007  0.82211406  1
  O  O55  1  0.71583087  0.74303083  0.93598811  1
