# generated using pymatgen
data_MgMnO2
_symmetry_space_group_name_H-M   'P 1'
_cell_length_a   3.09869114
_cell_length_b   8.20240678
_cell_length_c   7.61633530
_cell_angle_alpha   107.94797568
_cell_angle_beta   90.04329307
_cell_angle_gamma   67.77281160
_symmetry_Int_Tables_number   1
_chemical_formula_structural   MgMnO2
_chemical_formula_sum   'Mg4 Mn4 O8'
_cell_volume   168.99649452
_cell_formula_units_Z   4
loop_
 _symmetry_equiv_pos_site_id
 _symmetry_equiv_pos_as_xyz
  1  'x, y, z'
loop_
 _atom_site_type_symbol
 _atom_site_label
 _atom_site_symmetry_multiplicity
 _atom_site_fract_x
 _atom_site_fract_y
 _atom_site_fract_z
 _atom_site_occupancy
  Mg  Mg0  1  0.18606705  0.05145404  0.19694194  1
  Mg  Mg1  1  0.80954269  0.92853888  0.83153191  1
  Mg  Mg2  1  0.05724036  0.68012895  0.07646433  1
  Mg  Mg3  1  0.93888038  0.29988622  0.95168216  1
  Mn  Mn4  1  0.56333588  0.17523900  0.57719052  1
  Mn  Mn5  1  0.31151378  0.42651140  0.31979044  1
  Mn  Mn6  1  0.68489287  0.55336375  0.70811647  1
  Mn  Mn7  1  0.43253423  0.80467517  0.45111702  1
  O  O8  1  0.05323933  0.68435701  0.58538178  1
  O  O9  1  0.31257179  0.42600189  0.83837621  1
  O  O10  1  0.68390727  0.55377763  0.18938352  1
  O  O11  1  0.94288259  0.29555781  0.44272215  1
  O  O12  1  0.18653240  0.05230096  0.71413125  1
  O  O13  1  0.56662409  0.17166475  0.07006220  1
  O  O14  1  0.80923778  0.92757725  0.31436188  1
  O  O15  1  0.42927349  0.80830129  0.95836522  1
