# generated using pymatgen
data_Ca2FeRhO6
_symmetry_space_group_name_H-M   'P 1'
_cell_length_a   6.49085909
_cell_length_b   6.49085870
_cell_length_c   6.36092212
_cell_angle_alpha   92.69033106
_cell_angle_beta   92.69033323
_cell_angle_gamma   91.56890105
_symmetry_Int_Tables_number   1
_chemical_formula_structural   Ca2FeRhO6
_chemical_formula_sum   'Ca4 Fe2 Rh2 O12'
_cell_volume   267.28561371
_cell_formula_units_Z   2
loop_
 _symmetry_equiv_pos_site_id
 _symmetry_equiv_pos_as_xyz
  1  'x, y, z'
loop_
 _atom_site_type_symbol
 _atom_site_label
 _atom_site_symmetry_multiplicity
 _atom_site_fract_x
 _atom_site_fract_y
 _atom_site_fract_z
 _atom_site_occupancy
  Ca  Ca0  1  0.61611800  0.88388200  0.25000000  1
  Ca  Ca1  1  0.37898928  0.12101072  0.75000000  1
  Ca  Ca2  1  0.11915559  0.73755139  0.38710717  1
  Ca  Ca3  1  0.76244861  0.38084441  0.11289283  1
  Fe  Fe4  1  0.24986196  0.25013804  0.25000000  1
  Fe  Fe5  1  0.75014034  0.74985966  0.75000000  1
  Rh  Rh6  1  0.00014606  0.99609721  0.99680281  1
  Rh  Rh7  1  0.50390279  0.49985394  0.50319719  1
  O  O8  1  0.79145916  0.61597908  0.45704999  1
  O  O9  1  0.59937815  0.46553611  0.79204779  1
  O  O10  1  0.46725846  0.80360484  0.58222231  1
  O  O11  1  0.03446389  0.90062185  0.70795221  1
  O  O12  1  0.88402092  0.70854084  0.04295001  1
  O  O13  1  0.69639516  0.03274154  0.91777769  1
  O  O14  1  0.21285175  0.40166035  0.52262239  1
  O  O15  1  0.41597960  0.53678422  0.21077929  1
  O  O16  1  0.52941979  0.20542392  0.39901376  1
  O  O17  1  0.96321578  0.08402040  0.28922071  1
  O  O18  1  0.29457608  0.97058021  0.10098624  1
  O  O19  1  0.09833965  0.28714825  0.97737761  1
