# generated using pymatgen
data_Ca2VWO6
_symmetry_space_group_name_H-M   'P 1'
_cell_length_a   5.50656441
_cell_length_b   5.67973535
_cell_length_c   7.88067049
_cell_angle_alpha   90.00000000
_cell_angle_beta   90.22228644
_cell_angle_gamma   90.00000000
_symmetry_Int_Tables_number   1
_chemical_formula_structural   Ca2VWO6
_chemical_formula_sum   'Ca4 V2 W2 O12'
_cell_volume   246.47264392
_cell_formula_units_Z   2
loop_
 _symmetry_equiv_pos_site_id
 _symmetry_equiv_pos_as_xyz
  1  'x, y, z'
loop_
 _atom_site_type_symbol
 _atom_site_label
 _atom_site_symmetry_multiplicity
 _atom_site_fract_x
 _atom_site_fract_y
 _atom_site_fract_z
 _atom_site_occupancy
  Ca  Ca0  1  0.98761931  0.05197452  0.25215292  1
  Ca  Ca1  1  0.51238069  0.55197552  0.24784708  1
  Ca  Ca2  1  0.01238169  0.94802648  0.74784708  1
  Ca  Ca3  1  0.48761831  0.44802548  0.75215292  1
  V  V4  1  0.50000000  0.00000000  0.00000000  1
  V  V5  1  0.00000100  0.49999900  0.50000000  1
  W  W6  1  0.50000000  0.00000000  0.49999900  1
  W  W7  1  0.00000000  0.49999900  0.00000000  1
  O  O8  1  0.68692006  0.28455918  0.44585393  1
  O  O9  1  0.81307994  0.78456018  0.05414607  1
  O  O10  1  0.31307894  0.71544082  0.55414607  1
  O  O11  1  0.18692106  0.21543982  0.94585393  1
  O  O12  1  0.21264859  0.19145163  0.54720309  1
  O  O13  1  0.28735141  0.69145063  0.95279691  1
  O  O14  1  0.78735241  0.80854837  0.45279691  1
  O  O15  1  0.71264759  0.30854937  0.04720309  1
  O  O16  1  0.09769839  0.46647438  0.23856950  1
  O  O17  1  0.40230261  0.96647538  0.26142950  1
  O  O18  1  0.59769839  0.03352462  0.73857050  1
  O  O19  1  0.90230261  0.53352562  0.76143050  1
