# generated using pymatgen
data_CaMn4O8
_symmetry_space_group_name_H-M   'P 1'
_cell_length_a   5.83488818
_cell_length_b   5.97294506
_cell_length_c   5.87678115
_cell_angle_alpha   89.40058610
_cell_angle_beta   73.99801865
_cell_angle_gamma   62.43221678
_symmetry_Int_Tables_number   1
_chemical_formula_structural   CaMn4O8
_chemical_formula_sum   'Ca1 Mn4 O8'
_cell_volume   172.86920889
_cell_formula_units_Z   1
loop_
 _symmetry_equiv_pos_site_id
 _symmetry_equiv_pos_as_xyz
  1  'x, y, z'
loop_
 _atom_site_type_symbol
 _atom_site_label
 _atom_site_symmetry_multiplicity
 _atom_site_fract_x
 _atom_site_fract_y
 _atom_site_fract_z
 _atom_site_occupancy
  Ca  Ca0  1  0.49978995  0.25011611  0.50002280  1
  Mn  Mn1  1  0.99030848  0.50464377  0.02522111  1
  Mn  Mn2  1  0.50082770  0.99653909  0.99864684  1
  Mn  Mn3  1  0.00972182  0.99531790  0.97489460  1
  Mn  Mn4  1  0.49924579  0.50344148  0.00126901  1
  O  O5  1  0.74535816  0.38422309  0.19054996  1
  O  O6  1  0.75335774  0.90211734  0.18163435  1
  O  O7  1  0.27880853  0.85047504  0.16674065  1
  O  O8  1  0.28652605  0.34424925  0.18709502  1
  O  O9  1  0.72148917  0.64939089  0.83334800  1
  O  O10  1  0.71327663  0.15585528  0.81279892  1
  O  O11  1  0.25469805  0.11555737  0.80939876  1
  O  O12  1  0.24658293  0.59806640  0.81839098  1
