# generated using pymatgen
data_Mg7Cd
_symmetry_space_group_name_H-M   'P 1'
_cell_length_a   6.34562589
_cell_length_b   6.34562537
_cell_length_c   5.15727870
_cell_angle_alpha   90.00000000
_cell_angle_beta   90.00000000
_cell_angle_gamma   120.00000264
_symmetry_Int_Tables_number   1
_chemical_formula_structural   Mg7Cd
_chemical_formula_sum   'Mg7 Cd1'
_cell_volume   179.84572338
_cell_formula_units_Z   1
loop_
 _symmetry_equiv_pos_site_id
 _symmetry_equiv_pos_as_xyz
  1  'x, y, z'
loop_
 _atom_site_type_symbol
 _atom_site_label
 _atom_site_symmetry_multiplicity
 _atom_site_fract_x
 _atom_site_fract_y
 _atom_site_fract_z
 _atom_site_occupancy
  Mg  Mg0  1  0.16592278  0.83296089  0.25000000  1
  Mg  Mg1  1  0.66703911  0.33407722  0.25000000  1
  Mg  Mg2  1  0.66703911  0.83296089  0.25000000  1
  Mg  Mg3  1  0.33317734  0.16682266  0.75000000  1
  Mg  Mg4  1  0.33317734  0.66635568  0.75000000  1
  Mg  Mg5  1  0.83364432  0.16682266  0.75000000  1
  Mg  Mg6  1  0.83333300  0.66666700  0.75000000  1
  Cd  Cd7  1  0.16666700  0.33333300  0.25000000  1
