# generated using pymatgen
data_MgCuP2O7
_symmetry_space_group_name_H-M   'P 1'
_cell_length_a   6.20577301
_cell_length_b   6.31596681
_cell_length_c   7.01686891
_cell_angle_alpha   68.31950307
_cell_angle_beta   79.97916438
_cell_angle_gamma   80.75246175
_symmetry_Int_Tables_number   1
_chemical_formula_structural   MgCuP2O7
_chemical_formula_sum   'Mg2 Cu2 P4 O14'
_cell_volume   250.27356907
_cell_formula_units_Z   2
loop_
 _symmetry_equiv_pos_site_id
 _symmetry_equiv_pos_as_xyz
  1  'x, y, z'
loop_
 _atom_site_type_symbol
 _atom_site_label
 _atom_site_symmetry_multiplicity
 _atom_site_fract_x
 _atom_site_fract_y
 _atom_site_fract_z
 _atom_site_occupancy
  Mg  Mg0  1  0.89453542  0.28141116  0.16094237  1
  Mg  Mg1  1  0.10546458  0.71858884  0.83905763  1
  Cu  Cu2  1  0.67916526  0.09520703  0.78312550  1
  Cu  Cu3  1  0.32083474  0.90479297  0.21687450  1
  P  P4  1  0.17212714  0.22999084  0.74933321  1
  P  P5  1  0.82787286  0.77000916  0.25066679  1
  P  P6  1  0.62385024  0.63276873  0.69487551  1
  P  P7  1  0.37614976  0.36723127  0.30512449  1
  O  O8  1  0.76512229  0.60720987  0.48182948  1
  O  O9  1  0.23487771  0.39279013  0.51817052  1
  O  O10  1  0.00414057  0.06903425  0.75580193  1
  O  O11  1  0.99585943  0.93096575  0.24419807  1
  O  O12  1  0.60871466  0.26871931  0.35090854  1
  O  O13  1  0.39128534  0.73128069  0.64909146  1
  O  O14  1  0.35717741  0.61612636  0.15282238  1
  O  O15  1  0.64282259  0.38387364  0.84717662  1
  O  O16  1  0.92605150  0.60895823  0.13301347  1
  O  O17  1  0.07394850  0.39104177  0.86698653  1
  O  O18  1  0.62980201  0.93003930  0.16315340  1
  O  O19  1  0.37019799  0.06996070  0.83684660  1
  O  O20  1  0.24410285  0.21499224  0.24933236  1
  O  O21  1  0.75589715  0.78500776  0.75066764  1
