# generated using pymatgen
data_Te4Mo2WSe2
_symmetry_space_group_name_H-M   'P 1'
_cell_length_a   3.47534217
_cell_length_b   3.47531752
_cell_length_c   32.04541805
_cell_angle_alpha   90.00000000
_cell_angle_beta   90.00000000
_cell_angle_gamma   120.00023450
_symmetry_Int_Tables_number   1
_chemical_formula_structural   Te4Mo2WSe2
_chemical_formula_sum   'Te4 Mo2 W1 Se2'
_cell_volume   335.18734032
_cell_formula_units_Z   1
loop_
 _symmetry_equiv_pos_site_id
 _symmetry_equiv_pos_as_xyz
  1  'x, y, z'
loop_
 _atom_site_type_symbol
 _atom_site_label
 _atom_site_symmetry_multiplicity
 _atom_site_fract_x
 _atom_site_fract_y
 _atom_site_fract_z
 _atom_site_occupancy
  Te  Te0  1  0.66664766  0.33329433  0.05817308  1
  Te  Te1  1  0.66664715  0.33329329  0.52082250  1
  Te  Te2  1  0.66664715  0.33329329  0.17314250  1
  Te  Te3  1  0.66664766  0.33329433  0.63579092  1
  Mo  Mo4  1  0.33330825  0.66661651  0.11564842  1
  Mo  Mo5  1  0.33330825  0.66661651  0.57831658  1
  W  W6  1  0.66668689  0.33337377  0.34698200  1
  Se  Se7  1  0.33335399  0.66670899  0.39788527  1
  Se  Se8  1  0.33335399  0.66670899  0.29607973  1
