# generated using pymatgen
data_MoWSe3S
_symmetry_space_group_name_H-M   'P 1'
_cell_length_a   3.28858266
_cell_length_b   3.28858094
_cell_length_c   37.34337631
_cell_angle_alpha   90.00637544
_cell_angle_beta   90.00000000
_cell_angle_gamma   120.00001734
_symmetry_Int_Tables_number   1
_chemical_formula_structural   MoWSe3S
_chemical_formula_sum   'Mo2 W2 Se6 S2'
_cell_volume   349.75298580
_cell_formula_units_Z   2
loop_
 _symmetry_equiv_pos_site_id
 _symmetry_equiv_pos_as_xyz
  1  'x, y, z'
loop_
 _atom_site_type_symbol
 _atom_site_label
 _atom_site_symmetry_multiplicity
 _atom_site_fract_x
 _atom_site_fract_y
 _atom_site_fract_z
 _atom_site_occupancy
  Mo  Mo0  1  0.33330699  0.66661398  0.09392907  1
  Mo  Mo1  1  0.66669621  0.33339243  0.28179655  1
  W  W2  1  0.33331365  0.66662730  0.46964703  1
  W  W3  1  0.66668361  0.33336722  0.65755209  1
  Se  Se4  1  0.33337096  0.66674291  0.70295255  1
  Se  Se5  1  0.66661143  0.33322186  0.04878938  1
  Se  Se6  1  0.66662674  0.33325249  0.42425182  1
  Se  Se7  1  0.66666668  0.33333235  0.13906245  1
  Se  Se8  1  0.66667436  0.33334772  0.51505081  1
  Se  Se9  1  0.33333145  0.66666391  0.61211785  1
  S  S10  1  0.33336507  0.66673115  0.32287037  1
  S  S11  1  0.33335284  0.66670668  0.24072801  1
