# generated using pymatgen
data_Te2Mo(WSe2)2
_symmetry_space_group_name_H-M   'P 1'
_cell_length_a   3.39693775
_cell_length_b   3.39689027
_cell_length_c   31.44202354
_cell_angle_alpha   89.99961974
_cell_angle_beta   90.00000000
_cell_angle_gamma   120.00046246
_symmetry_Int_Tables_number   1
_chemical_formula_structural   Te2Mo(WSe2)2
_chemical_formula_sum   'Te2 Mo1 W2 Se4'
_cell_volume   314.20146304
_cell_formula_units_Z   1
loop_
 _symmetry_equiv_pos_site_id
 _symmetry_equiv_pos_as_xyz
  1  'x, y, z'
loop_
 _atom_site_type_symbol
 _atom_site_label
 _atom_site_symmetry_multiplicity
 _atom_site_fract_x
 _atom_site_fract_y
 _atom_site_fract_z
 _atom_site_occupancy
  Te  Te0  1  0.66664738  0.33329377  0.05607553  1
  Te  Te1  1  0.66664852  0.33329604  0.17523343  1
  Mo  Mo2  1  0.33331057  0.66662114  0.11564417  1
  W  W3  1  0.33331308  0.66662616  0.57831019  1
  W  W4  1  0.66668782  0.33337565  0.34699961  1
  Se  Se5  1  0.33335387  0.66670874  0.39969903  1
  Se  Se6  1  0.66664136  0.33328173  0.52557601  1
  Se  Se7  1  0.66664461  0.33328823  0.63104286  1
  Se  Se8  1  0.33335378  0.66670855  0.29426017  1
