# generated using pymatgen
data_Te4Mo2WSe2
_symmetry_space_group_name_H-M   'P 1'
_cell_length_a   3.47535150
_cell_length_b   3.47535383
_cell_length_c   32.06502931
_cell_angle_alpha   90.00075775
_cell_angle_beta   90.00000000
_cell_angle_gamma   119.99997779
_symmetry_Int_Tables_number   1
_chemical_formula_structural   Te4Mo2WSe2
_chemical_formula_sum   'Te4 Mo2 W1 Se2'
_cell_volume   335.39774144
_cell_formula_units_Z   1
loop_
 _symmetry_equiv_pos_site_id
 _symmetry_equiv_pos_as_xyz
  1  'x, y, z'
loop_
 _atom_site_type_symbol
 _atom_site_label
 _atom_site_symmetry_multiplicity
 _atom_site_fract_x
 _atom_site_fract_y
 _atom_site_fract_z
 _atom_site_occupancy
  Te  Te0  1  0.33335342  0.66670783  0.40447788  1
  Te  Te1  1  0.66664856  0.33329612  0.05819037  1
  Te  Te2  1  0.66665034  0.33329968  0.17308319  1
  Te  Te3  1  0.33335043  0.66670187  0.28957024  1
  Mo  Mo4  1  0.33331399  0.66662798  0.11560194  1
  Mo  Mo5  1  0.66668750  0.33337500  0.34698978  1
  W  W6  1  0.33331268  0.66662536  0.57830378  1
  Se  Se7  1  0.66664696  0.33329292  0.52749281  1
  Se  Se8  1  0.66663712  0.33327324  0.62913101  1
