# generated using pymatgen
data_Te2Mo(WSe2)2
_symmetry_space_group_name_H-M   'P 1'
_cell_length_a   3.39230252
_cell_length_b   3.39221035
_cell_length_c   31.47442518
_cell_angle_alpha   90.00000000
_cell_angle_beta   90.00000000
_cell_angle_gamma   120.00089882
_symmetry_Int_Tables_number   1
_chemical_formula_structural   Te2Mo(WSe2)2
_chemical_formula_sum   'Te2 Mo1 W2 Se4'
_cell_volume   313.66196244
_cell_formula_units_Z   1
loop_
 _symmetry_equiv_pos_site_id
 _symmetry_equiv_pos_as_xyz
  1  'x, y, z'
loop_
 _atom_site_type_symbol
 _atom_site_label
 _atom_site_symmetry_multiplicity
 _atom_site_fract_x
 _atom_site_fract_y
 _atom_site_fract_z
 _atom_site_occupancy
  Te  Te0  1  0.33335736  0.66671571  0.40659799  1
  Te  Te1  1  0.33335736  0.66671571  0.28736701  1
  Mo  Mo2  1  0.66668893  0.33337787  0.34698200  1
  W  W3  1  0.33331664  0.66663328  0.11563152  1
  W  W4  1  0.33331664  0.66663328  0.57833348  1
  Se  Se5  1  0.66663528  0.33326955  0.06297778  1
  Se  Se6  1  0.66664676  0.33329253  0.52563311  1
  Se  Se7  1  0.66664676  0.33329253  0.16833189  1
  Se  Se8  1  0.66663528  0.33326955  0.63098622  1
