# generated using pymatgen
data_MgMn2O4
_symmetry_space_group_name_H-M   'P 1'
_cell_length_a   5.15442499
_cell_length_b   6.02597502
_cell_length_c   10.31650423
_cell_angle_alpha   90.01482246
_cell_angle_beta   90.00842173
_cell_angle_gamma   91.87233498
_symmetry_Int_Tables_number   1
_chemical_formula_structural   MgMn2O4
_chemical_formula_sum   'Mg4 Mn8 O16'
_cell_volume   320.26402959
_cell_formula_units_Z   4
loop_
 _symmetry_equiv_pos_site_id
 _symmetry_equiv_pos_as_xyz
  1  'x, y, z'
loop_
 _atom_site_type_symbol
 _atom_site_label
 _atom_site_symmetry_multiplicity
 _atom_site_fract_x
 _atom_site_fract_y
 _atom_site_fract_z
 _atom_site_occupancy
  Mg  Mg0  1  0.85592259  0.24690776  0.75000198  1
  Mg  Mg1  1  0.14414582  0.75318334  0.24999430  1
  Mg  Mg2  1  0.48603710  0.25952688  0.25002277  1
  Mg  Mg3  1  0.51393322  0.74046364  0.75007449  1
  Mn  Mn4  1  0.51158659  0.75234333  0.48431350  1
  Mn  Mn5  1  0.51119280  0.75249342  0.01562208  1
  Mn  Mn6  1  0.48911028  0.24746481  0.51525249  1
  Mn  Mn7  1  0.48870013  0.24756081  0.98449998  1
  Mn  Mn8  1  -0.00012272  0.50027315  0.49975465  1
  Mn  Mn9  1  0.00005161  0.00014659  0.00003160  1
  Mn  Mn10  1  -0.00006734  -0.00046144  0.49975341  1
  Mn  Mn11  1  0.00001205  0.50001105  0.00007473  1
  O  O12  1  0.85740078  0.74640893  0.39892607  1
  O  O13  1  0.85723298  0.74689171  0.10122932  1
  O  O14  1  0.14259980  0.25359155  0.60127307  1
  O  O15  1  0.14266502  0.25325524  0.89878403  1
  O  O16  1  0.23576563  0.74894865  0.60380929  1
  O  O17  1  0.23603107  0.74885854  0.89636266  1
  O  O18  1  0.76395340  0.25095677  0.39638614  1
  O  O19  1  0.76401000  0.25118309  0.10372082  1
  O  O20  1  0.68552051  0.47868837  0.61712962  1
  O  O21  1  0.69088023  0.97878323  0.88668761  1
  O  O22  1  0.30893139  0.02175494  0.38687699  1
  O  O23  1  0.31399342  0.52068022  0.11694949  1
  O  O24  1  0.31450660  0.52113610  0.38300616  1
  O  O25  1  0.30905040  0.02135132  0.11321240  1
  O  O26  1  0.69100451  0.97816963  0.61314105  1
  O  O27  1  0.68595210  0.47942833  0.88310928  1
