# generated using pymatgen
data_ErTlZn
_symmetry_space_group_name_H-M   'P 1'
_cell_length_a   4.70604085
_cell_length_b   4.70919139
_cell_length_c   7.16394913
_cell_angle_alpha   90.00000000
_cell_angle_beta   90.00000000
_cell_angle_gamma   119.97787155
_symmetry_Int_Tables_number   1
_chemical_formula_structural   ErTlZn
_chemical_formula_sum   'Er2 Tl2 Zn2'
_cell_volume   137.52509553
_cell_formula_units_Z   2
loop_
 _symmetry_equiv_pos_site_id
 _symmetry_equiv_pos_as_xyz
  1  'x, y, z'
loop_
 _atom_site_type_symbol
 _atom_site_label
 _atom_site_symmetry_multiplicity
 _atom_site_fract_x
 _atom_site_fract_y
 _atom_site_fract_z
 _atom_site_occupancy
  Er  Er0  1  0.00000000  0.00000000  0.50000000  1
  Er  Er1  1  0.00000000  0.00000000  0.00000000  1
  Tl  Tl2  1  0.33340197  0.66680395  0.25000000  1
  Tl  Tl3  1  0.66659803  0.33319605  0.75000000  1
  Zn  Zn4  1  0.33339049  0.66678099  0.75000000  1
  Zn  Zn5  1  0.66660951  0.33321901  0.25000000  1
