# generated using pymatgen
data_Mg2VSbO6
_symmetry_space_group_name_H-M   'P 1'
_cell_length_a   5.22777702
_cell_length_b   5.38285731
_cell_length_c   7.63927842
_cell_angle_alpha   90.00000000
_cell_angle_beta   90.00000000
_cell_angle_gamma   91.29205165
_symmetry_Int_Tables_number   1
_chemical_formula_structural   Mg2VSbO6
_chemical_formula_sum   'Mg4 V2 Sb2 O12'
_cell_volume   214.91752297
_cell_formula_units_Z   2
loop_
 _symmetry_equiv_pos_site_id
 _symmetry_equiv_pos_as_xyz
  1  'x, y, z'
loop_
 _atom_site_type_symbol
 _atom_site_label
 _atom_site_symmetry_multiplicity
 _atom_site_fract_x
 _atom_site_fract_y
 _atom_site_fract_z
 _atom_site_occupancy
  Mg  Mg0  1  0.52041829  0.56921465  0.75000000  1
  Mg  Mg1  1  0.47958171  0.43078535  0.25000000  1
  Mg  Mg2  1  0.01314362  0.03424571  0.75000000  1
  Mg  Mg3  1  0.98685638  0.96575429  0.25000000  1
  V  V4  1  0.50000000  0.00000000  0.50000000  1
  V  V5  1  0.50000000  0.00000000  0.00000000  1
  Sb  Sb6  1  0.00000000  0.50000000  0.50000000  1
  Sb  Sb7  1  0.00000000  0.50000000  0.00000000  1
  O  O8  1  0.32104532  0.67733137  0.43143466  1
  O  O9  1  0.16901277  0.19043352  0.06981637  1
  O  O10  1  0.67895468  0.32266863  0.93143466  1
  O  O11  1  0.83098723  0.80956648  0.56981637  1
  O  O12  1  0.16901277  0.19043352  0.43018363  1
  O  O13  1  0.83098723  0.80956648  0.93018363  1
  O  O14  1  0.86124507  0.57191813  0.25000000  1
  O  O15  1  0.32104532  0.67733137  0.06856534  1
  O  O16  1  0.38077489  0.93030420  0.75000000  1
  O  O17  1  0.67895468  0.32266863  0.56856534  1
  O  O18  1  0.13875493  0.42808187  0.75000000  1
  O  O19  1  0.61922511  0.06969580  0.25000000  1
