# generated using pymatgen
data_MoWSeS3
_symmetry_space_group_name_H-M   'P 1'
_cell_length_a   3.22219326
_cell_length_b   3.22217609
_cell_length_c   36.34504314
_cell_angle_alpha   90.00026267
_cell_angle_beta   90.00000000
_cell_angle_gamma   120.00017630
_symmetry_Int_Tables_number   1
_chemical_formula_structural   MoWSeS3
_chemical_formula_sum   'Mo2 W2 Se2 S6'
_cell_volume   326.79537693
_cell_formula_units_Z   2
loop_
 _symmetry_equiv_pos_site_id
 _symmetry_equiv_pos_as_xyz
  1  'x, y, z'
loop_
 _atom_site_type_symbol
 _atom_site_label
 _atom_site_symmetry_multiplicity
 _atom_site_fract_x
 _atom_site_fract_y
 _atom_site_fract_z
 _atom_site_occupancy
  Mo  Mo0  1  0.33330465  0.66660930  0.09390561  1
  Mo  Mo1  1  0.33331197  0.66662394  0.46965036  1
  W  W2  1  0.66669034  0.33338068  0.28180724  1
  W  W3  1  0.66668931  0.33337861  0.65755364  1
  Se  Se4  1  0.33335198  0.66670496  0.70486708  1
  Se  Se5  1  0.33335189  0.66670479  0.61026236  1
  S  S6  1  0.33335788  0.66671676  0.32469013  1
  S  S7  1  0.66664715  0.33329330  0.05118869  1
  S  S8  1  0.66664722  0.33329344  0.42695905  1
  S  S9  1  0.66664775  0.33329449  0.13662733  1
  S  S10  1  0.66664564  0.33329027  0.51233258  1
  S  S11  1  0.33335422  0.66670945  0.23890393  1
