# generated using pymatgen
data_MoWSe3S
_symmetry_space_group_name_H-M   'P 1'
_cell_length_a   3.29318783
_cell_length_b   3.29318759
_cell_length_c   37.39409132
_cell_angle_alpha   89.99793144
_cell_angle_beta   90.00000000
_cell_angle_gamma   120.00000227
_symmetry_Int_Tables_number   1
_chemical_formula_structural   MoWSe3S
_chemical_formula_sum   'Mo2 W2 Se6 S2'
_cell_volume   351.20976149
_cell_formula_units_Z   2
loop_
 _symmetry_equiv_pos_site_id
 _symmetry_equiv_pos_as_xyz
  1  'x, y, z'
loop_
 _atom_site_type_symbol
 _atom_site_label
 _atom_site_symmetry_multiplicity
 _atom_site_fract_x
 _atom_site_fract_y
 _atom_site_fract_z
 _atom_site_occupancy
  Mo  Mo0  1  0.33330941  0.66661882  0.09390910  1
  Mo  Mo1  1  0.33330785  0.66661570  0.46966721  1
  W  W2  1  0.66668537  0.33337074  0.28176874  1
  W  W3  1  0.66668672  0.33337344  0.65757120  1
  Se  Se4  1  0.33334858  0.66669815  0.32707394  1
  Se  Se5  1  0.33339446  0.66678993  0.70286091  1
  Se  Se6  1  0.66664815  0.33329529  0.42460274  1
  Se  Se7  1  0.66663189  0.33326279  0.51471332  1
  Se  Se8  1  0.33334778  0.66669656  0.23649420  1
  Se  Se9  1  0.33334991  0.66670082  0.61226020  1
  S  S10  1  0.66664496  0.33328893  0.05290818  1
  S  S11  1  0.66664492  0.33328883  0.13491825  1
