# generated using pymatgen
data_Mo3W(Se3S)2
_symmetry_space_group_name_H-M   'P 1'
_cell_length_a   3.29129813
_cell_length_b   3.29128892
_cell_length_c   37.07434577
_cell_angle_alpha   89.99988986
_cell_angle_beta   90.00000000
_cell_angle_gamma   120.00009271
_symmetry_Int_Tables_number   1
_chemical_formula_structural   Mo3W(Se3S)2
_chemical_formula_sum   'Mo3 W1 Se6 S2'
_cell_volume   347.80590594
_cell_formula_units_Z   1
loop_
 _symmetry_equiv_pos_site_id
 _symmetry_equiv_pos_as_xyz
  1  'x, y, z'
loop_
 _atom_site_type_symbol
 _atom_site_label
 _atom_site_symmetry_multiplicity
 _atom_site_fract_x
 _atom_site_fract_y
 _atom_site_fract_z
 _atom_site_occupancy
  Mo  Mo0  1  0.33331223  0.66662446  0.09391170  1
  Mo  Mo1  1  0.66669125  0.33338250  0.28177884  1
  Mo  Mo2  1  0.66669286  0.33338572  0.65754822  1
  W  W3  1  0.33331093  0.66662186  0.46966259  1
  Se  Se4  1  0.33335296  0.66670692  0.32725444  1
  Se  Se5  1  0.33335628  0.66671356  0.70300940  1
  Se  Se6  1  0.66662525  0.33324951  0.42396794  1
  Se  Se7  1  0.66665221  0.33330342  0.51536203  1
  Se  Se8  1  0.33335267  0.66670634  0.23634219  1
  Se  Se9  1  0.33335499  0.66671097  0.61207586  1
  S  S10  1  0.66664834  0.33329567  0.05252187  1
  S  S11  1  0.66665003  0.33329907  0.13531293  1
