# generated using pymatgen
data_Mo3W(Se3S)2
_symmetry_space_group_name_H-M   'P 1'
_cell_length_a   3.29200455
_cell_length_b   3.29200294
_cell_length_c   37.41087701
_cell_angle_alpha   90.00284522
_cell_angle_beta   90.00000000
_cell_angle_gamma   120.00001610
_symmetry_Int_Tables_number   1
_chemical_formula_structural   Mo3W(Se3S)2
_chemical_formula_sum   'Mo3 W1 Se6 S2'
_cell_volume   351.11476341
_cell_formula_units_Z   1
loop_
 _symmetry_equiv_pos_site_id
 _symmetry_equiv_pos_as_xyz
  1  'x, y, z'
loop_
 _atom_site_type_symbol
 _atom_site_label
 _atom_site_symmetry_multiplicity
 _atom_site_fract_x
 _atom_site_fract_y
 _atom_site_fract_z
 _atom_site_occupancy
  Mo  Mo0  1  0.33331223  0.66662445  0.09389982  1
  Mo  Mo1  1  0.33331310  0.66662620  0.46966788  1
  Mo  Mo2  1  0.66668027  0.33336054  0.65755019  1
  W  W3  1  0.66667766  0.33335532  0.28174100  1
  Se  Se4  1  0.33336889  0.66673877  0.32709664  1
  Se  Se5  1  0.33334718  0.66669536  0.70265369  1
  Se  Se6  1  0.66664212  0.33328325  0.42460853  1
  Se  Se7  1  0.66664372  0.33328644  0.51471484  1
  Se  Se8  1  0.33339738  0.66679577  0.23651186  1
  Se  Se9  1  0.33334715  0.66669530  0.61248609  1
  S  S10  1  0.66663785  0.33327471  0.05284747  1
  S  S11  1  0.66663244  0.33326388  0.13496998  1
