# generated using pymatgen
data_Mo3W(Se3S)2
_symmetry_space_group_name_H-M   'P 1'
_cell_length_a   3.29164257
_cell_length_b   3.29165013
_cell_length_c   37.40000425
_cell_angle_alpha   89.99954169
_cell_angle_beta   90.00000000
_cell_angle_gamma   119.99992391
_symmetry_Int_Tables_number   1
_chemical_formula_structural   Mo3W(Se3S)2
_chemical_formula_sum   'Mo3 W1 Se6 S2'
_cell_volume   350.93683462
_cell_formula_units_Z   1
loop_
 _symmetry_equiv_pos_site_id
 _symmetry_equiv_pos_as_xyz
  1  'x, y, z'
loop_
 _atom_site_type_symbol
 _atom_site_label
 _atom_site_symmetry_multiplicity
 _atom_site_fract_x
 _atom_site_fract_y
 _atom_site_fract_z
 _atom_site_occupancy
  Mo  Mo0  1  0.33331222  0.66662444  0.09390973  1
  Mo  Mo1  1  0.33331514  0.66663027  0.46965498  1
  Mo  Mo2  1  0.66668569  0.33337137  0.28177647  1
  W  W3  1  0.66668312  0.33336625  0.65756753  1
  Se  Se4  1  0.33336877  0.66673855  0.32686068  1
  Se  Se5  1  0.33334879  0.66669858  0.70287106  1
  Se  Se6  1  0.66664931  0.33329761  0.42459062  1
  Se  Se7  1  0.66664897  0.33329693  0.51470671  1
  Se  Se8  1  0.33334834  0.66669767  0.23672137  1
  Se  Se9  1  0.33334889  0.66669878  0.61225902  1
  S  S10  1  0.66664544  0.33328988  0.05291485  1
  S  S11  1  0.66664532  0.33328964  0.13491499  1
