# generated using pymatgen
data_MoWSe3S
_symmetry_space_group_name_H-M   'P 1'
_cell_length_a   3.29145988
_cell_length_b   3.29145400
_cell_length_c   37.40797168
_cell_angle_alpha   90.00014272
_cell_angle_beta   90.00000000
_cell_angle_gamma   120.00005911
_symmetry_Int_Tables_number   1
_chemical_formula_structural   MoWSe3S
_chemical_formula_sum   'Mo2 W2 Se6 S2'
_cell_volume   350.97072209
_cell_formula_units_Z   2
loop_
 _symmetry_equiv_pos_site_id
 _symmetry_equiv_pos_as_xyz
  1  'x, y, z'
loop_
 _atom_site_type_symbol
 _atom_site_label
 _atom_site_symmetry_multiplicity
 _atom_site_fract_x
 _atom_site_fract_y
 _atom_site_fract_z
 _atom_site_occupancy
  Mo  Mo0  1  0.33331424  0.66662847  0.09391990  1
  Mo  Mo1  1  0.66668465  0.33336930  0.28179754  1
  W  W2  1  0.33331371  0.66662742  0.46965120  1
  W  W3  1  0.66668800  0.33337600  0.65755232  1
  Se  Se4  1  0.33336027  0.66672155  0.32685302  1
  Se  Se5  1  0.33335258  0.66670617  0.70290182  1
  Se  Se6  1  0.66664981  0.33329863  0.42432173  1
  Se  Se7  1  0.66664456  0.33328813  0.51496835  1
  Se  Se8  1  0.33335302  0.66670704  0.23670389  1
  Se  Se9  1  0.33335732  0.66671564  0.61222820  1
  S  S10  1  0.66664595  0.33329091  0.05292911  1
  S  S11  1  0.66663587  0.33327075  0.13492093  1
