# generated using pymatgen
data_MoWSe3S
_symmetry_space_group_name_H-M   'P 1'
_cell_length_a   3.29131167
_cell_length_b   3.29131482
_cell_length_c   37.42328269
_cell_angle_alpha   90.00037527
_cell_angle_beta   90.00000247
_cell_angle_gamma   119.99994627
_symmetry_Int_Tables_number   1
_chemical_formula_structural   MoWSe3S
_chemical_formula_sum   'Mo2 W2 Se6 S2'
_cell_volume   351.08411609
_cell_formula_units_Z   2
loop_
 _symmetry_equiv_pos_site_id
 _symmetry_equiv_pos_as_xyz
  1  'x, y, z'
loop_
 _atom_site_type_symbol
 _atom_site_label
 _atom_site_symmetry_multiplicity
 _atom_site_fract_x
 _atom_site_fract_y
 _atom_site_fract_z
 _atom_site_occupancy
  Mo  Mo0  1  0.33331273  0.66662450  0.09391128  1
  Mo  Mo1  1  0.66669225  0.33338565  0.65756146  1
  W  W2  1  0.33331121  0.66662161  0.46965264  1
  W  W3  1  0.66668519  0.33337123  0.28178293  1
  Se  Se4  1  0.33336081  0.66672195  0.32705406  1
  Se  Se5  1  0.33335730  0.66671526  0.70261195  1
  Se  Se6  1  0.66662293  0.33324562  0.42436542  1
  Se  Se7  1  0.66663858  0.33327690  0.51493547  1
  Se  Se8  1  0.33335779  0.66671599  0.23652286  1
  Se  Se9  1  0.33338148  0.66676356  0.61251871  1
  S  S10  1  0.66664499  0.33328969  0.05290420  1
  S  S11  1  0.66663475  0.33326805  0.13492701  1
