# generated using pymatgen
data_MoW3(Se3S)2
_symmetry_space_group_name_H-M   'P 1'
_cell_length_a   3.28923569
_cell_length_b   3.28925749
_cell_length_c   37.43666620
_cell_angle_alpha   89.99985224
_cell_angle_beta   90.00000000
_cell_angle_gamma   119.99978083
_symmetry_Int_Tables_number   1
_chemical_formula_structural   MoW3(Se3S)2
_chemical_formula_sum   'Mo1 W3 Se6 S2'
_cell_volume   350.76933923
_cell_formula_units_Z   1
loop_
 _symmetry_equiv_pos_site_id
 _symmetry_equiv_pos_as_xyz
  1  'x, y, z'
loop_
 _atom_site_type_symbol
 _atom_site_label
 _atom_site_symmetry_multiplicity
 _atom_site_fract_x
 _atom_site_fract_y
 _atom_site_fract_z
 _atom_site_occupancy
  Mo  Mo0  1  0.33331111  0.66662222  0.09392742  1
  W  W1  1  0.33331030  0.66662061  0.46964537  1
  W  W2  1  0.66669471  0.33338943  0.28178391  1
  W  W3  1  0.66668691  0.33337383  0.65755251  1
  Se  Se4  1  0.33335448  0.66670996  0.32710826  1
  Se  Se5  1  0.33335125  0.66670351  0.70287904  1
  Se  Se6  1  0.66664787  0.33329474  0.42433936  1
  Se  Se7  1  0.66664482  0.33328864  0.51497977  1
  Se  Se8  1  0.33335644  0.66671388  0.23646908  1
  Se  Se9  1  0.33334963  0.66670025  0.61221025  1
  S  S10  1  0.66664564  0.33329029  0.05300327  1
  S  S11  1  0.66664682  0.33329265  0.13484976  1
