# generated using pymatgen
data_MoW3(SeS3)2
_symmetry_space_group_name_H-M   'P 1'
_cell_length_a   3.22249530
_cell_length_b   3.22250113
_cell_length_c   36.37688944
_cell_angle_alpha   89.99985005
_cell_angle_beta   90.00000000
_cell_angle_gamma   119.99994011
_symmetry_Int_Tables_number   1
_chemical_formula_structural   MoW3(SeS3)2
_chemical_formula_sum   'Mo1 W3 Se2 S6'
_cell_volume   327.14615880
_cell_formula_units_Z   1
loop_
 _symmetry_equiv_pos_site_id
 _symmetry_equiv_pos_as_xyz
  1  'x, y, z'
loop_
 _atom_site_type_symbol
 _atom_site_label
 _atom_site_symmetry_multiplicity
 _atom_site_fract_x
 _atom_site_fract_y
 _atom_site_fract_z
 _atom_site_occupancy
  Mo  Mo0  1  0.33330961  0.66661923  0.09390756  1
  W  W1  1  0.33331089  0.66662178  0.46965435  1
  W  W2  1  0.66669128  0.33338256  0.28179985  1
  W  W3  1  0.66668928  0.33337855  0.65756701  1
  Se  Se4  1  0.33335113  0.66670327  0.70485835  1
  Se  Se5  1  0.33335157  0.66670414  0.61026673  1
  S  S6  1  0.33335394  0.66670888  0.32469316  1
  S  S7  1  0.66664776  0.33329451  0.05118476  1
  S  S8  1  0.66664849  0.33329598  0.42676396  1
  S  S9  1  0.66664467  0.33328834  0.13663364  1
  S  S10  1  0.66664730  0.33329361  0.51252921  1
  S  S11  1  0.33335408  0.66670915  0.23888942  1
