# generated using pymatgen
data_Mo3W(SeS3)2
_symmetry_space_group_name_H-M   'P 1'
_cell_length_a   3.22237076
_cell_length_b   3.22217808
_cell_length_c   36.30303567
_cell_angle_alpha   90.00105847
_cell_angle_beta   90.00000000
_cell_angle_gamma   120.00197811
_symmetry_Int_Tables_number   1
_chemical_formula_structural   Mo3W(SeS3)2
_chemical_formula_sum   'Mo3 W1 Se2 S6'
_cell_volume   326.42992415
_cell_formula_units_Z   1
loop_
 _symmetry_equiv_pos_site_id
 _symmetry_equiv_pos_as_xyz
  1  'x, y, z'
loop_
 _atom_site_type_symbol
 _atom_site_label
 _atom_site_symmetry_multiplicity
 _atom_site_fract_x
 _atom_site_fract_y
 _atom_site_fract_z
 _atom_site_occupancy
  Mo  Mo0  1  0.33331729  0.66663457  0.09393203  1
  Mo  Mo1  1  0.66669057  0.33338115  0.28180429  1
  Mo  Mo2  1  0.66668984  0.33337969  0.65754310  1
  W  W3  1  0.33328779  0.66657559  0.46965599  1
  Se  Se4  1  0.66664659  0.33329218  0.42228825  1
  Se  Se5  1  0.66665803  0.33331506  0.51703344  1
  S  S6  1  0.33334889  0.66669878  0.32460395  1
  S  S7  1  0.33335027  0.66670153  0.70037588  1
  S  S8  1  0.66665834  0.33331567  0.05108235  1
  S  S9  1  0.66666543  0.33332985  0.13675569  1
  S  S10  1  0.33334484  0.66669068  0.23896508  1
  S  S11  1  0.33334213  0.66668526  0.61470796  1
