# generated using pymatgen
data_Zn2Bi3O8
_symmetry_space_group_name_H-M   'P 1'
_cell_length_a   5.83669789
_cell_length_b   7.00800561
_cell_length_c   7.01130910
_cell_angle_alpha   119.98441805
_cell_angle_beta   122.92073647
_cell_angle_gamma   89.99999589
_symmetry_Int_Tables_number   1
_chemical_formula_structural   Zn2Bi3O8
_chemical_formula_sum   'Zn2 Bi3 O8'
_cell_volume   193.42068800
_cell_formula_units_Z   1
loop_
 _symmetry_equiv_pos_site_id
 _symmetry_equiv_pos_as_xyz
  1  'x, y, z'
loop_
 _atom_site_type_symbol
 _atom_site_label
 _atom_site_symmetry_multiplicity
 _atom_site_fract_x
 _atom_site_fract_y
 _atom_site_fract_z
 _atom_site_occupancy
  Zn  Zn0  1  0.69351949  0.66434837  0.32869573  1
  Zn  Zn1  1  0.30648043  0.33565213  0.67130325  1
  Bi  Bi2  1  0.50000065  0.99999883  -0.00000035  1
  Bi  Bi3  1  -0.00000170  0.73317213  -0.00000017  1
  Bi  Bi4  1  -0.00000170  0.26682770  -0.00000017  1
  O  O5  1  0.00897667  0.37701651  0.75403401  1
  O  O6  1  0.99102422  0.62298254  0.24596609  1
  O  O7  1  0.98021273  0.87964796  0.75929591  1
  O  O8  1  0.01978615  0.12035100  0.24070300  1
  O  O9  1  0.47195359  0.37329849  0.22976108  1
  O  O10  1  0.47195358  0.85646259  0.22976108  1
  O  O11  1  0.52804745  0.14353718  0.77023976  1
  O  O12  1  0.52804745  0.62670157  0.77023976  1
