# generated using pymatgen
data_MoWSeS3
_symmetry_space_group_name_H-M   'P 1'
_cell_length_a   3.22195028
_cell_length_b   3.22189316
_cell_length_c   36.39047447
_cell_angle_alpha   90.00016619
_cell_angle_beta   90.00000000
_cell_angle_gamma   120.00058651
_symmetry_Int_Tables_number   1
_chemical_formula_structural   MoWSeS3
_chemical_formula_sum   'Mo2 W2 Se2 S6'
_cell_volume   327.14911628
_cell_formula_units_Z   2
loop_
 _symmetry_equiv_pos_site_id
 _symmetry_equiv_pos_as_xyz
  1  'x, y, z'
loop_
 _atom_site_type_symbol
 _atom_site_label
 _atom_site_symmetry_multiplicity
 _atom_site_fract_x
 _atom_site_fract_y
 _atom_site_fract_z
 _atom_site_occupancy
  Mo  Mo0  1  0.33330905  0.66661811  0.09391271  1
  Mo  Mo1  1  0.66668964  0.33337928  0.28179176  1
  W  W2  1  0.33331157  0.66662315  0.46965705  1
  W  W3  1  0.66668784  0.33337567  0.65755610  1
  Se  Se4  1  0.33335676  0.66671452  0.70487137  1
  Se  Se5  1  0.33334845  0.66669791  0.61023763  1
  S  S6  1  0.33335565  0.66671231  0.32455581  1
  S  S7  1  0.66664469  0.33328838  0.05114637  1
  S  S8  1  0.66664485  0.33328869  0.42675308  1
  S  S9  1  0.66664644  0.33329187  0.13668626  1
  S  S10  1  0.66664569  0.33329038  0.51255356  1
  S  S11  1  0.33335937  0.66671974  0.23902629  1
