# generated using pymatgen
data_MoWSeS3
_symmetry_space_group_name_H-M   'P 1'
_cell_length_a   3.22219095
_cell_length_b   3.22215615
_cell_length_c   36.39090688
_cell_angle_alpha   90.00009885
_cell_angle_beta   90.00000000
_cell_angle_gamma   120.00035715
_symmetry_Int_Tables_number   1
_chemical_formula_structural   MoWSeS3
_chemical_formula_sum   'Mo2 W2 Se2 S6'
_cell_volume   327.20490408
_cell_formula_units_Z   2
loop_
 _symmetry_equiv_pos_site_id
 _symmetry_equiv_pos_as_xyz
  1  'x, y, z'
loop_
 _atom_site_type_symbol
 _atom_site_label
 _atom_site_symmetry_multiplicity
 _atom_site_fract_x
 _atom_site_fract_y
 _atom_site_fract_z
 _atom_site_occupancy
  Mo  Mo0  1  0.33330975  0.66661949  0.09392317  1
  Mo  Mo1  1  0.66668720  0.33337439  0.28178674  1
  W  W2  1  0.33331147  0.66662294  0.46965625  1
  W  W3  1  0.66669097  0.33338195  0.65755113  1
  Se  Se4  1  0.66664637  0.33329174  0.42239054  1
  Se  Se5  1  0.66664755  0.33329410  0.51692493  1
  S  S6  1  0.33335247  0.66670594  0.32451928  1
  S  S7  1  0.33335861  0.66671822  0.70044924  1
  S  S8  1  0.66664350  0.33328600  0.05116688  1
  S  S9  1  0.66664562  0.33329024  0.13667444  1
  S  S10  1  0.33335288  0.66670675  0.23904953  1
  S  S11  1  0.33335362  0.66670824  0.61465588  1
