# generated using pymatgen
data_MoWSe3S
_symmetry_space_group_name_H-M   'P 1'
_cell_length_a   3.29213575
_cell_length_b   3.29215389
_cell_length_c   37.41113897
_cell_angle_alpha   90.00082235
_cell_angle_beta   90.00000000
_cell_angle_gamma   119.99981779
_symmetry_Int_Tables_number   1
_chemical_formula_structural   MoWSe3S
_chemical_formula_sum   'Mo2 W2 Se6 S2'
_cell_volume   351.14801899
_cell_formula_units_Z   2
loop_
 _symmetry_equiv_pos_site_id
 _symmetry_equiv_pos_as_xyz
  1  'x, y, z'
loop_
 _atom_site_type_symbol
 _atom_site_label
 _atom_site_symmetry_multiplicity
 _atom_site_fract_x
 _atom_site_fract_y
 _atom_site_fract_z
 _atom_site_occupancy
  Mo  Mo0  1  0.33329995  0.66659989  0.46964619  1
  Mo  Mo1  1  0.66668963  0.33337925  0.28180420  1
  W  W2  1  0.33331651  0.66663303  0.09391548  1
  W  W3  1  0.66668983  0.33337966  0.65755843  1
  Se  Se4  1  0.33335473  0.66671046  0.70289941  1
  Se  Se5  1  0.66663650  0.33327200  0.04858087  1
  Se  Se6  1  0.66663103  0.33326105  0.42455053  1
  Se  Se7  1  0.66664822  0.33329545  0.13925713  1
  Se  Se8  1  0.66665036  0.33329973  0.51472357  1
  Se  Se9  1  0.33336369  0.66672839  0.61221913  1
  S  S10  1  0.33336191  0.66672482  0.32278464  1
  S  S11  1  0.33335763  0.66671627  0.24080840  1
