# generated using pymatgen
data_Mo3W(SeS3)2
_symmetry_space_group_name_H-M   'P 1'
_cell_length_a   3.22232777
_cell_length_b   3.22225727
_cell_length_c   36.38148487
_cell_angle_alpha   89.99993309
_cell_angle_beta   90.00000000
_cell_angle_gamma   120.00072360
_symmetry_Int_Tables_number   1
_chemical_formula_structural   Mo3W(SeS3)2
_chemical_formula_sum   'Mo3 W1 Se2 S6'
_cell_volume   327.14313581
_cell_formula_units_Z   1
loop_
 _symmetry_equiv_pos_site_id
 _symmetry_equiv_pos_as_xyz
  1  'x, y, z'
loop_
 _atom_site_type_symbol
 _atom_site_label
 _atom_site_symmetry_multiplicity
 _atom_site_fract_x
 _atom_site_fract_y
 _atom_site_fract_z
 _atom_site_occupancy
  Mo  Mo0  1  0.33331275  0.66662549  0.09391489  1
  Mo  Mo1  1  0.33331073  0.66662146  0.46965073  1
  Mo  Mo2  1  0.66668804  0.33337608  0.28178785  1
  W  W3  1  0.66669058  0.33338115  0.65754455  1
  Se  Se4  1  0.33335355  0.66670809  0.70488626  1
  Se  Se5  1  0.33335248  0.66670596  0.61020070  1
  S  S6  1  0.33335436  0.66670972  0.32453841  1
  S  S7  1  0.66664552  0.33329005  0.05117579  1
  S  S8  1  0.66664475  0.33328850  0.42692303  1
  S  S9  1  0.66664605  0.33329110  0.13666562  1
  S  S10  1  0.66664485  0.33328871  0.51239708  1
  S  S11  1  0.33335634  0.66671368  0.23906310  1
