# generated using pymatgen
data_MoW3(SeS3)2
_symmetry_space_group_name_H-M   'P 1'
_cell_length_a   3.22331863
_cell_length_b   3.22331655
_cell_length_c   36.38208072
_cell_angle_alpha   89.99974133
_cell_angle_beta   90.00000000
_cell_angle_gamma   120.00002124
_symmetry_Int_Tables_number   1
_chemical_formula_structural   MoW3(SeS3)2
_chemical_formula_sum   'Mo1 W3 Se2 S6'
_cell_volume   327.35898714
_cell_formula_units_Z   1
loop_
 _symmetry_equiv_pos_site_id
 _symmetry_equiv_pos_as_xyz
  1  'x, y, z'
loop_
 _atom_site_type_symbol
 _atom_site_label
 _atom_site_symmetry_multiplicity
 _atom_site_fract_x
 _atom_site_fract_y
 _atom_site_fract_z
 _atom_site_occupancy
  Mo  Mo0  1  0.33331211  0.66662423  0.46965936  1
  W  W1  1  0.33331157  0.66662314  0.09391026  1
  W  W2  1  0.66669040  0.33338080  0.28182339  1
  W  W3  1  0.66669019  0.33338038  0.65755560  1
  Se  Se4  1  0.33335105  0.66670311  0.70485697  1
  Se  Se5  1  0.33335286  0.66670672  0.61025443  1
  S  S6  1  0.33335410  0.66670921  0.32468454  1
  S  S7  1  0.66664087  0.33328073  0.05100861  1
  S  S8  1  0.66664712  0.33329323  0.42694389  1
  S  S9  1  0.66664858  0.33329615  0.13681557  1
  S  S10  1  0.66664639  0.33329178  0.51233798  1
  S  S11  1  0.33335476  0.66671052  0.23889740  1
