# generated using pymatgen
data_MoW3(Se3S)2
_symmetry_space_group_name_H-M   'P 1'
_cell_length_a   3.29307708
_cell_length_b   3.29310519
_cell_length_c   37.58798963
_cell_angle_alpha   89.99929120
_cell_angle_beta   90.00102078
_cell_angle_gamma   119.99846534
_symmetry_Int_Tables_number   1
_chemical_formula_structural   MoW3(Se3S)2
_chemical_formula_sum   'Mo1 W3 Se6 S2'
_cell_volume   353.01563906
_cell_formula_units_Z   1
loop_
 _symmetry_equiv_pos_site_id
 _symmetry_equiv_pos_as_xyz
  1  'x, y, z'
loop_
 _atom_site_type_symbol
 _atom_site_label
 _atom_site_symmetry_multiplicity
 _atom_site_fract_x
 _atom_site_fract_y
 _atom_site_fract_z
 _atom_site_occupancy
  Mo  Mo0  1  0.66673514  0.33345636  0.28180733  1
  W  W1  1  0.33320046  0.66645271  0.09393728  1
  W  W2  1  0.33335735  0.66666381  0.46962745  1
  W  W3  1  0.66672967  0.33343781  0.65755614  1
  Se  Se4  1  0.33338675  0.66673371  0.70261112  1
  Se  Se5  1  0.66647409  0.33305227  0.04885873  1
  Se  Se6  1  0.66668471  0.33335067  0.42457521  1
  Se  Se7  1  0.66653936  0.33316667  0.13900091  1
  Se  Se8  1  0.66669285  0.33337405  0.51469577  1
  Se  Se9  1  0.33339155  0.66674519  0.61247960  1
  S  S10  1  0.33340262  0.66678479  0.32260544  1
  S  S11  1  0.33340543  0.66678196  0.24099302  1
