# generated using pymatgen
data_MoW3(SeS3)2
_symmetry_space_group_name_H-M   'P 1'
_cell_length_a   3.22160798
_cell_length_b   3.22156155
_cell_length_c   36.37825474
_cell_angle_alpha   90.00007602
_cell_angle_beta   90.00000000
_cell_angle_gamma   120.00047674
_symmetry_Int_Tables_number   1
_chemical_formula_structural   MoW3(SeS3)2
_chemical_formula_sum   'Mo1 W3 Se2 S6'
_cell_volume   326.97122233
_cell_formula_units_Z   1
loop_
 _symmetry_equiv_pos_site_id
 _symmetry_equiv_pos_as_xyz
  1  'x, y, z'
loop_
 _atom_site_type_symbol
 _atom_site_label
 _atom_site_symmetry_multiplicity
 _atom_site_fract_x
 _atom_site_fract_y
 _atom_site_fract_z
 _atom_site_occupancy
  Mo  Mo0  1  0.66669037  0.33338074  0.28179884  1
  W  W1  1  0.33331025  0.66662051  0.09391703  1
  W  W2  1  0.33331158  0.66662316  0.46965633  1
  W  W3  1  0.66668898  0.33337797  0.65755329  1
  Se  Se4  1  0.33335350  0.66670799  0.70487399  1
  Se  Se5  1  0.33335315  0.66670730  0.61024004  1
  S  S6  1  0.33335748  0.66671597  0.32457808  1
  S  S7  1  0.66664256  0.33328411  0.05097656  1
  S  S8  1  0.66664597  0.33329094  0.42672468  1
  S  S9  1  0.66664606  0.33329112  0.13685726  1
  S  S10  1  0.66664476  0.33328851  0.51257184  1
  S  S11  1  0.33335534  0.66671169  0.23900006  1
