# generated using pymatgen
data_Mo3W(Se3S)2
_symmetry_space_group_name_H-M   'P 1'
_cell_length_a   3.28741057
_cell_length_b   3.28737590
_cell_length_c   37.32825872
_cell_angle_alpha   89.99922586
_cell_angle_beta   90.00004218
_cell_angle_gamma   120.00032855
_symmetry_Int_Tables_number   1
_chemical_formula_structural   Mo3W(Se3S)2
_chemical_formula_sum   'Mo3 W1 Se6 S2'
_cell_volume   349.35763603
_cell_formula_units_Z   1
loop_
 _symmetry_equiv_pos_site_id
 _symmetry_equiv_pos_as_xyz
  1  'x, y, z'
loop_
 _atom_site_type_symbol
 _atom_site_label
 _atom_site_symmetry_multiplicity
 _atom_site_fract_x
 _atom_site_fract_y
 _atom_site_fract_z
 _atom_site_occupancy
  Mo  Mo0  1  0.33331005  0.66661959  0.09390694  1
  Mo  Mo1  1  0.33331038  0.66662013  0.46965530  1
  Mo  Mo2  1  0.66668589  0.33337241  0.28180197  1
  W  W3  1  0.66668686  0.33337441  0.65754041  1
  Se  Se4  1  0.33336523  0.66673152  0.32695947  1
  Se  Se5  1  0.33335165  0.66670400  0.70297122  1
  Se  Se6  1  0.66664598  0.33329050  0.04876910  1
  Se  Se7  1  0.66664630  0.33329204  0.13906848  1
  Se  Se8  1  0.33335009  0.66670023  0.23665996  1
  Se  Se9  1  0.33336317  0.66672693  0.61209916  1
  S  S10  1  0.66664467  0.33328920  0.42854470  1
  S  S11  1  0.66663973  0.33327905  0.51077130  1
