# generated using pymatgen
data_Mg30VCdO32
_symmetry_space_group_name_H-M   'P 1'
_cell_length_a   8.56959334
_cell_length_b   8.57130446
_cell_length_c   8.57130446
_cell_angle_alpha   90.00000000
_cell_angle_beta   90.00000000
_cell_angle_gamma   90.00000000
_symmetry_Int_Tables_number   1
_chemical_formula_structural   Mg30VCdO32
_chemical_formula_sum   'Mg30 V1 Cd1 O32'
_cell_volume   629.58454326
_cell_formula_units_Z   1
loop_
 _symmetry_equiv_pos_site_id
 _symmetry_equiv_pos_as_xyz
  1  'x, y, z'
loop_
 _atom_site_type_symbol
 _atom_site_label
 _atom_site_symmetry_multiplicity
 _atom_site_fract_x
 _atom_site_fract_y
 _atom_site_fract_z
 _atom_site_occupancy
  Mg  Mg0  1  0.00000000  0.00000000  0.50000000  1
  Mg  Mg1  1  0.00000000  0.50000000  0.00000000  1
  Mg  Mg2  1  0.50000000  0.00000000  0.00000000  1
  Mg  Mg3  1  0.50000000  0.00000000  0.50000000  1
  Mg  Mg4  1  0.50000000  0.50000000  0.00000000  1
  Mg  Mg5  1  0.50000000  0.50000000  0.50000000  1
  Mg  Mg6  1  0.00000000  0.24815862  0.24815862  1
  Mg  Mg7  1  0.00000000  0.24815862  0.75184138  1
  Mg  Mg8  1  0.00000000  0.75184138  0.24815862  1
  Mg  Mg9  1  0.00000000  0.75184138  0.75184138  1
  Mg  Mg10  1  0.50000000  0.24983395  0.24983395  1
  Mg  Mg11  1  0.50000000  0.24983395  0.75016605  1
  Mg  Mg12  1  0.50000000  0.75016605  0.24983395  1
  Mg  Mg13  1  0.50000000  0.75016605  0.75016605  1
  Mg  Mg14  1  0.25049732  0.00000000  0.25036561  1
  Mg  Mg15  1  0.25049732  0.00000000  0.74963439  1
  Mg  Mg16  1  0.25221132  0.50000000  0.24762913  1
  Mg  Mg17  1  0.25221132  0.50000000  0.75237087  1
  Mg  Mg18  1  0.74950268  0.00000000  0.25036561  1
  Mg  Mg19  1  0.74950268  0.00000000  0.74963439  1
  Mg  Mg20  1  0.74778868  0.50000000  0.24762913  1
  Mg  Mg21  1  0.74778868  0.50000000  0.75237087  1
  Mg  Mg22  1  0.25049732  0.25036561  0.00000000  1
  Mg  Mg23  1  0.25221132  0.24762913  0.50000000  1
  Mg  Mg24  1  0.25049732  0.74963439  0.00000000  1
  Mg  Mg25  1  0.25221132  0.75237087  0.50000000  1
  Mg  Mg26  1  0.74950268  0.25036561  0.00000000  1
  Mg  Mg27  1  0.74778868  0.24762913  0.50000000  1
  Mg  Mg28  1  0.74950268  0.74963439  0.00000000  1
  Mg  Mg29  1  0.74778868  0.75237087  0.50000000  1
  V  V30  1  0.00000000  0.00000000  0.00000000  1
  Cd  Cd31  1  0.00000000  0.50000000  0.50000000  1
  O  O32  1  0.25511862  0.00000000  0.00000000  1
  O  O33  1  0.25219068  0.00000000  0.50000000  1
  O  O34  1  0.25219068  0.50000000  0.00000000  1
  O  O35  1  0.26389670  0.50000000  0.50000000  1
  O  O36  1  0.74488138  0.00000000  0.00000000  1
  O  O37  1  0.74780932  0.00000000  0.50000000  1
  O  O38  1  0.74780932  0.50000000  0.00000000  1
  O  O39  1  0.73610330  0.50000000  0.50000000  1
  O  O40  1  0.24935817  0.25020097  0.25020097  1
  O  O41  1  0.24935817  0.25020097  0.74979903  1
  O  O42  1  0.24935817  0.74979903  0.25020097  1
  O  O43  1  0.24935817  0.74979903  0.74979903  1
  O  O44  1  0.75064183  0.25020097  0.25020097  1
  O  O45  1  0.75064183  0.25020097  0.74979903  1
  O  O46  1  0.75064183  0.74979903  0.25020097  1
  O  O47  1  0.75064183  0.74979903  0.74979903  1
  O  O48  1  0.00000000  0.00000000  0.25340804  1
  O  O49  1  0.00000000  0.00000000  0.74659196  1
  O  O50  1  0.00000000  0.50000000  0.23651289  1
  O  O51  1  0.00000000  0.50000000  0.76348711  1
  O  O52  1  0.50000000  0.00000000  0.24984312  1
  O  O53  1  0.50000000  0.00000000  0.75015688  1
  O  O54  1  0.50000000  0.50000000  0.24820079  1
  O  O55  1  0.50000000  0.50000000  0.75179921  1
  O  O56  1  0.00000000  0.25340804  0.00000000  1
  O  O57  1  0.00000000  0.23651289  0.50000000  1
  O  O58  1  0.00000000  0.74659196  0.00000000  1
  O  O59  1  0.00000000  0.76348711  0.50000000  1
  O  O60  1  0.50000000  0.24984312  0.00000000  1
  O  O61  1  0.50000000  0.24820079  0.50000000  1
  O  O62  1  0.50000000  0.75015688  0.00000000  1
  O  O63  1  0.50000000  0.75179921  0.50000000  1
