# generated using pymatgen
data_Zn2CoSbO6
_symmetry_space_group_name_H-M   'P 1'
_cell_length_a   5.27749234
_cell_length_b   5.28007412
_cell_length_c   7.70289887
_cell_angle_alpha   90.00000000
_cell_angle_beta   90.00000000
_cell_angle_gamma   89.82436345
_symmetry_Int_Tables_number   1
_chemical_formula_structural   Zn2CoSbO6
_chemical_formula_sum   'Zn4 Co2 Sb2 O12'
_cell_volume   214.64451080
_cell_formula_units_Z   2
loop_
 _symmetry_equiv_pos_site_id
 _symmetry_equiv_pos_as_xyz
  1  'x, y, z'
loop_
 _atom_site_type_symbol
 _atom_site_label
 _atom_site_symmetry_multiplicity
 _atom_site_fract_x
 _atom_site_fract_y
 _atom_site_fract_z
 _atom_site_occupancy
  Zn  Zn0  1  0.51209823  0.54878488  0.75000000  1
  Zn  Zn1  1  0.48790177  0.45121512  0.25000000  1
  Zn  Zn2  1  0.02213948  0.01805813  0.75000000  1
  Zn  Zn3  1  0.97786052  0.98194187  0.25000000  1
  Co  Co4  1  0.50000000  0.00000000  0.50000000  1
  Co  Co5  1  0.50000000  0.00000000  0.00000000  1
  Sb  Sb6  1  0.00000000  0.50000000  0.50000000  1
  Sb  Sb7  1  0.00000000  0.50000000  0.00000000  1
  O  O8  1  0.32007925  0.67455429  0.43478975  1
  O  O9  1  0.16958295  0.17513764  0.06647581  1
  O  O10  1  0.67992075  0.32544571  0.93478975  1
  O  O11  1  0.83041705  0.82486236  0.56647581  1
  O  O12  1  0.16958295  0.17513764  0.43352419  1
  O  O13  1  0.83041705  0.82486236  0.93352419  1
  O  O14  1  0.86922553  0.58069808  0.25000000  1
  O  O15  1  0.32007925  0.67455429  0.06521025  1
  O  O16  1  0.39154877  0.91657503  0.75000000  1
  O  O17  1  0.67992075  0.32544571  0.56521025  1
  O  O18  1  0.13077447  0.41930192  0.75000000  1
  O  O19  1  0.60845123  0.08342497  0.25000000  1
