# generated using pymatgen
data_MoWSeS3
_symmetry_space_group_name_H-M   'P 1'
_cell_length_a   3.22202934
_cell_length_b   3.22202982
_cell_length_c   36.35350746
_cell_angle_alpha   89.99958617
_cell_angle_beta   90.00000000
_cell_angle_gamma   119.99999511
_symmetry_Int_Tables_number   1
_chemical_formula_structural   MoWSeS3
_chemical_formula_sum   'Mo2 W2 Se2 S6'
_cell_volume   326.84061402
_cell_formula_units_Z   2
loop_
 _symmetry_equiv_pos_site_id
 _symmetry_equiv_pos_as_xyz
  1  'x, y, z'
loop_
 _atom_site_type_symbol
 _atom_site_label
 _atom_site_symmetry_multiplicity
 _atom_site_fract_x
 _atom_site_fract_y
 _atom_site_fract_z
 _atom_site_occupancy
  Mo  Mo0  1  0.33331292  0.66662583  0.46963059  1
  Mo  Mo1  1  0.66669224  0.33338447  0.28177638  1
  W  W2  1  0.33331234  0.66662468  0.09390825  1
  W  W3  1  0.66668940  0.33337880  0.65756230  1
  Se  Se4  1  0.33335265  0.66670629  0.70486667  1
  Se  Se5  1  0.33335104  0.66670307  0.61027360  1
  S  S6  1  0.33335588  0.66671277  0.32449620  1
  S  S7  1  0.66663781  0.33327461  0.05101785  1
  S  S8  1  0.66664881  0.33329662  0.42693453  1
  S  S9  1  0.66664282  0.33328465  0.13681672  1
  S  S10  1  0.66664765  0.33329431  0.51236671  1
  S  S11  1  0.33335645  0.66671390  0.23909821  1
