# generated using pymatgen
data_MgV2O4
_symmetry_space_group_name_H-M   'P 1'
_cell_length_a   6.05611722
_cell_length_b   6.06407580
_cell_length_c   18.19350848
_cell_angle_alpha   59.98348690
_cell_angle_beta   59.98568104
_cell_angle_gamma   60.07109935
_symmetry_Int_Tables_number   1
_chemical_formula_structural   MgV2O4
_chemical_formula_sum   'Mg6 V12 O24'
_cell_volume   472.59794240
_cell_formula_units_Z   6
loop_
 _symmetry_equiv_pos_site_id
 _symmetry_equiv_pos_as_xyz
  1  'x, y, z'
loop_
 _atom_site_type_symbol
 _atom_site_label
 _atom_site_symmetry_multiplicity
 _atom_site_fract_x
 _atom_site_fract_y
 _atom_site_fract_z
 _atom_site_occupancy
  Mg  Mg0  1  0.12090202  0.12162617  0.04535375  1
  Mg  Mg1  1  0.11998028  0.12044452  0.37947563  1
  Mg  Mg2  1  0.50150940  0.49723572  0.33499936  1
  Mg  Mg3  1  0.12594831  0.12599471  0.70753765  1
  Mg  Mg4  1  0.49681032  0.49854427  0.00212568  1
  Mg  Mg5  1  0.87655280  0.87674378  0.62311166  1
  V  V6  1  0.49711578  0.49828030  0.16645535  1
  V  V7  1  0.49741303  0.00518986  0.16642726  1
  V  V8  1  0.49778767  0.49979662  0.49952654  1
  V  V9  1  0.00568717  0.49737844  0.16645276  1
  V  V10  1  0.49922697  0.00313586  0.49947287  1
  V  V11  1  0.50015817  0.50241492  0.66446292  1
  V  V12  1  0.87757835  0.87715031  0.28923219  1
  V  V13  1  0.50010709  0.49868344  0.83302450  1
  V  V14  1  0.00479738  0.50003094  0.49860052  1
  V  V15  1  0.50007939  0.00301839  0.83257689  1
  V  V16  1  0.00304129  0.49939016  0.83267036  1
  V  V17  1  0.87686974  0.87660425  0.95668141  1
  O  O18  1  0.25642219  0.25725703  0.08824479  1
  O  O19  1  0.25633102  0.26080990  0.24138053  1
  O  O20  1  0.25840586  0.72204965  0.08770800  1
  O  O21  1  0.72050084  0.25517262  0.08926431  1
  O  O22  1  0.25407335  0.25526961  0.42388688  1
  O  O23  1  0.27473395  0.74644443  0.24474976  1
  O  O24  1  0.26058258  0.25975775  0.57481273  1
  O  O25  1  0.74283958  0.27357861  0.24608755  1
  O  O26  1  0.74482388  0.73988790  0.09107144  1
  O  O27  1  0.25512179  0.71968711  0.42289800  1
  O  O28  1  0.72138386  0.25293515  0.42313194  1
  O  O29  1  0.74528946  0.74433457  0.24550032  1
  O  O30  1  0.26519731  0.25451068  0.75329571  1
  O  O31  1  0.27885384  0.74231437  0.57956433  1
  O  O32  1  0.73940969  0.28144191  0.58033930  1
  O  O33  1  0.25764064  0.26218963  0.90675403  1
  O  O34  1  0.74327003  0.74393893  0.42155310  1
  O  O35  1  0.25778852  0.72010877  0.75203877  1
  O  O36  1  0.72065598  0.26433568  0.75340635  1
  O  O37  1  0.74105631  0.73964582  0.57911152  1
  O  O38  1  0.27140525  0.74281243  0.91164908  1
  O  O39  1  0.74994554  0.27080836  0.91276920  1
  O  O40  1  0.74143254  0.73738274  0.76063997  1
  O  O41  1  0.74127183  0.75166169  0.91195509  1
