# generated using pymatgen
data_Ca(NiO2)2
_symmetry_space_group_name_H-M   'P 1'
_cell_length_a   3.13932268
_cell_length_b   9.55757180
_cell_length_c   9.86089510
_cell_angle_alpha   90.00154306
_cell_angle_beta   89.99391715
_cell_angle_gamma   90.00258973
_symmetry_Int_Tables_number   1
_chemical_formula_structural   Ca(NiO2)2
_chemical_formula_sum   'Ca4 Ni8 O16'
_cell_volume   295.86927154
_cell_formula_units_Z   4
loop_
 _symmetry_equiv_pos_site_id
 _symmetry_equiv_pos_as_xyz
  1  'x, y, z'
loop_
 _atom_site_type_symbol
 _atom_site_label
 _atom_site_symmetry_multiplicity
 _atom_site_fract_x
 _atom_site_fract_y
 _atom_site_fract_z
 _atom_site_occupancy
  Ca  Ca0  1  0.30561745  0.74998333  0.14927160  1
  Ca  Ca1  1  0.30555922  0.24997364  0.35076343  1
  Ca  Ca2  1  0.69449656  0.75000881  0.64917127  1
  Ca  Ca3  1  0.69437275  0.25001128  0.85078967  1
  Ni  Ni4  1  0.77574514  0.56947087  0.39150074  1
  Ni  Ni5  1  0.77557546  0.06952463  0.10851084  1
  Ni  Ni6  1  0.22418997  0.06952957  0.60853512  1
  Ni  Ni7  1  0.77552677  0.43048820  0.10849561  1
  Ni  Ni8  1  0.22424517  0.43046511  0.60850118  1
  Ni  Ni9  1  0.77581856  0.93047643  0.39148493  1
  Ni  Ni10  1  0.22457718  0.93045989  0.89151233  1
  Ni  Ni11  1  0.22429162  0.56956960  0.89146573  1
  O  O12  1  0.21520309  0.89300936  0.52176296  1
  O  O13  1  0.78487683  0.10701196  0.47823032  1
  O  O14  1  0.39824750  0.99996368  0.25003795  1
  O  O15  1  0.78485276  0.89297878  0.02175996  1
  O  O16  1  0.78477028  0.60704059  0.02176357  1
  O  O17  1  0.80518962  0.25000100  0.18611147  1
  O  O18  1  0.21526816  0.10700005  0.97827462  1
  O  O19  1  0.19474835  0.24998978  0.68617384  1
  O  O20  1  0.39817044  0.49997875  0.25002313  1
  O  O21  1  0.60175018  0.00005088  0.74996908  1
  O  O22  1  0.21521429  0.60695800  0.52174694  1
  O  O23  1  0.19483902  0.75003317  0.81382929  1
  O  O24  1  0.80522277  0.74999221  0.31388282  1
  O  O25  1  0.60170843  0.50003273  0.74997519  1
  O  O26  1  0.21510491  0.39303227  0.97822119  1
  O  O27  1  0.78481753  0.39296347  0.47823522  1
