# generated using pymatgen
data_MgBiO3
_symmetry_space_group_name_H-M   'P 1'
_cell_length_a   5.65167902
_cell_length_b   5.70682995
_cell_length_c   8.29280072
_cell_angle_alpha   90.03605604
_cell_angle_beta   89.99904019
_cell_angle_gamma   89.99932037
_symmetry_Int_Tables_number   1
_chemical_formula_structural   MgBiO3
_chemical_formula_sum   'Mg4 Bi4 O12'
_cell_volume   267.46906734
_cell_formula_units_Z   4
loop_
 _symmetry_equiv_pos_site_id
 _symmetry_equiv_pos_as_xyz
  1  'x, y, z'
loop_
 _atom_site_type_symbol
 _atom_site_label
 _atom_site_symmetry_multiplicity
 _atom_site_fract_x
 _atom_site_fract_y
 _atom_site_fract_z
 _atom_site_occupancy
  Mg  Mg0  1  0.01592564  0.02813622  0.25004093  1
  Mg  Mg1  1  0.51594107  0.47186610  0.74995657  1
  Mg  Mg2  1  0.48406206  0.52812274  0.25004110  1
  Mg  Mg3  1  -0.01593501  0.97187283  0.74995741  1
  Bi  Bi4  1  0.49999708  -0.00000192  -0.00000088  1
  Bi  Bi5  1  -0.00000030  0.50000275  -0.00000039  1
  Bi  Bi6  1  0.00000099  0.50000247  0.49999915  1
  Bi  Bi7  1  0.49999715  -0.00000010  0.49999831  1
  O  O8  1  0.85415220  0.61977425  0.74992393  1
  O  O9  1  0.35415394  0.88022650  0.25010370  1
  O  O10  1  0.64584506  0.11976791  0.74989563  1
  O  O11  1  0.14584907  0.38023181  0.25007671  1
  O  O12  1  0.66123149  0.33609385  0.42106652  1
  O  O13  1  0.16126431  0.16388309  0.57893362  1
  O  O14  1  0.83890238  0.83636765  0.07901885  1
  O  O15  1  0.33886831  0.66359733  0.92098218  1
  O  O16  1  0.66113682  0.33639334  0.07901772  1
  O  O17  1  0.16109502  0.16363440  0.92098135  1
  O  O18  1  0.33877304  0.66390553  0.57893698  1
  O  O19  1  0.83873966  0.83612525  0.42106860  1
