# generated using pymatgen
data_CaMg30CdO32
_symmetry_space_group_name_H-M   'P 1'
_cell_length_a   8.60579059
_cell_length_b   8.60808047
_cell_length_c   8.60808047
_cell_angle_alpha   90.00000000
_cell_angle_beta   90.00000000
_cell_angle_gamma   90.00000000
_symmetry_Int_Tables_number   1
_chemical_formula_structural   CaMg30CdO32
_chemical_formula_sum   'Ca1 Mg30 Cd1 O32'
_cell_volume   637.68090187
_cell_formula_units_Z   1
loop_
 _symmetry_equiv_pos_site_id
 _symmetry_equiv_pos_as_xyz
  1  'x, y, z'
loop_
 _atom_site_type_symbol
 _atom_site_label
 _atom_site_symmetry_multiplicity
 _atom_site_fract_x
 _atom_site_fract_y
 _atom_site_fract_z
 _atom_site_occupancy
  Ca  Ca0  1  -0.00000000  0.00000000  0.00000000  1
  Mg  Mg1  1  -0.00000000  0.00000000  0.50000000  1
  Mg  Mg2  1  -0.00000000  0.50000000  0.00000000  1
  Mg  Mg3  1  0.50000000  0.00000000  0.00000000  1
  Mg  Mg4  1  0.50000000  0.00000000  0.50000000  1
  Mg  Mg5  1  0.50000000  0.50000000  0.00000000  1
  Mg  Mg6  1  0.50000000  0.50000000  0.50000000  1
  Mg  Mg7  1  -0.00000000  0.25068067  0.25068067  1
  Mg  Mg8  1  -0.00000000  0.25068067  0.74931933  1
  Mg  Mg9  1  -0.00000000  0.74931933  0.25068067  1
  Mg  Mg10  1  -0.00000000  0.74931933  0.74931933  1
  Mg  Mg11  1  0.50000000  0.25010826  0.25010826  1
  Mg  Mg12  1  0.50000000  0.25010826  0.74989174  1
  Mg  Mg13  1  0.50000000  0.74989174  0.25010826  1
  Mg  Mg14  1  0.50000000  0.74989174  0.74989174  1
  Mg  Mg15  1  0.25284301  0.00000000  0.25288322  1
  Mg  Mg16  1  0.25284301  0.00000000  0.74711678  1
  Mg  Mg17  1  0.25234990  0.50000000  0.24792197  1
  Mg  Mg18  1  0.25234990  0.50000000  0.75207803  1
  Mg  Mg19  1  0.74715699  0.00000000  0.25288322  1
  Mg  Mg20  1  0.74715699  0.00000000  0.74711678  1
  Mg  Mg21  1  0.74765010  0.50000000  0.24792197  1
  Mg  Mg22  1  0.74765010  0.50000000  0.75207803  1
  Mg  Mg23  1  0.25284301  0.25288322  0.00000000  1
  Mg  Mg24  1  0.25234990  0.24792197  0.50000000  1
  Mg  Mg25  1  0.25284301  0.74711678  0.00000000  1
  Mg  Mg26  1  0.25234990  0.75207803  0.50000000  1
  Mg  Mg27  1  0.74715699  0.25288322  0.00000000  1
  Mg  Mg28  1  0.74765010  0.24792197  0.50000000  1
  Mg  Mg29  1  0.74715699  0.74711678  0.00000000  1
  Mg  Mg30  1  0.74765010  0.75207803  0.50000000  1
  Cd  Cd31  1  -0.00000000  0.50000000  0.50000000  1
  O  O32  1  0.26235893  0.00000000  0.00000000  1
  O  O33  1  0.25370938  0.00000000  0.50000000  1
  O  O34  1  0.25370938  0.50000000  0.00000000  1
  O  O35  1  0.26419056  0.50000000  0.50000000  1
  O  O36  1  0.73764107  0.00000000  0.00000000  1
  O  O37  1  0.74629062  0.00000000  0.50000000  1
  O  O38  1  0.74629062  0.50000000  0.00000000  1
  O  O39  1  0.73580944  0.50000000  0.50000000  1
  O  O40  1  0.24937528  0.25021938  0.25021938  1
  O  O41  1  0.24937528  0.25021938  0.74978062  1
  O  O42  1  0.24937528  0.74978062  0.25021938  1
  O  O43  1  0.24937528  0.74978062  0.74978062  1
  O  O44  1  0.75062472  0.25021938  0.25021938  1
  O  O45  1  0.75062472  0.25021938  0.74978062  1
  O  O46  1  0.75062472  0.74978062  0.25021938  1
  O  O47  1  0.75062472  0.74978062  0.74978062  1
  O  O48  1  -0.00000000  0.00000000  0.26080021  1
  O  O49  1  -0.00000000  0.00000000  0.73919979  1
  O  O50  1  -0.00000000  0.50000000  0.23776534  1
  O  O51  1  -0.00000000  0.50000000  0.76223466  1
  O  O52  1  0.50000000  0.00000000  0.25159760  1
  O  O53  1  0.50000000  0.00000000  0.74840240  1
  O  O54  1  0.50000000  0.50000000  0.24851454  1
  O  O55  1  0.50000000  0.50000000  0.75148546  1
  O  O56  1  -0.00000000  0.26080021  0.00000000  1
  O  O57  1  -0.00000000  0.23776534  0.50000000  1
  O  O58  1  -0.00000000  0.73919979  0.00000000  1
  O  O59  1  -0.00000000  0.76223466  0.50000000  1
  O  O60  1  0.50000000  0.25159760  0.00000000  1
  O  O61  1  0.50000000  0.24851454  0.50000000  1
  O  O62  1  0.50000000  0.74840240  0.00000000  1
  O  O63  1  0.50000000  0.75148546  0.50000000  1
