# generated using pymatgen
data_CuReO4
_symmetry_space_group_name_H-M   'P 1'
_cell_length_a   6.62143819
_cell_length_b   9.04658876
_cell_length_c   13.07881831
_cell_angle_alpha   89.99585602
_cell_angle_beta   89.59983733
_cell_angle_gamma   89.98022749
_symmetry_Int_Tables_number   1
_chemical_formula_structural   CuReO4
_chemical_formula_sum   'Cu8 Re8 O32'
_cell_volume   783.42074083
_cell_formula_units_Z   8
loop_
 _symmetry_equiv_pos_site_id
 _symmetry_equiv_pos_as_xyz
  1  'x, y, z'
loop_
 _atom_site_type_symbol
 _atom_site_label
 _atom_site_symmetry_multiplicity
 _atom_site_fract_x
 _atom_site_fract_y
 _atom_site_fract_z
 _atom_site_occupancy
  Cu  Cu0  1  0.80736222  0.13591313  0.89051830  1
  Cu  Cu1  1  0.37932172  0.05322903  0.61292670  1
  Cu  Cu2  1  0.62066639  0.94677323  0.38701440  1
  Cu  Cu3  1  0.19242516  0.86424138  0.10945273  1
  Cu  Cu4  1  0.80747816  0.36420883  0.39054093  1
  Cu  Cu5  1  0.37928521  0.44685611  0.11295097  1
  Cu  Cu6  1  0.19269323  0.63585800  0.60949731  1
  Cu  Cu7  1  0.62069987  0.55319239  0.88704107  1
  Re  Re8  1  0.10302873  0.45021678  0.85283534  1
  Re  Re9  1  0.10294875  0.04971330  0.35283389  1
  Re  Re10  1  0.60015996  0.08635137  0.13574251  1
  Re  Re11  1  0.89706396  0.95026833  0.64717174  1
  Re  Re12  1  0.39984450  0.91361485  0.86427275  1
  Re  Re13  1  0.39986778  0.58641541  0.36429073  1
  Re  Re14  1  0.60016185  0.41354179  0.63569796  1
  Re  Re15  1  0.89693467  0.54981174  0.14716447  1
  O  O16  1  0.04010590  0.23705340  0.37523484  1
  O  O17  1  0.65788202  0.99135476  0.59257405  1
  O  O18  1  0.20171482  0.60568426  0.45421335  1
  O  O19  1  0.79831557  0.10566469  0.04583460  1
  O  O20  1  0.04013788  0.26288832  0.87524794  1
  O  O21  1  0.96002769  0.76295018  0.62477706  1
  O  O22  1  0.08529045  0.06830577  0.59492690  1
  O  O23  1  0.48312363  0.91097025  0.12183414  1
  O  O24  1  0.48323481  0.58900198  0.62185069  1
  O  O25  1  0.31254316  0.89846574  0.73692217  1
  O  O26  1  0.68750386  0.39842908  0.76303012  1
  O  O27  1  0.51678879  0.08903136  0.87813833  1
  O  O28  1  0.91473901  0.93168464  0.40509575  1
  O  O29  1  0.87682388  0.51578387  0.27940540  1
  O  O30  1  0.42193515  0.27286374  0.61402638  1
  O  O31  1  0.42196681  0.22714047  0.11408295  1
  O  O32  1  0.12313123  0.01567167  0.22059459  1
  O  O33  1  0.51684403  0.41097934  0.37816225  1
  O  O34  1  0.12320302  0.48427039  0.72058994  1
  O  O35  1  0.79836038  0.39426311  0.54578229  1
  O  O36  1  0.65782713  0.50862641  0.09255698  1
  O  O37  1  0.68749975  0.10144699  0.26309735  1
  O  O38  1  0.95975864  0.73714064  0.12475925  1
  O  O39  1  0.08522057  0.43177210  0.09492652  1
  O  O40  1  0.20163455  0.89432549  0.95418359  1
  O  O41  1  0.57804659  0.77283611  0.88596771  1
  O  O42  1  0.34212625  0.00860692  0.40743838  1
  O  O43  1  0.34219964  0.49134608  0.90743546  1
  O  O44  1  0.91469548  0.56825500  0.90505855  1
  O  O45  1  0.57805197  0.72713842  0.38594500  1
  O  O46  1  0.31246995  0.60150635  0.23696085  1
  O  O47  1  0.87685523  0.98433681  0.77939483  1
