# generated using pymatgen
data_MgCuP2O7
_symmetry_space_group_name_H-M   'P 1'
_cell_length_a   6.97590543
_cell_length_b   8.27694130
_cell_length_c   9.44941394
_cell_angle_alpha   90.00000000
_cell_angle_beta   113.08717405
_cell_angle_gamma   90.00000000
_symmetry_Int_Tables_number   1
_chemical_formula_structural   MgCuP2O7
_chemical_formula_sum   'Mg4 Cu4 P8 O28'
_cell_volume   501.90363766
_cell_formula_units_Z   4
loop_
 _symmetry_equiv_pos_site_id
 _symmetry_equiv_pos_as_xyz
  1  'x, y, z'
loop_
 _atom_site_type_symbol
 _atom_site_label
 _atom_site_symmetry_multiplicity
 _atom_site_fract_x
 _atom_site_fract_y
 _atom_site_fract_z
 _atom_site_occupancy
  Mg  Mg0  1  0.12635354  0.93825958  0.81632710  1
  Mg  Mg1  1  0.37364646  0.43825958  0.68367290  1
  Mg  Mg2  1  0.62635354  0.56174042  0.31632710  1
  Mg  Mg3  1  0.87364646  0.06174042  0.18367290  1
  Cu  Cu4  1  0.37557239  0.06973155  0.60891546  1
  Cu  Cu5  1  0.62442761  0.93026845  0.39108454  1
  Cu  Cu6  1  0.12442761  0.56973155  0.89108454  1
  Cu  Cu7  1  0.87557239  0.43026845  0.10891546  1
  P  P8  1  0.17601693  0.73283424  0.24399065  1
  P  P9  1  0.43702856  0.23021333  0.97131933  1
  P  P10  1  0.67601693  0.76716576  0.74399065  1
  P  P11  1  0.93702856  0.26978667  0.47131933  1
  P  P12  1  0.32398307  0.23283424  0.25600935  1
  P  P13  1  0.06297144  0.73021333  0.52868067  1
  P  P14  1  0.56297144  0.76978667  0.02868067  1
  P  P15  1  0.82398307  0.26716576  0.75600935  1
  O  O16  1  0.35256666  0.18245524  0.10030860  1
  O  O17  1  0.56858174  0.60941726  0.68566629  1
  O  O18  1  0.06858174  0.89058274  0.18566629  1
  O  O19  1  0.34683524  0.39341999  0.89502398  1
  O  O20  1  0.64743334  0.81754476  0.89969140  1
  O  O21  1  0.41230488  0.09131825  0.36990487  1
  O  O22  1  0.65316476  0.60658001  0.10497602  1
  O  O23  1  0.36557031  0.09091581  0.85854267  1
  O  O24  1  0.17821132  0.25847978  0.55161701  1
  O  O25  1  0.58769512  0.90868175  0.63009513  1
  O  O26  1  0.91230488  0.40868175  0.86990487  1
  O  O27  1  0.91475223  0.76044572  0.79396309  1
  O  O28  1  0.58524777  0.26044572  0.70603691  1
  O  O29  1  0.85256666  0.31754476  0.60030860  1
  O  O30  1  0.08769512  0.59131825  0.13009513  1
  O  O31  1  0.93141826  0.10941726  0.81433371  1
  O  O32  1  0.08524777  0.23955428  0.20603691  1
  O  O33  1  0.63442969  0.90908419  0.14145733  1
  O  O34  1  0.67821132  0.24152022  0.05161701  1
  O  O35  1  0.32178868  0.75847978  0.94838299  1
  O  O36  1  0.15316476  0.89341999  0.60497602  1
  O  O37  1  0.86557031  0.40908419  0.35854267  1
  O  O38  1  0.13442969  0.59091581  0.64145733  1
  O  O39  1  0.43141826  0.39058274  0.31433371  1
  O  O40  1  0.41475223  0.73955428  0.29396309  1
  O  O41  1  0.84683524  0.10658001  0.39502398  1
  O  O42  1  0.82178868  0.74152022  0.44838299  1
  O  O43  1  0.14743334  0.68245524  0.39969140  1
