# generated using pymatgen
data_MgBi2O5
_symmetry_space_group_name_H-M   'P 1'
_cell_length_a   5.40143109
_cell_length_b   10.49976167
_cell_length_c   16.13986357
_cell_angle_alpha   90.00000000
_cell_angle_beta   90.00000000
_cell_angle_gamma   90.00000000
_symmetry_Int_Tables_number   1
_chemical_formula_structural   MgBi2O5
_chemical_formula_sum   'Mg8 Bi16 O40'
_cell_volume   915.35201197
_cell_formula_units_Z   8
loop_
 _symmetry_equiv_pos_site_id
 _symmetry_equiv_pos_as_xyz
  1  'x, y, z'
loop_
 _atom_site_type_symbol
 _atom_site_label
 _atom_site_symmetry_multiplicity
 _atom_site_fract_x
 _atom_site_fract_y
 _atom_site_fract_z
 _atom_site_occupancy
  Mg  Mg0  1  0.51239455  0.35076777  0.41674223  1
  Mg  Mg1  1  0.01239455  0.14923223  0.41674223  1
  Mg  Mg2  1  0.01239455  0.64923223  0.08325777  1
  Mg  Mg3  1  0.98760545  0.35076777  0.91674223  1
  Mg  Mg4  1  0.48760545  0.14923223  0.91674223  1
  Mg  Mg5  1  0.98760545  0.85076777  0.58325777  1
  Mg  Mg6  1  0.48760545  0.64923223  0.58325777  1
  Mg  Mg7  1  0.51239455  0.85076777  0.08325777  1
  Bi  Bi8  1  0.06099625  0.38284930  0.56695056  1
  Bi  Bi9  1  0.43900375  0.88284930  0.43304944  1
  Bi  Bi10  1  0.93900375  0.61715070  0.43304944  1
  Bi  Bi11  1  0.56099625  0.11715070  0.56695056  1
  Bi  Bi12  1  0.93900375  0.11715070  0.06695056  1
  Bi  Bi13  1  0.06099625  0.88284930  0.93304944  1
  Bi  Bi14  1  0.43900375  0.38284930  0.06695056  1
  Bi  Bi15  1  0.56099625  0.61715070  0.93304944  1
  Bi  Bi16  1  0.95338110  0.86100888  0.24340992  1
  Bi  Bi17  1  0.04661890  0.13899112  0.75659008  1
  Bi  Bi18  1  0.54661890  0.36100888  0.75659008  1
  Bi  Bi19  1  0.04661890  0.63899112  0.74340992  1
  Bi  Bi20  1  0.45338110  0.13899112  0.25659008  1
  Bi  Bi21  1  0.45338110  0.63899112  0.24340992  1
  Bi  Bi22  1  0.54661890  0.86100888  0.74340992  1
  Bi  Bi23  1  0.95338110  0.36100888  0.25659008  1
  O  O24  1  0.90586887  0.30707009  0.67796724  1
  O  O25  1  0.21959746  0.97616055  0.04240963  1
  O  O26  1  0.28040254  0.47616055  0.95759037  1
  O  O27  1  0.25179604  0.77440137  0.16590586  1
  O  O28  1  0.24820396  0.27440137  0.83409414  1
  O  O29  1  0.90586887  0.80707009  0.82203276  1
  O  O30  1  0.24820396  0.77440137  0.66590586  1
  O  O31  1  0.59413113  0.80707009  0.32203276  1
  O  O32  1  0.21959746  0.47616055  0.45759037  1
  O  O33  1  0.09413113  0.69292991  0.32203276  1
  O  O34  1  0.59413113  0.30707009  0.17796724  1
  O  O35  1  0.79936627  0.25995741  0.50354023  1
  O  O36  1  0.71959746  0.02383945  0.45759037  1
  O  O37  1  0.74820396  0.72559863  0.66590586  1
  O  O38  1  0.28447186  0.00463078  0.86121215  1
  O  O39  1  0.71959746  0.52383945  0.04240963  1
  O  O40  1  0.09413113  0.19292991  0.17796724  1
  O  O41  1  0.75179604  0.22559863  0.33409414  1
  O  O42  1  0.29936627  0.74004259  0.99645977  1
  O  O43  1  0.28040254  0.97616055  0.54240963  1
  O  O44  1  0.20063373  0.74004259  0.49645977  1
  O  O45  1  0.71552814  0.99536922  0.13878785  1
  O  O46  1  0.74820396  0.22559863  0.83409414  1
  O  O47  1  0.78447186  0.99536922  0.63878785  1
  O  O48  1  0.20063373  0.24004259  0.00354023  1
  O  O49  1  0.29936627  0.24004259  0.50354023  1
  O  O50  1  0.78040254  0.52383945  0.54240963  1
  O  O51  1  0.78040254  0.02383945  0.95759037  1
  O  O52  1  0.78447186  0.49536922  0.86121215  1
  O  O53  1  0.70063373  0.75995741  0.49645977  1
  O  O54  1  0.70063373  0.25995741  0.00354023  1
  O  O55  1  0.79936627  0.75995741  0.99645977  1
  O  O56  1  0.71552814  0.49536922  0.36121215  1
  O  O57  1  0.75179604  0.72559863  0.16590586  1
  O  O58  1  0.25179604  0.27440137  0.33409414  1
  O  O59  1  0.28447186  0.50463078  0.63878785  1
  O  O60  1  0.21552814  0.50463078  0.13878785  1
  O  O61  1  0.40586887  0.19292991  0.67796724  1
  O  O62  1  0.21552814  0.00463078  0.36121215  1
  O  O63  1  0.40586887  0.69292991  0.82203276  1
