# generated using pymatgen
data_Ti(GeO3)2
_symmetry_space_group_name_H-M   'P 1'
_cell_length_a   5.61186920
_cell_length_b   9.04084508
_cell_length_c   9.95123809
_cell_angle_alpha   90.00000000
_cell_angle_beta   105.08662315
_cell_angle_gamma   90.00000000
_symmetry_Int_Tables_number   1
_chemical_formula_structural   Ti(GeO3)2
_chemical_formula_sum   'Ti4 Ge8 O24'
_cell_volume   487.48470840
_cell_formula_units_Z   4
loop_
 _symmetry_equiv_pos_site_id
 _symmetry_equiv_pos_as_xyz
  1  'x, y, z'
loop_
 _atom_site_type_symbol
 _atom_site_label
 _atom_site_symmetry_multiplicity
 _atom_site_fract_x
 _atom_site_fract_y
 _atom_site_fract_z
 _atom_site_occupancy
  Ti  Ti0  1  0.98863120  0.64345460  0.24994129  1
  Ti  Ti1  1  0.51136880  0.14345460  0.75005871  1
  Ti  Ti2  1  0.01136880  0.35654540  0.75005871  1
  Ti  Ti3  1  0.48863120  0.85654540  0.24994129  1
  Ge  Ge4  1  0.84546521  0.33263150  0.04403311  1
  Ge  Ge5  1  0.65453479  0.83263150  0.95596689  1
  Ge  Ge6  1  0.15453479  0.66736850  0.95596689  1
  Ge  Ge7  1  0.34546521  0.16736850  0.04403311  1
  Ge  Ge8  1  0.18195977  0.33633836  0.45947634  1
  Ge  Ge9  1  0.31804023  0.83633836  0.54052366  1
  Ge  Ge10  1  0.81804023  0.66366164  0.54052366  1
  Ge  Ge11  1  0.68195977  0.16366164  0.45947634  1
  O  O12  1  0.40135879  0.25278099  0.38770491  1
  O  O13  1  0.09864121  0.75278099  0.61229509  1
  O  O14  1  0.59864121  0.74721901  0.61229509  1
  O  O15  1  0.90135879  0.24722001  0.38770491  1
  O  O16  1  0.15167671  0.27768278  0.11442811  1
  O  O17  1  0.34832329  0.77768278  0.88557189  1
  O  O18  1  0.84832329  0.72231722  0.88557289  1
  O  O19  1  0.65167671  0.22231722  0.11442711  1
  O  O20  1  0.64948728  0.98109774  0.39131410  1
  O  O21  1  0.85051272  0.48109774  0.60868590  1
  O  O22  1  0.35051272  0.01890226  0.60868590  1
  O  O23  1  0.14948728  0.51890226  0.39131410  1
  O  O24  1  0.33734573  0.98745507  0.11325468  1
  O  O25  1  0.16265427  0.48745507  0.88674532  1
  O  O26  1  0.66265427  0.01254493  0.88674532  1
  O  O27  1  0.83734573  0.51254493  0.11325468  1
  O  O28  1  0.76024989  0.31174034  0.85923252  1
  O  O29  1  0.73975011  0.81174034  0.14076748  1
  O  O30  1  0.23975011  0.68825966  0.14076748  1
  O  O31  1  0.26024989  0.18825966  0.85923252  1
  O  O32  1  0.26857777  0.31714644  0.64452389  1
  O  O33  1  0.23142223  0.81714644  0.35547611  1
  O  O34  1  0.73142223  0.68285356  0.35547611  1
  O  O35  1  0.76857777  0.18285356  0.64452389  1
