# generated using pymatgen
data_MgTi2O4
_symmetry_space_group_name_H-M   'P 1'
_cell_length_a   6.01260703
_cell_length_b   6.01077039
_cell_length_c   18.20219938
_cell_angle_alpha   60.30098694
_cell_angle_beta   60.31621140
_cell_angle_gamma   59.99863949
_symmetry_Int_Tables_number   1
_chemical_formula_structural   MgTi2O4
_chemical_formula_sum   'Mg6 Ti12 O24'
_cell_volume   467.31249215
_cell_formula_units_Z   6
loop_
 _symmetry_equiv_pos_site_id
 _symmetry_equiv_pos_as_xyz
  1  'x, y, z'
loop_
 _atom_site_type_symbol
 _atom_site_label
 _atom_site_symmetry_multiplicity
 _atom_site_fract_x
 _atom_site_fract_y
 _atom_site_fract_z
 _atom_site_occupancy
  Mg  Mg0  1  0.12153791  0.12156493  0.04515203  1
  Mg  Mg1  1  0.12838313  0.12844236  0.37140719  1
  Mg  Mg2  1  0.49658795  0.49659978  0.00344403  1
  Mg  Mg3  1  0.12849304  0.12845172  0.70490795  1
  Mg  Mg4  1  0.87443018  0.87449611  0.29213738  1
  Mg  Mg5  1  0.87423430  0.87421187  0.62578842  1
  Ti  Ti6  1  0.98994774  0.50484912  0.16684712  1
  Ti  Ti7  1  0.50472995  0.50465078  0.16676730  1
  Ti  Ti8  1  0.00099491  0.49965198  0.49975915  1
  Ti  Ti9  1  0.50483887  0.99002169  0.16685325  1
  Ti  Ti10  1  0.49309643  0.49276668  0.34038964  1
  Ti  Ti11  1  0.50019387  0.50016459  0.49967167  1
  Ti  Ti12  1  0.01264105  0.49765215  0.83055142  1
  Ti  Ti13  1  0.49966258  0.00110849  0.49972079  1
  Ti  Ti14  1  0.49764763  0.01263365  0.83054953  1
  Ti  Ti15  1  0.50123775  0.50137677  0.66553850  1
  Ti  Ti16  1  0.49809655  0.49811384  0.83057547  1
  Ti  Ti17  1  0.88016935  0.88016527  0.95298910  1
  O  O18  1  0.25370784  0.25366041  0.09144117  1
  O  O19  1  0.26034461  0.26031884  0.23951151  1
  O  O20  1  0.25370844  0.71835940  0.09143910  1
  O  O21  1  0.71834120  0.25368462  0.09144349  1
  O  O22  1  0.27671954  0.73711954  0.24960961  1
  O  O23  1  0.25570654  0.25578821  0.41961369  1
  O  O24  1  0.73708785  0.27671527  0.24960854  1
  O  O25  1  0.75254272  0.75254322  0.08078511  1
  O  O26  1  0.25536224  0.72956185  0.41978439  1
  O  O27  1  0.25995532  0.26000141  0.57372713  1
  O  O28  1  0.73713822  0.73721433  0.24962134  1
  O  O29  1  0.72969140  0.25535107  0.41977351  1
  O  O30  1  0.27537297  0.74161574  0.58055013  1
  O  O31  1  0.25763227  0.25763689  0.75109506  1
  O  O32  1  0.74163266  0.27545596  0.58052877  1
  O  O33  1  0.74155302  0.74146498  0.42509391  1
  O  O34  1  0.25598072  0.25596402  0.91078673  1
  O  O35  1  0.25762971  0.73086798  0.75122143  1
  O  O36  1  0.74147613  0.74140085  0.58057299  1
  O  O37  1  0.73087356  0.25762657  0.75122620  1
  O  O38  1  0.26677348  0.74613296  0.91359993  1
  O  O39  1  0.74149193  0.74149887  0.75871016  1
  O  O40  1  0.74609346  0.26679872  0.91360300  1
  O  O41  1  0.74625797  0.74629646  0.91360415  1
