# generated using pymatgen
data_CaCrBiO5
_symmetry_space_group_name_H-M   'P 1'
_cell_length_a   5.53877113
_cell_length_b   11.40502951
_cell_length_c   15.59634759
_cell_angle_alpha   90.00000000
_cell_angle_beta   90.00000000
_cell_angle_gamma   90.00000000
_symmetry_Int_Tables_number   1
_chemical_formula_structural   CaCrBiO5
_chemical_formula_sum   'Ca8 Cr8 Bi8 O40'
_cell_volume   985.21890953
_cell_formula_units_Z   8
loop_
 _symmetry_equiv_pos_site_id
 _symmetry_equiv_pos_as_xyz
  1  'x, y, z'
loop_
 _atom_site_type_symbol
 _atom_site_label
 _atom_site_symmetry_multiplicity
 _atom_site_fract_x
 _atom_site_fract_y
 _atom_site_fract_z
 _atom_site_occupancy
  Ca  Ca0  1  0.50341165  0.35895300  0.44806040  1
  Ca  Ca1  1  0.00341165  0.14104700  0.44806040  1
  Ca  Ca2  1  0.00341165  0.64104700  0.05193960  1
  Ca  Ca3  1  0.99658835  0.35895300  0.94806040  1
  Ca  Ca4  1  0.49658835  0.14104700  0.94806040  1
  Ca  Ca5  1  0.99658835  0.85895300  0.55193960  1
  Ca  Ca6  1  0.49658835  0.64104700  0.55193960  1
  Ca  Ca7  1  0.50341165  0.85895300  0.05193960  1
  Cr  Cr8  1  0.98322169  0.40519260  0.59706399  1
  Cr  Cr9  1  0.51677831  0.90519260  0.40293601  1
  Cr  Cr10  1  0.01677831  0.59480740  0.40293601  1
  Cr  Cr11  1  0.48322169  0.09480740  0.59706399  1
  Cr  Cr12  1  0.01677831  0.09480740  0.09706399  1
  Cr  Cr13  1  0.98322169  0.90519260  0.90293601  1
  Cr  Cr14  1  0.51677831  0.40519260  0.09706399  1
  Cr  Cr15  1  0.48322169  0.59480740  0.90293601  1
  Bi  Bi16  1  0.95064581  0.84489003  0.23294082  1
  Bi  Bi17  1  0.04935419  0.15510997  0.76705918  1
  Bi  Bi18  1  0.54935419  0.34489003  0.76705918  1
  Bi  Bi19  1  0.04935419  0.65510997  0.73294082  1
  Bi  Bi20  1  0.45064581  0.15510997  0.26705918  1
  Bi  Bi21  1  0.45064581  0.65510997  0.23294082  1
  Bi  Bi22  1  0.54935419  0.84489003  0.73294082  1
  Bi  Bi23  1  0.95064581  0.34489003  0.26705918  1
  O  O24  1  0.93968918  0.32855176  0.69476254  1
  O  O25  1  0.29463191  0.04363842  0.06636287  1
  O  O26  1  0.20536809  0.54363842  0.93363713  1
  O  O27  1  0.23880267  0.76653309  0.15162994  1
  O  O28  1  0.26119733  0.26653309  0.84837006  1
  O  O29  1  0.93968918  0.82855176  0.80523746  1
  O  O30  1  0.26119733  0.76653309  0.65162994  1
  O  O31  1  0.56031082  0.82855176  0.30523746  1
  O  O32  1  0.29463191  0.54363842  0.43363713  1
  O  O33  1  0.06031082  0.67144824  0.30523746  1
  O  O34  1  0.56031082  0.32855176  0.19476254  1
  O  O35  1  0.62372387  0.18544812  0.52708256  1
  O  O36  1  0.79463191  0.95636158  0.43363713  1
  O  O37  1  0.76119733  0.73346691  0.65162994  1
  O  O38  1  0.16463744  0.02517766  0.87514696  1
  O  O39  1  0.79463191  0.45636158  0.06636287  1
  O  O40  1  0.06031082  0.17144824  0.19476254  1
  O  O41  1  0.73880267  0.23346691  0.34837006  1
  O  O42  1  0.12372387  0.81455188  0.97291744  1
  O  O43  1  0.20536809  0.04363842  0.56636287  1
  O  O44  1  0.37627613  0.81455188  0.47291744  1
  O  O45  1  0.83536256  0.97482234  0.12485304  1
  O  O46  1  0.76119733  0.23346691  0.84837006  1
  O  O47  1  0.66463744  0.97482234  0.62485304  1
  O  O48  1  0.37627613  0.31455188  0.02708256  1
  O  O49  1  0.12372387  0.31455188  0.52708256  1
  O  O50  1  0.70536809  0.45636158  0.56636287  1
  O  O51  1  0.70536809  0.95636158  0.93363713  1
  O  O52  1  0.66463744  0.47482234  0.87514696  1
  O  O53  1  0.87627613  0.68544812  0.47291744  1
  O  O54  1  0.87627613  0.18544812  0.02708256  1
  O  O55  1  0.62372387  0.68544812  0.97291744  1
  O  O56  1  0.83536256  0.47482234  0.37514696  1
  O  O57  1  0.73880267  0.73346691  0.15162994  1
  O  O58  1  0.23880267  0.26653309  0.34837006  1
  O  O59  1  0.16463744  0.52517766  0.62485304  1
  O  O60  1  0.33536256  0.52517766  0.12485304  1
  O  O61  1  0.43968918  0.17144824  0.69476254  1
  O  O62  1  0.33536256  0.02517766  0.37514696  1
  O  O63  1  0.43968918  0.67144824  0.80523746  1
