# generated using pymatgen
data_MgTiMn(PO4)3
_symmetry_space_group_name_H-M   'P 1'
_cell_length_a   8.54271712
_cell_length_b   8.54271717
_cell_length_c   8.54271757
_cell_angle_alpha   60.72082998
_cell_angle_beta   60.72083232
_cell_angle_gamma   60.72083453
_symmetry_Int_Tables_number   1
_chemical_formula_structural   MgTiMn(PO4)3
_chemical_formula_sum   'Mg2 Ti2 Mn2 P6 O24'
_cell_volume   448.00303354
_cell_formula_units_Z   2
loop_
 _symmetry_equiv_pos_site_id
 _symmetry_equiv_pos_as_xyz
  1  'x, y, z'
loop_
 _atom_site_type_symbol
 _atom_site_label
 _atom_site_symmetry_multiplicity
 _atom_site_fract_x
 _atom_site_fract_y
 _atom_site_fract_z
 _atom_site_occupancy
  Mg  Mg0  1  0.99780489  0.99780489  0.99780489  1
  Mg  Mg1  1  0.49780489  0.49780489  0.49780489  1
  Ti  Ti2  1  0.14353054  0.14353054  0.14353054  1
  Ti  Ti3  1  0.64353054  0.64353054  0.64353054  1
  Mn  Mn4  1  0.35676899  0.35676899  0.35676899  1
  Mn  Mn5  1  0.85676899  0.85676899  0.85676899  1
  P  P6  1  0.04468123  0.45602945  0.75115172  1
  P  P7  1  0.45602945  0.75115172  0.04468123  1
  P  P8  1  0.75115172  0.04468123  0.45602945  1
  P  P9  1  0.25115172  0.95602945  0.54468123  1
  P  P10  1  0.54468123  0.25115172  0.95602945  1
  P  P11  1  0.95602945  0.54468123  0.25115172  1
  O  O12  1  0.11119508  0.50868813  0.31529446  1
  O  O13  1  0.31529446  0.11119508  0.50868813  1
  O  O14  1  0.05326365  0.25819004  0.91204492  1
  O  O15  1  0.50868813  0.31529446  0.11119508  1
  O  O16  1  0.00868813  0.61119508  0.81529446  1
  O  O17  1  0.24104053  0.43937284  0.59214814  1
  O  O18  1  0.25819004  0.91204492  0.05326365  1
  O  O19  1  0.43937284  0.59214814  0.24104053  1
  O  O20  1  0.18467280  0.00312222  0.38099837  1
  O  O21  1  0.59214814  0.24104053  0.43937284  1
  O  O22  1  0.09214814  0.93937284  0.74104053  1
  O  O23  1  0.38099837  0.18467280  0.00312222  1
  O  O24  1  0.61119508  0.81529446  0.00868813  1
  O  O25  1  0.91204492  0.05326365  0.25819004  1
  O  O26  1  0.41204492  0.75819004  0.55326365  1
  O  O27  1  0.81529446  0.00868813  0.61119508  1
  O  O28  1  0.55326365  0.41204492  0.75819004  1
  O  O29  1  0.74104053  0.09214814  0.93937284  1
  O  O30  1  0.75819004  0.55326365  0.41204492  1
  O  O31  1  0.00312222  0.38099837  0.18467280  1
  O  O32  1  0.50312222  0.68467280  0.88099837  1
  O  O33  1  0.93937284  0.74104053  0.09214814  1
  O  O34  1  0.68467280  0.88099837  0.50312222  1
  O  O35  1  0.88099837  0.50312222  0.68467280  1
