# generated using pymatgen
data_CaTaBiO5
_symmetry_space_group_name_H-M   'P 1'
_cell_length_a   5.63017087
_cell_length_b   11.51552571
_cell_length_c   16.53440816
_cell_angle_alpha   90.00000000
_cell_angle_beta   90.00000000
_cell_angle_gamma   90.00000000
_symmetry_Int_Tables_number   1
_chemical_formula_structural   CaTaBiO5
_chemical_formula_sum   'Ca8 Ta8 Bi8 O40'
_cell_volume   1071.99805882
_cell_formula_units_Z   8
loop_
 _symmetry_equiv_pos_site_id
 _symmetry_equiv_pos_as_xyz
  1  'x, y, z'
loop_
 _atom_site_type_symbol
 _atom_site_label
 _atom_site_symmetry_multiplicity
 _atom_site_fract_x
 _atom_site_fract_y
 _atom_site_fract_z
 _atom_site_occupancy
  Ca  Ca0  1  0.50170972  0.36001837  0.44909180  1
  Ca  Ca1  1  0.00170972  0.13998163  0.44909180  1
  Ca  Ca2  1  0.00170972  0.63998163  0.05090820  1
  Ca  Ca3  1  0.99829028  0.36001837  0.94909180  1
  Ca  Ca4  1  0.49829028  0.13998163  0.94909180  1
  Ca  Ca5  1  0.99829028  0.86001837  0.55090820  1
  Ca  Ca6  1  0.49829028  0.63998163  0.55090820  1
  Ca  Ca7  1  0.50170972  0.86001837  0.05090820  1
  Ta  Ta8  1  0.98799658  0.39939720  0.59709026  1
  Ta  Ta9  1  0.51200342  0.89939720  0.40290974  1
  Ta  Ta10  1  0.01200342  0.60060280  0.40290974  1
  Ta  Ta11  1  0.48799658  0.10060280  0.59709026  1
  Ta  Ta12  1  0.01200342  0.10060280  0.09709026  1
  Ta  Ta13  1  0.98799658  0.89939720  0.90290974  1
  Ta  Ta14  1  0.51200342  0.39939720  0.09709026  1
  Ta  Ta15  1  0.48799658  0.60060280  0.90290974  1
  Bi  Bi16  1  0.94628979  0.84158917  0.22571819  1
  Bi  Bi17  1  0.05371021  0.15841083  0.77428181  1
  Bi  Bi18  1  0.55371021  0.34158917  0.77428181  1
  Bi  Bi19  1  0.05371021  0.65841083  0.72571819  1
  Bi  Bi20  1  0.44628979  0.15841083  0.27428181  1
  Bi  Bi21  1  0.44628979  0.65841083  0.22571819  1
  Bi  Bi22  1  0.55371021  0.84158917  0.72571819  1
  Bi  Bi23  1  0.94628979  0.34158917  0.27428181  1
  O  O24  1  0.92927136  0.32026003  0.69615512  1
  O  O25  1  0.29799137  0.04472176  0.05797361  1
  O  O26  1  0.20200863  0.54472176  0.94202639  1
  O  O27  1  0.24266199  0.77309585  0.15237581  1
  O  O28  1  0.25733801  0.27309585  0.84762419  1
  O  O29  1  0.92927136  0.82026003  0.80384488  1
  O  O30  1  0.25733801  0.77309585  0.65237581  1
  O  O31  1  0.57072864  0.82026003  0.30384488  1
  O  O32  1  0.29799137  0.54472176  0.44202639  1
  O  O33  1  0.07072864  0.67973997  0.30384488  1
  O  O34  1  0.57072864  0.32026003  0.19615512  1
  O  O35  1  0.64853304  0.19202444  0.52275815  1
  O  O36  1  0.79799137  0.95527824  0.44202639  1
  O  O37  1  0.75733801  0.72690415  0.65237581  1
  O  O38  1  0.17456428  0.02935954  0.87415544  1
  O  O39  1  0.79799137  0.45527824  0.05797361  1
  O  O40  1  0.07072864  0.17973997  0.19615512  1
  O  O41  1  0.74266199  0.22690415  0.34762419  1
  O  O42  1  0.14853304  0.80797556  0.97724185  1
  O  O43  1  0.20200863  0.04472176  0.55797361  1
  O  O44  1  0.35146696  0.80797556  0.47724185  1
  O  O45  1  0.82543572  0.97064046  0.12584456  1
  O  O46  1  0.75733801  0.22690415  0.84762419  1
  O  O47  1  0.67456428  0.97064046  0.62584456  1
  O  O48  1  0.35146696  0.30797556  0.02275815  1
  O  O49  1  0.14853304  0.30797556  0.52275815  1
  O  O50  1  0.70200863  0.45527824  0.55797361  1
  O  O51  1  0.70200863  0.95527824  0.94202639  1
  O  O52  1  0.67456428  0.47064046  0.87415544  1
  O  O53  1  0.85146696  0.69202444  0.47724185  1
  O  O54  1  0.85146696  0.19202444  0.02275815  1
  O  O55  1  0.64853304  0.69202444  0.97724185  1
  O  O56  1  0.82543572  0.47064046  0.37415544  1
  O  O57  1  0.74266199  0.72690415  0.15237581  1
  O  O58  1  0.24266199  0.27309585  0.34762419  1
  O  O59  1  0.17456428  0.52935954  0.62584456  1
  O  O60  1  0.32543572  0.52935954  0.12584456  1
  O  O61  1  0.42927136  0.17973997  0.69615512  1
  O  O62  1  0.32543572  0.02935954  0.37415544  1
  O  O63  1  0.42927136  0.67973997  0.80384488  1
