# generated using pymatgen
data_CaTiP3WO12
_symmetry_space_group_name_H-M   'P 1'
_cell_length_a   8.98749661
_cell_length_b   8.98749652
_cell_length_c   8.98749675
_cell_angle_alpha   58.63240542
_cell_angle_beta   58.63240887
_cell_angle_gamma   58.63241162
_symmetry_Int_Tables_number   1
_chemical_formula_structural   CaTiP3WO12
_chemical_formula_sum   'Ca2 Ti2 P6 W2 O24'
_cell_volume   497.28779422
_cell_formula_units_Z   2
loop_
 _symmetry_equiv_pos_site_id
 _symmetry_equiv_pos_as_xyz
  1  'x, y, z'
loop_
 _atom_site_type_symbol
 _atom_site_label
 _atom_site_symmetry_multiplicity
 _atom_site_fract_x
 _atom_site_fract_y
 _atom_site_fract_z
 _atom_site_occupancy
  Ca  Ca0  1  0.99941575  0.99941575  0.99941575  1
  Ca  Ca1  1  0.49941575  0.49941575  0.49941575  1
  Ti  Ti2  1  0.14843301  0.14843301  0.14843301  1
  Ti  Ti3  1  0.64843301  0.64843301  0.64843301  1
  P  P4  1  0.03793055  0.45303912  0.75901207  1
  P  P5  1  0.45303912  0.75901207  0.03793055  1
  P  P6  1  0.75901207  0.03793055  0.45303912  1
  P  P7  1  0.25901207  0.95303912  0.53793055  1
  P  P8  1  0.53793055  0.25901207  0.95303912  1
  P  P9  1  0.95303912  0.53793055  0.25901207  1
  W  W10  1  0.35535632  0.35535632  0.35535632  1
  W  W11  1  0.85535632  0.85535632  0.85535632  1
  O  O12  1  0.10610901  0.51051872  0.30572014  1
  O  O13  1  0.30572014  0.10610901  0.51051872  1
  O  O14  1  0.05058772  0.26771321  0.92697820  1
  O  O15  1  0.51051872  0.30572014  0.10610901  1
  O  O16  1  0.01051872  0.60610901  0.80572014  1
  O  O17  1  0.22482850  0.42885677  0.59706742  1
  O  O18  1  0.26771321  0.92697820  0.05058772  1
  O  O19  1  0.42885677  0.59706742  0.22482850  1
  O  O20  1  0.20718813  0.99953618  0.37170720  1
  O  O21  1  0.59706742  0.22482850  0.42885677  1
  O  O22  1  0.09706742  0.92885677  0.72482850  1
  O  O23  1  0.37170720  0.20718813  0.99953618  1
  O  O24  1  0.60610901  0.80572014  0.01051872  1
  O  O25  1  0.92697820  0.05058772  0.26771321  1
  O  O26  1  0.42697820  0.76771321  0.55058772  1
  O  O27  1  0.80572014  0.01051872  0.60610901  1
  O  O28  1  0.55058772  0.42697820  0.76771321  1
  O  O29  1  0.72482850  0.09706742  0.92885677  1
  O  O30  1  0.76771321  0.55058772  0.42697820  1
  O  O31  1  0.99953618  0.37170720  0.20718813  1
  O  O32  1  0.49953618  0.70718813  0.87170720  1
  O  O33  1  0.92885677  0.72482850  0.09706742  1
  O  O34  1  0.70718813  0.87170720  0.49953618  1
  O  O35  1  0.87170720  0.49953618  0.70718813  1
