# generated using pymatgen
data_MgSbF5
_symmetry_space_group_name_H-M   'P 1'
_cell_length_a   5.67658200
_cell_length_b   5.68457364
_cell_length_c   8.08901925
_cell_angle_alpha   98.94661999
_cell_angle_beta   108.51035739
_cell_angle_gamma   108.59986254
_symmetry_Int_Tables_number   1
_chemical_formula_structural   MgSbF5
_chemical_formula_sum   'Mg2 Sb2 F10'
_cell_volume   224.81371159
_cell_formula_units_Z   2
loop_
 _symmetry_equiv_pos_site_id
 _symmetry_equiv_pos_as_xyz
  1  'x, y, z'
loop_
 _atom_site_type_symbol
 _atom_site_label
 _atom_site_symmetry_multiplicity
 _atom_site_fract_x
 _atom_site_fract_y
 _atom_site_fract_z
 _atom_site_occupancy
  Mg  Mg0  1  0.26325066  0.51244225  0.75094008  1
  Mg  Mg1  1  0.73816781  0.48580368  0.25263128  1
  Sb  Sb2  1  0.00100216  -0.00012127  0.00182843  1
  Sb  Sb3  1  0.50175138  0.00122489  0.50137151  1
  F  F4  1  0.41343861  0.16782087  0.25306288  1
  F  F5  1  0.58829883  0.83713916  0.75250062  1
  F  F6  1  0.59903289  0.71270150  0.36312545  1
  F  F7  1  0.84496221  0.22775718  0.14265565  1
  F  F8  1  0.76902401  0.67343096  0.06840024  1
  F  F9  1  0.10873756  0.69545928  0.43497840  1
  F  F10  1  0.23741908  0.32920747  0.93626175  1
  F  F11  1  0.89483732  0.30183788  0.56637957  1
  F  F12  1  0.15574994  0.76867188  0.86361405  1
  F  F13  1  0.40934854  0.29913027  0.63614108  1
