# generated using pymatgen
data_Ti(GeO3)2
_symmetry_space_group_name_H-M   'P 1'
_cell_length_a   5.59248223
_cell_length_b   6.76553336
_cell_length_c   6.76553341
_cell_angle_alpha   83.96620067
_cell_angle_beta   76.43664765
_cell_angle_gamma   76.43663810
_symmetry_Int_Tables_number   1
_chemical_formula_structural   Ti(GeO3)2
_chemical_formula_sum   'Ti2 Ge4 O12'
_cell_volume   241.56221915
_cell_formula_units_Z   2
loop_
 _symmetry_equiv_pos_site_id
 _symmetry_equiv_pos_as_xyz
  1  'x, y, z'
loop_
 _atom_site_type_symbol
 _atom_site_label
 _atom_site_symmetry_multiplicity
 _atom_site_fract_x
 _atom_site_fract_y
 _atom_site_fract_z
 _atom_site_occupancy
  Ti  Ti0  1  0.75000000  0.89298298  0.10701702  1
  Ti  Ti1  1  0.25000000  0.10701702  0.89298298  1
  Ge  Ge2  1  0.77282616  0.38023149  0.20877251  1
  Ge  Ge3  1  0.72717384  0.79122749  0.61976851  1
  Ge  Ge4  1  0.22717384  0.61976851  0.79122749  1
  Ge  Ge5  1  0.27282616  0.20877251  0.38023149  1
  O  O6  1  0.50025346  0.34628761  0.38515623  1
  O  O7  1  0.99974654  0.61484377  0.65371239  1
  O  O8  1  0.49974654  0.65371239  0.61484377  1
  O  O9  1  0.00025346  0.38515623  0.34628761  1
  O  O10  1  0.21432055  0.09699337  0.63058007  1
  O  O11  1  0.28567945  0.36942093  0.90300663  1
  O  O12  1  0.78567945  0.90300663  0.36942093  1
  O  O13  1  0.71432055  0.63058007  0.09699337  1
  O  O14  1  0.88370186  0.17610624  0.04006395  1
  O  O15  1  0.61629814  0.95993605  0.82389376  1
  O  O16  1  0.11629814  0.82389376  0.95993605  1
  O  O17  1  0.38370186  0.04006395  0.17610624  1
