# generated using pymatgen
data_Ta2TiZn2O8
_symmetry_space_group_name_H-M   'P 1'
_cell_length_a   5.30515548
_cell_length_b   5.92886124
_cell_length_c   10.15208307
_cell_angle_alpha   107.07033476
_cell_angle_beta   89.82681917
_cell_angle_gamma   90.04266257
_symmetry_Int_Tables_number   1
_chemical_formula_structural   Ta2TiZn2O8
_chemical_formula_sum   'Ta4 Ti2 Zn4 O16'
_cell_volume   305.24990774
_cell_formula_units_Z   2
loop_
 _symmetry_equiv_pos_site_id
 _symmetry_equiv_pos_as_xyz
  1  'x, y, z'
loop_
 _atom_site_type_symbol
 _atom_site_label
 _atom_site_symmetry_multiplicity
 _atom_site_fract_x
 _atom_site_fract_y
 _atom_site_fract_z
 _atom_site_occupancy
  Ta  Ta0  1  0.73239719  0.26397465  0.22892320  1
  Ta  Ta1  1  0.76539048  0.03314067  0.77048942  1
  Ta  Ta2  1  0.26515935  0.73854641  0.77113501  1
  Ta  Ta3  1  0.23213692  0.96869300  0.22949343  1
  Ti  Ti4  1  0.74898925  0.63007909  0.99982981  1
  Ti  Ti5  1  0.24864063  0.37181135  -0.00020944  1
  Zn  Zn6  1  0.77314488  0.43481817  0.56452384  1
  Zn  Zn7  1  0.72498904  0.87050686  0.43388642  1
  Zn  Zn8  1  0.22521581  0.56718998  0.43548323  1
  Zn  Zn9  1  0.27319380  0.13129267  0.56590907  1
  O  O10  1  0.07424593  0.19626176  0.13669115  1
  O  O11  1  0.42429070  0.05923293  0.86312943  1
  O  O12  1  0.92386240  0.80550386  0.86318000  1
  O  O13  1  0.57359848  0.94352653  0.13647763  1
  O  O14  1  0.59089106  0.43352760  0.11526340  1
  O  O15  1  0.90800342  0.31601815  0.88470530  1
  O  O16  1  0.40890718  0.57002259  0.88491696  1
  O  O17  1  0.09118952  0.68531017  0.11530109  1
  O  O18  1  0.42546046  0.27983503  0.35086422  1
  O  O19  1  0.07305836  0.92673444  0.64891192  1
  O  O20  1  0.35433926  0.84677975  0.38689569  1
  O  O21  1  0.14278846  0.45821044  0.61328688  1
  O  O22  1  0.64378886  0.15511934  0.61295114  1
  O  O23  1  0.85540031  0.54374672  0.38687300  1
  O  O24  1  0.92471920  0.07474853  0.35066454  1
  O  O25  1  0.57214202  0.72242434  0.64886066  1
