# generated using pymatgen
data_CaCo5O7
_symmetry_space_group_name_H-M   'P 1'
_cell_length_a   3.03913143
_cell_length_b   5.28486947
_cell_length_c   17.55299123
_cell_angle_alpha   90.00000000
_cell_angle_beta   90.00000000
_cell_angle_gamma   106.71021976
_symmetry_Int_Tables_number   1
_chemical_formula_structural   CaCo5O7
_chemical_formula_sum   'Ca2 Co10 O14'
_cell_volume   270.02045675
_cell_formula_units_Z   2
loop_
 _symmetry_equiv_pos_site_id
 _symmetry_equiv_pos_as_xyz
  1  'x, y, z'
loop_
 _atom_site_type_symbol
 _atom_site_label
 _atom_site_symmetry_multiplicity
 _atom_site_fract_x
 _atom_site_fract_y
 _atom_site_fract_z
 _atom_site_occupancy
  Ca  Ca0  1  0.80406125  0.60812150  0.75000000  1
  Ca  Ca1  1  0.19593975  0.39187750  0.25000000  1
  Co  Co2  1  0.28137393  0.56274486  0.57260858  1
  Co  Co3  1  0.44746040  0.89491879  0.14986778  1
  Co  Co4  1  -0.00000000  -0.00000000  0.50000000  1
  Co  Co5  1  -0.00000000  -0.00000000  0.00000000  1
  Co  Co6  1  0.55253960  0.10508021  0.85013322  1
  Co  Co7  1  0.71862607  0.43725414  0.42739142  1
  Co  Co8  1  0.71862607  0.43725414  0.07260858  1
  Co  Co9  1  0.28137393  0.56274486  0.92739142  1
  Co  Co10  1  0.55253960  0.10508021  0.64986678  1
  Co  Co11  1  0.44746040  0.89491879  0.35013322  1
  O  O12  1  0.63600719  0.27201337  0.96177978  1
  O  O13  1  0.36399381  0.72798763  0.03822022  1
  O  O14  1  0.36399381  0.72798763  0.46177978  1
  O  O15  1  0.63600719  0.27201337  0.53822022  1
  O  O16  1  0.18033340  0.36066981  0.82889802  1
  O  O17  1  0.81966660  0.63933019  0.17110198  1
  O  O18  1  0.81966660  0.63933019  0.32889902  1
  O  O19  1  0.18033340  0.36066981  0.67110198  1
  O  O20  1  0.92233921  0.84467641  0.88968986  1
  O  O21  1  0.07766079  0.15532359  0.11031014  1
  O  O22  1  0.07766079  0.15532359  0.38968986  1
  O  O23  1  0.92233921  0.84467641  0.61031014  1
  O  O24  1  0.48020902  0.96041804  0.75000000  1
  O  O25  1  0.51979198  0.03958396  0.25000000  1
