# generated using pymatgen
data_SrCaCo(PO4)2
_symmetry_space_group_name_H-M   'P 1'
_cell_length_a   5.72087962
_cell_length_b   6.94597066
_cell_length_c   9.50959864
_cell_angle_alpha   109.49885302
_cell_angle_beta   101.68869857
_cell_angle_gamma   98.64513314
_symmetry_Int_Tables_number   1
_chemical_formula_structural   SrCaCo(PO4)2
_chemical_formula_sum   'Sr2 Ca2 Co2 P4 O16'
_cell_volume   338.96325876
_cell_formula_units_Z   2
loop_
 _symmetry_equiv_pos_site_id
 _symmetry_equiv_pos_as_xyz
  1  'x, y, z'
loop_
 _atom_site_type_symbol
 _atom_site_label
 _atom_site_symmetry_multiplicity
 _atom_site_fract_x
 _atom_site_fract_y
 _atom_site_fract_z
 _atom_site_occupancy
  Sr  Sr0  1  0.26502556  0.80824031  0.05887485  1
  Sr  Sr1  1  0.73497444  0.19175969  0.94112515  1
  Ca  Ca2  1  0.99786658  0.41578770  0.65967013  1
  Ca  Ca3  1  0.00213342  0.58421230  0.34032987  1
  Co  Co4  1  0.64487194  0.85090822  0.56176620  1
  Co  Co5  1  0.35512806  0.14909178  0.43823380  1
  P  P6  1  0.39395244  0.41771831  0.22572565  1
  P  P7  1  0.60604756  0.58228169  0.77427435  1
  P  P8  1  0.83949622  0.03434813  0.29897070  1
  P  P9  1  0.16050378  0.96565187  0.70102930  1
  O  O10  1  0.84033137  0.55906794  0.87886501  1
  O  O11  1  0.62162743  0.45213759  0.16630251  1
  O  O12  1  0.65244550  0.80044638  0.76094427  1
  O  O13  1  0.95811733  0.09675383  0.69075024  1
  O  O14  1  0.37837257  0.54786241  0.83369749  1
  O  O15  1  0.01799865  0.73223615  0.59830897  1
  O  O16  1  0.98200135  0.26776385  0.40169103  1
  O  O17  1  0.27104808  0.00074919  0.87027296  1
  O  O18  1  0.34755450  0.19955362  0.23905573  1
  O  O19  1  0.72895192  0.99925081  0.12972704  1
  O  O20  1  0.15966863  0.44093206  0.12113499  1
  O  O21  1  0.42686390  0.59055469  0.38908827  1
  O  O22  1  0.57313610  0.40944531  0.61091173  1
  O  O23  1  0.63559641  0.96743517  0.37350256  1
  O  O24  1  0.04188267  0.90324617  0.30924976  1
  O  O25  1  0.36440359  0.03256483  0.62649744  1
