# generated using pymatgen
data_Ba2MgCuMo2F14
_symmetry_space_group_name_H-M   'P 1'
_cell_length_a   5.30535228
_cell_length_b   7.67634842
_cell_length_c   15.21546786
_cell_angle_alpha   90.81633616
_cell_angle_beta   89.98697670
_cell_angle_gamma   110.12386676
_symmetry_Int_Tables_number   1
_chemical_formula_structural   Ba2MgCuMo2F14
_chemical_formula_sum   'Ba4 Mg2 Cu2 Mo4 F28'
_cell_volume   581.76513220
_cell_formula_units_Z   2
loop_
 _symmetry_equiv_pos_site_id
 _symmetry_equiv_pos_as_xyz
  1  'x, y, z'
loop_
 _atom_site_type_symbol
 _atom_site_label
 _atom_site_symmetry_multiplicity
 _atom_site_fract_x
 _atom_site_fract_y
 _atom_site_fract_z
 _atom_site_occupancy
  Ba  Ba0  1  0.09334299  0.36417619  0.62400952  1
  Ba  Ba1  1  0.27217216  0.36405875  0.12410155  1
  Ba  Ba2  1  0.90721028  0.63669825  0.37662166  1
  Ba  Ba3  1  0.72899162  0.63573123  0.87637971  1
  Mg  Mg4  1  0.43884211  0.00149460  0.75009609  1
  Mg  Mg5  1  0.56191468  0.99985971  0.25044326  1
  Cu  Cu6  1  0.50072305  0.00015812  0.00023963  1
  Cu  Cu7  1  0.49959009  0.00028536  0.50049741  1
  Mo  Mo8  1  0.09445961  0.23743101  0.87358947  1
  Mo  Mo9  1  0.90685415  0.76246670  0.12686579  1
  Mo  Mo10  1  0.14377992  0.23849808  0.37368612  1
  Mo  Mo11  1  0.85625215  0.76218525  0.62699483  1
  F  F12  1  0.86273206  0.97927864  0.33419378  1
  F  F13  1  0.86260217  0.29170003  0.45722881  1
  F  F14  1  0.13779919  0.70957305  0.54338339  1
  F  F15  1  0.62378182  0.48904606  0.59697454  1
  F  F16  1  0.62345554  0.07810450  0.61879914  1
  F  F17  1  0.54599840  0.92344485  0.88166062  1
  F  F18  1  0.42810109  0.28977476  0.95730483  1
  F  F19  1  0.88647141  0.02191725  0.16689315  1
  F  F20  1  0.36874842  0.34509184  0.77219804  1
  F  F21  1  0.37690042  0.51146349  0.40375013  1
  F  F22  1  0.78619121  0.21434071  0.77980631  1
  F  F23  1  0.13667132  0.51127469  0.90325643  1
  F  F24  1  0.42874536  0.21369330  0.27992616  1
  F  F25  1  0.21537176  0.78650133  0.22081254  1
  F  F26  1  0.45562171  0.07719286  0.11884751  1
  F  F27  1  0.63252270  0.65303697  0.22805045  1
  F  F28  1  0.12144910  0.84285489  0.00729805  1
  F  F29  1  0.13676462  0.02144395  0.66645348  1
  F  F30  1  0.87982345  0.15794874  0.99321039  1
  F  F31  1  0.72180217  0.84280921  0.50748625  1
  F  F32  1  0.57322021  0.70990198  0.04312414  1
  F  F33  1  0.57110220  0.78680689  0.72068226  1
  F  F34  1  0.98004558  0.34874395  0.27234447  1
  F  F35  1  0.27758375  0.15786002  0.49333234  1
  F  F36  1  0.37633445  0.92291833  0.38211280  1
  F  F37  1  0.11379743  0.97756177  0.83374044  1
  F  F38  1  0.02036192  0.65174215  0.72815332  1
  F  F39  1  0.86660674  0.48938554  0.09642819  1
