# generated using pymatgen
data_Ca2CoWO6
_symmetry_space_group_name_H-M   'P 1'
_cell_length_a   5.59340572
_cell_length_b   5.60153230
_cell_length_c   7.87845421
_cell_angle_alpha   89.60003601
_cell_angle_beta   135.08863603
_cell_angle_gamma   120.25806842
_symmetry_Int_Tables_number   1
_chemical_formula_structural   Ca2CoWO6
_chemical_formula_sum   'Ca2 Co1 W1 O6'
_cell_volume   123.29296506
_cell_formula_units_Z   1
loop_
 _symmetry_equiv_pos_site_id
 _symmetry_equiv_pos_as_xyz
  1  'x, y, z'
loop_
 _atom_site_type_symbol
 _atom_site_label
 _atom_site_symmetry_multiplicity
 _atom_site_fract_x
 _atom_site_fract_y
 _atom_site_fract_z
 _atom_site_occupancy
  Ca  Ca0  1  0.99644736  0.51896473  0.26789221  1
  Ca  Ca1  1  0.99266692  0.51522130  0.76410224  1
  Co  Co2  1  0.99406872  0.98171373  0.49904095  1
  W  W3  1  0.99542772  0.97801812  0.99689164  1
  O  O4  1  0.16192852  0.04876008  0.31828643  1
  O  O5  1  0.82231040  0.87458744  0.66761979  1
  O  O6  1  0.39301156  0.45181643  0.14894318  1
  O  O7  1  0.42237980  0.88001755  0.74618667  1
  O  O8  1  0.54817222  0.04898339  0.21984935  1
  O  O9  1  0.62050979  0.49614723  0.84311055  1
