# generated using pymatgen
data_MgMn2O4
_symmetry_space_group_name_H-M   'P 1'
_cell_length_a   6.05092223
_cell_length_b   6.07701260
_cell_length_c   6.07701264
_cell_angle_alpha   59.99999311
_cell_angle_beta   59.85726791
_cell_angle_gamma   59.85726309
_symmetry_Int_Tables_number   1
_chemical_formula_structural   MgMn2O4
_chemical_formula_sum   'Mg2 Mn4 O8'
_cell_volume   157.66906426
_cell_formula_units_Z   2
loop_
 _symmetry_equiv_pos_site_id
 _symmetry_equiv_pos_as_xyz
  1  'x, y, z'
loop_
 _atom_site_type_symbol
 _atom_site_label
 _atom_site_symmetry_multiplicity
 _atom_site_fract_x
 _atom_site_fract_y
 _atom_site_fract_z
 _atom_site_occupancy
  Mg  Mg0  1  0.97753356  0.00748915  0.00748915  1
  Mg  Mg1  1  0.12377641  0.62540753  0.62540753  1
  Mn  Mn2  1  0.26749683  0.24416806  0.24416806  1
  Mn  Mn3  1  0.62565524  0.12296027  0.62569225  1
  Mn  Mn4  1  0.62565524  0.62569225  0.12296027  1
  Mn  Mn5  1  0.62565524  0.62569225  0.62569225  1
  O  O6  1  0.40783053  0.38150020  0.38150020  1
  O  O7  1  0.40783053  0.38150020  0.82916806  1
  O  O8  1  0.40783053  0.82916806  0.38150020  1
  O  O9  1  0.85917437  0.38027554  0.38027554  1
  O  O10  1  0.38414850  0.87195050  0.87195050  1
  O  O11  1  0.84580501  0.41552057  0.86933771  1
  O  O12  1  0.84580501  0.86933771  0.41552057  1
  O  O13  1  0.84580501  0.86933771  0.86933771  1
