# generated using pymatgen
data_Ba2Mn2ZnCuF14
_symmetry_space_group_name_H-M   'P 1'
_cell_length_a   5.36788959
_cell_length_b   7.44177415
_cell_length_c   14.81924695
_cell_angle_alpha   93.02001203
_cell_angle_beta   90.09552442
_cell_angle_gamma   111.25341825
_symmetry_Int_Tables_number   1
_chemical_formula_structural   Ba2Mn2ZnCuF14
_chemical_formula_sum   'Ba4 Mn4 Zn2 Cu2 F28'
_cell_volume   550.81277493
_cell_formula_units_Z   2
loop_
 _symmetry_equiv_pos_site_id
 _symmetry_equiv_pos_as_xyz
  1  'x, y, z'
loop_
 _atom_site_type_symbol
 _atom_site_label
 _atom_site_symmetry_multiplicity
 _atom_site_fract_x
 _atom_site_fract_y
 _atom_site_fract_z
 _atom_site_occupancy
  Ba  Ba0  1  0.11412790  0.37533311  0.62654944  1
  Ba  Ba1  1  0.25779486  0.37381762  0.12617862  1
  Ba  Ba2  1  0.88352776  0.62614538  0.37411238  1
  Ba  Ba3  1  0.73993990  0.62455673  0.87472998  1
  Mn  Mn4  1  0.09972413  0.23849098  0.87418708  1
  Mn  Mn5  1  0.89798198  0.75987793  0.12622909  1
  Mn  Mn6  1  0.13732890  0.24063294  0.37440264  1
  Mn  Mn7  1  0.85885791  0.76075579  0.62653940  1
  Zn  Zn8  1  0.43472455  0.99968320  0.75014305  1
  Zn  Zn9  1  0.56480931  0.00305347  0.25064068  1
  Cu  Cu10  1  0.49942396  -0.00016447  0.00005104  1
  Cu  Cu11  1  0.49827967  0.00101719  0.50057784  1
  F  F12  1  0.90318588  0.99144245  0.33956137  1
  F  F13  1  0.87188037  0.28070876  0.45536715  1
  F  F14  1  0.12562060  0.72156923  0.54534571  1
  F  F15  1  0.65280921  0.50387146  0.59553395  1
  F  F16  1  0.60197422  0.09714795  0.62602842  1
  F  F17  1  0.50363039  0.90315117  0.87426985  1
  F  F18  1  0.40533813  0.27787793  0.95536661  1
  F  F19  1  0.91565848  0.00866442  0.16132394  1
  F  F20  1  0.37686681  0.32635678  0.77196482  1
  F  F21  1  0.34342254  0.49738940  0.40409293  1
  F  F22  1  0.81309435  0.22857700  0.79060509  1
  F  F23  1  0.15239227  0.49564004  0.90404195  1
  F  F24  1  0.41081989  0.22986892  0.29038480  1
  F  F25  1  0.18410089  0.77161960  0.21037978  1
  F  F26  1  0.49479339  0.09647392  0.12611427  1
  F  F27  1  0.61979808  0.67146930  0.22858586  1
  F  F28  1  0.12792633  0.83900168  0.01122107  1
  F  F29  1  0.09295875  0.00846464  0.66172709  1
  F  F30  1  0.87078229  0.16008009  0.98906132  1
  F  F31  1  0.70919633  0.84066535  0.51156068  1
  F  F32  1  0.59337161  0.72050014  0.04516422  1
  F  F33  1  0.58217735  0.77028443  0.70955601  1
  F  F34  1  0.94410467  0.32549065  0.27169328  1
  F  F35  1  0.28664543  0.16115070  0.48960634  1
  F  F36  1  0.39558329  0.90561383  0.37467178  1
  F  F37  1  0.08127819  0.98991883  0.83925157  1
  F  F38  1  0.04615118  0.67124541  0.72856865  1
  F  F39  1  0.84722224  0.50319505  0.09601026  1
