# generated using pymatgen
data_Sn3(P2O7)2
_symmetry_space_group_name_H-M   'P 1'
_cell_length_a   8.92765610
_cell_length_b   8.93317955
_cell_length_c   9.17987705
_cell_angle_alpha   90.00000000
_cell_angle_beta   110.12725872
_cell_angle_gamma   90.00000000
_symmetry_Int_Tables_number   1
_chemical_formula_structural   Sn3(P2O7)2
_chemical_formula_sum   'Sn6 P8 O28'
_cell_volume   687.40691302
_cell_formula_units_Z   2
loop_
 _symmetry_equiv_pos_site_id
 _symmetry_equiv_pos_as_xyz
  1  'x, y, z'
loop_
 _atom_site_type_symbol
 _atom_site_label
 _atom_site_symmetry_multiplicity
 _atom_site_fract_x
 _atom_site_fract_y
 _atom_site_fract_z
 _atom_site_occupancy
  Sn  Sn0  1  0.75597858  0.39509556  0.41690414  1
  Sn  Sn1  1  0.75597958  0.10490444  0.91690414  1
  Sn  Sn2  1  0.24402142  0.89509556  0.08309586  1
  Sn  Sn3  1  -0.00000000  0.50000000  -0.00000000  1
  Sn  Sn4  1  0.24402042  0.60490444  0.58309486  1
  Sn  Sn5  1  -0.00000000  0.00000000  0.50000000  1
  P  P6  1  0.11451343  0.30519495  0.32273448  1
  P  P7  1  0.35264493  0.00276810  0.77743972  1
  P  P8  1  0.35264593  0.49723190  0.27743972  1
  P  P9  1  0.64735507  0.50276810  0.72256028  1
  P  P10  1  0.64735507  0.99723190  0.22256028  1
  P  P11  1  0.88548657  0.69480505  0.67726652  1
  P  P12  1  0.11451443  0.19480505  0.82273448  1
  P  P13  1  0.88548557  0.80519495  0.17726552  1
  O  O14  1  0.76772819  0.44843162  0.88125408  1
  O  O15  1  0.99452537  0.33472886  0.15573741  1
  O  O16  1  0.89998680  0.91543428  0.05623725  1
  O  O17  1  0.90269506  0.64221588  0.13528403  1
  O  O18  1  0.99452437  0.16527114  0.65573741  1
  O  O19  1  0.89998680  0.58456472  0.55623825  1
  O  O20  1  0.00547463  0.66527114  0.84426259  1
  O  O21  1  0.10001320  0.08456472  0.94376275  1
  O  O22  1  0.09730394  0.35778412  0.86471497  1
  O  O23  1  0.00547363  0.83472886  0.34426259  1
  O  O24  1  0.10001420  0.41543428  0.44376175  1
  O  O25  1  0.29032229  0.16896511  0.81060332  1
  O  O26  1  0.34827221  0.89356571  0.90405436  1
  O  O27  1  0.09730394  0.14221588  0.36471497  1
  O  O28  1  0.23227181  0.94843162  0.61874592  1
  O  O29  1  0.48439056  0.52433715  0.73415259  1
  O  O30  1  0.29032229  0.33103489  0.31060432  1
  O  O31  1  0.65172679  0.10643429  0.09594464  1
  O  O32  1  0.23227181  0.55156838  0.11874592  1
  O  O33  1  0.51560944  0.02433715  0.76584741  1
  O  O34  1  0.48439156  0.97566285  0.23415259  1
  O  O35  1  0.70967871  0.83103489  0.18939668  1
  O  O36  1  0.65172779  0.39356571  0.59594564  1
  O  O37  1  0.70967771  0.66896511  0.68939568  1
  O  O38  1  0.51560944  0.47566285  0.26584741  1
  O  O39  1  0.76772719  0.05156838  0.38125308  1
  O  O40  1  0.90269606  0.85778412  0.63528503  1
  O  O41  1  0.34827221  0.60643429  0.40405436  1
