# generated using pymatgen
data_YFe4(CuO4)3
_symmetry_space_group_name_H-M   'P 1'
_cell_length_a   6.46087879
_cell_length_b   6.46087879
_cell_length_c   6.46087879
_cell_angle_alpha   109.47122063
_cell_angle_beta   109.47122063
_cell_angle_gamma   109.47122063
_symmetry_Int_Tables_number   1
_chemical_formula_structural   YFe4(CuO4)3
_chemical_formula_sum   'Y1 Fe4 Cu3 O12'
_cell_volume   207.61220939
_cell_formula_units_Z   1
loop_
 _symmetry_equiv_pos_site_id
 _symmetry_equiv_pos_as_xyz
  1  'x, y, z'
loop_
 _atom_site_type_symbol
 _atom_site_label
 _atom_site_symmetry_multiplicity
 _atom_site_fract_x
 _atom_site_fract_y
 _atom_site_fract_z
 _atom_site_occupancy
  Y  Y0  1  0.00000000  -0.00000000  -0.00000000  1
  Fe  Fe1  1  0.00000000  -0.00000000  0.50000000  1
  Fe  Fe2  1  0.50000000  -0.00000000  -0.00000000  1
  Fe  Fe3  1  0.00000000  0.50000000  -0.00000000  1
  Fe  Fe4  1  0.50000000  0.50000000  0.50000000  1
  Cu  Cu5  1  0.50000000  -0.00000000  0.50000000  1
  Cu  Cu6  1  0.00000000  0.50000000  0.50000000  1
  Cu  Cu7  1  0.50000000  0.50000000  -0.00000000  1
  O  O8  1  0.16430774  0.85626167  0.69195393  1
  O  O9  1  0.83569226  0.14373833  0.30804607  1
  O  O10  1  0.83569226  0.52764619  0.69195393  1
  O  O11  1  0.16430774  0.47235381  0.30804607  1
  O  O12  1  0.85626167  0.69195393  0.16430774  1
  O  O13  1  0.14373833  0.30804607  0.83569226  1
  O  O14  1  0.52764619  0.69195393  0.83569226  1
  O  O15  1  0.47235381  0.30804607  0.16430774  1
  O  O16  1  0.69195393  0.16430774  0.85626167  1
  O  O17  1  0.30804607  0.83569226  0.14373833  1
  O  O18  1  0.69195393  0.83569226  0.52764619  1
  O  O19  1  0.30804607  0.16430774  0.47235381  1
