# generated using pymatgen
data_DyBO3
_symmetry_space_group_name_H-M   'P 1'
_cell_length_a   7.24318126
_cell_length_b   9.03684641
_cell_length_c   9.92157440
_cell_angle_alpha   81.35852095
_cell_angle_beta   85.73993352
_cell_angle_gamma   77.30893812
_symmetry_Int_Tables_number   1
_chemical_formula_structural   DyBO3
_chemical_formula_sum   'Dy12 B12 O36'
_cell_volume   625.78963717
_cell_formula_units_Z   12
loop_
 _symmetry_equiv_pos_site_id
 _symmetry_equiv_pos_as_xyz
  1  'x, y, z'
loop_
 _atom_site_type_symbol
 _atom_site_label
 _atom_site_symmetry_multiplicity
 _atom_site_fract_x
 _atom_site_fract_y
 _atom_site_fract_z
 _atom_site_occupancy
  B  B0  1  0.47794197  0.28454001  0.92243648  1
  B  B1  1  0.52205803  0.71545999  0.07756352  1
  B  B2  1  0.46631429  0.77928938  0.38690296  1
  B  B3  1  0.53368571  0.22071062  0.61309704  1
  B  B4  1  0.83175251  0.72861409  0.79459394  1
  B  B5  1  0.16824749  0.27138591  0.20540606  1
  B  B6  1  0.21946332  0.78276468  0.69164031  1
  B  B7  1  0.78053668  0.21723532  0.30835969  1
  B  B8  1  0.88344030  0.74412078  0.05113685  1
  B  B9  1  0.11655970  0.25587922  0.94886315  1
  B  B10  1  0.10827242  0.75176853  0.44817400  1
  B  B11  1  0.89172758  0.24823147  0.55182600  1
  O  O12  1  0.06175510  0.18590517  0.62955442  1
  O  O13  1  0.93824490  0.81409483  0.37044558  1
  O  O14  1  0.94431406  0.31870109  0.87364943  1
  O  O15  1  0.05568594  0.68129891  0.12635057  1
  O  O16  1  0.91856269  0.16273938  0.42787287  1
  O  O17  1  0.08143731  0.83726062  0.57212713  1
  O  O18  1  0.08315074  0.33306566  0.08049394  1
  O  O19  1  0.91684926  0.66693434  0.91950606  1
  O  O20  1  0.84969881  0.41232081  0.53449390  1
  O  O21  1  0.15030119  0.58767919  0.46550610  1
  O  O22  1  0.15313937  0.09057016  0.96446590  1
  O  O23  1  0.84686063  0.90942984  0.03553410  1
  O  O24  1  0.26930315  0.81668597  0.36495891  1
  O  O25  1  0.73069685  0.18331403  0.63504109  1
  O  O26  1  0.27262547  0.32236890  0.87358301  1
  O  O27  1  0.72737453  0.67763110  0.12641699  1
  O  O28  1  0.84416702  0.12491207  0.19892967  1
  O  O29  1  0.15583298  0.87508793  0.80107033  1
  O  O30  1  0.16769209  0.36942652  0.29925832  1
  O  O31  1  0.83230791  0.63057348  0.70074168  1
  O  O32  1  0.75497486  0.38268450  0.26305952  1
  O  O33  1  0.24502514  0.61731550  0.73694048  1
  O  O34  1  0.24576915  0.11713932  0.23949319  1
  O  O35  1  0.75423085  0.88286068  0.76050681  1
  O  O36  1  0.45385040  0.09459926  0.62534326  1
  O  O37  1  0.54614960  0.90540074  0.37465674  1
  O  O38  1  0.43495281  0.59475242  0.14923831  1
  O  O39  1  0.56504719  0.40524758  0.85076169  1
  O  O40  1  0.56570682  0.63221817  0.41624447  1
  O  O41  1  0.43429318  0.36778183  0.58375553  1
  O  O42  1  0.42877604  0.87222797  0.08745013  1
  O  O43  1  0.57122396  0.12777203  0.91254987  1
  O  O44  1  0.59304673  0.18619572  0.36710048  1
  O  O45  1  0.40695327  0.81380428  0.63289952  1
  O  O46  1  0.47377080  0.31146204  0.07049876  1
  O  O47  1  0.52622920  0.68853796  0.92950124  1
  Dy  Dy48  1  0.26221983  0.55867505  0.97292485  1
  Dy  Dy49  1  0.73778017  0.44132495  0.02707515  1
  Dy  Dy50  1  0.75133505  0.95688545  0.51909358  1
  Dy  Dy51  1  0.24866495  0.04311455  0.48090642  1
  Dy  Dy52  1  0.90154573  0.06831167  0.83676400  1
  Dy  Dy53  1  0.09845427  0.93168833  0.16323600  1
  Dy  Dy54  1  0.09805604  0.43545174  0.67126095  1
  Dy  Dy55  1  0.90194396  0.56454826  0.32873905  1
  Dy  Dy56  1  0.56465228  0.55855839  0.65754558  1
  Dy  Dy57  1  0.43534772  0.44144161  0.34245442  1
  Dy  Dy58  1  0.42677383  0.94329980  0.84461786  1
  Dy  Dy59  1  0.57322617  0.05670020  0.15538214  1
