# generated using pymatgen
data_Sr6Ca2Co7CuO20
_symmetry_space_group_name_H-M   'P 1'
_cell_length_a   10.84592525
_cell_length_b   11.14349687
_cell_length_c   17.58140746
_cell_angle_alpha   108.17756211
_cell_angle_beta   107.82504184
_cell_angle_gamma   90.58211679
_symmetry_Int_Tables_number   1
_chemical_formula_structural   Sr6Ca2Co7CuO20
_chemical_formula_sum   'Sr24 Ca8 Co28 Cu4 O80'
_cell_volume   1908.79827628
_cell_formula_units_Z   4
loop_
 _symmetry_equiv_pos_site_id
 _symmetry_equiv_pos_as_xyz
  1  'x, y, z'
loop_
 _atom_site_type_symbol
 _atom_site_label
 _atom_site_symmetry_multiplicity
 _atom_site_fract_x
 _atom_site_fract_y
 _atom_site_fract_z
 _atom_site_occupancy
  Sr  Sr0  1  0.30728891  0.06033592  0.61066176  1
  Sr  Sr1  1  0.31231877  0.55787122  0.61337959  1
  Sr  Sr2  1  0.80937392  0.06477832  0.61265364  1
  Sr  Sr3  1  0.80748871  0.56143712  0.61314840  1
  Sr  Sr4  1  0.19587120  0.43567744  0.38809442  1
  Sr  Sr5  1  0.19759692  0.44238271  0.88996619  1
  Sr  Sr6  1  0.19567946  0.93611404  0.38593554  1
  Sr  Sr7  1  0.69555959  0.44080701  0.38741540  1
  Sr  Sr8  1  0.69440261  0.44297961  0.88862356  1
  Sr  Sr9  1  0.69534929  0.93598703  0.38622451  1
  Sr  Sr10  1  0.69816198  0.93740065  0.89035585  1
  Sr  Sr11  1  0.05701345  0.29428393  0.11242446  1
  Sr  Sr12  1  0.05992317  0.30061215  0.61230289  1
  Sr  Sr13  1  0.06074416  0.80030033  0.61242742  1
  Sr  Sr14  1  0.55607715  0.30665285  0.61244196  1
  Sr  Sr15  1  0.55353770  0.80086697  0.11049991  1
  Sr  Sr16  1  0.55978176  0.79704873  0.60985583  1
  Sr  Sr17  1  0.44186224  0.20057805  0.38537009  1
  Sr  Sr18  1  0.44804542  0.20401413  0.89050460  1
  Sr  Sr19  1  0.44563550  0.69624201  0.38500083  1
  Sr  Sr20  1  0.44214936  0.69577887  0.88750029  1
  Sr  Sr21  1  0.94356886  0.20038858  0.38486770  1
  Sr  Sr22  1  0.94401811  0.20135193  0.89062951  1
  Sr  Sr23  1  0.94663970  0.69499403  0.38481184  1
  Ca  Ca24  1  0.30386455  0.06049468  0.10788155  1
  Ca  Ca25  1  0.30266101  0.56898183  0.10715589  1
  Ca  Ca26  1  0.80194041  0.06369465  0.10767991  1
  Ca  Ca27  1  0.79886892  0.56719099  0.10803023  1
  Ca  Ca28  1  0.19981488  0.93232252  0.89710741  1
  Ca  Ca29  1  0.05861933  0.79255755  0.10795839  1
  Ca  Ca30  1  0.55534128  0.29094164  0.10903391  1
  Ca  Ca31  1  0.95865749  0.70881604  0.89531533  1
  Co  Co32  1  0.00810956  0.00023832  0.00499998  1
  Co  Co33  1  0.00120468  0.99689550  0.49466386  1
  Co  Co34  1  0.00994115  0.50586371  0.00879730  1
  Co  Co35  1  0.00635110  0.50451386  0.50805861  1
  Co  Co36  1  0.50236609  0.99906663  0.99907937  1
  Co  Co37  1  0.50334309  0.00085589  0.49851187  1
  Co  Co38  1  0.50519261  0.50344383  0.00537290  1
  Co  Co39  1  0.50447430  0.50158555  0.50197756  1
  Co  Co40  1  0.25904303  0.25247476  0.00696999  1
  Co  Co41  1  0.25315202  0.25050202  0.50277530  1
  Co  Co42  1  0.25309216  0.75107297  0.00127827  1
  Co  Co43  1  0.25580400  0.75043970  0.50308725  1
  Co  Co44  1  0.75836646  0.25647375  0.01128491  1
  Co  Co45  1  0.74984156  0.24928269  0.49584433  1
  Co  Co46  1  0.75667930  0.74993268  0.99953825  1
  Co  Co47  1  0.75518830  0.75055820  0.50066000  1
  Co  Co48  1  0.10530339  0.08579033  0.24312128  1
  Co  Co49  1  0.11378831  0.08890449  0.75555883  1
  Co  Co50  1  0.10685441  0.59293729  0.24474889  1
  Co  Co51  1  0.60728580  0.09555044  0.24580404  1
  Co  Co52  1  0.60999936  0.09102281  0.74970439  1
  Co  Co53  1  0.60591176  0.58777753  0.24275967  1
  Co  Co54  1  0.35908426  0.40534584  0.24447599  1
  Co  Co55  1  0.35419387  0.90418223  0.24545573  1
  Co  Co56  1  0.85248987  0.40419212  0.24380359  1
  Co  Co57  1  0.86765297  0.41131507  0.75450426  1
  Co  Co58  1  0.86018421  0.90549935  0.24599674  1
  Co  Co59  1  0.86581630  0.90270927  0.75336760  1
  Cu  Cu60  1  0.10781728  0.59976336  0.75354273  1
  Cu  Cu61  1  0.62302187  0.60401066  0.75279564  1
  Cu  Cu62  1  0.36225446  0.40264768  0.75213108  1
  Cu  Cu63  1  0.35792618  0.90446077  0.75342318  1
  O  O64  1  0.11953745  0.11655663  0.49474537  1
  O  O65  1  0.13405754  0.12621619  0.99291863  1
  O  O66  1  0.12076306  0.61508085  0.49459686  1
  O  O67  1  0.12259913  0.62849004  0.99129484  1
  O  O68  1  0.61997259  0.12013908  0.49394046  1
  O  O69  1  0.63235834  0.13396445  0.99557057  1
  O  O70  1  0.62535043  0.62305720  0.49220929  1
  O  O71  1  0.63231645  0.63315806  0.99692524  1
  O  O72  1  0.12838959  0.38757352  0.01181119  1
  O  O73  1  0.13011245  0.36996040  0.50366327  1
  O  O74  1  0.13441447  0.88228085  0.01379863  1
  O  O75  1  0.13286107  0.87205406  0.50435298  1
  O  O76  1  0.63246486  0.38512561  0.01574886  1
  O  O77  1  0.63062739  0.37365738  0.50453944  1
  O  O78  1  0.63158734  0.89106333  0.01119480  1
  O  O79  1  0.63603952  0.87574541  0.50564727  1
  O  O80  1  0.36925459  0.12393124  0.49292872  1
  O  O81  1  0.38187368  0.11559859  0.99503657  1
  O  O82  1  0.37237122  0.62369974  0.49357378  1
  O  O83  1  0.37406887  0.61909889  0.99653155  1
  O  O84  1  0.87063825  0.12499385  0.49411529  1
  O  O85  1  0.87592618  0.11536249  0.99405009  1
  O  O86  1  0.87335553  0.62708578  0.49276230  1
  O  O87  1  0.88212549  0.61365430  0.99665146  1
  O  O88  1  0.37860012  0.37611724  0.01406713  1
  O  O89  1  0.37741436  0.37716647  0.50338942  1
  O  O90  1  0.37742553  0.88278603  0.01208235  1
  O  O91  1  0.38570304  0.88258031  0.50339741  1
  O  O92  1  0.87604144  0.37812893  0.01362432  1
  O  O93  1  0.88050364  0.38201256  0.50222651  1
  O  O94  1  0.88262731  0.87375728  0.01287275  1
  O  O95  1  0.88446165  0.88328450  0.50344981  1
  O  O96  1  0.09222504  0.09143896  0.13874154  1
  O  O97  1  0.08828473  0.09036902  0.64835173  1
  O  O98  1  0.09294993  0.60154317  0.13925486  1
  O  O99  1  0.06887758  0.58148559  0.63611408  1
  O  O100  1  0.59075997  0.10188096  0.14101980  1
  O  O101  1  0.58310967  0.09575483  0.64277494  1
  O  O102  1  0.58957018  0.59605998  0.13854420  1
  O  O103  1  0.57743342  0.58633143  0.63710393  1
  O  O104  1  0.43702192  0.41053717  0.35297016  1
  O  O105  1  0.43897396  0.41570633  0.86658073  1
  O  O106  1  0.43570595  0.91175918  0.35541112  1
  O  O107  1  0.44292704  0.90942421  0.86687063  1
  O  O108  1  0.93344763  0.40918512  0.35129077  1
  O  O109  1  0.93905744  0.40502825  0.85916779  1
  O  O110  1  0.93907119  0.91091076  0.35669220  1
  O  O111  1  0.94870592  0.89909022  0.86029161  1
  O  O112  1  0.33620702  0.28452783  0.14008746  1
  O  O113  1  0.32329449  0.30072850  0.63830481  1
  O  O114  1  0.33074970  0.78890989  0.14116451  1
  O  O115  1  0.32403375  0.79787545  0.64019089  1
  O  O116  1  0.83470760  0.28411301  0.14061617  1
  O  O117  1  0.83740014  0.30897819  0.64729719  1
  O  O118  1  0.84237793  0.78868843  0.14339480  1
  O  O119  1  0.83577005  0.80009595  0.64507650  1
  O  O120  1  0.18187938  0.19003996  0.35127247  1
  O  O121  1  0.19288937  0.20731846  0.85882886  1
  O  O122  1  0.18241986  0.69635260  0.35320365  1
  O  O123  1  0.18727227  0.71047265  0.86824161  1
  O  O124  1  0.68256471  0.19868576  0.35519824  1
  O  O125  1  0.68878488  0.20614769  0.85305049  1
  O  O126  1  0.68453338  0.69316218  0.35063932  1
  O  O127  1  0.70097407  0.70175866  0.86866720  1
  O  O128  1  0.42611703  0.05898326  0.23932333  1
  O  O129  1  0.43881513  0.06015311  0.75110942  1
  O  O130  1  0.42492155  0.56089382  0.23706587  1
  O  O131  1  0.45660528  0.55013838  0.75283370  1
  O  O132  1  0.92513946  0.06158128  0.23846623  1
  O  O133  1  0.93722074  0.06196404  0.75325812  1
  O  O134  1  0.92570716  0.55840447  0.23684665  1
  O  O135  1  0.93625115  0.57383539  0.76040734  1
  O  O136  1  0.18486463  0.43900835  0.24694134  1
  O  O137  1  0.19276246  0.44899838  0.75185823  1
  O  O138  1  0.17431836  0.92572364  0.24049917  1
  O  O139  1  0.18136257  0.93631253  0.76209952  1
  O  O140  1  0.67316274  0.42683221  0.23973848  1
  O  O141  1  0.70117477  0.44916758  0.75138423  1
  O  O142  1  0.68582058  0.94026663  0.24714269  1
  O  O143  1  0.68834406  0.93680240  0.75154194  1
