# generated using pymatgen
data_Re2O7
_symmetry_space_group_name_H-M   'P 1'
_cell_length_a   5.24138128
_cell_length_b   5.40592249
_cell_length_c   9.55049627
_cell_angle_alpha   90.00000000
_cell_angle_beta   105.92647453
_cell_angle_gamma   90.00000000
_symmetry_Int_Tables_number   1
_chemical_formula_structural   Re2O7
_chemical_formula_sum   'Re4 O14'
_cell_volume   260.22113337
_cell_formula_units_Z   2
loop_
 _symmetry_equiv_pos_site_id
 _symmetry_equiv_pos_as_xyz
  1  'x, y, z'
loop_
 _atom_site_type_symbol
 _atom_site_label
 _atom_site_symmetry_multiplicity
 _atom_site_fract_x
 _atom_site_fract_y
 _atom_site_fract_z
 _atom_site_occupancy
  Re  Re0  1  0.64001170  0.25000000  0.78976431  1
  Re  Re1  1  0.85024740  0.25000000  0.21023569  1
  Re  Re2  1  0.35998830  0.75000000  0.21023569  1
  Re  Re3  1  0.14975260  0.75000000  0.78976431  1
  O  O4  1  0.15029204  0.75000000  0.60760634  1
  O  O5  1  0.54268570  0.75000000  0.39239366  1
  O  O6  1  0.84970796  0.25000000  0.39239366  1
  O  O7  1  0.45731430  0.25000000  0.60760634  1
  O  O8  1  0.41776652  0.50000000  0.83553303  1
  O  O9  1  0.58223348  0.00000000  0.16446697  1
  O  O10  1  0.58223348  0.50000000  0.16446697  1
  O  O11  1  0.41776652  0.00000000  0.83553303  1
  O  O12  1  0.88342496  0.50000000  0.76684892  1
  O  O13  1  0.11657504  0.00000000  0.23315208  1
  O  O14  1  0.81730106  0.25000000  1.00000000  1
  O  O15  1  0.18269894  0.75000000  0.00000000  1
  O  O16  1  0.88342496  0.00000000  0.76684892  1
  O  O17  1  0.11657504  0.50000000  0.23315208  1
