# generated using pymatgen
data_Sr4Ca4Fe3(CoO4)5
_symmetry_space_group_name_H-M   'P 1'
_cell_length_a   10.77518288
_cell_length_b   11.23083687
_cell_length_c   17.51196654
_cell_angle_alpha   108.79796470
_cell_angle_beta   108.06282432
_cell_angle_gamma   89.80630313
_symmetry_Int_Tables_number   1
_chemical_formula_structural   Sr4Ca4Fe3(CoO4)5
_chemical_formula_sum   'Sr16 Ca16 Fe12 Co20 O80'
_cell_volume   1896.29050856
_cell_formula_units_Z   4
loop_
 _symmetry_equiv_pos_site_id
 _symmetry_equiv_pos_as_xyz
  1  'x, y, z'
loop_
 _atom_site_type_symbol
 _atom_site_label
 _atom_site_symmetry_multiplicity
 _atom_site_fract_x
 _atom_site_fract_y
 _atom_site_fract_z
 _atom_site_occupancy
  Sr  Sr0  1  0.30708349  0.56179634  0.61109265  1
  Sr  Sr1  1  0.80785268  0.06764808  0.60874273  1
  Sr  Sr2  1  0.80616988  0.56404103  0.61166183  1
  Sr  Sr3  1  0.18931224  0.43242490  0.38319126  1
  Sr  Sr4  1  0.19789591  0.43857710  0.89607811  1
  Sr  Sr5  1  0.69438305  0.43483287  0.38243421  1
  Sr  Sr6  1  0.69476954  0.93383956  0.38496816  1
  Sr  Sr7  1  0.70323555  0.93930748  0.89521905  1
  Sr  Sr8  1  0.06000531  0.29367297  0.61014411  1
  Sr  Sr9  1  0.05633394  0.79752313  0.61033396  1
  Sr  Sr10  1  0.56180080  0.29947380  0.61053898  1
  Sr  Sr11  1  0.55375684  0.79770292  0.60967401  1
  Sr  Sr12  1  0.44778689  0.19990277  0.38530193  1
  Sr  Sr13  1  0.45095628  0.20414439  0.89401833  1
  Sr  Sr14  1  0.94657766  0.19927759  0.38444648  1
  Sr  Sr15  1  0.95025416  0.20510828  0.89545326  1
  Ca  Ca16  1  0.30783351  0.06971990  0.10509836  1
  Ca  Ca17  1  0.30705052  0.06555324  0.60612220  1
  Ca  Ca18  1  0.30210844  0.56590617  0.10897433  1
  Ca  Ca19  1  0.80718509  0.07087186  0.10675652  1
  Ca  Ca20  1  0.80400484  0.56303961  0.10993243  1
  Ca  Ca21  1  0.19723548  0.92722862  0.38749099  1
  Ca  Ca22  1  0.20258565  0.93599511  0.89826366  1
  Ca  Ca23  1  0.69615820  0.43517456  0.89906982  1
  Ca  Ca24  1  0.05432895  0.29147772  0.10711712  1
  Ca  Ca25  1  0.05169208  0.78944255  0.10820405  1
  Ca  Ca26  1  0.55244931  0.29236353  0.10615175  1
  Ca  Ca27  1  0.55315055  0.78646456  0.10491647  1
  Ca  Ca28  1  0.44073828  0.71031980  0.38718927  1
  Ca  Ca29  1  0.44671747  0.71505911  0.89694115  1
  Ca  Ca30  1  0.94011647  0.70217148  0.38740532  1
  Ca  Ca31  1  0.94958104  0.71521693  0.89858402  1
  Fe  Fe32  1  0.11367458  0.08985862  0.75475993  1
  Fe  Fe33  1  0.10934749  0.59730892  0.75564008  1
  Fe  Fe34  1  0.60388346  0.08377718  0.24200915  1
  Fe  Fe35  1  0.60517194  0.09505482  0.75059759  1
  Fe  Fe36  1  0.60968400  0.59394809  0.75796635  1
  Fe  Fe37  1  0.35308100  0.41364469  0.24502654  1
  Fe  Fe38  1  0.36206890  0.41186171  0.75516793  1
  Fe  Fe39  1  0.34843835  0.90411506  0.24465077  1
  Fe  Fe40  1  0.35651498  0.90753693  0.75227257  1
  Fe  Fe41  1  0.85823101  0.41706676  0.75907448  1
  Fe  Fe42  1  0.85854003  0.90191951  0.24325599  1
  Fe  Fe43  1  0.86159869  0.90842386  0.75243706  1
  Co  Co44  1  0.01201292  0.00184135  0.00552943  1
  Co  Co45  1  0.00336484  0.99468704  0.49319700  1
  Co  Co46  1  0.00454134  0.50123986  0.00274369  1
  Co  Co47  1  0.00179431  0.49926041  0.49901370  1
  Co  Co48  1  0.51187340  0.00354621  0.00645382  1
  Co  Co49  1  0.50276969  0.99915253  0.49689172  1
  Co  Co50  1  0.50644386  0.50148508  0.00302937  1
  Co  Co51  1  0.50062048  0.49487534  0.49067542  1
  Co  Co52  1  0.25900546  0.25244320  0.00525415  1
  Co  Co53  1  0.25548130  0.24565123  0.49701852  1
  Co  Co54  1  0.25875310  0.75315945  0.00563467  1
  Co  Co55  1  0.25037829  0.74710846  0.49517371  1
  Co  Co56  1  0.75896429  0.25520756  0.00640697  1
  Co  Co57  1  0.75409207  0.24892829  0.49426133  1
  Co  Co58  1  0.75833410  0.74923379  0.00308996  1
  Co  Co59  1  0.74981740  0.74905612  0.49714125  1
  Co  Co60  1  0.10754985  0.08854964  0.24512106  1
  Co  Co61  1  0.10311527  0.59596798  0.24615718  1
  Co  Co62  1  0.60622168  0.59398893  0.24517401  1
  Co  Co63  1  0.85474763  0.40832679  0.24490661  1
  O  O64  1  0.12681238  0.10511844  0.48959569  1
  O  O65  1  0.13019635  0.11640481  0.99415344  1
  O  O66  1  0.11255393  0.61474098  0.48647067  1
  O  O67  1  0.12011236  0.62607901  0.99402905  1
  O  O68  1  0.62639138  0.12234892  0.48873170  1
  O  O69  1  0.63010516  0.12383065  0.99666790  1
  O  O70  1  0.61094460  0.61898336  0.48789433  1
  O  O71  1  0.62017228  0.61927420  0.98886265  1
  O  O72  1  0.13769810  0.38253435  0.02041304  1
  O  O73  1  0.13176015  0.37417406  0.50575251  1
  O  O74  1  0.14352730  0.87592990  0.01364015  1
  O  O75  1  0.13347614  0.86370108  0.50082453  1
  O  O76  1  0.63854036  0.38364859  0.01787761  1
  O  O77  1  0.63583548  0.37608963  0.50559590  1
  O  O78  1  0.64353764  0.87369488  0.01540826  1
  O  O79  1  0.62476938  0.87673394  0.50168759  1
  O  O80  1  0.37645885  0.11291109  0.48908530  1
  O  O81  1  0.37557473  0.11657882  0.99237856  1
  O  O82  1  0.36343004  0.62680761  0.48663438  1
  O  O83  1  0.37337107  0.62830273  0.99341373  1
  O  O84  1  0.87552640  0.12292867  0.48959051  1
  O  O85  1  0.88131609  0.12332033  0.99826378  1
  O  O86  1  0.86969754  0.62140633  0.48736727  1
  O  O87  1  0.86994130  0.62252548  0.99015673  1
  O  O88  1  0.38762417  0.38983150  0.01728619  1
  O  O89  1  0.38533256  0.38556612  0.50274571  1
  O  O90  1  0.39374821  0.88577572  0.01711816  1
  O  O91  1  0.37796961  0.88306420  0.50742891  1
  O  O92  1  0.88405345  0.38886834  0.01567038  1
  O  O93  1  0.88389657  0.38195621  0.50363649  1
  O  O94  1  0.89561140  0.88584672  0.01854218  1
  O  O95  1  0.88629267  0.88195328  0.50219093  1
  O  O96  1  0.09718681  0.10379672  0.14392382  1
  O  O97  1  0.09628250  0.08850937  0.64351415  1
  O  O98  1  0.08285340  0.60485691  0.14168690  1
  O  O99  1  0.07747901  0.59409664  0.64191786  1
  O  O100  1  0.59292567  0.10707978  0.13991810  1
  O  O101  1  0.58381936  0.09475834  0.63977823  1
  O  O102  1  0.58623641  0.60468250  0.14085628  1
  O  O103  1  0.58226389  0.59491693  0.64623977  1
  O  O104  1  0.43620255  0.40456672  0.35530614  1
  O  O105  1  0.44868475  0.40392713  0.86389382  1
  O  O106  1  0.43615108  0.89846897  0.35504491  1
  O  O107  1  0.45035211  0.89892971  0.86080653  1
  O  O108  1  0.93206384  0.40316451  0.35215271  1
  O  O109  1  0.94653335  0.40455646  0.86601026  1
  O  O110  1  0.94510537  0.89672972  0.35494478  1
  O  O111  1  0.95095292  0.89858185  0.86137628  1
  O  O112  1  0.34198794  0.28899630  0.14014396  1
  O  O113  1  0.33717754  0.29354939  0.64456755  1
  O  O114  1  0.33549941  0.78205250  0.13892035  1
  O  O115  1  0.32549761  0.79277286  0.64116235  1
  O  O116  1  0.84423144  0.29360463  0.14220359  1
  O  O117  1  0.83792395  0.30479510  0.64860364  1
  O  O118  1  0.84070578  0.77797169  0.13738564  1
  O  O119  1  0.82939428  0.79761624  0.64002264  1
  O  O120  1  0.18567938  0.19618534  0.35314767  1
  O  O121  1  0.19407275  0.20759073  0.86489245  1
  O  O122  1  0.19417979  0.70432147  0.35365769  1
  O  O123  1  0.20513511  0.71534541  0.86318382  1
  O  O124  1  0.68799345  0.19838268  0.35265195  1
  O  O125  1  0.68810959  0.21217131  0.86138206  1
  O  O126  1  0.69324084  0.69625769  0.35381137  1
  O  O127  1  0.70696925  0.71093616  0.86523788  1
  O  O128  1  0.42237385  0.05690711  0.23872137  1
  O  O129  1  0.42325976  0.06286452  0.74482346  1
  O  O130  1  0.42422666  0.57303166  0.24776855  1
  O  O131  1  0.43107997  0.57485265  0.76075238  1
  O  O132  1  0.92324879  0.05757610  0.23835265  1
  O  O133  1  0.93353514  0.06503067  0.75146575  1
  O  O134  1  0.92445558  0.57123204  0.24889819  1
  O  O135  1  0.93307540  0.57704290  0.76265360  1
  O  O136  1  0.17172635  0.43319348  0.23959375  1
  O  O137  1  0.18267946  0.43931520  0.75372892  1
  O  O138  1  0.16994040  0.92487753  0.24652127  1
  O  O139  1  0.18154266  0.93258985  0.76102964  1
  O  O140  1  0.67168637  0.43134179  0.23787198  1
  O  O141  1  0.67862379  0.43559847  0.76141485  1
  O  O142  1  0.67606897  0.92490608  0.23844142  1
  O  O143  1  0.68408225  0.94103486  0.75325427  1
