# generated using pymatgen
data_TmCo2B2C
_symmetry_space_group_name_H-M   'P 1'
_cell_length_a   3.48341913
_cell_length_b   3.48341913
_cell_length_c   5.75421289
_cell_angle_alpha   107.61889639
_cell_angle_beta   107.61889639
_cell_angle_gamma   90.00000000
_symmetry_Int_Tables_number   1
_chemical_formula_structural   TmCo2B2C
_chemical_formula_sum   'Tm1 Co2 B2 C1'
_cell_volume   63.10239138
_cell_formula_units_Z   1
loop_
 _symmetry_equiv_pos_site_id
 _symmetry_equiv_pos_as_xyz
  1  'x, y, z'
loop_
 _atom_site_type_symbol
 _atom_site_label
 _atom_site_symmetry_multiplicity
 _atom_site_fract_x
 _atom_site_fract_y
 _atom_site_fract_z
 _atom_site_occupancy
  Tm  Tm0  1  0.00000000  0.00000000  0.00000000  1
  Co  Co1  1  0.75000000  0.25000000  0.50000000  1
  Co  Co2  1  0.25000000  0.75000000  0.50000000  1
  B  B3  1  0.64412682  0.64412682  0.28825364  1
  B  B4  1  0.35587318  0.35587318  0.71174636  1
  C  C5  1  0.50000000  0.50000000  -0.00000000  1
