# generated using pymatgen
data_ScTe
_symmetry_space_group_name_H-M   'P 1'
_cell_length_a   4.11639692
_cell_length_b   4.11639692
_cell_length_c   13.84352207
_cell_angle_alpha   90.00000000
_cell_angle_beta   90.00000000
_cell_angle_gamma   119.97205877
_symmetry_Int_Tables_number   1
_chemical_formula_structural   ScTe
_chemical_formula_sum   'Sc4 Te4'
_cell_volume   203.20478321
_cell_formula_units_Z   4
loop_
 _symmetry_equiv_pos_site_id
 _symmetry_equiv_pos_as_xyz
  1  'x, y, z'
loop_
 _atom_site_type_symbol
 _atom_site_label
 _atom_site_symmetry_multiplicity
 _atom_site_fract_x
 _atom_site_fract_y
 _atom_site_fract_z
 _atom_site_occupancy
  Sc  Sc0  1  0.66667193  0.33332807  0.11731731  1
  Sc  Sc1  1  0.33332807  0.66667193  0.88268269  1
  Sc  Sc2  1  0.33332807  0.66667193  0.61731731  1
  Sc  Sc3  1  0.66667193  0.33332807  0.38268269  1
  Te  Te4  1  0.66668085  0.33331915  0.75000000  1
  Te  Te5  1  0.33331915  0.66668085  0.25000000  1
  Te  Te6  1  0.00000000  -0.00000000  0.50000000  1
  Te  Te7  1  0.00000000  -0.00000000  -0.00000000  1
