# generated using pymatgen
data_SrFe2S2O
_symmetry_space_group_name_H-M   'P 1'
_cell_length_a   3.94201548
_cell_length_b   6.39200642
_cell_length_c   9.97715551
_cell_angle_alpha   90.00000000
_cell_angle_beta   90.00000000
_cell_angle_gamma   90.00000000
_symmetry_Int_Tables_number   1
_chemical_formula_structural   SrFe2S2O
_chemical_formula_sum   'Sr2 Fe4 S4 O2'
_cell_volume   251.39826107
_cell_formula_units_Z   2
loop_
 _symmetry_equiv_pos_site_id
 _symmetry_equiv_pos_as_xyz
  1  'x, y, z'
loop_
 _atom_site_type_symbol
 _atom_site_label
 _atom_site_symmetry_multiplicity
 _atom_site_fract_x
 _atom_site_fract_y
 _atom_site_fract_z
 _atom_site_occupancy
  Sr  Sr0  1  0.50000000  0.01666695  0.50000000  1
  Sr  Sr1  1  0.00000000  0.98333305  -0.00000000  1
  Fe  Fe2  1  0.50000000  0.35788194  0.82571723  1
  Fe  Fe3  1  0.50000000  0.35788194  0.17428277  1
  Fe  Fe4  1  -0.00000000  0.64211806  0.32571723  1
  Fe  Fe5  1  0.00000000  0.64211806  0.67428277  1
  S  S6  1  0.50000000  0.74431749  0.80480234  1
  S  S7  1  0.50000000  0.74431749  0.19519766  1
  S  S8  1  0.00000000  0.25568251  0.30480234  1
  S  S9  1  0.00000000  0.25568251  0.69519766  1
  O  O10  1  0.50000000  0.22270893  -0.00000000  1
  O  O11  1  -0.00000000  0.77729107  0.50000000  1
