# generated using pymatgen
data_LiMg
_symmetry_space_group_name_H-M   'P 1'
_cell_length_a   9.14173987
_cell_length_b   5.42769506
_cell_length_c   5.84945502
_cell_angle_alpha   90.00000000
_cell_angle_beta   119.97848487
_cell_angle_gamma   90.00000000
_symmetry_Int_Tables_number   1
_chemical_formula_structural   LiMg
_chemical_formula_sum   'Li6 Mg6'
_cell_volume   251.41110177
_cell_formula_units_Z   6
loop_
 _symmetry_equiv_pos_site_id
 _symmetry_equiv_pos_as_xyz
  1  'x, y, z'
loop_
 _atom_site_type_symbol
 _atom_site_label
 _atom_site_symmetry_multiplicity
 _atom_site_fract_x
 _atom_site_fract_y
 _atom_site_fract_z
 _atom_site_occupancy
  Li  Li0  1  0.33370585  0.66807929  0.00055895  1
  Li  Li1  1  0.66629415  0.66807929  0.99944105  1
  Li  Li2  1  0.00000000  0.49758759  0.50000000  1
  Li  Li3  1  0.83370585  0.16807929  0.00055895  1
  Li  Li4  1  0.16629415  0.16807929  0.99944105  1
  Li  Li5  1  0.50000000  0.99758759  0.50000000  1
  Mg  Mg6  1  0.00000000  0.66689976  -0.00000000  1
  Mg  Mg7  1  0.33390605  0.49967754  0.49878132  1
  Mg  Mg8  1  0.66609395  0.49967754  0.50121868  1
  Mg  Mg9  1  0.50000000  0.16689976  -0.00000000  1
  Mg  Mg10  1  0.83390605  0.99967754  0.49878132  1
  Mg  Mg11  1  0.16609395  0.99967754  0.50121868  1
