# generated using pymatgen
data_NaMgAl3Si8(HO6)4
_symmetry_space_group_name_H-M   'P 1'
_cell_length_a   10.56944430
_cell_length_b   9.06439011
_cell_length_c   10.00617713
_cell_angle_alpha   90.01192316
_cell_angle_beta   89.79625122
_cell_angle_gamma   89.98545189
_symmetry_Int_Tables_number   1
_chemical_formula_structural   NaMgAl3Si8(HO6)4
_chemical_formula_sum   'Na2 Mg2 Al6 Si16 H8 O48'
_cell_volume   958.64135431
_cell_formula_units_Z   2
loop_
 _symmetry_equiv_pos_site_id
 _symmetry_equiv_pos_as_xyz
  1  'x, y, z'
loop_
 _atom_site_type_symbol
 _atom_site_label
 _atom_site_symmetry_multiplicity
 _atom_site_fract_x
 _atom_site_fract_y
 _atom_site_fract_z
 _atom_site_occupancy
  Na  Na0  1  0.70509508  0.03684599  0.49794550  1
  Na  Na1  1  0.20509508  0.03684599  0.49794550  1
  Mg  Mg2  1  0.75090602  0.16281414  0.03015506  1
  Mg  Mg3  1  0.25090602  0.16281414  0.03015506  1
  Al  Al4  1  0.50101784  0.33201910  0.02829111  1
  Al  Al5  1  0.00101784  0.33201910  0.02829111  1
  Al  Al6  1  0.25047329  0.83460930  0.03027171  1
  Al  Al7  1  0.75047329  0.83460930  0.03027171  1
  Al  Al8  1  0.50126731  0.66166044  0.02761813  1
  Al  Al9  1  0.00126731  0.66166044  0.02761813  1
  Si  Si10  1  0.15076876  0.33110147  0.30136585  1
  Si  Si11  1  0.39899012  0.82902824  0.30113492  1
  Si  Si12  1  0.34976251  0.33064511  0.75642688  1
  Si  Si13  1  0.10027694  0.82960085  0.75873268  1
  Si  Si14  1  0.35025104  0.67208930  0.75767034  1
  Si  Si15  1  0.09497395  0.17537370  0.75906831  1
  Si  Si16  1  0.14901500  0.67125279  0.30028400  1
  Si  Si17  1  0.40618774  0.17373836  0.30168444  1
  Si  Si18  1  0.65076876  0.33110147  0.30136585  1
  Si  Si19  1  0.89899012  0.82902824  0.30113492  1
  Si  Si20  1  0.84976251  0.33064511  0.75642688  1
  Si  Si21  1  0.60027694  0.82960085  0.75873268  1
  Si  Si22  1  0.85025104  0.67208930  0.75767034  1
  Si  Si23  1  0.59497395  0.17537370  0.75906831  1
  Si  Si24  1  0.64901500  0.67125279  0.30028400  1
  Si  Si25  1  0.90618774  0.17373836  0.30168444  1
  H  H26  1  0.08909880  0.98579783  0.13206049  1
  H  H27  1  0.41014568  0.98568010  0.92755615  1
  H  H28  1  0.58909880  0.98579783  0.13206049  1
  H  H29  1  0.91014568  0.98568010  0.92755615  1
  H  H30  1  0.34628932  0.49991881  0.14269299  1
  H  H31  1  0.15741363  0.49951612  0.91349262  1
  H  H32  1  0.84628932  0.49991881  0.14269299  1
  H  H33  1  0.65741363  0.49951612  0.91349262  1
  O  O34  1  0.18112513  0.98366001  0.13790323  1
  O  O35  1  0.31804909  0.98422143  0.92550615  1
  O  O36  1  0.68112513  0.98366001  0.13790323  1
  O  O37  1  0.81804909  0.98422143  0.92550615  1
  O  O38  1  0.02202846  0.74681711  0.36402990  1
  O  O39  1  0.15095568  0.68578681  0.13621829  1
  O  O40  1  0.27414237  0.24229837  0.36393926  1
  O  O41  1  0.41327358  0.19099993  0.14165787  1
  O  O42  1  0.47849114  0.74559027  0.69529132  1
  O  O43  1  0.35029752  0.68678463  0.92231212  1
  O  O44  1  0.22655609  0.24155214  0.69469935  1
  O  O45  1  0.08835353  0.19058059  0.91945313  1
  O  O46  1  0.47504767  0.25580160  0.68691620  1
  O  O47  1  0.35441773  0.31661400  0.91807080  1
  O  O48  1  0.22990821  0.76215161  0.69456568  1
  O  O49  1  0.09914787  0.80852471  0.92200894  1
  O  O50  1  0.02940658  0.24888130  0.37363808  1
  O  O51  1  0.14689482  0.31712273  0.14055217  1
  O  O52  1  0.26866203  0.76192428  0.36486397  1
  O  O53  1  0.40115411  0.80836431  0.13822930  1
  O  O54  1  0.16012837  0.50165501  0.35035874  1
  O  O55  1  0.40251344  0.00082215  0.35474439  1
  O  O56  1  0.33766144  0.50206724  0.70899803  1
  O  O57  1  0.09429219  0.00179967  0.70675094  1
  O  O58  1  0.43754308  0.50060369  0.12882489  1
  O  O59  1  0.06614881  0.50023075  0.92785408  1
  O  O60  1  0.52202846  0.74681711  0.36402990  1
  O  O61  1  0.65095568  0.68578681  0.13621829  1
  O  O62  1  0.77414237  0.24229837  0.36393926  1
  O  O63  1  0.91327358  0.19099993  0.14165787  1
  O  O64  1  0.97849114  0.74559027  0.69529132  1
  O  O65  1  0.85029752  0.68678463  0.92231212  1
  O  O66  1  0.72655609  0.24155214  0.69469935  1
  O  O67  1  0.58835353  0.19058059  0.91945313  1
  O  O68  1  0.97504767  0.25580160  0.68691620  1
  O  O69  1  0.85441773  0.31661400  0.91807080  1
  O  O70  1  0.72990821  0.76215161  0.69456568  1
  O  O71  1  0.59914787  0.80852471  0.92200894  1
  O  O72  1  0.52940658  0.24888130  0.37363808  1
  O  O73  1  0.64689482  0.31712273  0.14055217  1
  O  O74  1  0.76866203  0.76192428  0.36486397  1
  O  O75  1  0.90115411  0.80836431  0.13822930  1
  O  O76  1  0.66012837  0.50165501  0.35035874  1
  O  O77  1  0.90251344  0.00082215  0.35474439  1
  O  O78  1  0.83766144  0.50206724  0.70899803  1
  O  O79  1  0.59429219  0.00179967  0.70675094  1
  O  O80  1  0.93754308  0.50060369  0.12882489  1
  O  O81  1  0.56614881  0.50023075  0.92785408  1
