# generated using pymatgen
data_Mo3W(Se3S)2
_symmetry_space_group_name_H-M   'P 1'
_cell_length_a   3.29131564
_cell_length_b   3.29131212
_cell_length_c   36.85691357
_cell_angle_alpha   90.00011733
_cell_angle_beta   90.00000000
_cell_angle_gamma   120.00002565
_symmetry_Int_Tables_number   1
_chemical_formula_structural   Mo3W(Se3S)2
_chemical_formula_sum   'Mo3 W1 Se6 S2'
_cell_volume   345.77061852
_cell_formula_units_Z   1
loop_
 _symmetry_equiv_pos_site_id
 _symmetry_equiv_pos_as_xyz
  1  'x, y, z'
loop_
 _atom_site_type_symbol
 _atom_site_label
 _atom_site_symmetry_multiplicity
 _atom_site_fract_x
 _atom_site_fract_y
 _atom_site_fract_z
 _atom_site_occupancy
  Mo  Mo0  1  0.33331217  0.66662434  0.09391052  1
  Mo  Mo1  1  0.66668984  0.33337969  0.28179968  1
  Mo  Mo2  1  0.66668362  0.33336723  0.65756754  1
  W  W3  1  0.33331507  0.66663015  0.46963517  1
  Se  Se4  1  0.33335149  0.66670399  0.70325155  1
  Se  Se5  1  0.66664674  0.33329248  0.04821129  1
  Se  Se6  1  0.66664287  0.33328475  0.42369354  1
  Se  Se7  1  0.66664890  0.33329681  0.13961513  1
  Se  Se8  1  0.66664988  0.33329876  0.51559461  1
  Se  Se9  1  0.33335141  0.66670383  0.61186936  1
  S  S10  1  0.33335219  0.66670538  0.32337627  1
  S  S11  1  0.33335580  0.66671259  0.24022333  1
