# generated using pymatgen
data_Ca3Co4O9
_symmetry_space_group_name_H-M   'P 1'
_cell_length_a   5.32874830
_cell_length_b   11.15678571
_cell_length_c   11.15678555
_cell_angle_alpha   99.00573254
_cell_angle_beta   90.00000000
_cell_angle_gamma   90.00000000
_symmetry_Int_Tables_number   1
_chemical_formula_structural   Ca3Co4O9
_chemical_formula_sum   'Ca9 Co12 O27'
_cell_volume   655.11331570
_cell_formula_units_Z   3
loop_
 _symmetry_equiv_pos_site_id
 _symmetry_equiv_pos_as_xyz
  1  'x, y, z'
loop_
 _atom_site_type_symbol
 _atom_site_label
 _atom_site_symmetry_multiplicity
 _atom_site_fract_x
 _atom_site_fract_y
 _atom_site_fract_z
 _atom_site_occupancy
  Ca  Ca0  1  0.00228453  -0.00000000  0.00000000  1
  Ca  Ca1  1  0.08746366  0.40083959  0.59916041  1
  Ca  Ca2  1  0.08746366  0.59916041  0.40083959  1
  Ca  Ca3  1  0.03958381  0.08199946  0.65916771  1
  Ca  Ca4  1  0.03958381  0.91800054  0.34083229  1
  Ca  Ca5  1  0.03958381  0.34083229  0.91800054  1
  Ca  Ca6  1  0.03958381  0.65916771  0.08199946  1
  Ca  Ca7  1  0.05404501  0.76002560  0.76002560  1
  Ca  Ca8  1  0.05404501  0.23997440  0.23997440  1
  Co  Co9  1  0.51483120  0.98337867  0.79648944  1
  Co  Co10  1  0.51483120  0.01662133  0.20351056  1
  Co  Co11  1  0.51483120  0.20351056  0.01662133  1
  Co  Co12  1  0.51483120  0.79648944  0.98337867  1
  Co  Co13  1  0.56609567  0.13439616  0.46269721  1
  Co  Co14  1  0.56609567  0.86560384  0.53730279  1
  Co  Co15  1  0.56609567  0.53730279  0.86560384  1
  Co  Co16  1  0.56609567  0.46269721  0.13439616  1
  Co  Co17  1  0.60117593  0.61457810  0.61457810  1
  Co  Co18  1  0.60117593  0.38542190  0.38542190  1
  Co  Co19  1  0.52729106  0.26426590  0.73573410  1
  Co  Co20  1  0.52729106  0.73573410  0.26426590  1
  O  O21  1  0.26933525  0.60670774  0.60670774  1
  O  O22  1  0.26933525  0.39329226  0.39329226  1
  O  O23  1  0.32918866  0.89447464  0.89447464  1
  O  O24  1  0.32918866  0.10552536  0.10552536  1
  O  O25  1  0.35079643  0.20875881  0.59176824  1
  O  O26  1  0.35079643  0.79124119  0.40823176  1
  O  O27  1  0.35079643  0.40823176  0.79124119  1
  O  O28  1  0.35079643  0.59176824  0.20875881  1
  O  O29  1  0.40466107  0.15431013  0.84568987  1
  O  O30  1  0.40466107  0.84568987  0.15431013  1
  O  O31  1  0.32993071  0.06937325  0.34772637  1
  O  O32  1  0.32993071  0.93062675  0.65227363  1
  O  O33  1  0.32993071  0.65227363  0.93062675  1
  O  O34  1  0.32993071  0.34772637  0.06937325  1
  O  O35  1  0.77925272  0.50000000  0.50000000  1
  O  O36  1  0.84616340  0.97728900  0.79739448  1
  O  O37  1  0.84616340  0.02271100  0.20260552  1
  O  O38  1  0.84616340  0.20260552  0.02271100  1
  O  O39  1  0.84616340  0.79739448  0.97728900  1
  O  O40  1  0.86149415  0.26997942  0.73002058  1
  O  O41  1  0.86149415  0.73002058  0.26997942  1
  O  O42  1  0.77544563  0.24746052  0.41758840  1
  O  O43  1  0.77544563  0.75253948  0.58241160  1
  O  O44  1  0.77544563  0.58241160  0.75253948  1
  O  O45  1  0.77544563  0.41758840  0.24746052  1
  O  O46  1  0.76042288  -0.00000000  0.50000000  1
  O  O47  1  0.76042288  0.50000000  0.00000000  1
