# generated using pymatgen
data_Ce2Ni5B4
_symmetry_space_group_name_H-M   'P 1'
_cell_length_a   5.08972525
_cell_length_b   5.47865933
_cell_length_c   6.09202379
_cell_angle_alpha   70.00837658
_cell_angle_beta   65.30821444
_cell_angle_gamma   62.32183269
_symmetry_Int_Tables_number   1
_chemical_formula_structural   Ce2Ni5B4
_chemical_formula_sum   'Ce2 Ni5 B4'
_cell_volume   134.35470432
_cell_formula_units_Z   1
loop_
 _symmetry_equiv_pos_site_id
 _symmetry_equiv_pos_as_xyz
  1  'x, y, z'
loop_
 _atom_site_type_symbol
 _atom_site_label
 _atom_site_symmetry_multiplicity
 _atom_site_fract_x
 _atom_site_fract_y
 _atom_site_fract_z
 _atom_site_occupancy
  Ce  Ce0  1  0.27076496  0.80546616  0.65300391  1
  Ce  Ce1  1  0.72923504  0.19453384  0.34699609  1
  Ni  Ni2  1  0.18037483  0.27918636  0.87004731  1
  Ni  Ni3  1  0.67039150  0.27918636  0.87004731  1
  Ni  Ni4  1  0.81962517  0.72081364  0.12995269  1
  Ni  Ni5  1  0.32960850  0.72081364  0.12995269  1
  Ni  Ni6  1  0.00000000  0.50000000  0.50000000  1
  B  B7  1  0.77851571  0.60488176  0.83808683  1
  B  B8  1  0.22148429  0.39511824  0.16191317  1
  B  B9  1  0.40032459  0.05475305  0.14459776  1
  B  B10  1  0.59967541  0.94524695  0.85540224  1
