# generated using pymatgen
data_NaTi2BiO6
_symmetry_space_group_name_H-M   'P 1'
_cell_length_a   10.98511255
_cell_length_b   12.11250515
_cell_length_c   13.50073898
_cell_angle_alpha   51.88843930
_cell_angle_beta   65.99391087
_cell_angle_gamma   63.03400285
_symmetry_Int_Tables_number   1
_chemical_formula_structural   NaTi2BiO6
_chemical_formula_sum   'Na8 Ti16 Bi8 O48'
_cell_volume   1238.91535696
_cell_formula_units_Z   8
loop_
 _symmetry_equiv_pos_site_id
 _symmetry_equiv_pos_as_xyz
  1  'x, y, z'
loop_
 _atom_site_type_symbol
 _atom_site_label
 _atom_site_symmetry_multiplicity
 _atom_site_fract_x
 _atom_site_fract_y
 _atom_site_fract_z
 _atom_site_occupancy
  Na  Na0  1  0.25000000  0.25000000  0.25000000  1
  Na  Na1  1  0.25000000  0.25000000  0.75000000  1
  Na  Na2  1  0.25000000  0.75000000  0.25000000  1
  Na  Na3  1  0.25000000  0.75000000  0.75000000  1
  Na  Na4  1  0.75000000  0.25000000  0.25000000  1
  Na  Na5  1  0.75000000  0.25000000  0.75000000  1
  Na  Na6  1  0.75000000  0.75000000  0.25000000  1
  Na  Na7  1  0.75000000  0.75000000  0.75000000  1
  Ti  Ti8  1  0.11579351  0.06858863  0.19982435  1
  Ti  Ti9  1  0.11579351  0.06858863  0.69982435  1
  Ti  Ti10  1  0.11579351  0.56858863  0.19982435  1
  Ti  Ti11  1  0.11579351  0.56858863  0.69982435  1
  Ti  Ti12  1  0.61579351  0.06858863  0.19982435  1
  Ti  Ti13  1  0.61579351  0.06858863  0.69982435  1
  Ti  Ti14  1  0.61579351  0.56858863  0.19982435  1
  Ti  Ti15  1  0.61579351  0.56858863  0.69982435  1
  Ti  Ti16  1  0.38420649  0.43141137  0.30017565  1
  Ti  Ti17  1  0.38420649  0.43141137  0.80017565  1
  Ti  Ti18  1  0.38420649  0.93141137  0.30017565  1
  Ti  Ti19  1  0.38420649  0.93141137  0.80017565  1
  Ti  Ti20  1  0.88420649  0.43141137  0.30017565  1
  Ti  Ti21  1  0.88420649  0.43141137  0.80017565  1
  Ti  Ti22  1  0.88420649  0.93141137  0.30017565  1
  Ti  Ti23  1  0.88420649  0.93141137  0.80017565  1
  Bi  Bi24  1  0.00000000  0.00000000  0.00000000  1
  Bi  Bi25  1  0.00000000  0.00000000  0.50000000  1
  Bi  Bi26  1  0.00000000  0.50000000  0.00000000  1
  Bi  Bi27  1  0.00000000  0.50000000  0.50000000  1
  Bi  Bi28  1  0.50000000  0.00000000  0.00000000  1
  Bi  Bi29  1  0.50000000  0.00000000  0.50000000  1
  Bi  Bi30  1  0.50000000  0.50000000  0.00000000  1
  Bi  Bi31  1  0.50000000  0.50000000  0.50000000  1
  O  O32  1  0.08838112  0.24991152  0.57332624  1
  O  O33  1  0.08838112  0.24991152  0.07332624  1
  O  O34  1  0.08838112  0.74991152  0.57332624  1
  O  O35  1  0.08838112  0.74991152  0.07332624  1
  O  O36  1  0.58838112  0.24991152  0.57332624  1
  O  O37  1  0.58838112  0.24991152  0.07332624  1
  O  O38  1  0.58838112  0.74991152  0.57332624  1
  O  O39  1  0.58838112  0.74991152  0.07332624  1
  O  O40  1  0.41161888  0.25008848  0.92667376  1
  O  O41  1  0.41161888  0.25008848  0.42667376  1
  O  O42  1  0.41161888  0.75008848  0.92667376  1
  O  O43  1  0.41161888  0.75008848  0.42667376  1
  O  O44  1  0.91161888  0.25008848  0.92667376  1
  O  O45  1  0.91161888  0.25008848  0.42667376  1
  O  O46  1  0.91161888  0.75008848  0.92667376  1
  O  O47  1  0.91161888  0.75008848  0.42667376  1
  O  O48  1  0.06081091  0.45242086  0.17545857  1
  O  O49  1  0.06081091  0.45242086  0.67545857  1
  O  O50  1  0.06081091  0.95242086  0.17545857  1
  O  O51  1  0.06081091  0.95242086  0.67545857  1
  O  O52  1  0.56081091  0.45242086  0.17545857  1
  O  O53  1  0.56081091  0.45242086  0.67545857  1
  O  O54  1  0.56081091  0.95242086  0.17545857  1
  O  O55  1  0.56081091  0.95242086  0.67545857  1
  O  O56  1  0.18869034  0.04757914  0.32454143  1
  O  O57  1  0.18869034  0.04757914  0.82454143  1
  O  O58  1  0.18869034  0.54757914  0.32454143  1
  O  O59  1  0.18869034  0.54757914  0.82454143  1
  O  O60  1  0.68869034  0.04757914  0.32454143  1
  O  O61  1  0.68869034  0.04757914  0.82454143  1
  O  O62  1  0.68869034  0.54757914  0.32454143  1
  O  O63  1  0.68869034  0.54757914  0.82454143  1
  O  O64  1  0.43918909  0.04757914  0.32454143  1
  O  O65  1  0.43918909  0.04757914  0.82454143  1
  O  O66  1  0.43918909  0.54757914  0.32454143  1
  O  O67  1  0.43918909  0.54757914  0.82454143  1
  O  O68  1  0.93918909  0.04757914  0.32454143  1
  O  O69  1  0.93918909  0.04757914  0.82454143  1
  O  O70  1  0.93918909  0.54757914  0.32454143  1
  O  O71  1  0.93918909  0.54757914  0.82454143  1
  O  O72  1  0.31130966  0.45242086  0.17545857  1
  O  O73  1  0.31130966  0.45242086  0.67545857  1
  O  O74  1  0.31130966  0.95242086  0.17545857  1
  O  O75  1  0.31130966  0.95242086  0.67545857  1
  O  O76  1  0.81130966  0.45242086  0.17545857  1
  O  O77  1  0.81130966  0.45242086  0.67545857  1
  O  O78  1  0.81130966  0.95242086  0.17545857  1
  O  O79  1  0.81130966  0.95242086  0.67545857  1
