# generated using pymatgen
data_Li9Mn7O16
_symmetry_space_group_name_H-M   'P 1'
_cell_length_a   5.10149947
_cell_length_b   11.18497588
_cell_length_c   5.74585623
_cell_angle_alpha   105.18173894
_cell_angle_beta   106.37422313
_cell_angle_gamma   90.70292119
_symmetry_Int_Tables_number   1
_chemical_formula_structural   Li9Mn7O16
_chemical_formula_sum   'Li9 Mn7 O16'
_cell_volume   302.26840870
_cell_formula_units_Z   1
loop_
 _symmetry_equiv_pos_site_id
 _symmetry_equiv_pos_as_xyz
  1  'x, y, z'
loop_
 _atom_site_type_symbol
 _atom_site_label
 _atom_site_symmetry_multiplicity
 _atom_site_fract_x
 _atom_site_fract_y
 _atom_site_fract_z
 _atom_site_occupancy
  Li  Li0  1  0.48436742  0.11637332  0.93345919  1
  Li  Li1  1  0.49847402  0.35547574  0.31008919  1
  Li  Li2  1  0.51563258  0.38362668  0.81654081  1
  Li  Li3  1  0.47960013  0.60530678  0.17043912  1
  Li  Li4  1  0.49092715  0.62081394  0.68451723  1
  Li  Li5  1  0.50907285  0.87918606  0.06548277  1
  Li  Li6  1  0.52039987  0.89469322  0.57956088  1
  Li  Li7  1  0.50152598  0.14452426  0.43991081  1
  Li  Li8  1  -0.00000000  0.25000000  0.37500000  1
  Mn  Mn9  1  0.01772983  0.00967726  0.01409335  1
  Mn  Mn10  1  -0.00000000  0.25000000  0.87500000  1
  Mn  Mn11  1  0.98227017  0.49032274  0.73590665  1
  Mn  Mn12  1  0.99914933  0.74988061  0.12210439  1
  Mn  Mn13  1  0.00675534  0.00530445  0.50399372  1
  Mn  Mn14  1  0.99324466  0.49469555  0.24600628  1
  Mn  Mn15  1  0.00085067  0.75011939  0.62789561  1
  O  O16  1  0.23449883  0.94260092  0.77805467  1
  O  O17  1  0.24228943  0.19201551  0.14129541  1
  O  O18  1  0.20788654  0.16393348  0.64207875  1
  O  O19  1  0.22812374  0.44576516  0.02766145  1
  O  O20  1  0.22878865  0.44910628  0.52960869  1
  O  O21  1  0.23541823  0.69743640  0.90962705  1
  O  O22  1  0.20369696  0.67265021  0.38612318  1
  O  O23  1  0.23417443  0.94346213  0.28705092  1
  O  O24  1  0.79211346  0.33606652  0.10792125  1
  O  O25  1  0.76582557  0.55653787  0.46294908  1
  O  O26  1  0.76550117  0.55739908  0.97194533  1
  O  O27  1  0.79630304  0.82734979  0.36387682  1
  O  O28  1  0.76458177  0.80256360  0.84037295  1
  O  O29  1  0.77121135  0.05089372  0.22039131  1
  O  O30  1  0.77187626  0.05423484  0.72233855  1
  O  O31  1  0.75771057  0.30798449  0.60870459  1
