# generated using pymatgen
data_MnInF3
_symmetry_space_group_name_H-M   'P 1'
_cell_length_a   4.30803345
_cell_length_b   4.30892638
_cell_length_c   4.30970046
_cell_angle_alpha   89.89852373
_cell_angle_beta   89.72196743
_cell_angle_gamma   89.95820787
_symmetry_Int_Tables_number   1
_chemical_formula_structural   MnInF3
_chemical_formula_sum   'Mn1 In1 F3'
_cell_volume   79.99987696
_cell_formula_units_Z   1
loop_
 _symmetry_equiv_pos_site_id
 _symmetry_equiv_pos_as_xyz
  1  'x, y, z'
loop_
 _atom_site_type_symbol
 _atom_site_label
 _atom_site_symmetry_multiplicity
 _atom_site_fract_x
 _atom_site_fract_y
 _atom_site_fract_z
 _atom_site_occupancy
  Mn  Mn0  1  0.48824936  0.49856231  0.49502882  1
  In  In1  1  0.99492572  0.99634629  0.99050780  1
  F  F2  1  0.48281664  0.99933142  0.49976126  1
  F  F3  1  0.98735212  0.50527867  0.50808362  1
  F  F4  1  0.48665616  0.50047631  0.99662050  1
