# generated using pymatgen
data_Li9Mn7O16
_symmetry_space_group_name_H-M   'P 1'
_cell_length_a   5.83286335
_cell_length_b   10.10706891
_cell_length_c   6.01284271
_cell_angle_alpha   87.15553429
_cell_angle_beta   118.38381928
_cell_angle_gamma   106.64827430
_symmetry_Int_Tables_number   1
_chemical_formula_structural   Li9Mn7O16
_chemical_formula_sum   'Li9 Mn7 O16'
_cell_volume   297.20920048
_cell_formula_units_Z   1
loop_
 _symmetry_equiv_pos_site_id
 _symmetry_equiv_pos_as_xyz
  1  'x, y, z'
loop_
 _atom_site_type_symbol
 _atom_site_label
 _atom_site_symmetry_multiplicity
 _atom_site_fract_x
 _atom_site_fract_y
 _atom_site_fract_z
 _atom_site_occupancy
  Li  Li0  1  0.99471593  0.00090043  0.49536905  1
  Li  Li1  1  -0.00000000  0.25000000  0.25000000  1
  Li  Li2  1  0.00528407  0.49909957  0.00463095  1
  Li  Li3  1  0.50537485  0.00386538  0.00602362  1
  Li  Li4  1  0.50000000  0.25000000  0.75000000  1
  Li  Li5  1  0.49462515  0.49613462  0.49397638  1
  Li  Li6  1  0.50000000  0.75000000  0.25000000  1
  Li  Li7  1  -0.00000000  0.75000000  0.75000000  1
  Li  Li8  1  -0.00000000  0.25000000  0.75000000  1
  Mn  Mn9  1  0.00534970  0.00514673  0.00535028  1
  Mn  Mn10  1  0.50000000  0.25000000  0.25000000  1
  Mn  Mn11  1  0.99465030  0.49485327  0.49464972  1
  Mn  Mn12  1  -0.00000000  0.75000000  0.25000000  1
  Mn  Mn13  1  0.51209658  0.00512248  0.51285707  1
  Mn  Mn14  1  0.48790342  0.49487752  0.98714293  1
  Mn  Mn15  1  0.50000000  0.75000000  0.75000000  1
  O  O16  1  0.77797730  0.87639186  0.13411040  1
  O  O17  1  0.75385237  0.11204771  0.86530655  1
  O  O18  1  0.73342983  0.36708601  0.57430142  1
  O  O19  1  0.27834857  0.87830314  0.63270260  1
  O  O20  1  0.28159771  0.13279042  0.39080824  1
  O  O21  1  0.27522749  0.37601337  0.12601636  1
  O  O22  1  0.26995183  0.62780841  0.88059603  1
  O  O23  1  0.75983315  0.61969865  0.35893056  1
  O  O24  1  0.26657017  0.13291399  0.92569858  1
  O  O25  1  0.24614763  0.38795229  0.63469345  1
  O  O26  1  0.22202270  0.62360814  0.36588960  1
  O  O27  1  0.72477251  0.12398663  0.37398364  1
  O  O28  1  0.71840229  0.36720958  0.10919176  1
  O  O29  1  0.72165143  0.62169686  0.86729740  1
  O  O30  1  0.73004817  0.87219159  0.61940397  1
  O  O31  1  0.24016685  0.88030135  0.14106944  1
