# generated using pymatgen
data_Sr3CaTi3MnO12
_symmetry_space_group_name_H-M   'P 1'
_cell_length_a   7.79350974
_cell_length_b   7.79937370
_cell_length_c   7.88957765
_cell_angle_alpha   90.00000000
_cell_angle_beta   90.00000000
_cell_angle_gamma   90.00000000
_symmetry_Int_Tables_number   1
_chemical_formula_structural   Sr3CaTi3MnO12
_chemical_formula_sum   'Sr6 Ca2 Ti6 Mn2 O24'
_cell_volume   479.56399240
_cell_formula_units_Z   2
loop_
 _symmetry_equiv_pos_site_id
 _symmetry_equiv_pos_as_xyz
  1  'x, y, z'
loop_
 _atom_site_type_symbol
 _atom_site_label
 _atom_site_symmetry_multiplicity
 _atom_site_fract_x
 _atom_site_fract_y
 _atom_site_fract_z
 _atom_site_occupancy
  Sr  Sr0  1  0.24676102  0.24649389  0.25000000  1
  Sr  Sr1  1  0.24675463  0.24665063  0.75000000  1
  Sr  Sr2  1  0.24649520  0.75343698  0.75000000  1
  Sr  Sr3  1  0.75324537  0.24665063  0.25000000  1
  Sr  Sr4  1  0.75323898  0.24649389  0.75000000  1
  Sr  Sr5  1  0.75350480  0.75343698  0.25000000  1
  Ca  Ca6  1  0.24654315  0.75358578  0.25000000  1
  Ca  Ca7  1  0.75345685  0.75358578  0.75000000  1
  Ti  Ti8  1  0.00000000  0.50210857  -0.00000000  1
  Ti  Ti9  1  0.00000000  0.50210857  0.50000000  1
  Ti  Ti10  1  0.50000000  0.99858012  -0.00000000  1
  Ti  Ti11  1  0.50000000  0.99858012  0.50000000  1
  Ti  Ti12  1  0.50000000  0.50141286  -0.00000000  1
  Ti  Ti13  1  0.50000000  0.50141286  0.50000000  1
  Mn  Mn14  1  0.00000000  0.99909389  -0.00000000  1
  Mn  Mn15  1  0.00000000  0.99909389  0.50000000  1
  O  O16  1  0.24775611  0.99719883  0.00201618  1
  O  O17  1  0.24775611  0.99719883  0.49798382  1
  O  O18  1  0.24949694  0.50250510  0.00160518  1
  O  O19  1  0.24949694  0.50250510  0.49839482  1
  O  O20  1  0.75224389  0.99719883  0.99798382  1
  O  O21  1  0.75224389  0.99719883  0.50201618  1
  O  O22  1  0.75050306  0.50250510  0.99839482  1
  O  O23  1  0.75050306  0.50250510  0.50160518  1
  O  O24  1  0.00000000  0.24784091  -0.00000000  1
  O  O25  1  0.00000000  0.24784091  0.50000000  1
  O  O26  1  0.00000000  0.75234286  -0.00000000  1
  O  O27  1  0.00000000  0.75234286  0.50000000  1
  O  O28  1  0.50000000  0.24937587  -0.00000000  1
  O  O29  1  0.50000000  0.24937587  0.50000000  1
  O  O30  1  0.50000000  0.75049856  -0.00000000  1
  O  O31  1  0.50000000  0.75049856  0.50000000  1
  O  O32  1  0.00285130  0.99659547  0.25000000  1
  O  O33  1  0.99714870  0.99659547  0.75000000  1
  O  O34  1  0.00171870  0.50256779  0.25000000  1
  O  O35  1  0.99828130  0.50256779  0.75000000  1
  O  O36  1  0.49835222  0.99734124  0.25000000  1
  O  O37  1  0.50164778  0.99734124  0.75000000  1
  O  O38  1  0.49827599  0.50266672  0.25000000  1
  O  O39  1  0.50172401  0.50266672  0.75000000  1
