# generated using pymatgen
data_Zn3Cr2O7
_symmetry_space_group_name_H-M   'P 1'
_cell_length_a   5.12102026
_cell_length_b   5.16999442
_cell_length_c   9.62680035
_cell_angle_alpha   105.57626661
_cell_angle_beta   90.00000000
_cell_angle_gamma   90.00000000
_symmetry_Int_Tables_number   1
_chemical_formula_structural   Zn3Cr2O7
_chemical_formula_sum   'Zn6 Cr4 O14'
_cell_volume   245.51516179
_cell_formula_units_Z   2
loop_
 _symmetry_equiv_pos_site_id
 _symmetry_equiv_pos_as_xyz
  1  'x, y, z'
loop_
 _atom_site_type_symbol
 _atom_site_label
 _atom_site_symmetry_multiplicity
 _atom_site_fract_x
 _atom_site_fract_y
 _atom_site_fract_z
 _atom_site_occupancy
  Zn  Zn0  1  0.72175681  0.73931408  1.00000000  1
  Zn  Zn1  1  0.22175681  0.26068592  0.00000000  1
  Zn  Zn2  1  0.79059629  0.57716475  0.59860834  1
  Zn  Zn3  1  0.29059629  0.42283525  0.40139166  1
  Zn  Zn4  1  0.79059629  0.97855541  0.40139166  1
  Zn  Zn5  1  0.29059629  0.02144459  0.59860834  1
  Cr  Cr6  1  0.75478090  0.35350167  0.20373541  1
  Cr  Cr7  1  0.25478090  0.64649833  0.79626459  1
  Cr  Cr8  1  0.25478090  0.85023374  0.20373541  1
  Cr  Cr9  1  0.75478090  0.14976626  0.79626459  1
  O  O10  1  0.68005771  0.94664479  0.59475494  1
  O  O11  1  0.18005771  0.05335521  0.40524506  1
  O  O12  1  0.18005771  0.64810915  0.59475494  1
  O  O13  1  0.68005771  0.35189085  0.40524506  1
  O  O14  1  0.07083295  0.28902010  0.74276844  1
  O  O15  1  0.57083295  0.71097990  0.25723156  1
  O  O16  1  0.57083295  0.45374835  0.74276844  1
  O  O17  1  0.07083295  0.54625165  0.25723156  1
  O  O18  1  0.93860097  0.84356953  0.84671216  1
  O  O19  1  0.43860097  0.15643047  0.15328784  1
  O  O20  1  0.82850755  0.36164626  0.00000000  1
  O  O21  1  0.32850755  0.63835374  1.00000000  1
  O  O22  1  0.93860097  0.99685737  0.15328784  1
  O  O23  1  0.43860097  0.00314263  0.84671216  1
