# generated using pymatgen
data_Sr7CaMn4(FeO6)4
_symmetry_space_group_name_H-M   'P 1'
_cell_length_a   7.80233264
_cell_length_b   7.80233264
_cell_length_c   7.80233264
_cell_angle_alpha   90.00574328
_cell_angle_beta   89.99425672
_cell_angle_gamma   90.00574328
_symmetry_Int_Tables_number   1
_chemical_formula_structural   Sr7CaMn4(FeO6)4
_chemical_formula_sum   'Sr7 Ca1 Mn4 Fe4 O24'
_cell_volume   474.97787356
_cell_formula_units_Z   1
loop_
 _symmetry_equiv_pos_site_id
 _symmetry_equiv_pos_as_xyz
  1  'x, y, z'
loop_
 _atom_site_type_symbol
 _atom_site_label
 _atom_site_symmetry_multiplicity
 _atom_site_fract_x
 _atom_site_fract_y
 _atom_site_fract_z
 _atom_site_occupancy
  Sr  Sr0  1  0.25069331  0.25074913  0.25069331  1
  Sr  Sr1  1  0.25070993  0.25068381  0.74931619  1
  Sr  Sr2  1  0.25069331  0.74930669  0.74925087  1
  Sr  Sr3  1  0.74931619  0.25068381  0.25070993  1
  Sr  Sr4  1  0.74926249  0.25073751  0.74926249  1
  Sr  Sr5  1  0.74925087  0.74930669  0.25069331  1
  Sr  Sr6  1  0.74931619  0.74929007  0.74931619  1
  Ca  Ca7  1  0.25099869  0.74900131  0.25099869  1
  Mn  Mn8  1  0.00071170  0.50052147  0.49947853  1
  Mn  Mn9  1  0.49947853  0.99928830  0.49947853  1
  Mn  Mn10  1  0.49947853  0.50052147  0.00071170  1
  Mn  Mn11  1  0.49952519  0.50047481  0.49952519  1
  Fe  Fe12  1  0.00062831  0.99937169  0.00062831  1
  Fe  Fe13  1  0.00061542  0.99938458  0.49940426  1
  Fe  Fe14  1  0.00061542  0.50059574  0.00061542  1
  Fe  Fe15  1  0.49940426  0.99938458  0.00061542  1
  O  O16  1  0.24713801  0.99768107  0.00231893  1
  O  O17  1  0.25360973  0.99755040  0.49747943  1
  O  O18  1  0.25360973  0.50252057  0.00244960  1
  O  O19  1  0.25098134  0.50284841  0.49715159  1
  O  O20  1  0.75298276  0.99945175  0.00054825  1
  O  O21  1  0.74633725  0.99953125  0.49956034  1
  O  O22  1  0.74633725  0.50043966  0.00046875  1
  O  O23  1  0.74896892  0.50030856  0.49969144  1
  O  O24  1  0.00054825  0.24701724  0.00054825  1
  O  O25  1  0.00046875  0.25366275  0.49956034  1
  O  O26  1  0.00231893  0.75286199  0.00231893  1
  O  O27  1  0.00244960  0.74639027  0.49747943  1
  O  O28  1  0.49956034  0.25366275  0.00046875  1
  O  O29  1  0.49969144  0.25103108  0.49969144  1
  O  O30  1  0.49747943  0.74639027  0.00244960  1
  O  O31  1  0.49715159  0.74901866  0.49715159  1
  O  O32  1  0.00231893  0.99768107  0.24713801  1
  O  O33  1  0.00054825  0.99945175  0.75298276  1
  O  O34  1  0.00244960  0.50252057  0.25360973  1
  O  O35  1  0.00046875  0.50043966  0.74633725  1
  O  O36  1  0.49747943  0.99755040  0.25360973  1
  O  O37  1  0.49956034  0.99953125  0.74633725  1
  O  O38  1  0.49715159  0.50284841  0.25098134  1
  O  O39  1  0.49969144  0.50030856  0.74896892  1
