# generated using pymatgen
data_Ti(CrSe2)2
_symmetry_space_group_name_H-M   'P 1'
_cell_length_a   3.63054109
_cell_length_b   6.39753207
_cell_length_c   6.98895839
_cell_angle_alpha   115.47407121
_cell_angle_beta   74.94572088
_cell_angle_gamma   90.00000000
_symmetry_Int_Tables_number   1
_chemical_formula_structural   Ti(CrSe2)2
_chemical_formula_sum   'Ti1 Cr2 Se4'
_cell_volume   140.35129004
_cell_formula_units_Z   1
loop_
 _symmetry_equiv_pos_site_id
 _symmetry_equiv_pos_as_xyz
  1  'x, y, z'
loop_
 _atom_site_type_symbol
 _atom_site_label
 _atom_site_symmetry_multiplicity
 _atom_site_fract_x
 _atom_site_fract_y
 _atom_site_fract_z
 _atom_site_occupancy
  Ti  Ti0  1  0.24409263  0.78784790  0.51181473  1
  Cr  Cr1  1  0.75816295  0.21664461  0.48367409  1
  Cr  Cr2  1  0.49850111  0.50178029  0.00299779  1
  Se  Se3  1  0.86526094  0.47017982  0.26947812  1
  Se  Se4  1  0.13419578  0.52174726  0.73160843  1
  Se  Se5  1  0.38164739  0.95129430  0.23670522  1
  Se  Se6  1  0.61813920  0.05050582  0.76372161  1
