# generated using pymatgen
data_Rb2S
_symmetry_space_group_name_H-M   'P 1'
_cell_length_a   5.14692433
_cell_length_b   8.46901015
_cell_length_c   10.02205476
_cell_angle_alpha   90.00000000
_cell_angle_beta   90.00000000
_cell_angle_gamma   90.00000000
_symmetry_Int_Tables_number   1
_chemical_formula_structural   Rb2S
_chemical_formula_sum   'Rb8 S4'
_cell_volume   436.85489667
_cell_formula_units_Z   4
loop_
 _symmetry_equiv_pos_site_id
 _symmetry_equiv_pos_as_xyz
  1  'x, y, z'
loop_
 _atom_site_type_symbol
 _atom_site_label
 _atom_site_symmetry_multiplicity
 _atom_site_fract_x
 _atom_site_fract_y
 _atom_site_fract_z
 _atom_site_occupancy
  Rb  Rb0  1  0.75000000  0.48013586  0.66897345  1
  Rb  Rb1  1  0.75000000  0.98013586  0.83102655  1
  Rb  Rb2  1  0.25000000  0.51986414  0.33102655  1
  Rb  Rb3  1  0.25000000  0.01986414  0.16897345  1
  Rb  Rb4  1  0.75000000  0.35425721  0.07391406  1
  Rb  Rb5  1  0.75000000  0.85425721  0.42608594  1
  Rb  Rb6  1  0.25000000  0.64574279  0.92608594  1
  Rb  Rb7  1  0.25000000  0.14574279  0.57391406  1
  S  S8  1  0.75000000  0.24814629  0.38933592  1
  S  S9  1  0.75000000  0.74814629  0.11066408  1
  S  S10  1  0.25000000  0.75185371  0.61066408  1
  S  S11  1  0.25000000  0.25185371  0.88933592  1
