# generated using pymatgen
data_LiCr2(PO4)3
_symmetry_space_group_name_H-M   'P 1'
_cell_length_a   8.53748300
_cell_length_b   8.51599875
_cell_length_c   8.53451649
_cell_angle_alpha   60.23729436
_cell_angle_beta   59.98850607
_cell_angle_gamma   90.00000320
_symmetry_Int_Tables_number   1
_chemical_formula_structural   LiCr2(PO4)3
_chemical_formula_sum   'Li2 Cr4 P6 O24'
_cell_volume   440.25350929
_cell_formula_units_Z   2
loop_
 _symmetry_equiv_pos_site_id
 _symmetry_equiv_pos_as_xyz
  1  'x, y, z'
loop_
 _atom_site_type_symbol
 _atom_site_label
 _atom_site_symmetry_multiplicity
 _atom_site_fract_x
 _atom_site_fract_y
 _atom_site_fract_z
 _atom_site_occupancy
  Li  Li0  1  0.46817814  0.50804021  0.52514860  1
  Li  Li1  1  0.00667426  0.00804021  0.52514860  1
  Cr  Cr2  1  0.64048446  0.92703319  0.21945849  1
  Cr  Cr3  1  0.14005704  0.42703319  0.21945749  1
  Cr  Cr4  1  0.35969831  0.08303293  0.78445292  1
  Cr  Cr5  1  0.85584777  0.58303293  0.78445292  1
  P  P6  1  0.24694050  0.75383842  0.29325684  1
  P  P7  1  0.74840282  0.25128252  0.71523977  1
  P  P8  1  0.03780569  0.25935260  0.00036941  1
  P  P9  1  0.45980267  0.25383842  0.29325684  1
  P  P10  1  0.53635640  0.75128252  0.71524077  1
  P  P11  1  0.96182491  0.75935360  0.00036941  1
  O  O12  1  0.55504111  0.74195738  0.53048187  1
  O  O13  1  0.49472304  0.06856019  0.31244117  1
  O  O14  1  0.80159565  0.43318155  0.69796176  1
  O  O15  1  0.87415255  0.07725124  0.13152266  1
  O  O16  1  0.12319092  0.94526727  0.87355168  1
  O  O17  1  0.00325841  0.44526727  0.87355168  1
  O  O18  1  0.50044259  0.93318155  0.69796276  1
  O  O19  1  0.07948652  0.76016048  0.48054416  1
  O  O20  1  0.37600938  0.56684914  0.93411346  1
  O  O21  1  0.23315731  0.27148773  0.82423755  1
  O  O22  1  0.99432579  0.57725224  0.13152166  1
  O  O23  1  0.29840061  0.93718210  0.07777254  1
  O  O24  1  0.73083281  0.75898445  0.68958972  1
  O  O25  1  0.62382585  0.43718210  0.07777154  1
  O  O26  1  0.94260514  0.77148773  0.82423855  1
  O  O27  1  0.19283780  0.56856119  0.31244017  1
  O  O28  1  0.91447802  0.24195738  0.53048187  1
  O  O29  1  0.05962693  0.25333919  0.17421213  1
  O  O30  1  0.57957847  0.25898445  0.68958872  1
  O  O31  1  0.26515706  0.24159341  0.32231927  1
  O  O32  1  0.43996831  0.26016148  0.48054416  1
  O  O33  1  0.68987815  0.06684914  0.93411246  1
  O  O34  1  0.76615994  0.75333919  0.17421313  1
  O  O35  1  0.41252367  0.74159241  0.32232027  1
