# generated using pymatgen
data_Ti2As4W3
_symmetry_space_group_name_H-M   'P 1'
_cell_length_a   3.36294584
_cell_length_b   14.10465915
_cell_length_c   10.27788755
_cell_angle_alpha   43.14941816
_cell_angle_beta   70.89203703
_cell_angle_gamma   76.20056120
_symmetry_Int_Tables_number   1
_chemical_formula_structural   Ti2As4W3
_chemical_formula_sum   'Ti4 As8 W6'
_cell_volume   315.04195987
_cell_formula_units_Z   2
loop_
 _symmetry_equiv_pos_site_id
 _symmetry_equiv_pos_as_xyz
  1  'x, y, z'
loop_
 _atom_site_type_symbol
 _atom_site_label
 _atom_site_symmetry_multiplicity
 _atom_site_fract_x
 _atom_site_fract_y
 _atom_site_fract_z
 _atom_site_occupancy
  Ti  Ti0  1  0.31233211  0.37589707  0.31178902  1
  Ti  Ti1  1  0.37688815  0.19024473  0.93303271  1
  Ti  Ti2  1  0.62311185  0.80975527  0.06696729  1
  Ti  Ti3  1  0.68766789  0.62410293  0.68821098  1
  As  As4  1  0.05943754  0.28461687  0.65572401  1
  As  As5  1  0.05458886  0.78543654  0.66017370  1
  As  As6  1  0.28094389  0.44153839  0.77740444  1
  As  As7  1  0.71783826  0.05394337  0.22809558  1
  As  As8  1  0.28216174  0.94605663  0.77190442  1
  As  As9  1  0.71905611  0.55846161  0.22259556  1
  As  As10  1  0.94541114  0.21456346  0.33982630  1
  As  As11  1  0.94056246  0.71538313  0.34427599  1
  W  W12  1  0.00000000  0.00000000  -0.00000000  1
  W  W13  1  0.62664833  0.30046536  0.07309524  1
  W  W14  1  0.30208597  0.87249244  0.32489866  1
  W  W15  1  0.69791403  0.12750756  0.67510134  1
  W  W16  1  0.37335167  0.69953464  0.92690476  1
  W  W17  1  0.00000000  0.50000000  -0.00000000  1
