# generated using pymatgen
data_NaCu2O3
_symmetry_space_group_name_H-M   'P 1'
_cell_length_a   3.79244609
_cell_length_b   10.08251695
_cell_length_c   3.91569776
_cell_angle_alpha   90.00000000
_cell_angle_beta   90.00000000
_cell_angle_gamma   90.00000000
_symmetry_Int_Tables_number   1
_chemical_formula_structural   NaCu2O3
_chemical_formula_sum   'Na2 Cu4 O6'
_cell_volume   149.72610930
_cell_formula_units_Z   2
loop_
 _symmetry_equiv_pos_site_id
 _symmetry_equiv_pos_as_xyz
  1  'x, y, z'
loop_
 _atom_site_type_symbol
 _atom_site_label
 _atom_site_symmetry_multiplicity
 _atom_site_fract_x
 _atom_site_fract_y
 _atom_site_fract_z
 _atom_site_occupancy
  Na  Na0  1  0.25000000  0.25000000  0.30428274  1
  Na  Na1  1  0.75000000  0.75000000  0.69571726  1
  Cu  Cu2  1  0.25000000  0.59140828  0.15665377  1
  Cu  Cu3  1  0.25000000  0.90859172  0.15665377  1
  Cu  Cu4  1  0.75000000  0.09140828  0.84334623  1
  Cu  Cu5  1  0.75000000  0.40859172  0.84334623  1
  O  O6  1  0.25000000  0.07005268  0.90946699  1
  O  O7  1  0.25000000  0.75000000  0.39224380  1
  O  O8  1  0.25000000  0.42994732  0.90946699  1
  O  O9  1  0.75000000  0.25000000  0.60775620  1
  O  O10  1  0.75000000  0.57005268  0.09053301  1
  O  O11  1  0.75000000  0.92994732  0.09053301  1
