# generated using pymatgen
data_Na5Ni2P2(CO7)2
_symmetry_space_group_name_H-M   'P 1'
_cell_length_a   11.07238785
_cell_length_b   5.22552640
_cell_length_c   11.11133017
_cell_angle_alpha   88.93191555
_cell_angle_beta   73.21960781
_cell_angle_gamma   88.91938917
_symmetry_Int_Tables_number   1
_chemical_formula_structural   Na5Ni2P2(CO7)2
_chemical_formula_sum   'Na10 Ni4 P4 C4 O28'
_cell_volume   615.34775959
_cell_formula_units_Z   2
loop_
 _symmetry_equiv_pos_site_id
 _symmetry_equiv_pos_as_xyz
  1  'x, y, z'
loop_
 _atom_site_type_symbol
 _atom_site_label
 _atom_site_symmetry_multiplicity
 _atom_site_fract_x
 _atom_site_fract_y
 _atom_site_fract_z
 _atom_site_occupancy
  Na  Na0  1  0.11783652  0.24466174  0.13183277  1
  Na  Na1  1  0.62157452  0.75069641  0.12234068  1
  Na  Na2  1  0.36958545  0.74449492  0.36472670  1
  Na  Na3  1  0.11066991  0.74966647  0.62554722  1
  Na  Na4  1  0.58716946  0.22801857  0.33377477  1
  Na  Na5  1  0.41283054  0.77198143  0.66622523  1
  Na  Na6  1  0.63041455  0.25550508  0.63527330  1
  Na  Na7  1  0.88933009  0.25033353  0.37445278  1
  Na  Na8  1  0.37842548  0.24930359  0.87765932  1
  Na  Na9  1  0.88216348  0.75533826  0.86816723  1
  Ni  Ni10  1  0.29788818  0.77807775  0.05190867  1
  Ni  Ni11  1  0.19962518  0.21964170  0.45211224  1
  Ni  Ni12  1  0.80037482  0.78035830  0.54788776  1
  Ni  Ni13  1  0.70211182  0.22192225  0.94809133  1
  P  P14  1  0.08589589  0.71700325  0.33379220  1
  P  P15  1  0.41638064  0.28282215  0.16374923  1
  P  P16  1  0.58361936  0.71717785  0.83625077  1
  P  P17  1  0.91410411  0.28299675  0.66620780  1
  C  C18  1  0.83893228  0.28745936  0.08910134  1
  C  C19  1  0.34364414  0.28466070  0.59231996  1
  C  C20  1  0.16106772  0.71254064  0.91089866  1
  C  C21  1  0.65635586  0.71533930  0.40768004  1
  O  O22  1  0.13568111  0.79603188  0.19187902  1
  O  O23  1  0.34054644  0.14203108  0.08969666  1
  O  O24  1  0.10281150  0.42095256  0.34627137  1
  O  O25  1  0.39995312  0.57989900  0.14666125  1
  O  O26  1  0.16218710  0.85342018  0.41022509  1
  O  O27  1  0.05468305  0.20600830  0.62094479  1
  O  O28  1  0.56022677  0.21467131  0.11780668  1
  O  O29  1  0.37558067  0.21530629  0.30591559  1
  O  O30  1  0.29666844  0.48320527  0.54790476  1
  O  O31  1  0.79207017  0.47705563  0.03767477  1
  O  O32  1  0.80868409  0.06011652  0.05996873  1
  O  O33  1  0.31680797  0.05906673  0.56036433  1
  O  O34  1  0.58360332  0.68860229  0.33634510  1
  O  O35  1  0.09527237  0.68404977  0.83683306  1
  O  O36  1  0.90472763  0.31595023  0.16316694  1
  O  O37  1  0.41639668  0.31139771  0.66365490  1
  O  O38  1  0.19131591  0.93988348  0.94003127  1
  O  O39  1  0.68319203  0.94093327  0.43963567  1
  O  O40  1  0.70333156  0.51679473  0.45209524  1
  O  O41  1  0.20792983  0.52294437  0.96232523  1
  O  O42  1  0.94531695  0.79399170  0.37905521  1
  O  O43  1  0.43977323  0.78532869  0.88219332  1
  O  O44  1  0.62441933  0.78469371  0.69408441  1
  O  O45  1  0.83781290  0.14657982  0.58977491  1
  O  O46  1  0.60004688  0.42010100  0.85333875  1
  O  O47  1  0.89718850  0.57904744  0.65372863  1
  O  O48  1  0.65945356  0.85796892  0.91030334  1
  O  O49  1  0.86431889  0.20396812  0.80812098  1
