# generated using pymatgen
data_KV5S8
_symmetry_space_group_name_H-M   'P 1'
_cell_length_a   3.31249137
_cell_length_b   8.78543729
_cell_length_c   8.88183733
_cell_angle_alpha   103.79822120
_cell_angle_beta   100.74717352
_cell_angle_gamma   90.00000000
_symmetry_Int_Tables_number   1
_chemical_formula_structural   KV5S8
_chemical_formula_sum   'K1 V5 S8'
_cell_volume   246.34621754
_cell_formula_units_Z   1
loop_
 _symmetry_equiv_pos_site_id
 _symmetry_equiv_pos_as_xyz
  1  'x, y, z'
loop_
 _atom_site_type_symbol
 _atom_site_label
 _atom_site_symmetry_multiplicity
 _atom_site_fract_x
 _atom_site_fract_y
 _atom_site_fract_z
 _atom_site_occupancy
  K  K0  1  0.50000000  0.50000000  -0.00000000  1
  V  V1  1  -0.00000000  -0.00000000  -0.00000000  1
  V  V2  1  0.64703448  0.98653164  0.29406896  1
  V  V3  1  0.35296552  0.01346836  0.70593104  1
  V  V4  1  0.70778619  0.33347131  0.41557239  1
  V  V5  1  0.29221381  0.66652869  0.58442761  1
  S  S6  1  0.42608910  0.83234534  0.85217820  1
  S  S7  1  0.57391090  0.16765466  0.14782180  1
  S  S8  1  0.91638365  0.18347614  0.83276730  1
  S  S9  1  0.08361635  0.81652386  0.16723270  1
  S  S10  1  0.83469238  0.50776654  0.66938477  1
  S  S11  1  0.16530762  0.49223346  0.33061523  1
  S  S12  1  0.76022990  0.84973603  0.52045980  1
  S  S13  1  0.23977010  0.15026397  0.47954020  1
