# generated using pymatgen
data_HoWClO4
_symmetry_space_group_name_H-M   'P 1'
_cell_length_a   6.34135908
_cell_length_b   6.34135908
_cell_length_c   6.97127830
_cell_angle_alpha   75.51586721
_cell_angle_beta   75.51586721
_cell_angle_gamma   70.55018060
_symmetry_Int_Tables_number   1
_chemical_formula_structural   HoWClO4
_chemical_formula_sum   'Ho2 W2 Cl2 O8'
_cell_volume   251.62635554
_cell_formula_units_Z   2
loop_
 _symmetry_equiv_pos_site_id
 _symmetry_equiv_pos_as_xyz
  1  'x, y, z'
loop_
 _atom_site_type_symbol
 _atom_site_label
 _atom_site_symmetry_multiplicity
 _atom_site_fract_x
 _atom_site_fract_y
 _atom_site_fract_z
 _atom_site_occupancy
  Ho  Ho0  1  0.77753892  0.77753892  0.11781044  1
  Ho  Ho1  1  0.22246108  0.22246108  0.88218956  1
  W  W2  1  0.63689180  0.63689180  0.73345575  1
  W  W3  1  0.36310820  0.36310820  0.26654425  1
  Cl  Cl4  1  0.98890586  0.98890586  0.77062263  1
  Cl  Cl5  1  0.01109414  0.01109414  0.22937737  1
  O  O6  1  0.70412020  0.70412020  0.46373298  1
  O  O7  1  0.29587980  0.29587980  0.53626702  1
  O  O8  1  0.54626222  0.54626222  0.19357353  1
  O  O9  1  0.45373778  0.45373778  0.80642647  1
  O  O10  1  0.10625667  0.49210203  0.15525641  1
  O  O11  1  0.49210203  0.10625667  0.15525641  1
  O  O12  1  0.89374333  0.50789797  0.84474359  1
  O  O13  1  0.50789797  0.89374333  0.84474359  1
