# generated using pymatgen
data_Sm(MnSn)6
_symmetry_space_group_name_H-M   'P 1'
_cell_length_a   5.47349131
_cell_length_b   5.47092995
_cell_length_c   9.04850127
_cell_angle_alpha   90.00000000
_cell_angle_beta   90.00000000
_cell_angle_gamma   120.01548270
_symmetry_Int_Tables_number   1
_chemical_formula_structural   Sm(MnSn)6
_chemical_formula_sum   'Sm1 Mn6 Sn6'
_cell_volume   234.62003409
_cell_formula_units_Z   1
loop_
 _symmetry_equiv_pos_site_id
 _symmetry_equiv_pos_as_xyz
  1  'x, y, z'
loop_
 _atom_site_type_symbol
 _atom_site_label
 _atom_site_symmetry_multiplicity
 _atom_site_fract_x
 _atom_site_fract_y
 _atom_site_fract_z
 _atom_site_occupancy
  Sm  Sm0  1  0.00000392  0.00000000  -0.00000000  1
  Mn  Mn1  1  0.49998096  1.00000000  0.24846857  1
  Mn  Mn2  1  0.49998736  0.50001259  0.24851042  1
  Mn  Mn3  1  0.99997477  0.49998741  0.24851042  1
  Mn  Mn4  1  0.49998096  1.00000000  0.75153143  1
  Mn  Mn5  1  0.49998736  0.50001259  0.75148958  1
  Mn  Mn6  1  0.99997477  0.49998741  0.75148958  1
  Sn  Sn7  1  0.33341003  0.66679834  -0.00000000  1
  Sn  Sn8  1  0.66661169  0.33320166  -0.00000000  1
  Sn  Sn9  1  0.33332730  0.66676664  0.50000000  1
  Sn  Sn10  1  0.66656067  0.33323336  0.50000000  1
  Sn  Sn11  1  0.00000011  0.00000000  0.33463971  1
  Sn  Sn12  1  0.00000011  0.00000000  0.66536029  1
