# generated using pymatgen
data_Tb3Ga9Pt2
_symmetry_space_group_name_H-M   'P 1'
_cell_length_a   4.28663432
_cell_length_b   8.18981367
_cell_length_c   8.18981367
_cell_angle_alpha   71.84046850
_cell_angle_beta   74.82872728
_cell_angle_gamma   74.82872728
_symmetry_Int_Tables_number   1
_chemical_formula_structural   Tb3Ga9Pt2
_chemical_formula_sum   'Tb3 Ga9 Pt2'
_cell_volume   258.53859761
_cell_formula_units_Z   1
loop_
 _symmetry_equiv_pos_site_id
 _symmetry_equiv_pos_as_xyz
  1  'x, y, z'
loop_
 _atom_site_type_symbol
 _atom_site_label
 _atom_site_symmetry_multiplicity
 _atom_site_fract_x
 _atom_site_fract_y
 _atom_site_fract_z
 _atom_site_occupancy
  Tb  Tb0  1  -0.00000000  -0.00000000  0.00000000  1
  Tb  Tb1  1  0.30403951  0.69596049  0.69596049  1
  Tb  Tb2  1  0.69596049  0.30403951  0.30403951  1
  Ga  Ga3  1  -0.00000000  0.50000000  0.50000000  1
  Ga  Ga4  1  0.34398168  0.28780711  0.02422953  1
  Ga  Ga5  1  0.65601832  0.71219289  0.97577047  1
  Ga  Ga6  1  0.34398168  0.02422953  0.28780711  1
  Ga  Ga7  1  0.65601832  0.97577047  0.71219289  1
  Ga  Ga8  1  0.13903095  0.57948814  0.14244995  1
  Ga  Ga9  1  0.86096905  0.42051186  0.85755005  1
  Ga  Ga10  1  0.13903095  0.14244995  0.57948814  1
  Ga  Ga11  1  0.86096905  0.85755005  0.42051186  1
  Pt  Pt12  1  0.50000000  0.30810801  0.69189199  1
  Pt  Pt13  1  0.50000000  0.69189199  0.30810801  1
