# generated using pymatgen
data_Ho3Ga8Ir3
_symmetry_space_group_name_H-M   'P 1'
_cell_length_a   4.19433751
_cell_length_b   8.14139427
_cell_length_c   8.14139427
_cell_angle_alpha   74.92300921
_cell_angle_beta   75.07269408
_cell_angle_gamma   75.07269408
_symmetry_Int_Tables_number   1
_chemical_formula_structural   Ho3Ga8Ir3
_chemical_formula_sum   'Ho3 Ga8 Ir3'
_cell_volume   253.91193938
_cell_formula_units_Z   1
loop_
 _symmetry_equiv_pos_site_id
 _symmetry_equiv_pos_as_xyz
  1  'x, y, z'
loop_
 _atom_site_type_symbol
 _atom_site_label
 _atom_site_symmetry_multiplicity
 _atom_site_fract_x
 _atom_site_fract_y
 _atom_site_fract_z
 _atom_site_occupancy
  Ho  Ho0  1  0.50000000  0.50000000  0.50000000  1
  Ho  Ho1  1  0.17222873  0.82777127  0.82777127  1
  Ho  Ho2  1  0.82777127  0.17222873  0.17222873  1
  Ga  Ga3  1  0.37455809  0.33825586  0.91262795  1
  Ga  Ga4  1  0.62544191  0.66174414  0.08737205  1
  Ga  Ga5  1  0.37455809  0.91262795  0.33825586  1
  Ga  Ga6  1  0.62544191  0.08737205  0.66174414  1
  Ga  Ga7  1  0.16500569  0.46314897  0.20683966  1
  Ga  Ga8  1  0.83499431  0.53685103  0.79316034  1
  Ga  Ga9  1  0.16500569  0.20683966  0.46314897  1
  Ga  Ga10  1  0.83499431  0.79316034  0.53685103  1
  Ir  Ir11  1  0.50000000  -0.00000000  -0.00000000  1
  Ir  Ir12  1  0.00000000  0.78607728  0.21392272  1
  Ir  Ir13  1  -0.00000000  0.21392272  0.78607728  1
