# generated using pymatgen
data_NdGaCo
_symmetry_space_group_name_H-M   'P 1'
_cell_length_a   4.32435597
_cell_length_b   7.05811143
_cell_length_c   7.47116889
_cell_angle_alpha   90.00000000
_cell_angle_beta   90.00000000
_cell_angle_gamma   90.00000000
_symmetry_Int_Tables_number   1
_chemical_formula_structural   NdGaCo
_chemical_formula_sum   'Nd4 Ga4 Co4'
_cell_volume   228.03342027
_cell_formula_units_Z   4
loop_
 _symmetry_equiv_pos_site_id
 _symmetry_equiv_pos_as_xyz
  1  'x, y, z'
loop_
 _atom_site_type_symbol
 _atom_site_label
 _atom_site_symmetry_multiplicity
 _atom_site_fract_x
 _atom_site_fract_y
 _atom_site_fract_z
 _atom_site_occupancy
  Nd  Nd0  1  0.75000000  0.47924949  0.68936642  1
  Nd  Nd1  1  0.75000000  0.97924949  0.81063358  1
  Nd  Nd2  1  0.25000000  0.52075051  0.31063358  1
  Nd  Nd3  1  0.25000000  0.02075051  0.18936642  1
  Ga  Ga4  1  0.75000000  0.33388505  0.07756861  1
  Ga  Ga5  1  0.75000000  0.83388505  0.42243139  1
  Ga  Ga6  1  0.25000000  0.66611495  0.92243139  1
  Ga  Ga7  1  0.25000000  0.16611495  0.57756861  1
  Co  Co8  1  0.75000000  0.69675258  0.10328286  1
  Co  Co9  1  0.75000000  0.19675258  0.39671714  1
  Co  Co10  1  0.25000000  0.30324742  0.89671714  1
  Co  Co11  1  0.25000000  0.80324742  0.60328286  1
