# generated using pymatgen
data_Bi8Pt5I3
_symmetry_space_group_name_H-M   'P 1'
_cell_length_a   4.00886259
_cell_length_b   9.52772683
_cell_length_c   13.40600175
_cell_angle_alpha   71.00899312
_cell_angle_beta   81.40103445
_cell_angle_gamma   77.85544811
_symmetry_Int_Tables_number   1
_chemical_formula_structural   Bi8Pt5I3
_chemical_formula_sum   'Bi8 Pt5 I3'
_cell_volume   471.51696920
_cell_formula_units_Z   1
loop_
 _symmetry_equiv_pos_site_id
 _symmetry_equiv_pos_as_xyz
  1  'x, y, z'
loop_
 _atom_site_type_symbol
 _atom_site_label
 _atom_site_symmetry_multiplicity
 _atom_site_fract_x
 _atom_site_fract_y
 _atom_site_fract_z
 _atom_site_occupancy
  Bi  Bi0  1  0.89603323  0.72916560  0.47876793  1
  Bi  Bi1  1  0.10396677  0.27083440  0.52123207  1
  Bi  Bi2  1  0.32527315  0.62110799  0.72834570  1
  Bi  Bi3  1  0.67472685  0.37889201  0.27165430  1
  Bi  Bi4  1  0.48310604  0.25189450  0.78189341  1
  Bi  Bi5  1  0.51689396  0.74810550  0.21810659  1
  Bi  Bi6  1  0.68249170  0.66180191  0.97321469  1
  Bi  Bi7  1  0.31750830  0.33819809  0.02678531  1
  Pt  Pt8  1  0.50000000  0.50000000  0.50000000  1
  Pt  Pt9  1  0.94673548  0.44861559  0.65791345  1
  Pt  Pt10  1  0.05326452  0.55138441  0.34208655  1
  Pt  Pt11  1  0.84760092  0.43282658  0.87197158  1
  Pt  Pt12  1  0.15239908  0.56717342  0.12802842  1
  I  I13  1  0.00000000  -0.00000000  -0.00000000  1
  I  I14  1  0.68426078  0.95835997  0.67311848  1
  I  I15  1  0.31573922  0.04164003  0.32688152  1
