# generated using pymatgen
data_Gd3SbO3
_symmetry_space_group_name_H-M   'P 1'
_cell_length_a   3.92992395
_cell_length_b   6.97217576
_cell_length_c   10.74970458
_cell_angle_alpha   81.90876417
_cell_angle_beta   79.46756321
_cell_angle_gamma   73.63060246
_symmetry_Int_Tables_number   1
_chemical_formula_structural   Gd3SbO3
_chemical_formula_sum   'Gd6 Sb2 O6'
_cell_volume   276.59640606
_cell_formula_units_Z   2
loop_
 _symmetry_equiv_pos_site_id
 _symmetry_equiv_pos_as_xyz
  1  'x, y, z'
loop_
 _atom_site_type_symbol
 _atom_site_label
 _atom_site_symmetry_multiplicity
 _atom_site_fract_x
 _atom_site_fract_y
 _atom_site_fract_z
 _atom_site_occupancy
  Gd  Gd0  1  0.11963881  0.20290648  0.55781590  1
  Gd  Gd1  1  0.88036119  0.79709352  0.44218410  1
  Gd  Gd2  1  0.34293462  0.10644862  0.20768214  1
  Gd  Gd3  1  0.65706538  0.89355138  0.79231786  1
  Gd  Gd4  1  0.87188728  0.35575060  0.90047484  1
  Gd  Gd5  1  0.12811272  0.64424940  0.09952516  1
  Sb  Sb6  1  0.38145389  0.55668304  0.68040919  1
  Sb  Sb7  1  0.61854611  0.44331696  0.31959081  1
  O  O8  1  0.30974339  0.97064937  0.40986386  1
  O  O9  1  0.69025661  0.02935063  0.59013614  1
  O  O10  1  0.33576491  0.31317354  0.01529664  1
  O  O11  1  0.66423509  0.68682646  0.98470336  1
  O  O12  1  0.93631747  0.93049750  0.19686756  1
  O  O13  1  0.06368253  0.06950250  0.80313244  1
