# generated using pymatgen
data_Tm(Mo3S4)2
_symmetry_space_group_name_H-M   'P 1'
_cell_length_a   6.48547927
_cell_length_b   6.48547959
_cell_length_c   6.48547927
_cell_angle_alpha   89.63848612
_cell_angle_beta   90.36151971
_cell_angle_gamma   90.36151396
_symmetry_Int_Tables_number   1
_chemical_formula_structural   Tm(Mo3S4)2
_chemical_formula_sum   'Tm1 Mo6 S8'
_cell_volume   272.77239746
_cell_formula_units_Z   1
loop_
 _symmetry_equiv_pos_site_id
 _symmetry_equiv_pos_as_xyz
  1  'x, y, z'
loop_
 _atom_site_type_symbol
 _atom_site_label
 _atom_site_symmetry_multiplicity
 _atom_site_fract_x
 _atom_site_fract_y
 _atom_site_fract_z
 _atom_site_occupancy
  Tm  Tm0  1  -0.00000000  0.00000000  0.00000000  1
  Mo  Mo1  1  0.41981101  0.44064498  0.77765433  1
  Mo  Mo2  1  0.22234567  0.58018899  0.44064498  1
  Mo  Mo3  1  0.55935502  0.77765433  0.58018899  1
  Mo  Mo4  1  0.58018899  0.55935502  0.22234567  1
  Mo  Mo5  1  0.77765433  0.41981101  0.55935502  1
  Mo  Mo6  1  0.44064498  0.22234567  0.41981101  1
  S  S7  1  0.23600334  0.76399666  0.76399666  1
  S  S8  1  0.76399666  0.23600334  0.23600334  1
  S  S9  1  0.36625210  0.87185584  0.24690973  1
  S  S10  1  0.75309027  0.63374790  0.87185584  1
  S  S11  1  0.12814416  0.24690973  0.63374790  1
  S  S12  1  0.63374790  0.12814416  0.75309027  1
  S  S13  1  0.24690973  0.36625210  0.12814416  1
  S  S14  1  0.87185584  0.75309027  0.36625210  1
