# generated using pymatgen
data_Mn7PbO12
_symmetry_space_group_name_H-M   'P 1'
_cell_length_a   6.54025774
_cell_length_b   6.54679254
_cell_length_c   6.54679222
_cell_angle_alpha   109.49142998
_cell_angle_beta   109.45100569
_cell_angle_gamma   109.45100474
_symmetry_Int_Tables_number   1
_chemical_formula_structural   Mn7PbO12
_chemical_formula_sum   'Mn7 Pb1 O12'
_cell_volume   215.84320988
_cell_formula_units_Z   1
loop_
 _symmetry_equiv_pos_site_id
 _symmetry_equiv_pos_as_xyz
  1  'x, y, z'
loop_
 _atom_site_type_symbol
 _atom_site_label
 _atom_site_symmetry_multiplicity
 _atom_site_fract_x
 _atom_site_fract_y
 _atom_site_fract_z
 _atom_site_occupancy
  Mn  Mn0  1  0.50000000  -0.00000000  0.50000000  1
  Mn  Mn1  1  0.00000000  0.50000000  0.50000000  1
  Mn  Mn2  1  0.50000000  0.50000000  -0.00000000  1
  Mn  Mn3  1  0.00000000  -0.00000000  0.50000000  1
  Mn  Mn4  1  0.50000000  0.50000000  0.50000000  1
  Mn  Mn5  1  0.00000000  0.50000000  -0.00000000  1
  Mn  Mn6  1  0.50000000  -0.00000000  -0.00000000  1
  Pb  Pb7  1  0.00000000  -0.00000000  -0.00000000  1
  O  O8  1  0.13224626  0.82226198  0.32446551  1
  O  O9  1  0.80778075  0.67553449  0.49779647  1
  O  O10  1  0.30998428  0.50220353  0.17773802  1
  O  O11  1  0.86775374  0.17773802  0.67553449  1
  O  O12  1  0.19221925  0.32446551  0.50220353  1
  O  O13  1  0.69001572  0.49779647  0.82226198  1
  O  O14  1  0.51139019  0.82805483  0.69289000  1
  O  O15  1  0.81850020  0.30711000  0.13516483  1
  O  O16  1  0.68333536  0.86483517  0.17194517  1
  O  O17  1  0.48860981  0.17194517  0.30711000  1
  O  O18  1  0.18149980  0.69289000  0.86483517  1
  O  O19  1  0.31666464  0.13516483  0.82805483  1
