# generated using pymatgen
data_Ca2TaSbO6
_symmetry_space_group_name_H-M   'P 1'
_cell_length_a   5.71925406
_cell_length_b   5.92354669
_cell_length_c   8.03606470
_cell_angle_alpha   90.00000000
_cell_angle_beta   90.00000000
_cell_angle_gamma   90.96314364
_symmetry_Int_Tables_number   1
_chemical_formula_structural   Ca2TaSbO6
_chemical_formula_sum   'Ca4 Ta2 Sb2 O12'
_cell_volume   272.20949251
_cell_formula_units_Z   2
loop_
 _symmetry_equiv_pos_site_id
 _symmetry_equiv_pos_as_xyz
  1  'x, y, z'
loop_
 _atom_site_type_symbol
 _atom_site_label
 _atom_site_symmetry_multiplicity
 _atom_site_fract_x
 _atom_site_fract_y
 _atom_site_fract_z
 _atom_site_occupancy
  Ca  Ca0  1  0.51055715  0.55201342  0.75000000  1
  Ca  Ca1  1  0.48944285  0.44798658  0.25000000  1
  Ca  Ca2  1  0.99471715  0.05669992  0.75000000  1
  Ca  Ca3  1  0.00528285  0.94330008  0.25000000  1
  Ta  Ta4  1  0.50000000  0.00000000  0.50000000  1
  Ta  Ta5  1  0.50000000  0.00000000  0.00000000  1
  Sb  Sb6  1  0.00000000  0.50000000  0.50000000  1
  Sb  Sb7  1  0.00000000  0.50000000  0.00000000  1
  O  O8  1  0.33537263  0.71140439  0.44302274  1
  O  O9  1  0.21189240  0.16814555  0.05718251  1
  O  O10  1  0.66462737  0.28859561  0.94302274  1
  O  O11  1  0.78810760  0.83185445  0.55718251  1
  O  O12  1  0.21189240  0.16814555  0.44281749  1
  O  O13  1  0.78810760  0.83185445  0.94281749  1
  O  O14  1  0.87119267  0.55953285  0.25000000  1
  O  O15  1  0.33537263  0.71140439  0.05697726  1
  O  O16  1  0.39827992  0.95912041  0.75000000  1
  O  O17  1  0.66462737  0.28859561  0.55697726  1
  O  O18  1  0.12880733  0.44046715  0.75000000  1
  O  O19  1  0.60172008  0.04087959  0.25000000  1
