# generated using pymatgen
data_Rb2TmCuCl6
_symmetry_space_group_name_H-M   'P 1'
_cell_length_a   7.32421708
_cell_length_b   7.32421736
_cell_length_c   7.32421735
_cell_angle_alpha   59.99999908
_cell_angle_beta   59.99999854
_cell_angle_gamma   59.99999864
_symmetry_Int_Tables_number   1
_chemical_formula_structural   Rb2TmCuCl6
_chemical_formula_sum   'Rb2 Tm1 Cu1 Cl6'
_cell_volume   277.82328727
_cell_formula_units_Z   1
loop_
 _symmetry_equiv_pos_site_id
 _symmetry_equiv_pos_as_xyz
  1  'x, y, z'
loop_
 _atom_site_type_symbol
 _atom_site_label
 _atom_site_symmetry_multiplicity
 _atom_site_fract_x
 _atom_site_fract_y
 _atom_site_fract_z
 _atom_site_occupancy
  Rb  Rb0  1  0.25000000  0.25000000  0.25000000  1
  Rb  Rb1  1  0.75000000  0.75000000  0.75000000  1
  Tm  Tm2  1  -0.00000000  0.00000000  -0.00000000  1
  Cu  Cu3  1  0.50000000  0.50000000  0.50000000  1
  Cl  Cl4  1  0.25148868  0.74851132  0.25148868  1
  Cl  Cl5  1  0.74851132  0.74851132  0.25148868  1
  Cl  Cl6  1  0.74851132  0.25148868  0.74851132  1
  Cl  Cl7  1  0.74851132  0.25148868  0.25148868  1
  Cl  Cl8  1  0.25148868  0.74851132  0.74851132  1
  Cl  Cl9  1  0.25148868  0.25148868  0.74851132  1
