# generated using pymatgen
data_CaU(PbO3)2
_symmetry_space_group_name_H-M   'P 1'
_cell_length_a   6.23986723
_cell_length_b   5.95724624
_cell_length_c   8.69667514
_cell_angle_alpha   90.06578505
_cell_angle_beta   90.00000000
_cell_angle_gamma   90.00000000
_symmetry_Int_Tables_number   1
_chemical_formula_structural   CaU(PbO3)2
_chemical_formula_sum   'Ca2 U2 Pb4 O12'
_cell_volume   323.27629669
_cell_formula_units_Z   2
loop_
 _symmetry_equiv_pos_site_id
 _symmetry_equiv_pos_as_xyz
  1  'x, y, z'
loop_
 _atom_site_type_symbol
 _atom_site_label
 _atom_site_symmetry_multiplicity
 _atom_site_fract_x
 _atom_site_fract_y
 _atom_site_fract_z
 _atom_site_occupancy
  Ca  Ca0  1  0.50000000  -0.00000000  0.50000000  1
  Ca  Ca1  1  -0.00000000  0.50000000  -0.00000000  1
  U  U2  1  0.50000000  -0.00000000  -0.00000000  1
  U  U3  1  -0.00000000  0.50000000  0.50000000  1
  Pb  Pb4  1  0.45442271  0.51057895  0.77050698  1
  Pb  Pb5  1  0.04557729  0.01057895  0.27050698  1
  Pb  Pb6  1  0.54557729  0.48942105  0.22949302  1
  Pb  Pb7  1  0.95442271  0.98942105  0.72949302  1
  O  O8  1  0.04700120  0.59282546  0.73757062  1
  O  O9  1  0.45299880  0.09282546  0.23757062  1
  O  O10  1  0.95299880  0.40717454  0.26242938  1
  O  O11  1  0.54700120  0.90717454  0.76242938  1
  O  O12  1  0.17074592  0.19314348  0.52515492  1
  O  O13  1  0.32925408  0.69314348  0.02515492  1
  O  O14  1  0.82925408  0.80685652  0.47484508  1
  O  O15  1  0.67074592  0.30685652  0.97484508  1
  O  O16  1  0.27127131  0.67444295  0.44600474  1
  O  O17  1  0.22872869  0.17444295  0.94600474  1
  O  O18  1  0.72872869  0.32555705  0.55399526  1
  O  O19  1  0.77127131  0.82555705  0.05399526  1
