# generated using pymatgen
data_Ca2V2O5
_symmetry_space_group_name_H-M   'P 1'
_cell_length_a   3.97194792
_cell_length_b   5.52549955
_cell_length_c   10.26906085
_cell_angle_alpha   90.00107667
_cell_angle_beta   89.99997196
_cell_angle_gamma   89.99998570
_symmetry_Int_Tables_number   1
_chemical_formula_structural   Ca2V2O5
_chemical_formula_sum   'Ca4 V4 O10'
_cell_volume   225.37504194
_cell_formula_units_Z   2
loop_
 _symmetry_equiv_pos_site_id
 _symmetry_equiv_pos_as_xyz
  1  'x, y, z'
loop_
 _atom_site_type_symbol
 _atom_site_label
 _atom_site_symmetry_multiplicity
 _atom_site_fract_x
 _atom_site_fract_y
 _atom_site_fract_z
 _atom_site_occupancy
  Ca  Ca0  1  0.49999980  0.20870937  0.87530795  1
  Ca  Ca1  1  0.50000075  0.79121317  0.12464063  1
  Ca  Ca2  1  0.50000461  0.70858444  0.62469921  1
  Ca  Ca3  1  0.49999951  0.29121357  0.37537439  1
  V  V4  1  -0.00000115  0.22526714  0.62686356  1
  V  V5  1  0.00000429  0.77473169  0.37317435  1
  V  V6  1  0.00000812  0.27474478  0.12686134  1
  V  V7  1  0.00000003  0.72531438  0.87311778  1
  O  O8  1  -0.00000044  0.49990868  0.49996655  1
  O  O9  1  0.99999748  0.10318209  0.29884425  1
  O  O10  1  0.00000046  0.60320670  0.20117296  1
  O  O11  1  0.99999734  0.39681918  0.79883327  1
  O  O12  1  0.49999751  0.28832700  0.10667015  1
  O  O13  1  0.49999917  0.71186477  0.89321372  1
  O  O14  1  0.00000242  0.89677619  0.70111041  1
  O  O15  1  0.50000043  0.21188492  0.60678371  1
  O  O16  1  0.99999908  0.99997493  0.00000878  1
  O  O17  1  0.49999861  0.78827600  0.39335699  1
