# generated using pymatgen
data_KInSe2
_symmetry_space_group_name_H-M   'P 1'
_cell_length_a   7.54443397
_cell_length_b   7.54443322
_cell_length_c   7.22249057
_cell_angle_alpha   121.48582175
_cell_angle_beta   121.48582201
_cell_angle_gamma   90.00000008
_symmetry_Int_Tables_number   1
_chemical_formula_structural   KInSe2
_chemical_formula_sum   'K2 In2 Se4'
_cell_volume   277.12418943
_cell_formula_units_Z   2
loop_
 _symmetry_equiv_pos_site_id
 _symmetry_equiv_pos_as_xyz
  1  'x, y, z'
loop_
 _atom_site_type_symbol
 _atom_site_label
 _atom_site_symmetry_multiplicity
 _atom_site_fract_x
 _atom_site_fract_y
 _atom_site_fract_z
 _atom_site_occupancy
  K  K0  1  0.00000000  -0.00000000  0.00000000  1
  K  K1  1  0.25000000  0.75000000  0.50000000  1
  In  In2  1  0.50000000  0.50000000  0.00000000  1
  In  In3  1  0.75000000  0.25000000  0.50000000  1
  Se  Se4  1  0.44442744  0.37500000  0.25000000  1
  Se  Se5  1  0.80557256  0.87500000  0.25000000  1
  Se  Se6  1  0.12500000  0.55557256  0.75000000  1
  Se  Se7  1  0.62500000  0.19442744  0.75000000  1
