# generated using pymatgen
data_K2Fe4O7
_symmetry_space_group_name_H-M   'P 1'
_cell_length_a   5.30469036
_cell_length_b   5.31209379
_cell_length_c   6.98524337
_cell_angle_alpha   90.04641891
_cell_angle_beta   89.97676765
_cell_angle_gamma   120.04617928
_symmetry_Int_Tables_number   1
_chemical_formula_structural   K2Fe4O7
_chemical_formula_sum   'K2 Fe4 O7'
_cell_volume   170.38663438
_cell_formula_units_Z   1
loop_
 _symmetry_equiv_pos_site_id
 _symmetry_equiv_pos_as_xyz
  1  'x, y, z'
loop_
 _atom_site_type_symbol
 _atom_site_label
 _atom_site_symmetry_multiplicity
 _atom_site_fract_x
 _atom_site_fract_y
 _atom_site_fract_z
 _atom_site_occupancy
  K  K0  1  0.33369681  0.66675631  0.00002060  1
  K  K1  1  0.66630319  0.33306050  0.00002060  1
  Fe  Fe2  1  0.00000000  0.00012483  0.27137186  1
  Fe  Fe3  1  1.00000000  0.00015019  0.72877327  1
  Fe  Fe4  1  0.33348075  0.66672512  0.49999620  1
  Fe  Fe5  1  0.66651925  0.33324437  0.49999620  1
  O  O6  1  1.00000000  0.64723665  0.33605459  1
  O  O7  1  0.00000000  0.35260171  0.66350835  1
  O  O8  1  0.00000000  0.99999082  0.00003664  1
  O  O9  1  0.35372414  0.35350849  0.33552509  1
  O  O10  1  0.64636703  0.64649134  0.66458526  1
  O  O11  1  0.35363297  0.00012531  0.66458526  1
  O  O12  1  0.64627586  0.99978535  0.33552509  1
