# generated using pymatgen
data_MgCrO3
_symmetry_space_group_name_H-M   'P 1'
_cell_length_a   5.02308528
_cell_length_b   5.22871125
_cell_length_c   7.37066563
_cell_angle_alpha   89.99290490
_cell_angle_beta   90.00065257
_cell_angle_gamma   89.99864107
_symmetry_Int_Tables_number   1
_chemical_formula_structural   MgCrO3
_chemical_formula_sum   'Mg4 Cr4 O12'
_cell_volume   193.58509560
_cell_formula_units_Z   4
loop_
 _symmetry_equiv_pos_site_id
 _symmetry_equiv_pos_as_xyz
  1  'x, y, z'
loop_
 _atom_site_type_symbol
 _atom_site_label
 _atom_site_symmetry_multiplicity
 _atom_site_fract_x
 _atom_site_fract_y
 _atom_site_fract_z
 _atom_site_occupancy
  Mg  Mg0  1  0.98908244  0.06019817  0.24990759  1
  Mg  Mg1  1  0.48910266  0.43980407  0.75009174  1
  Mg  Mg2  1  0.51090071  0.56020401  0.24990551  1
  Mg  Mg3  1  0.01090467  0.93978585  0.75009241  1
  Cr  Cr4  1  0.49999432  0.00001641  -0.00002775  1
  Cr  Cr5  1  0.00000182  0.49999786  0.00000078  1
  Cr  Cr6  1  0.00001548  0.49997645  0.50001692  1
  Cr  Cr7  1  0.49999960  0.99999174  0.49999359  1
  O  O8  1  0.87658742  0.55526633  0.75003380  1
  O  O9  1  0.37659818  0.94476937  0.24995451  1
  O  O10  1  0.62340337  0.05524172  0.75003233  1
  O  O11  1  0.12341032  0.44472714  0.24998126  1
  O  O12  1  0.68297312  0.31340937  0.43575708  1
  O  O13  1  0.18297275  0.18659930  0.56425617  1
  O  O14  1  0.81697536  0.81327798  0.06423786  1
  O  O15  1  0.31697546  0.68674735  0.93578090  1
  O  O16  1  0.68301692  0.31326424  0.06421832  1
  O  O17  1  0.18301984  0.18673790  0.93575847  1
  O  O18  1  0.31702276  0.68659601  0.56425000  1
  O  O19  1  0.81704278  0.81339071  0.43575651  1
