# generated using pymatgen
data_NaBiS2
_symmetry_space_group_name_H-M   'P 1'
_cell_length_a   8.04680336
_cell_length_b   10.76483244
_cell_length_c   7.15056572
_cell_angle_alpha   29.00797001
_cell_angle_beta   55.75942051
_cell_angle_gamma   41.62499475
_symmetry_Int_Tables_number   1
_chemical_formula_structural   NaBiS2
_chemical_formula_sum   'Na2 Bi2 S4'
_cell_volume   191.37966551
_cell_formula_units_Z   2
loop_
 _symmetry_equiv_pos_site_id
 _symmetry_equiv_pos_as_xyz
  1  'x, y, z'
loop_
 _atom_site_type_symbol
 _atom_site_label
 _atom_site_symmetry_multiplicity
 _atom_site_fract_x
 _atom_site_fract_y
 _atom_site_fract_z
 _atom_site_occupancy
  Na  Na0  1  -0.00000000  0.00000000  -0.00000000  1
  Na  Na1  1  0.75000000  0.50000000  -0.00000000  1
  Bi  Bi2  1  0.25000000  0.50000000  -0.00000000  1
  Bi  Bi3  1  0.50000000  -0.00000000  -0.00000000  1
  S  S4  1  0.01064111  0.50000000  0.47871778  1
  S  S5  1  0.48935889  0.50000000  0.52128222  1
  S  S6  1  0.26064111  1.00000000  0.47871778  1
  S  S7  1  0.73935889  0.00000000  0.52128222  1
