# generated using pymatgen
data_Rb2SbN2(O2F)3
_symmetry_space_group_name_H-M   'P 1'
_cell_length_a   7.82893892
_cell_length_b   11.41192366
_cell_length_c   11.69602413
_cell_angle_alpha   105.14317477
_cell_angle_beta   90.00000000
_cell_angle_gamma   90.00000000
_symmetry_Int_Tables_number   1
_chemical_formula_structural   Rb2SbN2(O2F)3
_chemical_formula_sum   'Rb8 Sb4 N8 O24 F12'
_cell_volume   1008.67568348
_cell_formula_units_Z   4
loop_
 _symmetry_equiv_pos_site_id
 _symmetry_equiv_pos_as_xyz
  1  'x, y, z'
loop_
 _atom_site_type_symbol
 _atom_site_label
 _atom_site_symmetry_multiplicity
 _atom_site_fract_x
 _atom_site_fract_y
 _atom_site_fract_z
 _atom_site_occupancy
  Rb  Rb0  1  0.24085459  0.45192765  0.35667181  1
  Rb  Rb1  1  0.25069494  0.44495184  0.86494528  1
  Rb  Rb2  1  0.46337864  0.12894766  0.07299859  1
  Rb  Rb3  1  0.47343217  0.13947145  0.48966720  1
  Rb  Rb4  1  0.74085459  0.54807235  0.64332819  1
  Rb  Rb5  1  0.75069494  0.55504816  0.13505472  1
  Rb  Rb6  1  0.96337864  0.87105234  0.92700141  1
  Rb  Rb7  1  0.97343217  0.86052855  0.51033280  1
  Sb  Sb8  1  0.04582222  0.10788257  0.29237357  1
  Sb  Sb9  1  0.26164564  0.71753972  0.17478448  1
  Sb  Sb10  1  0.54582222  0.89211743  0.70762643  1
  Sb  Sb11  1  0.76164564  0.28246028  0.82521552  1
  N  N12  1  0.18814127  0.61822272  0.65890502  1
  N  N13  1  0.22405131  0.08335490  0.77171035  1
  N  N14  1  0.47158264  0.75023213  0.94337664  1
  N  N15  1  0.49032979  0.73938930  0.43002559  1
  N  N16  1  0.68814127  0.38177728  0.34109498  1
  N  N17  1  0.72405131  0.91664510  0.22828965  1
  N  N18  1  0.97158264  0.24976787  0.05662336  1
  N  N19  1  0.99032979  0.26061070  0.56997441  1
  O  O20  1  0.08861065  0.25985731  0.13281080  1
  O  O21  1  0.10749174  0.64117261  0.57240148  1
  O  O22  1  0.11000337  0.27256321  0.49972541  1
  O  O23  1  0.12220934  0.64631573  0.76174318  1
  O  O24  1  0.15533265  0.18596541  0.78841193  1
  O  O25  1  0.21849742  0.02371259  0.84870709  1
  O  O26  1  0.30286675  0.03738134  0.67341213  1
  O  O27  1  0.33192747  0.56596927  0.64149106  1
  O  O28  1  0.38014415  0.84322358  0.97372520  1
  O  O29  1  0.39705617  0.83170474  0.45405295  1
  O  O30  1  0.44661651  0.66095832  0.99076985  1
  O  O31  1  0.46718261  0.65460651  0.33518183  1
  O  O32  1  0.58861065  0.74014269  0.86718920  1
  O  O33  1  0.60749174  0.35882739  0.42759852  1
  O  O34  1  0.61000337  0.72743679  0.50027459  1
  O  O35  1  0.62220934  0.35368427  0.23825682  1
  O  O36  1  0.65533265  0.81403459  0.21158807  1
  O  O37  1  0.71849742  0.97628741  0.15129291  1
  O  O38  1  0.80286675  0.96261866  0.32658787  1
  O  O39  1  0.83192747  0.43403073  0.35850894  1
  O  O40  1  0.88014415  0.15677642  0.02627480  1
  O  O41  1  0.89705617  0.16829526  0.54594705  1
  O  O42  1  0.94661651  0.33904168  0.00923015  1
  O  O43  1  0.96718261  0.34539349  0.66481817  1
  F  F44  1  0.07450932  0.68946428  0.05556507  1
  F  F45  1  0.08114795  0.68866515  0.28651910  1
  F  F46  1  0.11319810  0.97916274  0.14971521  1
  F  F47  1  0.15186003  0.00333728  0.38293920  1
  F  F48  1  0.28510800  0.17266048  0.29036678  1
  F  F49  1  0.29340456  0.53944391  0.13077143  1
  F  F50  1  0.57450932  0.31053572  0.94443493  1
  F  F51  1  0.58114795  0.31133485  0.71348090  1
  F  F52  1  0.61319810  0.02083726  0.85028479  1
  F  F53  1  0.65186003  0.99666272  0.61706080  1
  F  F54  1  0.78510800  0.82733952  0.70963322  1
  F  F55  1  0.79340456  0.46055609  0.86922857  1
