# generated using pymatgen
data_NaCaTiFe3O8
_symmetry_space_group_name_H-M   'P 1'
_cell_length_a   3.01166639
_cell_length_b   9.29997746
_cell_length_c   10.90831018
_cell_angle_alpha   90.00000000
_cell_angle_beta   90.00000000
_cell_angle_gamma   90.00000000
_symmetry_Int_Tables_number   1
_chemical_formula_structural   NaCaTiFe3O8
_chemical_formula_sum   'Na2 Ca2 Ti2 Fe6 O16'
_cell_volume   305.52463712
_cell_formula_units_Z   2
loop_
 _symmetry_equiv_pos_site_id
 _symmetry_equiv_pos_as_xyz
  1  'x, y, z'
loop_
 _atom_site_type_symbol
 _atom_site_label
 _atom_site_symmetry_multiplicity
 _atom_site_fract_x
 _atom_site_fract_y
 _atom_site_fract_z
 _atom_site_occupancy
  Na  Na0  1  0.75000000  0.25759494  0.84576090  1
  Na  Na1  1  0.25000000  0.24240506  0.34576090  1
  Ca  Ca2  1  0.75000000  0.75819578  0.65761291  1
  Ca  Ca3  1  0.25000000  0.74180422  0.15761291  1
  Ti  Ti4  1  0.75000000  0.41147358  0.10285152  1
  Ti  Ti5  1  0.25000000  0.08852642  0.60285152  1
  Fe  Fe6  1  0.75000000  0.43367782  0.61169010  1
  Fe  Fe7  1  0.75000000  0.94014415  0.89152470  1
  Fe  Fe8  1  0.25000000  0.55985585  0.39152470  1
  Fe  Fe9  1  0.25000000  0.06632218  0.11169010  1
  Fe  Fe10  1  0.75000000  0.91798047  0.39358522  1
  Fe  Fe11  1  0.25000000  0.58201953  0.89358522  1
  O  O12  1  0.75000000  0.11628962  0.48704360  1
  O  O13  1  0.75000000  0.61410316  0.02521623  1
  O  O14  1  0.25000000  0.88589684  0.52521623  1
  O  O15  1  0.25000000  0.38371038  0.98704360  1
  O  O16  1  0.75000000  0.02591968  0.71043186  1
  O  O17  1  0.75000000  0.52359887  0.78527311  1
  O  O18  1  0.25000000  0.97640113  0.28527311  1
  O  O19  1  0.25000000  0.47408032  0.21043186  1
  O  O20  1  0.75000000  0.42289241  0.42786242  1
  O  O21  1  0.75000000  0.91498856  0.07628885  1
  O  O22  1  0.25000000  0.58501144  0.57628885  1
  O  O23  1  0.25000000  0.07710759  0.92786242  1
  O  O24  1  0.75000000  0.21143135  0.14976212  1
  O  O25  1  0.75000000  0.70458929  0.33509645  1
  O  O26  1  0.25000000  0.79541071  0.83509645  1
  O  O27  1  0.25000000  0.28856865  0.64976212  1
