# generated using pymatgen
data_Sr4Pr6Mn9BiO30
_symmetry_space_group_name_H-M   'P 1'
_cell_length_a   5.57810942
_cell_length_b   5.56293250
_cell_length_c   40.12075285
_cell_angle_alpha   90.00000000
_cell_angle_beta   90.00000000
_cell_angle_gamma   90.04889176
_symmetry_Int_Tables_number   1
_chemical_formula_structural   Sr4Pr6Mn9BiO30
_chemical_formula_sum   'Sr8 Pr12 Mn18 Bi2 O60'
_cell_volume   1244.97243263
_cell_formula_units_Z   2
loop_
 _symmetry_equiv_pos_site_id
 _symmetry_equiv_pos_as_xyz
  1  'x, y, z'
loop_
 _atom_site_type_symbol
 _atom_site_label
 _atom_site_symmetry_multiplicity
 _atom_site_fract_x
 _atom_site_fract_y
 _atom_site_fract_z
 _atom_site_occupancy
  Sr  Sr0  1  0.00547112  0.53779684  0.05312105  1
  Sr  Sr1  1  0.00547112  0.53779684  0.24687895  1
  Sr  Sr2  1  0.00510799  0.51796209  0.44263563  1
  Sr  Sr3  1  0.01859394  0.54949260  0.65000000  1
  Sr  Sr4  1  0.00510799  0.51796209  0.85736437  1
  Sr  Sr5  1  0.48912347  0.03832684  0.05297232  1
  Sr  Sr6  1  0.48912347  0.03832684  0.24702768  1
  Sr  Sr7  1  0.50519790  0.04961870  0.65000000  1
  Pr  Pr8  1  0.46710767  0.01557352  0.44122044  1
  Pr  Pr9  1  0.46710767  0.01557352  0.85877956  1
  Pr  Pr10  1  0.49225676  0.07157702  0.34361084  1
  Pr  Pr11  1  0.49903665  0.08016290  0.15000000  1
  Pr  Pr12  1  0.52687059  0.06831998  0.55517702  1
  Pr  Pr13  1  0.52687059  0.06831998  0.74482298  1
  Pr  Pr14  1  0.49225676  0.07157702  0.95638916  1
  Pr  Pr15  1  0.99936557  0.58040799  0.15000000  1
  Pr  Pr16  1  0.99074824  0.57274032  0.34382824  1
  Pr  Pr17  1  0.00383398  0.57560042  0.55477001  1
  Pr  Pr18  1  0.00383398  0.57560042  0.74522999  1
  Pr  Pr19  1  0.99074824  0.57274032  0.95617176  1
  Mn  Mn20  1  0.99665259  0.05021746  0.00376661  1
  Mn  Mn21  1  0.99911371  0.05297331  0.10097738  1
  Mn  Mn22  1  0.99911371  0.05297331  0.19902262  1
  Mn  Mn23  1  0.99665259  0.05021746  0.29623339  1
  Mn  Mn24  1  0.98317690  0.04443181  0.39506640  1
  Mn  Mn25  1  0.00499663  0.04679820  0.49885576  1
  Mn  Mn26  1  0.01928914  0.05904319  0.60125963  1
  Mn  Mn27  1  0.01928914  0.05904319  0.69874037  1
  Mn  Mn28  1  0.00499663  0.04679820  0.80114424  1
  Mn  Mn29  1  0.98317690  0.04443181  0.90493360  1
  Mn  Mn30  1  0.49827559  0.55296120  0.10103042  1
  Mn  Mn31  1  0.49384030  0.54968553  0.29599717  1
  Mn  Mn32  1  0.49384030  0.54968553  0.00400283  1
  Mn  Mn33  1  0.49398895  0.54462909  0.90631798  1
  Mn  Mn34  1  0.50881018  0.55748066  0.69816412  1
  Mn  Mn35  1  0.49827559  0.55296120  0.19896958  1
  Mn  Mn36  1  0.50881018  0.55748066  0.60183588  1
  Mn  Mn37  1  0.49398895  0.54462909  0.39368202  1
  Bi  Bi38  1  0.50867889  0.54623005  0.49706717  1
  Bi  Bi39  1  0.50867889  0.54623005  0.80293283  1
  O  O40  1  0.22609958  0.77952562  0.09763893  1
  O  O41  1  0.22609958  0.77952562  0.20236107  1
  O  O42  1  0.22882435  0.78273862  0.29339665  1
  O  O43  1  0.21978313  0.77751170  0.40099722  1
  O  O44  1  0.20748226  0.79216942  0.48478101  1
  O  O45  1  0.25198747  0.79645462  0.60515062  1
  O  O46  1  0.25198747  0.79645462  0.69484938  1
  O  O47  1  0.20748226  0.79216942  0.81521899  1
  O  O48  1  0.21978313  0.77751170  0.89900278  1
  O  O49  1  0.22882435  0.78273862  0.00660335  1
  O  O50  1  0.43452567  0.54029571  0.15000000  1
  O  O51  1  0.42736587  0.54922852  0.55164856  1
  O  O52  1  0.42114606  0.53356303  0.34610136  1
  O  O53  1  0.42736587  0.54922852  0.74835144  1
  O  O54  1  0.42114606  0.53356303  0.95389864  1
  O  O55  1  0.06343495  0.03869986  0.15000000  1
  O  O56  1  0.10693836  0.04274563  0.55006385  1
  O  O57  1  0.10693836  0.04274563  0.74993615  1
  O  O58  1  0.06128913  0.03224828  0.95416533  1
  O  O59  1  0.06128913  0.03224828  0.34583467  1
  O  O60  1  0.26805788  0.26285191  0.40117298  1
  O  O61  1  0.27154631  0.27901424  0.20218567  1
  O  O62  1  0.27457297  0.29631446  0.60510794  1
  O  O63  1  0.26026631  0.24956848  0.81593414  1
  O  O64  1  0.26183694  0.28189280  0.00636436  1
  O  O65  1  0.27154631  0.27901424  0.09781433  1
  O  O66  1  0.26183694  0.28189280  0.29363564  1
  O  O67  1  0.26026631  0.24956848  0.48406586  1
  O  O68  1  0.27457297  0.29631446  0.69489206  1
  O  O69  1  0.26805788  0.26285191  0.89882702  1
  O  O70  1  0.73069146  0.82070583  0.10963114  1
  O  O71  1  0.73153226  0.81220318  0.30534386  1
  O  O72  1  0.76311996  0.83331701  0.51540903  1
  O  O73  1  0.71706199  0.81960831  0.91462974  1
  O  O74  1  0.75478271  0.81672381  0.70708380  1
  O  O75  1  0.73153226  0.81220318  0.99465614  1
  O  O76  1  0.73069146  0.82070583  0.19036886  1
  O  O77  1  0.75478271  0.81672381  0.59291620  1
  O  O78  1  0.71706199  0.81960831  0.38537026  1
  O  O79  1  0.76311996  0.83331701  0.78459097  1
  O  O80  1  0.55094488  0.55491848  0.05242734  1
  O  O81  1  0.55094488  0.55491848  0.24757266  1
  O  O82  1  0.56626880  0.56045869  0.65000000  1
  O  O83  1  0.56175630  0.56808733  0.44111202  1
  O  O84  1  0.56175630  0.56808733  0.85888798  1
  O  O85  1  0.94325407  0.05755772  0.24760729  1
  O  O86  1  0.94325407  0.05755772  0.05239271  1
  O  O87  1  0.95673095  0.06479581  0.65000000  1
  O  O88  1  0.88780484  0.05701179  0.44640677  1
  O  O89  1  0.88780484  0.05701179  0.85359323  1
  O  O90  1  0.75799274  0.31259735  0.99452851  1
  O  O91  1  0.76739491  0.32113207  0.10975393  1
  O  O92  1  0.76739491  0.32113207  0.19024607  1
  O  O93  1  0.75799274  0.31259735  0.30547149  1
  O  O94  1  0.80335459  0.30361821  0.51484084  1
  O  O95  1  0.77235877  0.31770170  0.59239171  1
  O  O96  1  0.77235877  0.31770170  0.70760829  1
  O  O97  1  0.76183399  0.31467620  0.38527094  1
  O  O98  1  0.76183399  0.31467620  0.91472906  1
  O  O99  1  0.80335459  0.30361821  0.78515916  1
