# generated using pymatgen
data_Nd9Mn10O30
_symmetry_space_group_name_H-M   'P 1'
_cell_length_a   27.55016945
_cell_length_b   7.81107386
_cell_length_c   9.55591767
_cell_angle_alpha   66.10003022
_cell_angle_beta   54.79503731
_cell_angle_gamma   45.38114357
_symmetry_Int_Tables_number   1
_chemical_formula_structural   Nd9Mn10O30
_chemical_formula_sum   'Nd18 Mn20 O60'
_cell_volume   1196.01000168
_cell_formula_units_Z   2
loop_
 _symmetry_equiv_pos_site_id
 _symmetry_equiv_pos_as_xyz
  1  'x, y, z'
loop_
 _atom_site_type_symbol
 _atom_site_label
 _atom_site_symmetry_multiplicity
 _atom_site_fract_x
 _atom_site_fract_y
 _atom_site_fract_z
 _atom_site_occupancy
  Nd  Nd0  1  0.13390768  0.05655664  0.24797377  1
  Nd  Nd1  1  0.05349863  0.46125388  0.75813247  1
  Nd  Nd2  1  0.14448923  0.53760457  0.24927953  1
  Nd  Nd3  1  0.34310132  0.03543929  0.24131720  1
  Nd  Nd4  1  0.05853602  0.96346946  0.74586622  1
  Nd  Nd5  1  0.25834342  0.45261557  0.75048283  1
  Nd  Nd6  1  0.34507950  0.53387059  0.24645832  1
  Nd  Nd7  1  0.53757678  0.04191715  0.25919711  1
  Nd  Nd8  1  0.25860755  0.96948815  0.75378285  1
  Nd  Nd9  1  0.45723318  0.44826515  0.74934910  1
  Nd  Nd10  1  0.54333091  0.53143817  0.25346516  1
  Nd  Nd11  1  0.74172500  0.03785275  0.25302277  1
  Nd  Nd12  1  0.65345205  0.46592841  0.74770537  1
  Nd  Nd13  1  0.74737754  0.53040539  0.25218669  1
  Nd  Nd14  1  0.93862550  0.04428517  0.25030848  1
  Nd  Nd15  1  0.65729354  0.97007468  0.75238461  1
  Nd  Nd16  1  0.85873493  0.45598612  0.74312152  1
  Nd  Nd17  1  0.85943863  0.96099807  0.74796456  1
  Mn  Mn18  1  0.09946116  0.00240420  0.00005318  1
  Mn  Mn19  1  0.09631555  0.50817434  0.00229087  1
  Mn  Mn20  1  0.30152913  0.99719439  0.99763771  1
  Mn  Mn21  1  0.20029732  0.99957525  0.49816816  1
  Mn  Mn22  1  0.30188992  0.49522462  0.99640739  1
  Mn  Mn23  1  0.20048934  0.49912597  0.49734933  1
  Mn  Mn24  1  0.50052737  0.99313924  0.99918610  1
  Mn  Mn25  1  0.40099150  0.99534287  0.50442713  1
  Mn  Mn26  1  0.49916175  0.50640101  0.99497474  1
  Mn  Mn27  1  0.39922382  0.49958814  0.50267854  1
  Mn  Mn28  1  0.70009669  0.99887732  0.00135641  1
  Mn  Mn29  1  0.59927446  0.99436953  0.50199552  1
  Mn  Mn30  1  0.69970935  0.50169265  0.00112201  1
  Mn  Mn31  1  0.59838481  0.50482834  0.50256327  1
  Mn  Mn32  1  0.80234843  0.99356058  0.49703324  1
  Mn  Mn33  1  0.90042804  0.99518379  0.00344562  1
  Mn  Mn34  1  0.89982278  0.50361879  0.00383014  1
  Mn  Mn35  1  0.80023281  0.50443410  0.49993148  1
  Mn  Mn36  1  0.99987000  0.00173709  0.49741166  1
  Mn  Mn37  1  0.99811748  0.50567981  0.49793014  1
  O  O38  1  0.08751079  0.26944954  0.02608603  1
  O  O39  1  0.06816647  0.48831757  0.25257734  1
  O  O40  1  0.09252769  0.21924357  0.54550717  1
  O  O41  1  0.01077253  0.21309174  0.95115009  1
  O  O42  1  0.00641413  0.71285713  0.54446998  1
  O  O43  1  0.03942036  0.96693991  0.25173171  1
  O  O44  1  0.16395200  0.02020198  0.74313942  1
  O  O45  1  0.27775338  0.28286578  0.04475852  1
  O  O46  1  0.19736452  0.28068922  0.44992166  1
  O  O47  1  0.18906426  0.78434961  0.04629432  1
  O  O48  1  0.11026045  0.78003839  0.45312407  1
  O  O49  1  0.13036253  0.51918239  0.74723114  1
  O  O50  1  0.26949767  0.47999284  0.24816153  1
  O  O51  1  0.29143435  0.21674848  0.53870402  1
  O  O52  1  0.20764581  0.21985491  0.96318404  1
  O  O53  1  0.20530217  0.71286364  0.54621221  1
  O  O54  1  0.12448535  0.71248702  0.95303552  1
  O  O55  1  0.23439915  0.98001819  0.25305462  1
  O  O56  1  0.35426607  0.02246040  0.74976630  1
  O  O57  1  0.48002082  0.27529514  0.04749261  1
  O  O58  1  0.39382409  0.28686365  0.45653328  1
  O  O59  1  0.38685722  0.77322865  0.05555398  1
  O  O60  1  0.30748519  0.78891922  0.45120572  1
  O  O61  1  0.32593431  0.53758581  0.74936837  1
  O  O62  1  0.46584152  0.48832746  0.25153949  1
  O  O63  1  0.49620569  0.23475296  0.52409506  1
  O  O64  1  0.40665344  0.23214379  0.97294530  1
  O  O65  1  0.40306920  0.71702374  0.54651462  1
  O  O66  1  0.32177521  0.71639514  0.95345228  1
  O  O67  1  0.43827643  0.97775748  0.25036738  1
  O  O68  1  0.56324324  0.00900272  0.75331810  1
  O  O69  1  0.59952222  0.27582267  0.45361526  1
  O  O70  1  0.67702871  0.28329384  0.05113677  1
  O  O71  1  0.51138788  0.76875990  0.44443920  1
  O  O72  1  0.59282510  0.78504481  0.04874541  1
  O  O73  1  0.53989559  0.46956885  0.74964596  1
  O  O74  1  0.67330054  0.47535959  0.24522198  1
  O  O75  1  0.69353106  0.21036505  0.54121562  1
  O  O76  1  0.60903739  0.21302480  0.96182468  1
  O  O77  1  0.52715021  0.69313131  0.97658735  1
  O  O78  1  0.61678848  0.69298493  0.52321992  1
  O  O79  1  0.63893728  0.97645870  0.24652215  1
  O  O80  1  0.75950578  0.02532315  0.75533598  1
  O  O81  1  0.79215853  0.28891638  0.46722543  1
  O  O82  1  0.87892095  0.28928961  0.03064447  1
  O  O83  1  0.79070677  0.78868378  0.04344889  1
  O  O84  1  0.70833069  0.78682121  0.45937271  1
  O  O85  1  0.72568087  0.52419577  0.75686515  1
  O  O86  1  0.86213937  0.47866241  0.25085940  1
  O  O87  1  0.88953329  0.21999698  0.54626905  1
  O  O88  1  0.80806040  0.22141832  0.95041687  1
  O  O89  1  0.79738542  0.72723701  0.55802722  1
  O  O90  1  0.72507673  0.71175509  0.95141935  1
  O  O91  1  0.83055893  0.02941125  0.24800369  1
  O  O92  1  0.96197804  0.01300120  0.74940832  1
  O  O93  1  0.99964733  0.26400618  0.47452880  1
  O  O94  1  0.99463269  0.81045785  0.02347360  1
  O  O95  1  0.90368092  0.81132692  0.47477889  1
  O  O96  1  0.93093328  0.52011249  0.74769107  1
  O  O97  1  0.91891937  0.72902063  0.94776470  1
