# generated using pymatgen
data_P2S3
_symmetry_space_group_name_H-M   'P 1'
_cell_length_a   4.68837467
_cell_length_b   10.65268646
_cell_length_c   25.80630643
_cell_angle_alpha   90.00000000
_cell_angle_beta   90.00000000
_cell_angle_gamma   90.00000000
_symmetry_Int_Tables_number   1
_chemical_formula_structural   P2S3
_chemical_formula_sum   'P4 S6'
_cell_volume   1288.86462944
_cell_formula_units_Z   2
loop_
 _symmetry_equiv_pos_site_id
 _symmetry_equiv_pos_as_xyz
  1  'x, y, z'
loop_
 _atom_site_type_symbol
 _atom_site_label
 _atom_site_symmetry_multiplicity
 _atom_site_fract_x
 _atom_site_fract_y
 _atom_site_fract_z
 _atom_site_occupancy
  P  P0  1  0.66737427  0.85258022  0.47535712  1
  P  P1  1  0.16737427  0.64741978  0.52464288  1
  P  P2  1  0.16737427  0.35258022  0.52464288  1
  P  P3  1  0.66737427  0.14741978  0.47535712  1
  S  S4  1  0.98146395  0.71722686  0.45396506  1
  S  S5  1  0.48146395  0.78277314  0.54603494  1
  S  S6  1  0.48146395  0.21722686  0.54603494  1
  S  S7  1  0.98146395  0.28277314  0.45396506  1
  S  S8  1  0.91143356  -0.00000000  0.51107468  1
  S  S9  1  0.41143356  0.50000000  0.48892532  1
