# generated using pymatgen
data_Li4Mn3CoO8
_symmetry_space_group_name_H-M   'P 1'
_cell_length_a   5.11659311
_cell_length_b   6.05082649
_cell_length_c   5.94505143
_cell_angle_alpha   120.59032562
_cell_angle_beta   104.51134156
_cell_angle_gamma   89.99999782
_symmetry_Int_Tables_number   1
_chemical_formula_structural   Li4Mn3CoO8
_chemical_formula_sum   'Li4 Mn3 Co1 O8'
_cell_volume   151.58019583
_cell_formula_units_Z   1
loop_
 _symmetry_equiv_pos_site_id
 _symmetry_equiv_pos_as_xyz
  1  'x, y, z'
loop_
 _atom_site_type_symbol
 _atom_site_label
 _atom_site_symmetry_multiplicity
 _atom_site_fract_x
 _atom_site_fract_y
 _atom_site_fract_z
 _atom_site_occupancy
  Li  Li0  1  0.51537770  0.25981920  0.51963840  1
  Li  Li1  1  0.50000000  0.26465523  -0.00000000  1
  Li  Li2  1  0.50000000  0.73534477  0.00000000  1
  Li  Li3  1  0.48462230  0.74018080  0.48036160  1
  Mn  Mn4  1  0.00000000  0.00000000  0.50000000  1
  Mn  Mn5  1  0.00000000  0.50000000  0.50000000  1
  Mn  Mn6  1  0.00000000  0.50000000  -0.00000000  1
  Co  Co7  1  0.00000000  0.00000000  -0.00000000  1
  O  O8  1  0.24517614  0.38547703  0.77095405  1
  O  O9  1  0.21812334  0.38735786  0.23719662  1
  O  O10  1  0.21812334  0.84983875  0.23719662  1
  O  O11  1  0.21590859  0.85641757  0.71283515  1
  O  O12  1  0.78409141  0.14358243  0.28716485  1
  O  O13  1  0.78187666  0.15016125  0.76280338  1
  O  O14  1  0.78187666  0.61264214  0.76280338  1
  O  O15  1  0.75482386  0.61452297  0.22904595  1
