# generated using pymatgen
data_Na3H12Ru2(C2O9)2
_symmetry_space_group_name_H-M   'P 1'
_cell_length_a   9.69187815
_cell_length_b   9.68834096
_cell_length_c   9.95843958
_cell_angle_alpha   70.68869831
_cell_angle_beta   73.25980142
_cell_angle_gamma   88.33462588
_symmetry_Int_Tables_number   1
_chemical_formula_structural   Na3H12Ru2(C2O9)2
_chemical_formula_sum   'Na6 H24 Ru4 C8 O36'
_cell_volume   842.80016024
_cell_formula_units_Z   2
loop_
 _symmetry_equiv_pos_site_id
 _symmetry_equiv_pos_as_xyz
  1  'x, y, z'
loop_
 _atom_site_type_symbol
 _atom_site_label
 _atom_site_symmetry_multiplicity
 _atom_site_fract_x
 _atom_site_fract_y
 _atom_site_fract_z
 _atom_site_occupancy
  Na  Na0  1  0.00514673  0.60512540  0.61320523  1
  Na  Na1  1  0.37062617  0.83988041  0.20632828  1
  Na  Na2  1  0.50095541  0.99985230  0.49979705  1
  Na  Na3  1  0.62902570  0.16059061  0.79441043  1
  Na  Na4  1  0.96688297  0.55754424  0.00488092  1
  Na  Na5  1  0.99533439  0.39238542  0.38629624  1
  H  H6  1  0.08066619  0.86192489  0.35714827  1
  H  H7  1  0.15329240  0.12937920  0.43923297  1
  H  H8  1  0.21503301  0.23101776  0.27551405  1
  H  H9  1  0.16041302  0.88023390  0.46751508  1
  H  H10  1  0.16054908  0.34227396  0.58810826  1
  H  H11  1  0.25116830  0.49349175  0.48242217  1
  H  H12  1  0.22334945  0.57037961  0.77245705  1
  H  H13  1  0.16821689  0.72547771  0.76727177  1
  H  H14  1  0.48123081  0.10511982  0.22366449  1
  H  H15  1  0.48676637  0.57719349  0.35098296  1
  H  H16  1  0.44625962  0.65885715  0.47194446  1
  H  H17  1  0.61540549  0.01900961  0.18649633  1
  H  H18  1  0.38479797  0.98106926  0.81256411  1
  H  H19  1  0.55272624  0.34081608  0.52915084  1
  H  H20  1  0.51280564  0.42298404  0.64958294  1
  H  H21  1  0.51894047  0.89473929  0.77637691  1
  H  H22  1  0.84681362  0.28120969  0.21795076  1
  H  H23  1  0.75869526  0.40995533  0.25335081  1
  H  H24  1  0.74927160  0.50682601  0.51727712  1
  H  H25  1  0.83923156  0.65869277  0.41255957  1
  H  H26  1  0.83954821  0.11963690  0.53234283  1
  H  H27  1  0.78107113  0.76792568  0.72268377  1
  H  H28  1  0.84858155  0.87029048  0.56081074  1
  H  H29  1  0.91933236  0.13866082  0.64253662  1
  Ru  Ru30  1  0.04252457  0.88868282  0.04691387  1
  Ru  Ru31  1  0.55606522  0.59688887  0.00968891  1
  Ru  Ru32  1  0.44266107  0.40271611  0.99132483  1
  Ru  Ru33  1  0.96107195  0.11435231  0.95232819  1
  C  C34  1  0.23925569  0.59985740  0.09394385  1
  C  C35  1  0.13751438  0.00256758  0.71760940  1
  C  C36  1  0.24534479  0.13282719  0.99224540  1
  C  C37  1  0.49837389  0.33803701  0.28337664  1
  C  C38  1  0.50085329  0.66128878  0.71742353  1
  C  C39  1  0.75727935  0.86771622  0.00599450  1
  C  C40  1  0.86404774  0.99923198  0.28215827  1
  C  C41  1  0.76031786  0.40015513  0.90353817  1
  O  O42  1  0.11484966  0.64826863  0.13182789  1
  O  O43  1  0.12356527  0.19091107  0.35184844  1
  O  O44  1  0.24630537  0.47613722  0.06619727  1
  O  O45  1  0.22450505  0.98796014  0.04634742  1
  O  O46  1  0.06200563  0.11334691  0.73958740  1
  O  O47  1  0.15542655  0.82131405  0.40546537  1
  O  O48  1  0.15462254  0.43941234  0.51879702  1
  O  O49  1  0.35696805  0.67058992  0.08344890  1
  O  O50  1  0.13845520  0.62730724  0.77143274  1
  O  O51  1  0.20108764  0.00210561  0.58773399  1
  O  O52  1  0.14513881  0.21291232  0.95046386  1
  O  O53  1  0.14725233  0.89221755  0.83461548  1
  O  O54  1  0.43932625  0.28392609  0.20527744  1
  O  O55  1  0.40940953  0.62525320  0.40361977  1
  O  O56  1  0.51600900  0.00500038  0.25133063  1
  O  O57  1  0.50109308  0.26090993  0.41183577  1
  O  O58  1  0.55683838  0.47460637  0.22210692  1
  O  O59  1  0.36729698  0.18830551  0.98153062  1
  O  O60  1  0.63562205  0.81103727  0.01829622  1
  O  O61  1  0.44208883  0.52493759  0.77904138  1
  O  O62  1  0.49933679  0.73837331  0.58862181  1
  O  O63  1  0.48464036  0.99507464  0.74878690  1
  O  O64  1  0.59030388  0.37548384  0.59633443  1
  O  O65  1  0.55984857  0.71559531  0.79571568  1
  O  O66  1  0.85823551  0.11181854  0.16516333  1
  O  O67  1  0.86024336  0.78735007  0.04332952  1
  O  O68  1  0.79923769  0.99787759  0.41239306  1
  O  O69  1  0.85653773  0.37744555  0.23008810  1
  O  O70  1  0.64146494  0.32962116  0.91664140  1
  O  O71  1  0.84618250  0.56042368  0.47922118  1
  O  O72  1  0.84362985  0.17803439  0.59516752  1
  O  O73  1  0.93770594  0.88730843  0.25971152  1
  O  O74  1  0.77605894  0.01209723  0.95791095  1
  O  O75  1  0.75288789  0.52371714  0.93348237  1
  O  O76  1  0.87476234  0.80675817  0.64977824  1
  O  O77  1  0.88401010  0.35399661  0.86114087  1
