# generated using pymatgen
data_Li5Mn(CoO4)2
_symmetry_space_group_name_H-M   'P 1'
_cell_length_a   5.08072066
_cell_length_b   4.96760117
_cell_length_c   5.83874164
_cell_angle_alpha   90.00000000
_cell_angle_beta   90.00000000
_cell_angle_gamma   109.21340857
_symmetry_Int_Tables_number   1
_chemical_formula_structural   Li5Mn(CoO4)2
_chemical_formula_sum   'Li5 Mn1 Co2 O8'
_cell_volume   139.15570055
_cell_formula_units_Z   1
loop_
 _symmetry_equiv_pos_site_id
 _symmetry_equiv_pos_as_xyz
  1  'x, y, z'
loop_
 _atom_site_type_symbol
 _atom_site_label
 _atom_site_symmetry_multiplicity
 _atom_site_fract_x
 _atom_site_fract_y
 _atom_site_fract_z
 _atom_site_occupancy
  Li  Li0  1  0.50000000  0.50000000  0.00805956  1
  Li  Li1  1  0.50000000  -0.00000000  0.25248655  1
  Li  Li2  1  0.50000000  0.50000000  0.49198250  1
  Li  Li3  1  0.50000000  -0.00000000  0.74844142  1
  Li  Li4  1  -0.00000000  0.50000000  0.25134432  1
  Mn  Mn5  1  -0.00000000  -0.00000000  0.00063821  1
  Co  Co6  1  -0.00000000  -0.00000000  0.48968078  1
  Co  Co7  1  -0.00000000  0.50000000  0.75398253  1
  O  O8  1  0.21641561  0.74688480  0.98073744  1
  O  O9  1  0.23810484  0.22236682  0.23596580  1
  O  O10  1  0.21840067  0.74149059  0.52347105  1
  O  O11  1  0.22292305  0.25258567  0.76151778  1
  O  O12  1  0.78358439  0.25311520  0.98073744  1
  O  O13  1  0.76189516  0.77763318  0.23596580  1
  O  O14  1  0.78159933  0.25850941  0.52347105  1
  O  O15  1  0.77707695  0.74741433  0.76151778  1
