# generated using pymatgen
data_Li4Mn3CoO8
_symmetry_space_group_name_H-M   'P 1'
_cell_length_a   5.10693241
_cell_length_b   5.49930271
_cell_length_c   5.70082020
_cell_angle_alpha   90.05003066
_cell_angle_beta   106.29520280
_cell_angle_gamma   94.22822787
_symmetry_Int_Tables_number   1
_chemical_formula_structural   Li4Mn3CoO8
_chemical_formula_sum   'Li4 Mn3 Co1 O8'
_cell_volume   153.21631477
_cell_formula_units_Z   1
loop_
 _symmetry_equiv_pos_site_id
 _symmetry_equiv_pos_as_xyz
  1  'x, y, z'
loop_
 _atom_site_type_symbol
 _atom_site_label
 _atom_site_symmetry_multiplicity
 _atom_site_fract_x
 _atom_site_fract_y
 _atom_site_fract_z
 _atom_site_occupancy
  Li  Li0  1  0.49063544  0.22953727  0.87349401  1
  Li  Li1  1  0.50936456  0.77046273  0.12650599  1
  Li  Li2  1  0.50663649  0.74500769  0.62906443  1
  Li  Li3  1  0.49336351  0.25499231  0.37093557  1
  Mn  Mn4  1  -0.00431746  0.49648251  0.24792481  1
  Mn  Mn5  1  0.00000000  -0.00000000  0.50000000  1
  Mn  Mn6  1  0.00431746  0.50351749  0.75207519  1
  Co  Co7  1  0.00000000  -0.00000000  -0.00000000  1
  O  O8  1  0.23152822  0.88863565  0.81094383  1
  O  O9  1  0.22702097  0.37799841  0.05688267  1
  O  O10  1  0.23123268  0.38578196  0.55686993  1
  O  O11  1  0.23126073  0.89117291  0.30380314  1
  O  O12  1  0.77297903  0.62200159  0.94311733  1
  O  O13  1  0.76847178  0.11136435  0.18905617  1
  O  O14  1  0.76873927  0.10882709  0.69619686  1
  O  O15  1  0.76876732  0.61421804  0.44313007  1
