# generated using pymatgen
data_Li4Mn3CoO8
_symmetry_space_group_name_H-M   'P 1'
_cell_length_a   5.37633110
_cell_length_b   5.69193108
_cell_length_c   5.44862999
_cell_angle_alpha   90.00000000
_cell_angle_beta   64.90198576
_cell_angle_gamma   90.00000000
_symmetry_Int_Tables_number   1
_chemical_formula_structural   Li4Mn3CoO8
_chemical_formula_sum   'Li4 Mn3 Co1 O8'
_cell_volume   150.99461458
_cell_formula_units_Z   1
loop_
 _symmetry_equiv_pos_site_id
 _symmetry_equiv_pos_as_xyz
  1  'x, y, z'
loop_
 _atom_site_type_symbol
 _atom_site_label
 _atom_site_symmetry_multiplicity
 _atom_site_fract_x
 _atom_site_fract_y
 _atom_site_fract_z
 _atom_site_occupancy
  Li  Li0  1  0.50000000  0.24827562  -0.00000000  1
  Li  Li1  1  0.50000000  0.50000000  0.50000000  1
  Li  Li2  1  0.50000000  0.75172438  -0.00000000  1
  Li  Li3  1  0.50000000  0.00000000  0.50000000  1
  Mn  Mn4  1  0.00000000  0.24987546  0.50000000  1
  Mn  Mn5  1  0.00000000  0.50000000  -0.00000000  1
  Mn  Mn6  1  0.00000000  0.75012454  0.50000000  1
  Co  Co7  1  0.00000000  0.00000000  -0.00000000  1
  O  O8  1  0.23173502  0.24611966  0.77549738  1
  O  O9  1  0.23382517  0.50000000  0.27383794  1
  O  O10  1  0.23173502  0.75388034  0.77549738  1
  O  O11  1  0.22476042  0.00000000  0.26391324  1
  O  O12  1  0.76826498  0.24611966  0.22450262  1
  O  O13  1  0.76617483  0.50000000  0.72616206  1
  O  O14  1  0.76826498  0.75388034  0.22450262  1
  O  O15  1  0.77523958  0.00000000  0.73608676  1
