# generated using pymatgen
data_CaNiO3
_symmetry_space_group_name_H-M   'P 1'
_cell_length_a   5.36655829
_cell_length_b   5.41036385
_cell_length_c   7.55330891
_cell_angle_alpha   89.99868189
_cell_angle_beta   90.00002520
_cell_angle_gamma   89.99983870
_symmetry_Int_Tables_number   1
_chemical_formula_structural   CaNiO3
_chemical_formula_sum   'Ca4 Ni4 O12'
_cell_volume   219.31057321
_cell_formula_units_Z   4
loop_
 _symmetry_equiv_pos_site_id
 _symmetry_equiv_pos_as_xyz
  1  'x, y, z'
loop_
 _atom_site_type_symbol
 _atom_site_label
 _atom_site_symmetry_multiplicity
 _atom_site_fract_x
 _atom_site_fract_y
 _atom_site_fract_z
 _atom_site_occupancy
  Ca  Ca0  1  0.99029164  0.04848899  0.25000162  1
  Ca  Ca1  1  0.49028443  0.45149622  0.74999591  1
  Ca  Ca2  1  0.50971590  0.54850561  0.25000316  1
  Ca  Ca3  1  0.00970734  0.95151103  0.74999760  1
  Ni  Ni4  1  0.49999953  0.00000095  0.99999909  1
  Ni  Ni5  1  0.00000138  0.49999899  0.99999895  1
  Ni  Ni6  1  0.00000094  0.49999899  0.50000096  1
  Ni  Ni7  1  0.49999951  0.00000073  0.50000077  1
  O  O8  1  0.91942445  0.51996923  0.74999047  1
  O  O9  1  0.41942749  0.98002811  0.24999982  1
  O  O10  1  0.58057272  0.01997311  0.74999973  1
  O  O11  1  0.08057513  0.48003117  0.25000908  1
  O  O12  1  0.70540174  0.29192592  0.45916302  1
  O  O13  1  0.20539720  0.20807914  0.54083730  1
  O  O14  1  0.79459417  0.79193049  0.04083905  1
  O  O15  1  0.29460851  0.70808221  0.95915920  1
  O  O16  1  0.70539174  0.29191754  0.04084026  1
  O  O17  1  0.20540526  0.20806888  0.95915981  1
  O  O18  1  0.29459834  0.70807403  0.54083793  1
  O  O19  1  0.79460256  0.79192065  0.45916428  1
