# generated using pymatgen
data_Li7Mn4CoO12
_symmetry_space_group_name_H-M   'P 1'
_cell_length_a   5.09795651
_cell_length_b   5.94537819
_cell_length_c   7.68181697
_cell_angle_alpha   100.31290714
_cell_angle_beta   108.71436359
_cell_angle_gamma   89.76876824
_symmetry_Int_Tables_number   1
_chemical_formula_structural   Li7Mn4CoO12
_chemical_formula_sum   'Li7 Mn4 Co1 O12'
_cell_volume   216.60139975
_cell_formula_units_Z   1
loop_
 _symmetry_equiv_pos_site_id
 _symmetry_equiv_pos_as_xyz
  1  'x, y, z'
loop_
 _atom_site_type_symbol
 _atom_site_label
 _atom_site_symmetry_multiplicity
 _atom_site_fract_x
 _atom_site_fract_y
 _atom_site_fract_z
 _atom_site_occupancy
  Li  Li0  1  0.48617549  0.24472989  0.99485297  1
  Li  Li1  1  0.50955005  0.58327913  0.33809947  1
  Li  Li2  1  0.49231371  0.74548540  0.99677865  1
  Li  Li3  1  0.51450954  0.09392483  0.34043748  1
  Li  Li4  1  0.48611541  0.92851591  0.66551657  1
  Li  Li5  1  0.50671102  0.39960220  0.66536755  1
  Li  Li6  1  0.99877693  0.16495198  0.66363096  1
  Mn  Mn7  1  0.99553227  0.00349060  0.99962262  1
  Mn  Mn8  1  0.99456921  0.66068375  0.66404667  1
  Mn  Mn9  1  0.00021186  0.49487019  0.99665383  1
  Mn  Mn10  1  0.00490482  0.83969114  0.33809919  1
  Co  Co11  1  0.00735477  0.33345971  0.34113262  1
  O  O12  1  0.21456787  0.93859702  0.83356672  1
  O  O13  1  0.24319751  0.31586966  0.15636510  1
  O  O14  1  0.22071889  0.47010735  0.83138774  1
  O  O15  1  0.21536605  0.78509905  0.15771186  1
  O  O16  1  0.22981533  0.64889313  0.50598662  1
  O  O17  1  0.23939006  0.10384060  0.48229374  1
  O  O18  1  0.78764775  0.56133511  0.16868361  1
  O  O19  1  0.77801134  0.85976631  0.49721982  1
  O  O20  1  0.76999182  0.02548797  0.16974866  1
  O  O21  1  0.76901760  0.39587406  0.50739459  1
  O  O22  1  0.76878381  0.22099266  0.85853926  1
  O  O23  1  0.76676690  0.68145236  0.82686372  1
