# generated using pymatgen
data_Li5Mn(CoO4)2
_symmetry_space_group_name_H-M   'P 1'
_cell_length_a   5.08368388
_cell_length_b   5.84093559
_cell_length_c   4.96551976
_cell_angle_alpha   89.94004976
_cell_angle_beta   99.16107801
_cell_angle_gamma   106.94009844
_symmetry_Int_Tables_number   1
_chemical_formula_structural   Li5Mn(CoO4)2
_chemical_formula_sum   'Li5 Mn1 Co2 O8'
_cell_volume   139.08624693
_cell_formula_units_Z   1
loop_
 _symmetry_equiv_pos_site_id
 _symmetry_equiv_pos_as_xyz
  1  'x, y, z'
loop_
 _atom_site_type_symbol
 _atom_site_label
 _atom_site_symmetry_multiplicity
 _atom_site_fract_x
 _atom_site_fract_y
 _atom_site_fract_z
 _atom_site_occupancy
  Li  Li0  1  0.50499785  0.37339653  0.25551302  1
  Li  Li1  1  0.49251881  0.61917506  0.74251246  1
  Li  Li2  1  0.50570507  0.87905638  0.25721872  1
  Li  Li3  1  0.49705030  0.12915887  0.74485167  1
  Li  Li4  1  0.99993342  0.25135634  0.49980815  1
  Mn  Mn5  1  0.00089608  0.00084636  0.00035784  1
  Co  Co6  1  0.99995509  0.48925972  0.00052232  1
  Co  Co7  1  -0.00071297  0.75380262  0.50004680  1
  O  O8  1  0.21592443  0.57855567  0.36766950  1
  O  O9  1  0.22245960  0.81615823  0.85710451  1
  O  O10  1  0.21991583  0.03682630  0.36322413  1
  O  O11  1  0.23675425  0.29596607  0.89516655  1
  O  O12  1  0.76600075  0.17572389  0.10525826  1
  O  O13  1  0.77910647  0.46809775  0.63059909  1
  O  O14  1  0.77565308  0.70560992  0.14114534  1
  O  O15  1  0.78384192  0.92701028  0.63900166  1
