# generated using pymatgen
data_Li7Mn4CoO12
_symmetry_space_group_name_H-M   'P 1'
_cell_length_a   5.89669152
_cell_length_b   5.95218342
_cell_length_c   6.54230457
_cell_angle_alpha   103.26375243
_cell_angle_beta   104.11227716
_cell_angle_gamma   88.39996404
_symmetry_Int_Tables_number   1
_chemical_formula_structural   Li7Mn4CoO12
_chemical_formula_sum   'Li7 Mn4 Co1 O12'
_cell_volume   216.65695696
_cell_formula_units_Z   1
loop_
 _symmetry_equiv_pos_site_id
 _symmetry_equiv_pos_as_xyz
  1  'x, y, z'
loop_
 _atom_site_type_symbol
 _atom_site_label
 _atom_site_symmetry_multiplicity
 _atom_site_fract_x
 _atom_site_fract_y
 _atom_site_fract_z
 _atom_site_occupancy
  Li  Li0  1  0.16847000  0.15567034  0.64934200  1
  Li  Li1  1  0.83271139  0.33561144  0.33675622  1
  Li  Li2  1  0.49913310  0.51322007  0.01340150  1
  Li  Li3  1  0.16994884  0.67495187  0.65853091  1
  Li  Li4  1  0.82894145  0.82692543  0.33639183  1
  Li  Li5  1  0.50071687  0.99022876  0.00421588  1
  Li  Li6  1  0.33623334  0.83359032  0.33592795  1
  Mn  Mn7  1  0.00237519  0.99623419  0.99823672  1
  Mn  Mn8  1  0.33725645  0.33732837  0.33266599  1
  Mn  Mn9  1  0.66128273  0.16279807  0.66391478  1
  Mn  Mn10  1  0.00195584  0.50503753  0.00318828  1
  Co  Co11  1  0.65645056  0.66897011  0.66273834  1
  O  O12  1  0.90909717  0.93762175  0.67583610  1
  O  O13  1  0.57802398  0.10182925  0.35166010  1
  O  O14  1  0.25099697  0.27856801  0.01892436  1
  O  O15  1  0.90144238  0.40565326  0.68905736  1
  O  O16  1  0.56750410  0.56343532  0.34069022  1
  O  O17  1  0.21512222  0.73771349  0.98829370  1
  O  O18  1  0.41667648  0.39064306  0.64610186  1
  O  O19  1  0.09276443  0.56648850  0.31823097  1
  O  O20  1  0.76090578  0.72793413  0.00537725  1
  O  O21  1  0.44229355  0.93881148  0.67788802  1
  O  O22  1  0.09758137  0.09851633  0.30907652  1
  O  O23  1  0.77211582  0.25221894  0.98355316  1
