# generated using pymatgen
data_NaCaAlFe(SiO3)4
_symmetry_space_group_name_H-M   'P 1'
_cell_length_a   5.34818148
_cell_length_b   8.89168450
_cell_length_c   19.23617223
_cell_angle_alpha   90.00000000
_cell_angle_beta   104.23858265
_cell_angle_gamma   90.00000000
_symmetry_Int_Tables_number   1
_chemical_formula_structural   NaCaAlFe(SiO3)4
_chemical_formula_sum   'Na4 Ca4 Al4 Fe4 Si16 O48'
_cell_volume   886.66193080
_cell_formula_units_Z   4
loop_
 _symmetry_equiv_pos_site_id
 _symmetry_equiv_pos_as_xyz
  1  'x, y, z'
loop_
 _atom_site_type_symbol
 _atom_site_label
 _atom_site_symmetry_multiplicity
 _atom_site_fract_x
 _atom_site_fract_y
 _atom_site_fract_z
 _atom_site_occupancy
  Na  Na0  1  -0.00000000  0.45487509  0.37500000  1
  Na  Na1  1  0.50133398  0.95567897  0.62317776  1
  Na  Na2  1  0.50000000  0.04622572  0.37500000  1
  Na  Na3  1  0.49866602  0.95567897  0.12682224  1
  Ca  Ca4  1  0.99331665  0.54522116  0.12693795  1
  Ca  Ca5  1  0.50000000  0.04990276  0.87500000  1
  Ca  Ca6  1  -0.00000000  0.45534118  0.87500000  1
  Ca  Ca7  1  0.00668335  0.54522116  0.62306205  1
  Al  Al8  1  0.99669713  0.14931534  0.62058480  1
  Al  Al9  1  0.00330287  0.14931534  0.12941520  1
  Al  Al10  1  0.50000000  0.65103141  0.37500000  1
  Al  Al11  1  -0.00000000  0.84965574  0.37500000  1
  Fe  Fe12  1  0.50000000  0.65778000  0.87500000  1
  Fe  Fe13  1  0.49803367  0.33983787  0.62019752  1
  Fe  Fe14  1  0.50196633  0.33983787  0.12980248  1
  Fe  Fe15  1  -0.00000000  0.84219731  0.87500000  1
  Si  Si16  1  0.19790873  0.15500143  0.98544259  1
  Si  Si17  1  0.19613364  0.84933849  0.72653074  1
  Si  Si18  1  0.29295744  0.33691877  0.76516839  1
  Si  Si19  1  0.18519703  0.15463565  0.47747520  1
  Si  Si20  1  0.30415924  0.66520183  0.51560299  1
  Si  Si21  1  0.19573500  0.84641325  0.23254813  1
  Si  Si22  1  0.30526806  0.33894356  0.27321890  1
  Si  Si23  1  0.70704256  0.33691877  0.98483161  1
  Si  Si24  1  0.30498931  0.66175775  0.02236554  1
  Si  Si25  1  0.69501069  0.66175775  0.72763446  1
  Si  Si26  1  0.80209127  0.15500143  0.76455741  1
  Si  Si27  1  0.69473194  0.33894356  0.47678110  1
  Si  Si28  1  0.80426500  0.84641325  0.51745187  1
  Si  Si29  1  0.69584076  0.66520183  0.23439701  1
  Si  Si30  1  0.81480297  0.15463565  0.27252480  1
  Si  Si31  1  0.80386636  0.84933849  0.02346926  1
  O  O32  1  0.09058922  0.23437898  0.80199074  1
  O  O33  1  0.22016627  0.99701211  0.94842054  1
  O  O34  1  0.22585005  0.65939138  0.93525274  1
  O  O35  1  0.08664084  0.76080394  0.54829389  1
  O  O36  1  0.27865138  0.84846761  0.81374497  1
  O  O37  1  0.18484021  0.01005798  0.68695008  1
  O  O38  1  0.19685078  0.32092578  0.67820129  1
  O  O39  1  0.28407254  0.49963136  0.80010988  1
  O  O40  1  0.41391074  0.26140136  0.95520131  1
  O  O41  1  0.09000953  0.24508304  0.30608533  1
  O  O42  1  0.24846804  0.16187930  0.56556606  1
  O  O43  1  0.17581134  0.98951858  0.44138352  1
  O  O44  1  0.23246853  0.68227523  0.42730373  1
  O  O45  1  0.28939931  0.50148910  0.54890275  1
  O  O46  1  0.40986605  0.74433003  0.69640952  1
  O  O47  1  0.08328181  0.75800926  0.05332048  1
  O  O48  1  0.26859384  0.82456589  0.32065739  1
  O  O49  1  0.19367401  0.00934143  0.19592348  1
  O  O50  1  0.20266641  0.32739923  0.18536268  1
  O  O51  1  0.32740216  0.50610501  0.30847241  1
  O  O52  1  0.41728519  0.24795959  0.45169687  1
  O  O53  1  0.58608926  0.26140136  0.79479869  1
  O  O54  1  0.71592746  0.49963136  0.94989012  1
  O  O55  1  0.25272776  0.16470196  0.07251509  1
  O  O56  1  0.72134862  0.84846761  0.93625503  1
  O  O57  1  0.30311014  0.49919381  0.05976244  1
  O  O58  1  0.40933632  0.74430933  0.20183888  1
  O  O59  1  0.59066368  0.74430933  0.54816112  1
  O  O60  1  0.69688986  0.49919381  0.69023756  1
  O  O61  1  0.77414995  0.65939138  0.81474726  1
  O  O62  1  0.77983373  0.99701211  0.80157946  1
  O  O63  1  0.74727224  0.16470196  0.67748491  1
  O  O64  1  0.90941078  0.23437898  0.94800926  1
  O  O65  1  0.58271481  0.24795959  0.29830313  1
  O  O66  1  0.67259784  0.50610501  0.44152759  1
  O  O67  1  0.79733359  0.32739923  0.56463732  1
  O  O68  1  0.80632599  0.00934143  0.55407652  1
  O  O69  1  0.73140616  0.82456589  0.42934261  1
  O  O70  1  0.91671819  0.75800926  0.69667952  1
  O  O71  1  0.59013395  0.74433003  0.05359048  1
  O  O72  1  0.71060069  0.50148910  0.20109725  1
  O  O73  1  0.76753147  0.68227523  0.32269627  1
  O  O74  1  0.82418866  0.98951858  0.30861648  1
  O  O75  1  0.75153196  0.16187930  0.18443394  1
  O  O76  1  0.90999047  0.24508304  0.44391467  1
  O  O77  1  0.80314922  0.32092578  0.07179871  1
  O  O78  1  0.81515979  0.01005798  0.06304992  1
  O  O79  1  0.91335916  0.76080394  0.20170611  1
