# generated using pymatgen
data_Li5Mn3O8
_symmetry_space_group_name_H-M   'P 1'
_cell_length_a   5.05859407
_cell_length_b   5.16846499
_cell_length_c   5.76466690
_cell_angle_alpha   90.01876702
_cell_angle_beta   106.59247994
_cell_angle_gamma   98.76077428
_symmetry_Int_Tables_number   1
_chemical_formula_structural   Li5Mn3O8
_chemical_formula_sum   'Li5 Mn3 O8'
_cell_volume   142.60419006
_cell_formula_units_Z   1
loop_
 _symmetry_equiv_pos_site_id
 _symmetry_equiv_pos_as_xyz
  1  'x, y, z'
loop_
 _atom_site_type_symbol
 _atom_site_label
 _atom_site_symmetry_multiplicity
 _atom_site_fract_x
 _atom_site_fract_y
 _atom_site_fract_z
 _atom_site_occupancy
  Li  Li0  1  0.50438968  0.24741786  0.87259023  1
  Li  Li1  1  0.49561032  0.75258214  0.12740977  1
  Li  Li2  1  0.48834077  0.75940586  0.61838778  1
  Li  Li3  1  0.51165923  0.24059414  0.38161222  1
  Li  Li4  1  0.00000000  0.00000000  0.50000000  1
  Mn  Mn5  1  0.00000000  0.00000000  0.00000000  1
  Mn  Mn6  1  0.99993591  0.49957135  0.25295892  1
  Mn  Mn7  1  0.00006409  0.50042865  0.74704108  1
  O  O8  1  0.21876010  0.85200374  0.81477039  1
  O  O9  1  0.23209570  0.39566228  0.05825411  1
  O  O10  1  0.22760638  0.39813377  0.55680435  1
  O  O11  1  0.22006876  0.85321943  0.29549682  1
  O  O12  1  0.76790430  0.60433772  0.94174589  1
  O  O13  1  0.78123990  0.14799626  0.18522961  1
  O  O14  1  0.77993124  0.14678057  0.70450318  1
  O  O15  1  0.77239362  0.60186623  0.44319565  1
