# generated using pymatgen
data_Mg2Co9O13
_symmetry_space_group_name_H-M   'P 1'
_cell_length_a   2.92765181
_cell_length_b   5.17441720
_cell_length_c   16.60028213
_cell_angle_alpha   98.16026717
_cell_angle_beta   90.03163476
_cell_angle_gamma   106.43130139
_symmetry_Int_Tables_number   1
_chemical_formula_structural   Mg2Co9O13
_chemical_formula_sum   'Mg2 Co9 O13'
_cell_volume   238.54376657
_cell_formula_units_Z   1
loop_
 _symmetry_equiv_pos_site_id
 _symmetry_equiv_pos_as_xyz
  1  'x, y, z'
loop_
 _atom_site_type_symbol
 _atom_site_label
 _atom_site_symmetry_multiplicity
 _atom_site_fract_x
 _atom_site_fract_y
 _atom_site_fract_z
 _atom_site_occupancy
  Mg  Mg0  1  0.20974129  0.41790225  0.22739952  1
  Mg  Mg1  1  0.79025871  0.58209775  0.77260048  1
  Co  Co2  1  0.50000000  -0.00000000  0.50000000  1
  Co  Co3  1  0.64572274  0.29022205  0.03998234  1
  Co  Co4  1  0.35427726  0.70977795  0.96001766  1
  Co  Co5  1  0.75192562  0.50521152  0.41670365  1
  Co  Co6  1  0.24807438  0.49478848  0.58329635  1
  Co  Co7  1  0.93282249  0.86583428  0.12810601  1
  Co  Co8  1  0.06717751  0.13416572  0.87189399  1
  Co  Co9  1  0.99597919  0.99348904  0.32900349  1
  Co  Co10  1  0.00402081  0.00651096  0.67099651  1
  O  O11  1  0.00000000  -0.00000000  -0.00000000  1
  O  O12  1  0.86129503  0.72134623  0.22385905  1
  O  O13  1  0.13870497  0.27865377  0.77614095  1
  O  O14  1  0.30120410  0.60172986  0.07349167  1
  O  O15  1  0.69879590  0.39827014  0.92650833  1
  O  O16  1  0.57715341  0.15548113  0.14674710  1
  O  O17  1  0.42284659  0.84451887  0.85325290  1
  O  O18  1  0.63869973  0.27159352  0.30747693  1
  O  O19  1  0.36130027  0.72840648  0.69252307  1
  O  O20  1  0.39321389  0.78730811  0.39092526  1
  O  O21  1  0.60678611  0.21269189  0.60907474  1
  O  O22  1  0.13485624  0.25540820  0.46536583  1
  O  O23  1  0.86514376  0.74459180  0.53463417  1
