# generated using pymatgen
data_Li7Mn5O12
_symmetry_space_group_name_H-M   'P 1'
_cell_length_a   5.32057511
_cell_length_b   7.73931064
_cell_length_c   5.74865497
_cell_angle_alpha   101.09406042
_cell_angle_beta   89.63767676
_cell_angle_gamma   105.52969389
_symmetry_Int_Tables_number   1
_chemical_formula_structural   Li7Mn5O12
_chemical_formula_sum   'Li7 Mn5 O12'
_cell_volume   223.55572619
_cell_formula_units_Z   1
loop_
 _symmetry_equiv_pos_site_id
 _symmetry_equiv_pos_as_xyz
  1  'x, y, z'
loop_
 _atom_site_type_symbol
 _atom_site_label
 _atom_site_symmetry_multiplicity
 _atom_site_fract_x
 _atom_site_fract_y
 _atom_site_fract_z
 _atom_site_occupancy
  Li  Li0  1  0.49396690  0.99150644  0.75415342  1
  Li  Li1  1  0.83936610  0.34182656  0.57917958  1
  Li  Li2  1  0.11818132  0.64922426  0.40284021  1
  Li  Li3  1  0.50998156  0.98153887  0.24750315  1
  Li  Li4  1  0.82335144  0.35179413  0.08582985  1
  Li  Li5  1  0.21515268  0.68410974  0.93049379  1
  Li  Li6  1  0.66666700  0.66666700  0.16666700  1
  Mn  Mn7  1  0.99193224  0.99268016  0.00413244  1
  Mn  Mn8  1  0.66666700  0.66666700  0.66666700  1
  Mn  Mn9  1  0.32777260  0.33536283  0.83306470  1
  Mn  Mn10  1  0.00556040  0.99797017  0.50026830  1
  Mn  Mn11  1  0.34140076  0.34065284  0.32920056  1
  O  O12  1  0.09335442  0.85161203  0.71355719  1
  O  O13  1  0.37361594  0.16627873  0.54014452  1
  O  O14  1  0.73827226  0.50680809  0.38690740  1
  O  O15  1  0.09697831  0.85172681  0.21922276  1
  O  O16  1  0.41696150  0.18970555  0.04004910  1
  O  O17  1  0.68102168  0.48025237  0.85458674  1
  O  O18  1  0.95971706  0.16705427  0.79318848  1
  O  O19  1  0.23997858  0.48172097  0.61977581  1
  O  O20  1  0.65231232  0.85308163  0.47874726  1
  O  O21  1  0.91637150  0.14362745  0.29328390  1
  O  O22  1  0.23635469  0.48160619  0.11411024  1
  O  O23  1  0.59506174  0.82652591  0.94642660  1
