# generated using pymatgen
data_MnFeCo(PO4)3
_symmetry_space_group_name_H-M   'P 1'
_cell_length_a   9.92872916
_cell_length_b   5.95631374
_cell_length_c   14.59209341
_cell_angle_alpha   90.00000000
_cell_angle_beta   90.51224179
_cell_angle_gamma   90.00000000
_symmetry_Int_Tables_number   1
_chemical_formula_structural   MnFeCo(PO4)3
_chemical_formula_sum   'Mn4 Fe4 Co4 P12 O48'
_cell_volume   862.92186577
_cell_formula_units_Z   4
loop_
 _symmetry_equiv_pos_site_id
 _symmetry_equiv_pos_as_xyz
  1  'x, y, z'
loop_
 _atom_site_type_symbol
 _atom_site_label
 _atom_site_symmetry_multiplicity
 _atom_site_fract_x
 _atom_site_fract_y
 _atom_site_fract_z
 _atom_site_occupancy
  Mn  Mn0  1  0.21760009  0.75000000  0.14678389  1
  Mn  Mn1  1  0.21861122  0.75000000  0.48098827  1
  Mn  Mn2  1  0.28641096  0.25000000  0.64720282  1
  Mn  Mn3  1  0.71687013  0.75000000  0.01984478  1
  Fe  Fe4  1  0.22217082  0.75000000  0.81951971  1
  Fe  Fe5  1  0.27697377  0.25000000  0.32180237  1
  Fe  Fe6  1  0.27313808  0.25000000  0.98751968  1
  Fe  Fe7  1  0.72391583  0.75000000  0.34685778  1
  Co  Co8  1  0.72363809  0.75000000  0.67933788  1
  Co  Co9  1  0.77693303  0.25000000  0.18283150  1
  Co  Co10  1  0.77971261  0.25000000  0.51863430  1
  Co  Co11  1  0.78158803  0.25000000  0.84805030  1
  P  P12  1  0.09654493  0.25000000  0.47219606  1
  P  P13  1  0.09377735  0.25000000  0.13820045  1
  P  P14  1  0.09756281  0.25000000  0.80324580  1
  P  P15  1  0.40027291  0.75000000  0.97359281  1
  P  P16  1  0.39891907  0.75000000  0.30635142  1
  P  P17  1  0.40353674  0.75000000  0.63974676  1
  P  P18  1  0.59820162  0.25000000  0.02780299  1
  P  P19  1  0.60061313  0.25000000  0.36303676  1
  P  P20  1  0.60028281  0.25000000  0.69542290  1
  P  P21  1  0.90155373  0.75000000  0.19222634  1
  P  P22  1  0.90381447  0.75000000  0.52754874  1
  P  P23  1  0.89976578  0.75000000  0.85914523  1
  O  O24  1  0.05262541  0.75000000  0.21554172  1
  O  O25  1  0.05522902  0.75000000  0.55199966  1
  O  O26  1  0.04997044  0.75000000  0.88335420  1
  O  O27  1  0.12061917  0.25000000  0.57631474  1
  O  O28  1  0.11735087  0.25000000  0.24142080  1
  O  O29  1  0.11729656  0.25000000  0.90821373  1
  O  O30  1  0.16966479  0.05070842  0.08861244  1
  O  O31  1  0.16966479  0.44929158  0.08861244  1
  O  O32  1  0.17164333  0.44933454  0.42263495  1
  O  O33  1  0.17164333  0.05066546  0.42263495  1
  O  O34  1  0.17175087  0.04522457  0.75819724  1
  O  O35  1  0.17175087  0.45477543  0.75819724  1
  O  O36  1  0.32708656  0.54880016  0.92509340  1
  O  O37  1  0.32708656  0.95119984  0.92509340  1
  O  O38  1  0.32648319  0.95418132  0.25959133  1
  O  O39  1  0.32648319  0.54581868  0.25959133  1
  O  O40  1  0.33237159  0.54825782  0.59009366  1
  O  O41  1  0.33237159  0.95174218  0.59009366  1
  O  O42  1  0.38107745  0.75000000  0.07857014  1
  O  O43  1  0.38291687  0.75000000  0.74309506  1
  O  O44  1  0.38065405  0.75000000  0.41168267  1
  O  O45  1  0.44768720  0.25000000  0.05075950  1
  O  O46  1  0.45034596  0.25000000  0.38609563  1
  O  O47  1  0.44842208  0.25000000  0.71860993  1
  O  O48  1  0.55146860  0.75000000  0.95260111  1
  O  O49  1  0.54994829  0.75000000  0.28626593  1
  O  O50  1  0.55681553  0.75000000  0.61902029  1
  O  O51  1  0.61805274  0.25000000  0.25824345  1
  O  O52  1  0.61681046  0.25000000  0.59063696  1
  O  O53  1  0.61849202  0.25000000  0.92487596  1
  O  O54  1  0.67247941  0.05022981  0.07907733  1
  O  O55  1  0.67247941  0.44977019  0.07907733  1
  O  O56  1  0.67572179  0.04762987  0.41061681  1
  O  O57  1  0.67572179  0.45237013  0.41061681  1
  O  O58  1  0.67192949  0.04897804  0.74455631  1
  O  O59  1  0.67192949  0.45102196  0.74455631  1
  O  O60  1  0.83009363  0.54557505  0.57502810  1
  O  O61  1  0.83009363  0.95442495  0.57502810  1
  O  O62  1  0.82767617  0.54835523  0.24061215  1
  O  O63  1  0.82767617  0.95164477  0.24061215  1
  O  O64  1  0.82626948  0.54560336  0.90505153  1
  O  O65  1  0.82626948  0.95439664  0.90505153  1
  O  O66  1  0.88443914  0.75000000  0.42356635  1
  O  O67  1  0.87915899  0.75000000  0.75363385  1
  O  O68  1  0.88281034  0.75000000  0.08763486  1
  O  O69  1  0.94408505  0.25000000  0.11302991  1
  O  O70  1  0.94708278  0.25000000  0.44874115  1
  O  O71  1  0.94717040  0.25000000  0.77795737  1
