# generated using pymatgen
data_Na2CuCSO7
_symmetry_space_group_name_H-M   'P 1'
_cell_length_a   8.78797315
_cell_length_b   7.07899428
_cell_length_c   5.17173713
_cell_angle_alpha   90.00000000
_cell_angle_beta   88.71086169
_cell_angle_gamma   90.00000000
_symmetry_Int_Tables_number   1
_chemical_formula_structural   Na2CuCSO7
_chemical_formula_sum   'Na4 Cu2 C2 S2 O14'
_cell_volume   321.65239366
_cell_formula_units_Z   2
loop_
 _symmetry_equiv_pos_site_id
 _symmetry_equiv_pos_as_xyz
  1  'x, y, z'
loop_
 _atom_site_type_symbol
 _atom_site_label
 _atom_site_symmetry_multiplicity
 _atom_site_fract_x
 _atom_site_fract_y
 _atom_site_fract_z
 _atom_site_occupancy
  Na  Na0  1  0.23369325  0.99978102  0.23119150  1
  Na  Na1  1  0.23369325  0.50021898  0.23119150  1
  Na  Na2  1  0.76630675  0.49978102  0.76880850  1
  Na  Na3  1  0.76630675  0.00021898  0.76880850  1
  Cu  Cu4  1  0.35373955  0.75000000  0.76619262  1
  Cu  Cu5  1  0.64626045  0.25000000  0.23380738  1
  C  C6  1  0.07552231  0.75000000  0.72564020  1
  C  C7  1  0.92447769  0.25000000  0.27435980  1
  S  S8  1  0.42166349  0.25000000  0.71330201  1
  S  S9  1  0.57833651  0.75000000  0.28669799  1
  O  O10  1  0.06747234  0.25000000  0.27614876  1
  O  O11  1  0.15244216  0.75000000  0.94082791  1
  O  O12  1  0.16404675  0.75000000  0.51899728  1
  O  O13  1  0.33579954  0.07861240  0.78749298  1
  O  O14  1  0.33579954  0.42138760  0.78749298  1
  O  O15  1  0.42440011  0.75000000  0.16627270  1
  O  O16  1  0.44714092  0.25000000  0.42035816  1
  O  O17  1  0.55285908  0.75000000  0.57964184  1
  O  O18  1  0.57559989  0.25000000  0.83372730  1
  O  O19  1  0.66420046  0.57861240  0.21250702  1
  O  O20  1  0.66420046  0.92138760  0.21250702  1
  O  O21  1  0.83595325  0.25000000  0.48100272  1
  O  O22  1  0.84755784  0.25000000  0.05917209  1
  O  O23  1  0.93252766  0.75000000  0.72385124  1
