# generated using pymatgen
data_MnFeCo(PO4)3
_symmetry_space_group_name_H-M   'P 1'
_cell_length_a   9.89561683
_cell_length_b   5.96499335
_cell_length_c   14.57989544
_cell_angle_alpha   90.00000000
_cell_angle_beta   89.94316572
_cell_angle_gamma   90.00000000
_symmetry_Int_Tables_number   1
_chemical_formula_structural   MnFeCo(PO4)3
_chemical_formula_sum   'Mn4 Fe4 Co4 P12 O48'
_cell_volume   860.61127242
_cell_formula_units_Z   4
loop_
 _symmetry_equiv_pos_site_id
 _symmetry_equiv_pos_as_xyz
  1  'x, y, z'
loop_
 _atom_site_type_symbol
 _atom_site_label
 _atom_site_symmetry_multiplicity
 _atom_site_fract_x
 _atom_site_fract_y
 _atom_site_fract_z
 _atom_site_occupancy
  Mn  Mn0  1  0.21470858  0.75000000  0.14594786  1
  Mn  Mn1  1  0.21482412  0.75000000  0.81268808  1
  Mn  Mn2  1  0.28328822  0.25000000  0.97942660  1
  Mn  Mn3  1  0.28320166  0.25000000  0.64629277  1
  Fe  Fe4  1  0.22405966  0.75000000  0.48696222  1
  Fe  Fe5  1  0.27798008  0.25000000  0.31953748  1
  Fe  Fe6  1  0.72350608  0.75000000  0.34633754  1
  Fe  Fe7  1  0.72673518  0.75000000  0.01083718  1
  Co  Co8  1  0.72156570  0.75000000  0.68331264  1
  Co  Co9  1  0.77394872  0.25000000  0.84480576  1
  Co  Co10  1  0.77818291  0.25000000  0.51594966  1
  Co  Co11  1  0.78100884  0.25000000  0.18458109  1
  P  P12  1  0.09753769  0.25000000  0.80552953  1
  P  P13  1  0.09644026  0.25000000  0.13821770  1
  P  P14  1  0.09836908  0.25000000  0.47240786  1
  P  P15  1  0.40048908  0.75000000  0.30505890  1
  P  P16  1  0.40314130  0.75000000  0.63890405  1
  P  P17  1  0.39954517  0.75000000  0.97198715  1
  P  P18  1  0.59983030  0.25000000  0.36362243  1
  P  P19  1  0.60181553  0.25000000  0.03027433  1
  P  P20  1  0.59782425  0.25000000  0.69224638  1
  P  P21  1  0.90342025  0.75000000  0.19349627  1
  P  P22  1  0.90197334  0.75000000  0.86022999  1
  P  P23  1  0.90080045  0.75000000  0.52918186  1
  O  O24  1  0.05338918  0.75000000  0.21927223  1
  O  O25  1  0.05380376  0.75000000  0.88432794  1
  O  O26  1  0.05125257  0.75000000  0.55248411  1
  O  O27  1  0.11983870  0.25000000  0.57737518  1
  O  O28  1  0.11852697  0.25000000  0.90983637  1
  O  O29  1  0.11786467  0.25000000  0.24220936  1
  O  O30  1  0.16905583  0.04830728  0.09001196  1
  O  O31  1  0.16905583  0.45169272  0.09001196  1
  O  O32  1  0.16827633  0.04887318  0.75644553  1
  O  O33  1  0.16827633  0.45112682  0.75644553  1
  O  O34  1  0.17238731  0.04857857  0.42474072  1
  O  O35  1  0.17238731  0.45142143  0.42474072  1
  O  O36  1  0.32902299  0.54541052  0.25889474  1
  O  O37  1  0.32902299  0.95458948  0.25889474  1
  O  O38  1  0.32785617  0.55096683  0.58950540  1
  O  O39  1  0.32785617  0.94903317  0.58950540  1
  O  O40  1  0.32796477  0.54848883  0.92341137  1
  O  O41  1  0.32796477  0.95151117  0.92341137  1
  O  O42  1  0.37985559  0.75000000  0.40948078  1
  O  O43  1  0.37849024  0.75000000  0.07666476  1
  O  O44  1  0.38001273  0.75000000  0.74303805  1
  O  O45  1  0.44911021  0.25000000  0.38662736  1
  O  O46  1  0.44905055  0.25000000  0.04877758  1
  O  O47  1  0.44676836  0.25000000  0.71853937  1
  O  O48  1  0.55296565  0.75000000  0.28412899  1
  O  O49  1  0.55320596  0.75000000  0.61564253  1
  O  O50  1  0.55171271  0.75000000  0.95195311  1
  O  O51  1  0.62008644  0.25000000  0.25931202  1
  O  O52  1  0.61376789  0.25000000  0.58849664  1
  O  O53  1  0.62729419  0.25000000  0.92506453  1
  O  O54  1  0.67337138  0.04728154  0.07773330  1
  O  O55  1  0.67337138  0.45271846  0.07773330  1
  O  O56  1  0.67481202  0.04847702  0.41161816  1
  O  O57  1  0.67481202  0.45152298  0.41161816  1
  O  O58  1  0.67278209  0.04702476  0.74078379  1
  O  O59  1  0.67278209  0.45297524  0.74078379  1
  O  O60  1  0.82555296  0.54704820  0.57705785  1
  O  O61  1  0.82555296  0.95295180  0.57705785  1
  O  O62  1  0.82794933  0.54849237  0.24236370  1
  O  O63  1  0.82794933  0.95150763  0.24236370  1
  O  O64  1  0.82850336  0.55019642  0.90975346  1
  O  O65  1  0.82850336  0.94980358  0.90975346  1
  O  O66  1  0.88347065  0.75000000  0.09025651  1
  O  O67  1  0.88044515  0.75000000  0.42537200  1
  O  O68  1  0.88431953  0.75000000  0.75584274  1
  O  O69  1  0.94352580  0.25000000  0.78598645  1
  O  O70  1  0.94459041  0.25000000  0.11416041  1
  O  O71  1  0.94742151  0.25000000  0.45069972  1
