# generated using pymatgen
data_Na3Li3Fe2P2(CO7)2
_symmetry_space_group_name_H-M   'P 1'
_cell_length_a   8.77414029
_cell_length_b   6.64184026
_cell_length_c   10.19776126
_cell_angle_alpha   90.00275971
_cell_angle_beta   88.13190399
_cell_angle_gamma   89.47514943
_symmetry_Int_Tables_number   1
_chemical_formula_structural   Na3Li3Fe2P2(CO7)2
_chemical_formula_sum   'Na6 Li6 Fe4 P4 C4 O28'
_cell_volume   593.94839674
_cell_formula_units_Z   2
loop_
 _symmetry_equiv_pos_site_id
 _symmetry_equiv_pos_as_xyz
  1  'x, y, z'
loop_
 _atom_site_type_symbol
 _atom_site_label
 _atom_site_symmetry_multiplicity
 _atom_site_fract_x
 _atom_site_fract_y
 _atom_site_fract_z
 _atom_site_occupancy
  Na  Na0  1  0.08276932  0.24741044  0.87904010  1
  Na  Na1  1  0.08440609  0.24711874  0.38104812  1
  Na  Na2  1  0.25983045  0.99912242  0.12108696  1
  Na  Na3  1  0.25931414  0.50062898  0.12218177  1
  Na  Na4  1  0.74581675  0.50200123  0.87575729  1
  Na  Na5  1  0.74051664  0.50228762  0.37630970  1
  Li  Li6  1  0.27382943  0.02260876  0.61868283  1
  Li  Li7  1  0.27460588  0.47603313  0.61975834  1
  Li  Li8  1  0.72810735  0.98120119  0.88285163  1
  Li  Li9  1  0.72589942  0.98305688  0.38257952  1
  Li  Li10  1  0.90938351  0.76657034  0.62463733  1
  Li  Li11  1  0.90613452  0.76514035  0.12664828  1
  Fe  Fe12  1  0.35698756  0.74916859  0.88110696  1
  Fe  Fe13  1  0.34884402  0.74991337  0.39762315  1
  Fe  Fe14  1  0.65180232  0.24407738  0.61194819  1
  Fe  Fe15  1  0.64812705  0.24424190  0.10741232  1
  P  P16  1  0.41304658  0.24441703  0.84724318  1
  P  P17  1  0.41740898  0.24404618  0.35949997  1
  P  P18  1  0.59128204  0.75383631  0.64935980  1
  P  P19  1  0.59181864  0.75225683  0.14543226  1
  C  C20  1  0.04635257  0.75853962  0.86160657  1
  C  C21  1  0.04479903  0.75988223  0.36400062  1
  C  C22  1  0.95211698  0.24683595  0.63485820  1
  C  C23  1  0.94017050  0.24602535  0.13760857  1
  O  O24  1  0.10028311  0.25038187  0.63945139  1
  O  O25  1  0.08663129  0.25227241  0.14748468  1
  O  O26  1  0.08042978  0.75222081  0.98507345  1
  O  O27  1  0.08512627  0.75365154  0.48553836  1
  O  O28  1  0.15480179  0.74606143  0.77100043  1
  O  O29  1  0.15009773  0.74917405  0.27012548  1
  O  O30  1  0.31363128  0.06301332  0.88998317  1
  O  O31  1  0.32409110  0.43463898  0.89465364  1
  O  O32  1  0.31632788  0.06298007  0.40565262  1
  O  O33  1  0.32857738  0.43579240  0.41037820  1
  O  O34  1  0.42778219  0.24882846  0.69262028  1
  O  O35  1  0.42587135  0.75254019  0.59723885  1
  O  O36  1  0.43185372  0.24892115  0.20681278  1
  O  O37  1  0.43582254  0.74719811  0.07913722  1
  O  O38  1  0.57516281  0.23262496  0.90356011  1
  O  O39  1  0.57774218  0.77742639  0.80196659  1
  O  O40  1  0.57903206  0.22984233  0.41448137  1
  O  O41  1  0.56676776  0.77454554  0.29726079  1
  O  O42  1  0.68319363  0.55948043  0.61466902  1
  O  O43  1  0.69069764  0.92680887  0.59039709  1
  O  O44  1  0.68896705  0.55942642  0.11512565  1
  O  O45  1  0.69284653  0.92850811  0.09162545  1
  O  O46  1  0.86654598  0.23841458  0.74127516  1
  O  O47  1  0.85109796  0.23485210  0.24179530  1
  O  O48  1  0.88482773  0.25104546  0.52288536  1
  O  O49  1  0.87962729  0.25055896  0.02265706  1
  O  O50  1  0.90590015  0.77649575  0.82616647  1
  O  O51  1  0.90289606  0.77587647  0.33270437  1
