# generated using pymatgen
data_LiMnF3
_symmetry_space_group_name_H-M   'P 1'
_cell_length_a   6.78793646
_cell_length_b   6.78793646
_cell_length_c   5.57183434
_cell_angle_alpha   82.68957703
_cell_angle_beta   97.31042297
_cell_angle_gamma   94.14854490
_symmetry_Int_Tables_number   1
_chemical_formula_structural   LiMnF3
_chemical_formula_sum   'Li4 Mn4 F12'
_cell_volume   252.15980339
_cell_formula_units_Z   4
loop_
 _symmetry_equiv_pos_site_id
 _symmetry_equiv_pos_as_xyz
  1  'x, y, z'
loop_
 _atom_site_type_symbol
 _atom_site_label
 _atom_site_symmetry_multiplicity
 _atom_site_fract_x
 _atom_site_fract_y
 _atom_site_fract_z
 _atom_site_occupancy
  Li  Li0  1  0.21755301  0.60505182  0.70577357  1
  Li  Li1  1  0.39494818  0.78244699  0.20577357  1
  Li  Li2  1  0.60505182  0.21755301  0.79422643  1
  Li  Li3  1  0.78244699  0.39494818  0.29422643  1
  Mn  Mn4  1  0.09572335  0.09572335  0.75000000  1
  Mn  Mn5  1  0.70271339  0.70271339  0.75000000  1
  Mn  Mn6  1  0.29728661  0.29728661  0.25000000  1
  Mn  Mn7  1  0.90427665  0.90427665  0.25000000  1
  F  F8  1  0.01799030  0.80230658  0.62593117  1
  F  F9  1  0.19769342  0.98200970  0.12593117  1
  F  F10  1  0.43816631  0.71313313  0.89818855  1
  F  F11  1  0.13930151  0.36674558  0.89612623  1
  F  F12  1  0.28686687  0.56183369  0.39818855  1
  F  F13  1  0.63325442  0.86069849  0.39612623  1
  F  F14  1  0.36674558  0.13930151  0.60387377  1
  F  F15  1  0.71313313  0.43816631  0.60181145  1
  F  F16  1  0.86069849  0.63325442  0.10387377  1
  F  F17  1  0.56183369  0.28686687  0.10181145  1
  F  F18  1  0.80230658  0.01799030  0.87406883  1
  F  F19  1  0.98200970  0.19769342  0.37406883  1
