# generated using pymatgen
data_Li7Mn5O12
_symmetry_space_group_name_H-M   'P 1'
_cell_length_a   5.06983171
_cell_length_b   5.10570673
_cell_length_c   9.02734788
_cell_angle_alpha   88.23069033
_cell_angle_beta   87.30281496
_cell_angle_gamma   107.98408833
_symmetry_Int_Tables_number   1
_chemical_formula_structural   Li7Mn5O12
_chemical_formula_sum   'Li7 Mn5 O12'
_cell_volume   221.75692898
_cell_formula_units_Z   1
loop_
 _symmetry_equiv_pos_site_id
 _symmetry_equiv_pos_as_xyz
  1  'x, y, z'
loop_
 _atom_site_type_symbol
 _atom_site_label
 _atom_site_symmetry_multiplicity
 _atom_site_fract_x
 _atom_site_fract_y
 _atom_site_fract_z
 _atom_site_occupancy
  Li  Li0  1  -0.00000000  0.50000000  0.16666700  1
  Li  Li1  1  0.49609792  0.50227145  0.31805308  1
  Li  Li2  1  0.98615380  0.48959634  0.48889011  1
  Li  Li3  1  0.50000000  0.50000000  0.66666700  1
  Li  Li4  1  0.01384620  0.51040366  0.84444289  1
  Li  Li5  1  0.50390208  0.49772855  0.01527992  1
  Li  Li6  1  0.50000000  -0.00000000  0.16666700  1
  Mn  Mn7  1  0.00658443  0.00088139  0.00624098  1
  Mn  Mn8  1  0.99341557  0.99911861  0.32709202  1
  Mn  Mn9  1  0.49685857  0.00035753  0.49650090  1
  Mn  Mn10  1  -0.00000000  -0.00000000  0.66666700  1
  Mn  Mn11  1  0.50314143  -0.00035753  0.83683210  1
  O  O12  1  0.74197668  0.21372346  0.97582022  1
  O  O13  1  0.22857833  0.24678127  0.17906273  1
  O  O14  1  0.74070726  0.22959715  0.34600893  1
  O  O15  1  0.25727229  0.23201462  0.51629765  1
  O  O16  1  0.73171245  0.21422226  0.65806080  1
  O  O17  1  0.26211826  0.22826190  0.84406365  1
  O  O18  1  0.25802332  0.78627654  0.35751378  1
  O  O19  1  0.73788174  0.77173810  0.48926935  1
  O  O20  1  0.26828755  0.78577774  0.67527220  1
  O  O21  1  0.74272771  0.76798538  0.81703635  1
  O  O22  1  0.25929274  0.77040285  0.98732407  1
  O  O23  1  0.77142167  0.75321873  0.15427027  1
