# generated using pymatgen
data_MnFeCo(PO4)3
_symmetry_space_group_name_H-M   'P 1'
_cell_length_a   9.91599133
_cell_length_b   5.94781288
_cell_length_c   14.58014503
_cell_angle_alpha   90.00000000
_cell_angle_beta   90.69059198
_cell_angle_gamma   90.00000000
_symmetry_Int_Tables_number   1
_chemical_formula_structural   MnFeCo(PO4)3
_chemical_formula_sum   'Mn4 Fe4 Co4 P12 O48'
_cell_volume   859.85205164
_cell_formula_units_Z   4
loop_
 _symmetry_equiv_pos_site_id
 _symmetry_equiv_pos_as_xyz
  1  'x, y, z'
loop_
 _atom_site_type_symbol
 _atom_site_label
 _atom_site_symmetry_multiplicity
 _atom_site_fract_x
 _atom_site_fract_y
 _atom_site_fract_z
 _atom_site_occupancy
  Mn  Mn0  1  0.21540879  0.75000000  0.48042721  1
  Mn  Mn1  1  0.28219257  0.25000000  0.31436456  1
  Mn  Mn2  1  0.28619714  0.25000000  0.64614870  1
  Mn  Mn3  1  0.71617237  0.75000000  0.01962520  1
  Fe  Fe4  1  0.22490967  0.75000000  0.15318303  1
  Fe  Fe5  1  0.22197925  0.75000000  0.81921465  1
  Fe  Fe6  1  0.27466222  0.25000000  0.98666144  1
  Fe  Fe7  1  0.72467030  0.75000000  0.34693447  1
  Co  Co8  1  0.72411928  0.75000000  0.67963073  1
  Co  Co9  1  0.78160907  0.25000000  0.84773238  1
  Co  Co10  1  0.77676249  0.25000000  0.18300166  1
  Co  Co11  1  0.78090787  0.25000000  0.51940415  1
  P  P12  1  0.09757830  0.25000000  0.47129830  1
  P  P13  1  0.09713069  0.25000000  0.13866456  1
  P  P14  1  0.09809163  0.25000000  0.80309456  1
  P  P15  1  0.40190981  0.75000000  0.97252815  1
  P  P16  1  0.40048633  0.75000000  0.30649161  1
  P  P17  1  0.40320681  0.75000000  0.63973602  1
  P  P18  1  0.59831300  0.25000000  0.02814856  1
  P  P19  1  0.59916555  0.25000000  0.36196259  1
  P  P20  1  0.60022388  0.25000000  0.69626693  1
  P  P21  1  0.90353926  0.75000000  0.52811728  1
  P  P22  1  0.90089483  0.75000000  0.19312336  1
  P  P23  1  0.89902282  0.75000000  0.86044818  1
  O  O24  1  0.05453936  0.75000000  0.55275096  1
  O  O25  1  0.05098165  0.75000000  0.21560233  1
  O  O26  1  0.04954415  0.75000000  0.88254938  1
  O  O27  1  0.11888595  0.25000000  0.24341815  1
  O  O28  1  0.12095787  0.25000000  0.57590493  1
  O  O29  1  0.11840386  0.25000000  0.90806818  1
  O  O30  1  0.17000142  0.04803193  0.42278208  1
  O  O31  1  0.17000142  0.45196807  0.42278208  1
  O  O32  1  0.17188850  0.04830940  0.09077446  1
  O  O33  1  0.17188850  0.45169060  0.09077446  1
  O  O34  1  0.17140303  0.04509498  0.75785431  1
  O  O35  1  0.17140303  0.45490502  0.75785431  1
  O  O36  1  0.32772641  0.54812086  0.92404400  1
  O  O37  1  0.32772641  0.95187914  0.92404400  1
  O  O38  1  0.32616049  0.55061197  0.25548354  1
  O  O39  1  0.32616049  0.94938803  0.25548354  1
  O  O40  1  0.33308517  0.95179020  0.58957422  1
  O  O41  1  0.33308517  0.54820980  0.58957422  1
  O  O42  1  0.38208935  0.75000000  0.07629262  1
  O  O43  1  0.38162059  0.75000000  0.74302038  1
  O  O44  1  0.37831183  0.75000000  0.40999889  1
  O  O45  1  0.44790550  0.25000000  0.05097459  1
  O  O46  1  0.44719694  0.25000000  0.38433752  1
  O  O47  1  0.44817869  0.25000000  0.71798911  1
  O  O48  1  0.55315246  0.75000000  0.94993275  1
  O  O49  1  0.55053667  0.75000000  0.28545082  1
  O  O50  1  0.55725316  0.75000000  0.61989583  1
  O  O51  1  0.61595598  0.25000000  0.25722217  1
  O  O52  1  0.61888693  0.25000000  0.59153687  1
  O  O53  1  0.61903198  0.25000000  0.92502658  1
  O  O54  1  0.67262887  0.05008685  0.07979029  1
  O  O55  1  0.67262887  0.44991315  0.07979029  1
  O  O56  1  0.67238052  0.04673750  0.41023501  1
  O  O57  1  0.67238052  0.45326250  0.41023501  1
  O  O58  1  0.67187200  0.04804811  0.74584366  1
  O  O59  1  0.67187200  0.45195189  0.74584366  1
  O  O60  1  0.82919179  0.54613863  0.57558458  1
  O  O61  1  0.82919179  0.95386137  0.57558458  1
  O  O62  1  0.82557386  0.54818016  0.24156428  1
  O  O63  1  0.82557386  0.95181984  0.24156428  1
  O  O64  1  0.82634383  0.54472833  0.90646042  1
  O  O65  1  0.82634383  0.95527167  0.90646042  1
  O  O66  1  0.87640229  0.75000000  0.75508633  1
  O  O67  1  0.88342829  0.75000000  0.42410258  1
  O  O68  1  0.88058155  0.75000000  0.08858760  1
  O  O69  1  0.94591403  0.25000000  0.44942068  1
  O  O70  1  0.94616784  0.25000000  0.11653863  1
  O  O71  1  0.94651037  0.25000000  0.77845615  1
