# generated using pymatgen
data_Li7Mn4CoO12
_symmetry_space_group_name_H-M   'P 1'
_cell_length_a   5.16481110
_cell_length_b   8.60408542
_cell_length_c   5.18044124
_cell_angle_alpha   90.00000000
_cell_angle_beta   68.63508401
_cell_angle_gamma   90.00000000
_symmetry_Int_Tables_number   1
_chemical_formula_structural   Li7Mn4CoO12
_chemical_formula_sum   'Li7 Mn4 Co1 O12'
_cell_volume   214.39060419
_cell_formula_units_Z   1
loop_
 _symmetry_equiv_pos_site_id
 _symmetry_equiv_pos_as_xyz
  1  'x, y, z'
loop_
 _atom_site_type_symbol
 _atom_site_label
 _atom_site_symmetry_multiplicity
 _atom_site_fract_x
 _atom_site_fract_y
 _atom_site_fract_z
 _atom_site_occupancy
  Li  Li0  1  0.50000000  0.16666700  0.00000000  1
  Li  Li1  1  0.50000000  0.32725502  0.50000000  1
  Li  Li2  1  0.50000000  0.49918996  0.00000000  1
  Li  Li3  1  0.50000000  0.66666700  0.50000000  1
  Li  Li4  1  0.50000000  0.83414304  0.00000000  1
  Li  Li5  1  0.50000000  0.00607798  0.50000000  1
  Li  Li6  1  -0.00000000  0.16666700  0.50000000  1
  Mn  Mn7  1  -0.00000000  0.99978699  0.00000000  1
  Mn  Mn8  1  -0.00000000  0.33354601  0.00000000  1
  Mn  Mn9  1  -0.00000000  0.49605750  0.50000000  1
  Mn  Mn10  1  -0.00000000  0.83727550  0.50000000  1
  Co  Co11  1  -0.00000000  0.66666700  0.00000000  1
  O  O12  1  0.23172368  0.16666700  0.78005833  1
  O  O13  1  0.21618255  0.34063532  0.24239558  1
  O  O14  1  0.23613782  0.49996873  0.77806861  1
  O  O15  1  0.21018435  0.66666700  0.25168273  1
  O  O16  1  0.23613782  0.83336427  0.77806861  1
  O  O17  1  0.21618255  0.99269768  0.24239558  1
  O  O18  1  0.76827632  0.16666700  0.21994167  1
  O  O19  1  0.78381745  0.34063532  0.75760442  1
  O  O20  1  0.76386218  0.49996873  0.22193139  1
  O  O21  1  0.78981565  0.66666700  0.74831727  1
  O  O22  1  0.76386218  0.83336427  0.22193139  1
  O  O23  1  0.78381745  0.99269768  0.75760442  1
