# generated using pymatgen
data_Mg2TaVO6
_symmetry_space_group_name_H-M   'P 1'
_cell_length_a   5.22222757
_cell_length_b   5.44498462
_cell_length_c   7.55511634
_cell_angle_alpha   90.00000000
_cell_angle_beta   90.00000000
_cell_angle_gamma   89.69580685
_symmetry_Int_Tables_number   1
_chemical_formula_structural   Mg2TaVO6
_chemical_formula_sum   'Mg4 Ta2 V2 O12'
_cell_volume   214.82631871
_cell_formula_units_Z   2
loop_
 _symmetry_equiv_pos_site_id
 _symmetry_equiv_pos_as_xyz
  1  'x, y, z'
loop_
 _atom_site_type_symbol
 _atom_site_label
 _atom_site_symmetry_multiplicity
 _atom_site_fract_x
 _atom_site_fract_y
 _atom_site_fract_z
 _atom_site_occupancy
  Mg  Mg0  1  0.00422108  0.95802518  0.25000000  1
  Mg  Mg1  1  0.48321559  0.43490785  0.25000000  1
  Mg  Mg2  1  0.51678441  0.56509215  0.75000000  1
  Mg  Mg3  1  0.99577892  0.04197482  0.75000000  1
  Ta  Ta4  1  0.00000000  0.50000000  0.00000000  1
  Ta  Ta5  1  0.00000000  0.50000000  0.50000000  1
  V  V6  1  0.50000000  0.00000000  0.00000000  1
  V  V7  1  0.50000000  0.00000000  0.50000000  1
  O  O8  1  0.82841879  0.81131593  0.56928673  1
  O  O9  1  0.31316976  0.67886930  0.43077779  1
  O  O10  1  0.17158121  0.18868407  0.43071327  1
  O  O11  1  0.68683024  0.32113070  0.93077779  1
  O  O12  1  0.13575985  0.44320686  0.75000000  1
  O  O13  1  0.68683024  0.32113070  0.56922221  1
  O  O14  1  0.31316976  0.67886930  0.06922221  1
  O  O15  1  0.82841879  0.81131593  0.93071327  1
  O  O16  1  0.61761087  0.05813245  0.25000000  1
  O  O17  1  0.17158121  0.18868407  0.06928673  1
  O  O18  1  0.38238913  0.94186755  0.75000000  1
  O  O19  1  0.86424015  0.55679314  0.25000000  1
