# generated using pymatgen
data_Li6V3P8O29
_symmetry_space_group_name_H-M   'P 1'
_cell_length_a   9.79804614
_cell_length_b   9.82280157
_cell_length_c   13.98484979
_cell_angle_alpha   89.53681493
_cell_angle_beta   89.94941080
_cell_angle_gamma   60.20752392
_symmetry_Int_Tables_number   1
_chemical_formula_structural   Li6V3P8O29
_chemical_formula_sum   'Li12 V6 P16 O58'
_cell_volume   1168.02099046
_cell_formula_units_Z   2
loop_
 _symmetry_equiv_pos_site_id
 _symmetry_equiv_pos_as_xyz
  1  'x, y, z'
loop_
 _atom_site_type_symbol
 _atom_site_label
 _atom_site_symmetry_multiplicity
 _atom_site_fract_x
 _atom_site_fract_y
 _atom_site_fract_z
 _atom_site_occupancy
  Li  Li0  1  0.76291719  0.89843793  0.55533925  1
  Li  Li1  1  0.89710917  0.33401924  0.55686977  1
  Li  Li2  1  0.76746432  0.33662646  0.06299794  1
  Li  Li3  1  0.33578435  0.90138958  0.06249447  1
  Li  Li4  1  0.32726746  0.76738706  0.55658796  1
  Li  Li5  1  0.67875426  0.08818085  0.94068925  1
  Li  Li6  1  0.23493862  0.67598033  0.94353694  1
  Li  Li7  1  0.33036181  0.34282721  0.60805611  1
  Li  Li8  1  0.32387570  0.34050123  0.11346380  1
  Li  Li9  1  0.22963400  0.09302424  0.43596513  1
  Li  Li10  1  0.99570979  0.99883898  0.01217904  1
  Li  Li11  1  0.97298346  0.98447365  0.48589139  1
  V  V12  1  0.56378055  0.43526039  0.25645113  1
  V  V13  1  0.43792089  0.56311437  0.74759910  1
  V  V14  1  0.56946053  0.99744681  0.75463290  1
  V  V15  1  0.43711910  0.99957472  0.25080891  1
  V  V16  1  0.99529887  0.56510927  0.24758584  1
  V  V17  1  0.99956981  0.43516671  0.75315845  1
  P  P18  1  0.92155008  0.77247615  0.84464913  1
  P  P19  1  0.77821889  0.91222894  0.33874240  1
  P  P20  1  0.91532477  0.31099451  0.34531648  1
  P  P21  1  0.66308882  0.66379641  0.12957382  1
  P  P22  1  0.66738265  0.66743880  0.62959470  1
  P  P23  1  0.77185777  0.31449593  0.84365237  1
  P  P24  1  0.69051937  0.22063953  0.65980653  1
  P  P25  1  0.31184419  0.91293304  0.84346726  1
  P  P26  1  0.68585116  0.09554620  0.15584458  1
  P  P27  1  0.31353218  0.77444406  0.34343937  1
  P  P28  1  0.22348918  0.68636023  0.15971942  1
  P  P29  1  0.32736269  0.33453171  0.36880166  1
  P  P30  1  0.33752822  0.33241074  0.87038384  1
  P  P31  1  0.08323315  0.69331345  0.65531084  1
  P  P32  1  0.22665680  0.09310041  0.65943768  1
  P  P33  1  0.08861881  0.21900935  0.15951805  1
  O  O34  1  0.98894655  0.79361353  0.57249584  1
  O  O35  1  0.91134917  0.74405888  0.33264376  1
  O  O36  1  0.77290394  0.01376723  0.06672363  1
  O  O37  1  0.75073309  0.91518131  0.84168814  1
  O  O38  1  0.92059408  0.61794829  0.83258082  1
  O  O39  1  0.81220974  0.65789068  0.17507591  1
  O  O40  1  0.91567357  0.46590802  0.33376196  1
  O  O41  1  0.99475631  0.20463844  0.07949793  1
  O  O42  1  0.91361846  0.34111769  0.83372810  1
  O  O43  1  0.67216137  0.81210494  0.67098349  1
  O  O44  1  0.61649133  0.91903585  0.32430897  1
  O  O45  1  0.81275244  0.51368789  0.66867941  1
  O  O46  1  0.66561131  0.65254124  0.02319641  1
  O  O47  1  0.65784702  0.67164270  0.52288603  1
  O  O48  1  0.66161630  0.51610503  0.17450019  1
  O  O49  1  0.46895761  0.91418173  0.82569615  1
  O  O50  1  0.51507107  0.81441559  0.16673614  1
  O  O51  1  0.74979595  0.33462794  0.33874298  1
  O  O52  1  0.78627351  0.20018582  0.75759000  1
  O  O53  1  0.79071595  0.21383405  0.57761928  1
  O  O54  1  0.77653813  0.22981808  0.93509132  1
  O  O55  1  0.61834853  0.47042855  0.82953583  1
  O  O56  1  0.51453863  0.66878116  0.67176856  1
  O  O57  1  0.66330874  0.26213755  0.15958391  1
  O  O58  1  0.47135788  0.62247388  0.33306135  1
  O  O59  1  0.33616516  0.92041916  0.33725656  1
  O  O60  1  0.79223123  0.00602932  0.24814398  1
  O  O61  1  0.78231412  0.98949875  0.42996588  1
  O  O62  1  0.23261236  0.00163925  0.57166824  1
  O  O63  1  0.66144143  0.07825959  0.66097960  1
  O  O64  1  0.52596910  0.37124564  0.66748200  1
  O  O65  1  0.33866987  0.74512976  0.83718318  1
  O  O66  1  0.47610697  0.33416202  0.32672194  1
  O  O67  1  0.37520349  0.52461849  0.16971066  1
  O  O68  1  0.22578054  0.77745236  0.07182976  1
  O  O69  1  0.22451632  0.78667741  0.43352154  1
  O  O70  1  0.20674784  0.79219968  0.25137427  1
  O  O71  1  0.25472581  0.66153472  0.65393938  1
  O  O72  1  0.49517716  0.18512350  0.83683981  1
  O  O73  1  0.52200149  0.10903862  0.16869623  1
  O  O74  1  0.33417988  0.48426490  0.82719408  1
  O  O75  1  0.33697709  0.34159893  0.97772430  1
  O  O76  1  0.32408309  0.33682628  0.47607348  1
  O  O77  1  0.18417575  0.47686102  0.32070955  1
  O  O78  1  0.37452852  0.10945741  0.67285455  1
  O  O79  1  0.32664602  0.18322583  0.33396463  1
  O  O80  1  0.08236187  0.66077082  0.15921935  1
  O  O81  1  0.00479754  0.79255613  0.75008241  1
  O  O82  1  0.00998497  0.78525504  0.92824939  1
  O  O83  1  0.09201824  0.53085761  0.66730365  1
  O  O84  1  0.19734196  0.32672556  0.82398277  1
  O  O85  1  0.09934883  0.37075754  0.16323674  1
  O  O86  1  0.26129252  0.07866460  0.15904185  1
  O  O87  1  0.23447455  0.98777660  0.93544596  1
  O  O88  1  0.20454657  0.00687950  0.75220796  1
  O  O89  1  0.08031906  0.25958655  0.65795388  1
  O  O90  1  0.99934500  0.22132858  0.43558922  1
  O  O91  1  0.01688133  0.19813325  0.25822554  1
