# generated using pymatgen
data_Li3VFeP2(O4F)2
_symmetry_space_group_name_H-M   'P 1'
_cell_length_a   5.23019396
_cell_length_b   5.41665873
_cell_length_c   7.41330956
_cell_angle_alpha   73.39629209
_cell_angle_beta   72.64276632
_cell_angle_gamma   97.51438206
_symmetry_Int_Tables_number   1
_chemical_formula_structural   Li3VFeP2(O4F)2
_chemical_formula_sum   'Li3 V1 Fe1 P2 O8 F2'
_cell_volume   186.66406789
_cell_formula_units_Z   1
loop_
 _symmetry_equiv_pos_site_id
 _symmetry_equiv_pos_as_xyz
  1  'x, y, z'
loop_
 _atom_site_type_symbol
 _atom_site_label
 _atom_site_symmetry_multiplicity
 _atom_site_fract_x
 _atom_site_fract_y
 _atom_site_fract_z
 _atom_site_occupancy
  Li  Li0  1  0.24106166  0.58261771  0.85087122  1
  Li  Li1  1  0.50751535  0.97027274  0.50867499  1
  Li  Li2  1  0.74579389  0.40767780  0.16202932  1
  V  V3  1  0.99988899  0.00003263  0.99932426  1
  Fe  Fe4  1  0.00692522  0.00359025  0.49910664  1
  P  P5  1  0.33616249  0.64034345  0.23951480  1
  P  P6  1  0.66444067  0.36103025  0.75862526  1
  O  O7  1  0.13201795  0.66755697  0.11882916  1
  O  O8  1  0.27673348  0.78529792  0.39106438  1
  O  O9  1  0.32890448  0.34482758  0.33692504  1
  O  O10  1  0.63729989  0.75434233  0.08128168  1
  O  O11  1  0.36273098  0.24692395  0.91643443  1
  O  O12  1  0.67263223  0.65750752  0.65952857  1
  O  O13  1  0.72583296  0.21358843  0.60885992  1
  O  O14  1  0.86600940  0.33376233  0.88175722  1
  F  F15  1  0.15443529  0.91361163  0.74266017  1
  F  F16  1  0.84955106  0.08151552  0.25807795  1
