# generated using pymatgen
data_Li6V3P8O29
_symmetry_space_group_name_H-M   'P 1'
_cell_length_a   9.76043063
_cell_length_b   9.78398594
_cell_length_c   13.97346891
_cell_angle_alpha   89.83803480
_cell_angle_beta   90.14230038
_cell_angle_gamma   60.47234470
_symmetry_Int_Tables_number   1
_chemical_formula_structural   Li6V3P8O29
_chemical_formula_sum   'Li12 V6 P16 O58'
_cell_volume   1161.07719706
_cell_formula_units_Z   2
loop_
 _symmetry_equiv_pos_site_id
 _symmetry_equiv_pos_as_xyz
  1  'x, y, z'
loop_
 _atom_site_type_symbol
 _atom_site_label
 _atom_site_symmetry_multiplicity
 _atom_site_fract_x
 _atom_site_fract_y
 _atom_site_fract_z
 _atom_site_occupancy
  Li  Li0  1  0.76286141  0.89991421  0.56081782  1
  Li  Li1  1  0.90247283  0.33596979  0.56355281  1
  Li  Li2  1  0.76661088  0.33416572  0.05634407  1
  Li  Li3  1  0.33211292  0.90520681  0.05962789  1
  Li  Li4  1  0.66269730  0.23671221  0.43767805  1
  Li  Li5  1  0.33538615  0.76416755  0.56128271  1
  Li  Li6  1  0.66978967  0.09413217  0.94049569  1
  Li  Li7  1  0.23446645  0.66680276  0.94323739  1
  Li  Li8  1  0.09707591  0.66335210  0.43673574  1
  Li  Li9  1  0.23599404  0.10145945  0.43964736  1
  Li  Li10  1  0.99865081  0.00214688  0.99969929  1
  Li  Li11  1  0.00021880  0.99936384  0.49961154  1
  V  V12  1  0.56204743  0.43905106  0.25076225  1
  V  V13  1  0.43936392  0.56064703  0.74860388  1
  V  V14  1  0.56478723  0.99732694  0.75296709  1
  V  V15  1  0.43504041  0.00239292  0.24801838  1
  V  V16  1  0.99588691  0.56354556  0.24567510  1
  V  V17  1  0.00500402  0.43648701  0.75424335  1
  P  P18  1  0.91640561  0.77893893  0.84043069  1
  P  P19  1  0.77615997  0.91391962  0.34101721  1
  P  P20  1  0.91651211  0.30848466  0.34594310  1
  P  P21  1  0.66365046  0.66732742  0.13139123  1
  P  P22  1  0.66911924  0.66432594  0.63081531  1
  P  P23  1  0.77729770  0.31176317  0.84107201  1
  P  P24  1  0.68747396  0.22354436  0.65788912  1
  P  P25  1  0.31060774  0.90997223  0.84385820  1
  P  P26  1  0.68849551  0.09070588  0.15609384  1
  P  P27  1  0.31277034  0.77542452  0.34258967  1
  P  P28  1  0.22415820  0.68715889  0.15897116  1
  P  P29  1  0.33023779  0.33515094  0.36881931  1
  P  P30  1  0.33731439  0.33328008  0.86856207  1
  P  P31  1  0.08289018  0.69235047  0.65386995  1
  P  P32  1  0.22395337  0.08698645  0.65890275  1
  P  P33  1  0.08387137  0.22102996  0.15962853  1
  O  O34  1  0.99798938  0.78140656  0.56316712  1
  O  O35  1  0.91847384  0.74733825  0.34121027  1
  O  O36  1  0.77269418  0.01249928  0.06600814  1
  O  O37  1  0.74514242  0.91954171  0.84162749  1
  O  O38  1  0.91380478  0.62326851  0.83120639  1
  O  O39  1  0.80869350  0.67063525  0.17819264  1
  O  O40  1  0.91826927  0.46327247  0.33420510  1
  O  O41  1  0.99038889  0.20861704  0.07843549  1
  O  O42  1  0.91714667  0.33988297  0.83857110  1
  O  O43  1  0.67748800  0.80917191  0.67059741  1
  O  O44  1  0.61957612  0.91425994  0.32927839  1
  O  O45  1  0.81413110  0.51145098  0.67126501  1
  O  O46  1  0.66339501  0.66056655  0.02512416  1
  O  O47  1  0.66120851  0.66435432  0.52376225  1
  O  O48  1  0.67207940  0.51305644  0.17498217  1
  O  O49  1  0.46894536  0.91066707  0.82820674  1
  O  O50  1  0.51049586  0.81217967  0.17054317  1
  O  O51  1  0.74814631  0.33321008  0.34301316  1
  O  O52  1  0.79570183  0.20117698  0.74964041  1
  O  O53  1  0.77849690  0.21857622  0.56856609  1
  O  O54  1  0.77652971  0.22310194  0.92979565  1
  O  O55  1  0.62148291  0.46749789  0.82870398  1
  O  O56  1  0.51400827  0.67198860  0.67299124  1
  O  O57  1  0.65933212  0.26025501  0.15985215  1
  O  O58  1  0.46755311  0.61994858  0.33423351  1
  O  O59  1  0.34053902  0.91844962  0.34177129  1
  O  O60  1  0.79605437  0.00207593  0.24865003  1
  O  O61  1  0.77859828  0.00242619  0.43010182  1
  O  O62  1  0.22080984  0.99838613  0.56999395  1
  O  O63  1  0.66059815  0.07991979  0.65941207  1
  O  O64  1  0.53157484  0.37770138  0.66690050  1
  O  O65  1  0.33946326  0.74091213  0.83995456  1
  O  O66  1  0.48534978  0.32716583  0.32795085  1
  O  O67  1  0.37876844  0.53055783  0.17290445  1
  O  O68  1  0.22804717  0.77400464  0.07020716  1
  O  O69  1  0.22003772  0.78164969  0.43143289  1
  O  O70  1  0.20534181  0.79795931  0.25037591  1
  O  O71  1  0.25123958  0.66749028  0.65589937  1
  O  O72  1  0.49076705  0.18660506  0.83094070  1
  O  O73  1  0.53098291  0.08956657  0.17124269  1
  O  O74  1  0.33001036  0.48580005  0.82330447  1
  O  O75  1  0.33718803  0.34323188  0.97468875  1
  O  O76  1  0.33363964  0.33449621  0.47605021  1
  O  O77  1  0.18541262  0.48809158  0.32786144  1
  O  O78  1  0.38002747  0.08665218  0.67085042  1
  O  O79  1  0.32089631  0.19052030  0.32862265  1
  O  O80  1  0.08375601  0.66008398  0.16081743  1
  O  O81  1  0.98886679  0.80482603  0.74173511  1
  O  O82  1  0.01071227  0.79022110  0.92151812  1
  O  O83  1  0.08101436  0.53750121  0.66595058  1
  O  O84  1  0.19232782  0.32923732  0.82221298  1
  O  O85  1  0.08563300  0.37705130  0.16814867  1
  O  O86  1  0.25541953  0.08029295  0.15907683  1
  O  O87  1  0.22826545  0.98868703  0.93425195  1
  O  O88  1  0.20352303  0.99917246  0.75151582  1
  O  O89  1  0.08133718  0.25354891  0.65868438  1
  O  O90  1  0.00019639  0.21882756  0.43673896  1
  O  O91  1  0.01082107  0.19575685  0.25819924  1
