# generated using pymatgen
data_Mg2TaNiO6
_symmetry_space_group_name_H-M   'P 1'
_cell_length_a   5.10962833
_cell_length_b   5.39557579
_cell_length_c   7.51286802
_cell_angle_alpha   90.00000000
_cell_angle_beta   90.00000000
_cell_angle_gamma   87.78237080
_symmetry_Int_Tables_number   1
_chemical_formula_structural   Mg2TaNiO6
_chemical_formula_sum   'Mg4 Ta2 Ni2 O12'
_cell_volume   206.97004016
_cell_formula_units_Z   2
loop_
 _symmetry_equiv_pos_site_id
 _symmetry_equiv_pos_as_xyz
  1  'x, y, z'
loop_
 _atom_site_type_symbol
 _atom_site_label
 _atom_site_symmetry_multiplicity
 _atom_site_fract_x
 _atom_site_fract_y
 _atom_site_fract_z
 _atom_site_occupancy
  Mg  Mg0  1  0.02662606  0.94833052  0.25000000  1
  Mg  Mg1  1  0.48707727  0.42681157  0.25000000  1
  Mg  Mg2  1  0.51292273  0.57318843  0.75000000  1
  Mg  Mg3  1  0.97337394  0.05166948  0.75000000  1
  Ta  Ta4  1  0.00000000  0.50000000  0.00000000  1
  Ta  Ta5  1  0.00000000  0.50000000  0.50000000  1
  Ni  Ni6  1  0.50000000  0.00000000  0.00000000  1
  Ni  Ni7  1  0.50000000  0.00000000  0.50000000  1
  O  O8  1  0.81425860  0.81355927  0.56697508  1
  O  O9  1  0.30833333  0.68214488  0.43031412  1
  O  O10  1  0.18574140  0.18644073  0.43302492  1
  O  O11  1  0.69166667  0.31785512  0.93031412  1
  O  O12  1  0.13488250  0.44610871  0.75000000  1
  O  O13  1  0.69166667  0.31785512  0.56968588  1
  O  O14  1  0.30833333  0.68214488  0.06968588  1
  O  O15  1  0.81425860  0.81355927  0.93302492  1
  O  O16  1  0.63464292  0.06523535  0.25000000  1
  O  O17  1  0.18574140  0.18644073  0.06697508  1
  O  O18  1  0.36535708  0.93476465  0.75000000  1
  O  O19  1  0.86511750  0.55389129  0.25000000  1
