# generated using pymatgen
data_Li8VO6
_symmetry_space_group_name_H-M   'P 1'
_cell_length_a   5.35641488
_cell_length_b   5.87272385
_cell_length_c   5.44867211
_cell_angle_alpha   116.97056308
_cell_angle_beta   119.35598406
_cell_angle_gamma   63.77832143
_symmetry_Int_Tables_number   1
_chemical_formula_structural   Li8VO6
_chemical_formula_sum   'Li8 V1 O6'
_cell_volume   127.71454035
_cell_formula_units_Z   1
loop_
 _symmetry_equiv_pos_site_id
 _symmetry_equiv_pos_as_xyz
  1  'x, y, z'
loop_
 _atom_site_type_symbol
 _atom_site_label
 _atom_site_symmetry_multiplicity
 _atom_site_fract_x
 _atom_site_fract_y
 _atom_site_fract_z
 _atom_site_occupancy
  Li  Li0  1  0.23545299  0.35525980  0.49180752  1
  Li  Li1  1  0.10140268  0.64778142  0.24020626  1
  Li  Li2  1  0.48816213  0.64423787  0.89908023  1
  Li  Li3  1  0.34578986  0.97509416  0.65599247  1
  Li  Li4  1  0.65421014  0.02490584  0.34400753  1
  Li  Li5  1  0.51183787  0.35576213  0.10091977  1
  Li  Li6  1  0.89859732  0.35221858  0.75979374  1
  Li  Li7  1  0.76454701  0.64474020  0.50819248  1
  V  V8  1  0.00000000  0.00000000  0.00000000  1
  O  O9  1  0.09485318  0.76357820  0.62467254  1
  O  O10  1  0.22387037  0.23117916  0.08523141  1
  O  O11  1  0.62009039  0.23370311  0.76727831  1
  O  O12  1  0.37990961  0.76629689  0.23272169  1
  O  O13  1  0.77612963  0.76882084  0.91476859  1
  O  O14  1  0.90514682  0.23642180  0.37532746  1
