# generated using pymatgen
data_Li3Fe2P2(O4F)2
_symmetry_space_group_name_H-M   'P 1'
_cell_length_a   5.21328236
_cell_length_b   5.39692530
_cell_length_c   7.38777400
_cell_angle_alpha   73.68482053
_cell_angle_beta   72.31374270
_cell_angle_gamma   97.30585006
_symmetry_Int_Tables_number   1
_chemical_formula_structural   Li3Fe2P2(O4F)2
_chemical_formula_sum   'Li3 Fe2 P2 O8 F2'
_cell_volume   184.85641841
_cell_formula_units_Z   1
loop_
 _symmetry_equiv_pos_site_id
 _symmetry_equiv_pos_as_xyz
  1  'x, y, z'
loop_
 _atom_site_type_symbol
 _atom_site_label
 _atom_site_symmetry_multiplicity
 _atom_site_fract_x
 _atom_site_fract_y
 _atom_site_fract_z
 _atom_site_occupancy
  Li  Li0  1  0.24764715  0.58657130  0.84110514  1
  Li  Li1  1  0.49999900  0.99999800  0.50000300  1
  Li  Li2  1  0.75235285  0.41342870  0.15889486  1
  Fe  Fe3  1  -0.00000000  -0.00000000  0.00000000  1
  Fe  Fe4  1  -0.00000000  -0.00000000  0.50000000  1
  P  P5  1  0.33799282  0.64048786  0.23873337  1
  P  P6  1  0.66200718  0.35951214  0.76126663  1
  O  O7  1  0.12993632  0.66631692  0.12110480  1
  O  O8  1  0.27677378  0.78634584  0.39125384  1
  O  O9  1  0.33167532  0.34383062  0.33739091  1
  O  O10  1  0.64003931  0.75756374  0.07874271  1
  O  O11  1  0.35996069  0.24243626  0.92125729  1
  O  O12  1  0.66832468  0.65616938  0.66260909  1
  O  O13  1  0.72322622  0.21365416  0.60874616  1
  O  O14  1  0.87006368  0.33368308  0.87889520  1
  F  F15  1  0.15269366  0.91779518  0.74276244  1
  F  F16  1  0.84730634  0.08220482  0.25723756  1
