# generated using pymatgen
data_Li6V3P8O29
_symmetry_space_group_name_H-M   'P 1'
_cell_length_a   9.83765999
_cell_length_b   9.79899815
_cell_length_c   13.98546761
_cell_angle_alpha   90.44355285
_cell_angle_beta   90.09905445
_cell_angle_gamma   60.18132486
_symmetry_Int_Tables_number   1
_chemical_formula_structural   Li6V3P8O29
_chemical_formula_sum   'Li12 V6 P16 O58'
_cell_volume   1169.65402910
_cell_formula_units_Z   2
loop_
 _symmetry_equiv_pos_site_id
 _symmetry_equiv_pos_as_xyz
  1  'x, y, z'
loop_
 _atom_site_type_symbol
 _atom_site_label
 _atom_site_symmetry_multiplicity
 _atom_site_fract_x
 _atom_site_fract_y
 _atom_site_fract_z
 _atom_site_occupancy
  Li  Li0  1  0.90703004  0.77021230  0.05643042  1
  Li  Li1  1  0.90385915  0.33350593  0.56358091  1
  Li  Li2  1  0.66364990  0.67231581  0.88442454  1
  Li  Li3  1  0.76810015  0.32491806  0.05788031  1
  Li  Li4  1  0.32172022  0.90913638  0.05921229  1
  Li  Li5  1  0.67373912  0.23304767  0.44205180  1
  Li  Li6  1  0.33646663  0.76347204  0.56261375  1
  Li  Li7  1  0.33486530  0.32373210  0.61434969  1
  Li  Li8  1  0.33242459  0.32826725  0.10859483  1
  Li  Li9  1  0.08873089  0.67580814  0.44050102  1
  Li  Li10  1  0.00245030  0.00069574  0.98396330  1
  Li  Li11  1  0.99930215  0.99760321  0.51088024  1
  V  V12  1  0.56620195  0.43530589  0.24939226  1
  V  V13  1  0.43552169  0.56350641  0.75412438  1
  V  V14  1  0.56497254  0.99744553  0.74786828  1
  V  V15  1  0.43695760  0.00054380  0.25325051  1
  V  V16  1  0.99787394  0.56675004  0.25096849  1
  V  V17  1  0.00248207  0.43555454  0.75221143  1
  P  P18  1  0.90781086  0.77870883  0.84108262  1
  P  P19  1  0.77376470  0.91832120  0.34398160  1
  P  P20  1  0.91396177  0.31395661  0.34454892  1
  P  P21  1  0.66713806  0.66929107  0.12716265  1
  P  P22  1  0.66725183  0.66218287  0.62869298  1
  P  P23  1  0.77589347  0.31744503  0.84347949  1
  P  P24  1  0.68394008  0.22447792  0.65900643  1
  P  P25  1  0.31472208  0.91137015  0.84618365  1
  P  P26  1  0.68913650  0.08602082  0.15661688  1
  P  P27  1  0.31306365  0.77250120  0.34290169  1
  P  P28  1  0.22332219  0.68649261  0.15848507  1
  P  P29  1  0.33514101  0.33480954  0.37155360  1
  P  P30  1  0.33446341  0.33139088  0.87007451  1
  P  P31  1  0.09258269  0.68479592  0.65636207  1
  P  P32  1  0.22148674  0.08576285  0.65890202  1
  P  P33  1  0.08777315  0.22099033  0.15924912  1
  O  O34  1  0.01226729  0.77183020  0.56700316  1
  O  O35  1  0.91855595  0.74915267  0.33917369  1
  O  O36  1  0.78690765  0.99739197  0.07254108  1
  O  O37  1  0.74233001  0.91921116  0.83403712  1
  O  O38  1  0.89412500  0.62677796  0.83022983  1
  O  O39  1  0.81425569  0.67389183  0.16538353  1
  O  O40  1  0.91238109  0.47179867  0.32488093  1
  O  O41  1  0.98997638  0.21886592  0.07821572  1
  O  O42  1  0.91752987  0.34156522  0.83644346  1
  O  O43  1  0.65767750  0.81294752  0.67477158  1
  O  O44  1  0.62157470  0.91164925  0.33213090  1
  O  O45  1  0.82015453  0.51716357  0.66960687  1
  O  O46  1  0.66214835  0.67357408  0.01978208  1
  O  O47  1  0.66414838  0.65735608  0.52265101  1
  O  O48  1  0.67014276  0.51835031  0.16504984  1
  O  O49  1  0.47846347  0.89735889  0.83440556  1
  O  O50  1  0.51774578  0.81838772  0.16947052  1
  O  O51  1  0.74525206  0.34012815  0.33675088  1
  O  O52  1  0.78604122  0.21232615  0.75153396  1
  O  O53  1  0.77477154  0.22632445  0.57152125  1
  O  O54  1  0.77776700  0.23281013  0.93253569  1
  O  O55  1  0.62643819  0.48247700  0.83189868  1
  O  O56  1  0.52102069  0.65741324  0.67142857  1
  O  O57  1  0.65925627  0.25915452  0.16004793  1
  O  O58  1  0.46876135  0.61523435  0.32340541  1
  O  O59  1  0.34343447  0.90921589  0.33737948  1
  O  O60  1  0.79010723  0.00516243  0.25043127  1
  O  O61  1  0.78428968  0.00720235  0.42844503  1
  O  O62  1  0.21216823  0.98784419  0.57870368  1
  O  O63  1  0.65943333  0.08285166  0.65961587  1
  O  O64  1  0.52136307  0.37541173  0.66763648  1
  O  O65  1  0.33878212  0.74484280  0.83661571  1
  O  O66  1  0.48929149  0.32791280  0.33427585  1
  O  O67  1  0.37127585  0.52216678  0.16861988  1
  O  O68  1  0.21730868  0.78613459  0.07701903  1
  O  O69  1  0.23473898  0.76613165  0.43406087  1
  O  O70  1  0.20045925  0.78517586  0.25623306  1
  O  O71  1  0.25934156  0.66271515  0.66068455  1
  O  O72  1  0.47124719  0.18145878  0.82379967  1
  O  O73  1  0.52537876  0.10034397  0.16665585  1
  O  O74  1  0.34471835  0.47357521  0.82771378  1
  O  O75  1  0.33313065  0.33216471  0.97623182  1
  O  O76  1  0.33577883  0.33355541  0.47862287  1
  O  O77  1  0.18735902  0.48738463  0.33412681  1
  O  O78  1  0.37196929  0.09934459  0.66379932  1
  O  O79  1  0.33518288  0.18823517  0.32436638  1
  O  O80  1  0.08005186  0.65846647  0.15951766  1
  O  O81  1  0.00292250  0.78671883  0.74938904  1
  O  O82  1  0.98976313  0.78235841  0.93077986  1
  O  O83  1  0.10593758  0.52054889  0.66641580  1
  O  O84  1  0.18109363  0.34516635  0.82601264  1
  O  O85  1  0.10274516  0.37126456  0.17060180  1
  O  O86  1  0.25558261  0.07855835  0.15864651  1
  O  O87  1  0.22842508  0.99039479  0.93646930  1
  O  O88  1  0.20746911  0.01172208  0.75816431  1
  O  O89  1  0.07897043  0.25438147  0.65789671  1
  O  O90  1  0.98491006  0.24008786  0.43770703  1
  O  O91  1  0.01096477  0.20133292  0.25772507  1
