# generated using pymatgen
data_Li4V3Fe3(WO8)2
_symmetry_space_group_name_H-M   'P 1'
_cell_length_a   6.05905071
_cell_length_b   6.00198984
_cell_length_c   9.78891805
_cell_angle_alpha   90.14594919
_cell_angle_beta   89.79081807
_cell_angle_gamma   119.80752741
_symmetry_Int_Tables_number   1
_chemical_formula_structural   Li4V3Fe3(WO8)2
_chemical_formula_sum   'Li4 V3 Fe3 W2 O16'
_cell_volume   308.88808881
_cell_formula_units_Z   1
loop_
 _symmetry_equiv_pos_site_id
 _symmetry_equiv_pos_as_xyz
  1  'x, y, z'
loop_
 _atom_site_type_symbol
 _atom_site_label
 _atom_site_symmetry_multiplicity
 _atom_site_fract_x
 _atom_site_fract_y
 _atom_site_fract_z
 _atom_site_occupancy
  Li  Li0  1  0.33667248  0.66888138  0.90194395  1
  Li  Li1  1  0.99832916  0.00385793  0.99058883  1
  Li  Li2  1  0.99925666  0.99683821  0.48845811  1
  Li  Li3  1  0.67219593  0.33750090  0.40529313  1
  V  V4  1  0.65138642  0.83478314  0.21794139  1
  V  V5  1  0.83027025  0.65805099  0.71456403  1
  V  V6  1  0.83315058  0.17327424  0.71423236  1
  Fe  Fe7  1  0.16442589  0.83055321  0.20982241  1
  Fe  Fe8  1  0.16280827  0.33227625  0.20893377  1
  Fe  Fe9  1  0.34547305  0.17241986  0.71664510  1
  W  W10  1  0.33318304  0.66405539  0.48616955  1
  W  W11  1  0.65782451  0.33240958  0.98893971  1
  O  O12  1  0.18408255  0.83556027  0.59193334  1
  O  O13  1  0.04773685  0.52636419  0.36514231  1
  O  O14  1  0.36190079  0.67936186  0.11273271  1
  O  O15  1  0.96878371  0.98181865  0.30170629  1
  O  O16  1  0.00470938  0.00150277  0.80008379  1
  O  O17  1  0.18215489  0.34537369  0.59054748  1
  O  O18  1  0.49805919  0.96347414  0.35478710  1
  O  O19  1  0.49467736  0.53509749  0.35515336  1
  O  O20  1  0.32775659  0.15976338  0.08368736  1
  O  O21  1  0.66000226  0.83122612  0.59374816  1
  O  O22  1  0.51777748  0.48294816  0.83997916  1
  O  O23  1  0.52183074  0.04350371  0.84469109  1
  O  O24  1  0.66603129  0.33191834  0.60839793  1
  O  O25  1  0.80807020  0.65102320  0.08787076  1
  O  O26  1  0.96221075  0.47794375  0.84124612  1
  O  O27  1  0.80924372  0.14851920  0.09259970  1
