# generated using pymatgen
data_Li4Co3Sn5O16
_symmetry_space_group_name_H-M   'P 1'
_cell_length_a   6.14658811
_cell_length_b   6.14759030
_cell_length_c   9.88771778
_cell_angle_alpha   89.99411203
_cell_angle_beta   89.94584213
_cell_angle_gamma   120.01220789
_symmetry_Int_Tables_number   1
_chemical_formula_structural   Li4Co3Sn5O16
_chemical_formula_sum   'Li4 Co3 Sn5 O16'
_cell_volume   323.52809035
_cell_formula_units_Z   1
loop_
 _symmetry_equiv_pos_site_id
 _symmetry_equiv_pos_as_xyz
  1  'x, y, z'
loop_
 _atom_site_type_symbol
 _atom_site_label
 _atom_site_symmetry_multiplicity
 _atom_site_fract_x
 _atom_site_fract_y
 _atom_site_fract_z
 _atom_site_occupancy
  Li  Li0  1  0.33995816  0.66987856  0.89187425  1
  Li  Li1  1  0.96903090  0.98440417  0.98917166  1
  Li  Li2  1  0.98352189  0.99186649  0.49661261  1
  Li  Li3  1  0.66446445  0.33242847  0.40301324  1
  Co  Co4  1  0.66102093  0.83047233  0.21398961  1
  Co  Co5  1  0.83376549  0.66187513  0.71354219  1
  Co  Co6  1  0.83368799  0.17183082  0.71352255  1
  Sn  Sn7  1  0.17260242  0.83283034  0.21489504  1
  Sn  Sn8  1  0.33976854  0.67000877  0.49333759  1
  Sn  Sn9  1  0.17262476  0.33975548  0.21488746  1
  Sn  Sn10  1  0.34059782  0.17035519  0.71441032  1
  Sn  Sn11  1  0.68251744  0.34110161  0.98640027  1
  O  O12  1  0.15871896  0.83539187  0.59758734  1
  O  O13  1  0.02964764  0.51476306  0.34504578  1
  O  O14  1  0.33009164  0.66509190  0.10064485  1
  O  O15  1  0.00067530  0.00027865  0.31162422  1
  O  O16  1  0.99471037  0.99734046  0.80546626  1
  O  O17  1  0.15878407  0.32355574  0.59764911  1
  O  O18  1  0.47738886  0.96648241  0.34757944  1
  O  O19  1  0.47735727  0.51129732  0.34756385  1
  O  O20  1  0.32621240  0.16313179  0.09212825  1
  O  O21  1  0.67422045  0.83725628  0.60577133  1
  O  O22  1  0.52496283  0.48610375  0.84255616  1
  O  O23  1  0.52473818  0.03866757  0.84253640  1
  O  O24  1  0.67197969  0.33604638  0.60619300  1
  O  O25  1  0.84482489  0.67487778  0.09467047  1
  O  O26  1  0.96725177  0.48353245  0.83053492  1
  O  O27  1  0.84487488  0.16967425  0.09462782  1
