# generated using pymatgen
data_LiFe2(PO4)2
_symmetry_space_group_name_H-M   'P 1'
_cell_length_a   6.36602440
_cell_length_b   5.41475991
_cell_length_c   8.15662911
_cell_angle_alpha   90.00000000
_cell_angle_beta   90.00000000
_cell_angle_gamma   90.00000000
_symmetry_Int_Tables_number   1
_chemical_formula_structural   LiFe2(PO4)2
_chemical_formula_sum   'Li2 Fe4 P4 O16'
_cell_volume   281.16303241
_cell_formula_units_Z   2
loop_
 _symmetry_equiv_pos_site_id
 _symmetry_equiv_pos_as_xyz
  1  'x, y, z'
loop_
 _atom_site_type_symbol
 _atom_site_label
 _atom_site_symmetry_multiplicity
 _atom_site_fract_x
 _atom_site_fract_y
 _atom_site_fract_z
 _atom_site_occupancy
  Li  Li0  1  0.74325664  0.25000000  0.57936346  1
  Li  Li1  1  0.75674336  0.75000000  0.07936346  1
  Fe  Fe2  1  0.00856864  0.25000000  0.24966781  1
  Fe  Fe3  1  0.49143136  0.75000000  0.74966781  1
  Fe  Fe4  1  0.48765599  0.25000000  0.24509964  1
  Fe  Fe5  1  0.01234401  0.75000000  0.74509964  1
  P  P6  1  0.23744447  0.25000000  0.59956384  1
  P  P7  1  0.26255553  0.75000000  0.09956384  1
  P  P8  1  0.76293480  0.25000000  0.90598756  1
  P  P9  1  0.73706520  0.75000000  0.40598756  1
  O  O10  1  0.03659248  0.25000000  0.49609931  1
  O  O11  1  0.06011146  0.75000000  0.99342498  1
  O  O12  1  0.23670702  0.01440858  0.71168428  1
  O  O13  1  0.23670702  0.48559142  0.71168428  1
  O  O14  1  0.26329298  0.51440858  0.21168428  1
  O  O15  1  0.26329298  0.98559142  0.21168428  1
  O  O16  1  0.43988854  0.25000000  0.49342498  1
  O  O17  1  0.46340752  0.75000000  0.99609931  1
  O  O18  1  0.56299309  0.25000000  0.01064896  1
  O  O19  1  0.54102847  0.75000000  0.50940117  1
  O  O20  1  0.76237207  0.01780541  0.78657686  1
  O  O21  1  0.76237207  0.48219459  0.78657686  1
  O  O22  1  0.73762793  0.51780541  0.28657686  1
  O  O23  1  0.73762793  0.98219459  0.28657686  1
  O  O24  1  0.95897153  0.25000000  0.00940117  1
  O  O25  1  0.93700691  0.75000000  0.51064896  1
