# generated using pymatgen
data_K8Li3Mn4O16
_symmetry_space_group_name_H-M   'P 1'
_cell_length_a   5.74399579
_cell_length_b   8.14094376
_cell_length_c   11.13527710
_cell_angle_alpha   91.84149411
_cell_angle_beta   86.22344204
_cell_angle_gamma   90.08507404
_symmetry_Int_Tables_number   1
_chemical_formula_structural   K8Li3Mn4O16
_chemical_formula_sum   'K8 Li3 Mn4 O16'
_cell_volume   519.30363703
_cell_formula_units_Z   1
loop_
 _symmetry_equiv_pos_site_id
 _symmetry_equiv_pos_as_xyz
  1  'x, y, z'
loop_
 _atom_site_type_symbol
 _atom_site_label
 _atom_site_symmetry_multiplicity
 _atom_site_fract_x
 _atom_site_fract_y
 _atom_site_fract_z
 _atom_site_occupancy
  K  K0  1  0.24540112  0.97637404  0.17185665  1
  K  K1  1  0.24117127  0.25867805  0.65464479  1
  K  K2  1  0.24859789  0.45791132  0.33032429  1
  K  K3  1  0.73844598  0.24252343  0.15146781  1
  K  K4  1  0.25701230  0.75306000  0.85513055  1
  K  K5  1  0.74636380  0.52711430  0.68129347  1
  K  K6  1  0.77091179  0.77344324  0.36630675  1
  K  K7  1  0.75170822  0.01416854  0.78305480  1
  Li  Li8  1  0.30485950  0.52522253  0.06359024  1
  Li  Li9  1  0.19341057  0.02743306  0.44331438  1
  Li  Li10  1  0.68976340  0.46518343  0.93738402  1
  Mn  Mn11  1  0.19975049  0.26783953  0.94051997  1
  Mn  Mn12  1  0.29095069  0.76996413  0.55765093  1
  Mn  Mn13  1  0.71723406  0.22929424  0.44422661  1
  Mn  Mn14  1  0.79267027  0.72452939  0.05946555  1
  O  O15  1  0.07623623  0.69347892  0.09541424  1
  O  O16  1  0.20842656  0.29340452  0.09571247  1
  O  O17  1  0.13365195  0.93281312  0.61397606  1
  O  O18  1  0.18192255  0.58721187  0.59885103  1
  O  O19  1  0.29004115  0.78915124  0.40529123  1
  O  O20  1  0.44293331  0.17727949  0.40091370  1
  O  O21  1  0.30410239  0.08266119  0.88886854  1
  O  O22  1  0.62114383  0.56014154  0.10904646  1
  O  O23  1  0.37425794  0.42931545  0.88635688  1
  O  O24  1  0.69842167  0.90779034  0.11957188  1
  O  O25  1  0.55998764  0.79109006  0.60410233  1
  O  O26  1  0.72160148  0.22264761  0.59678620  1
  O  O27  1  0.77197783  0.42480004  0.40066283  1
  O  O28  1  0.92012291  0.09912205  0.37132594  1
  O  O29  1  0.77847309  0.70559336  0.90373236  1
  O  O30  1  0.92176211  0.29655498  0.89574407  1
