# generated using pymatgen
data_Li12Mn3V5(PO4)12
_symmetry_space_group_name_H-M   'P 1'
_cell_length_a   8.69461130
_cell_length_b   12.32996036
_cell_length_c   8.70833405
_cell_angle_alpha   89.69409481
_cell_angle_beta   90.15130733
_cell_angle_gamma   91.36791546
_symmetry_Int_Tables_number   1
_chemical_formula_structural   Li12Mn3V5(PO4)12
_chemical_formula_sum   'Li12 Mn3 V5 P12 O48'
_cell_volume   933.28779061
_cell_formula_units_Z   1
loop_
 _symmetry_equiv_pos_site_id
 _symmetry_equiv_pos_as_xyz
  1  'x, y, z'
loop_
 _atom_site_type_symbol
 _atom_site_label
 _atom_site_symmetry_multiplicity
 _atom_site_fract_x
 _atom_site_fract_y
 _atom_site_fract_z
 _atom_site_occupancy
  Li  Li0  1  0.07529484  0.69562580  0.08555635  1
  Li  Li1  1  0.08014347  0.75956101  0.69680864  1
  Li  Li2  1  0.21073025  0.17778521  0.77905612  1
  Li  Li3  1  0.29076253  0.32462903  0.27929652  1
  Li  Li4  1  0.41956838  0.74069322  0.19594852  1
  Li  Li5  1  0.42377547  0.80358432  0.58289352  1
  Li  Li6  1  0.57903995  0.19809202  0.41891098  1
  Li  Li7  1  0.58122176  0.26311097  0.80387887  1
  Li  Li8  1  0.70557260  0.67448499  0.71625870  1
  Li  Li9  1  0.79370990  0.82544547  0.21705232  1
  Li  Li10  1  0.91464913  0.23823713  0.30415420  1
  Li  Li11  1  0.92251137  0.30100376  0.92032510  1
  Mn  Mn12  1  0.25225249  0.39182179  0.96006588  1
  Mn  Mn13  1  0.74692216  0.10435376  0.96437802  1
  Mn  Mn14  1  0.75235578  0.39553593  0.46599074  1
  V  V15  1  0.24743212  0.60802261  0.53114697  1
  V  V16  1  0.25179488  0.89190828  0.03050623  1
  V  V17  1  0.24796730  0.11033620  0.45949467  1
  V  V18  1  0.74585087  0.60979254  0.03836334  1
  V  V19  1  0.75371980  0.88991210  0.53822765  1
  P  P20  1  0.03461814  0.49341488  0.25294105  1
  P  P21  1  0.10476691  0.85209497  0.38402747  1
  P  P22  1  0.10349292  0.14920063  0.10146420  1
  P  P23  1  0.39908541  0.35047398  0.59933941  1
  P  P24  1  0.39456486  0.64673760  0.88434376  1
  P  P25  1  0.46396040  0.00739071  0.74700469  1
  P  P26  1  0.53959739  0.99442653  0.24963176  1
  P  P27  1  0.60374325  0.35572871  0.11700069  1
  P  P28  1  0.60295647  0.65234134  0.39523830  1
  P  P29  1  0.89589847  0.84745868  0.89644996  1
  P  P30  1  0.89701749  0.14364619  0.61813943  1
  P  P31  1  0.96056058  0.50622324  0.75253122  1
  O  O32  1  0.04575986  0.43273479  0.86847616  1
  O  O33  1  0.07529176  0.85088919  0.88504767  1
  O  O34  1  0.06747034  0.59620616  0.68409432  1
  O  O35  1  0.07136071  0.16736827  0.59704373  1
  O  O36  1  0.10158510  0.57425975  0.37061818  1
  O  O37  1  0.14343154  0.81911440  0.21513344  1
  O  O38  1  0.14838536  0.97139206  0.41204660  1
  O  O39  1  0.14593705  0.23977250  0.97997510  1
  O  O40  1  0.15704671  0.18607365  0.26467819  1
  O  O41  1  0.16561235  0.43132531  0.17880940  1
  O  O42  1  0.17115093  0.04338265  0.05067209  1
  O  O43  1  0.19561628  0.78152569  0.50185512  1
  O  O44  1  0.30384474  0.71629318  0.00180603  1
  O  O45  1  0.32901072  0.45640614  0.54991508  1
  O  O46  1  0.33199168  0.06885825  0.66691767  1
  O  O47  1  0.34978304  0.30926742  0.76043044  1
  O  O48  1  0.35942899  0.52542791  0.90962240  1
  O  O49  1  0.35590807  0.68086675  0.71557114  1
  O  O50  1  0.35824539  0.26115514  0.47643658  1
  O  O51  1  0.39232106  0.92906744  0.86571068  1
  O  O52  1  0.43274488  0.90446143  0.18054184  1
  O  O53  1  0.42348620  0.64938282  0.38428858  1
  O  O54  1  0.42850700  0.33300673  0.09744995  1
  O  O55  1  0.45445000  0.06701841  0.36417733  1
  O  O56  1  0.54886308  0.93504288  0.63288031  1
  O  O57  1  0.56971298  0.66825828  0.90472876  1
  O  O58  1  0.57990120  0.35339250  0.60833853  1
  O  O59  1  0.57009508  0.09797020  0.81709753  1
  O  O60  1  0.60583528  0.07537833  0.12953956  1
  O  O61  1  0.64023699  0.74379211  0.51586492  1
  O  O62  1  0.64349282  0.32105125  0.28600068  1
  O  O63  1  0.64165355  0.47722121  0.09469111  1
  O  O64  1  0.65686721  0.68985076  0.23196261  1
  O  O65  1  0.67369385  0.93487709  0.32893873  1
  O  O66  1  0.67353460  0.54954450  0.45192650  1
  O  O67  1  0.69583962  0.29095031  0.99793714  1
  O  O68  1  0.80351414  0.20925746  0.49947685  1
  O  O69  1  0.82552259  0.95001843  0.95341736  1
  O  O70  1  0.82697502  0.56625739  0.83258195  1
  O  O71  1  0.84108929  0.80972011  0.73431265  1
  O  O72  1  0.85977647  0.75544503  0.01788661  1
  O  O73  1  0.85899648  0.02273637  0.59705373  1
  O  O74  1  0.85859846  0.17785730  0.78796578  1
  O  O75  1  0.89219452  0.42664824  0.63403663  1
  O  O76  1  0.93010440  0.83081277  0.40401222  1
  O  O77  1  0.92667080  0.40304498  0.32447327  1
  O  O78  1  0.92346845  0.14810034  0.11170794  1
  O  O79  1  0.94945302  0.56444649  0.13543162  1
