# generated using pymatgen
data_Li2Fe2(PO4)3
_symmetry_space_group_name_H-M   'P 1'
_cell_length_a   8.71905322
_cell_length_b   12.21449677
_cell_length_c   8.80585609
_cell_angle_alpha   89.96910692
_cell_angle_beta   89.71147045
_cell_angle_gamma   90.09169452
_symmetry_Int_Tables_number   1
_chemical_formula_structural   Li2Fe2(PO4)3
_chemical_formula_sum   'Li8 Fe8 P12 O48'
_cell_volume   937.80029146
_cell_formula_units_Z   4
loop_
 _symmetry_equiv_pos_site_id
 _symmetry_equiv_pos_as_xyz
  1  'x, y, z'
loop_
 _atom_site_type_symbol
 _atom_site_label
 _atom_site_symmetry_multiplicity
 _atom_site_fract_x
 _atom_site_fract_y
 _atom_site_fract_z
 _atom_site_occupancy
  Li  Li0  1  0.22068688  0.81995250  0.72730888  1
  Li  Li1  1  0.29198338  0.68401624  0.22949177  1
  Li  Li2  1  0.28706006  0.31637315  0.27138229  1
  Li  Li3  1  0.69115295  0.31287516  0.76510008  1
  Li  Li4  1  0.78670714  0.18225128  0.27435968  1
  Li  Li5  1  0.78473561  0.81833209  0.22574368  1
  Li  Li6  1  0.96056744  0.27945085  0.91122474  1
  Li  Li7  1  0.92062989  0.70315621  0.58752988  1
  Fe  Fe8  1  0.26114447  0.38141043  0.95227837  1
  Fe  Fe9  1  0.25570151  0.61257621  0.54376148  1
  Fe  Fe10  1  0.24627719  0.11568543  0.46329508  1
  Fe  Fe11  1  0.24996516  0.88896652  0.04583372  1
  Fe  Fe12  1  0.74316293  0.10774628  0.95904458  1
  Fe  Fe13  1  0.74308938  0.88727897  0.54613919  1
  Fe  Fe14  1  0.75076123  0.38788347  0.45476839  1
  Fe  Fe15  1  0.74882698  0.61655599  0.03682731  1
  P  P16  1  0.04480719  0.50181996  0.24888495  1
  P  P17  1  0.10613094  0.14770022  0.10610596  1
  P  P18  1  0.10457183  0.85302339  0.39820327  1
  P  P19  1  0.39380353  0.35306189  0.60249485  1
  P  P20  1  0.39344056  0.64663997  0.89560994  1
  P  P21  1  0.45781679  0.00100447  0.75214483  1
  P  P22  1  0.53979175  0.00077017  0.25158018  1
  P  P23  1  0.61094881  0.35381650  0.10336189  1
  P  P24  1  0.61116212  0.64879581  0.39600158  1
  P  P25  1  0.89834009  0.85282054  0.89150069  1
  P  P26  1  0.89361635  0.14759123  0.60608750  1
  P  P27  1  0.95699126  0.49702829  0.75031716  1
  O  O28  1  0.04943977  0.57257824  0.64249912  1
  O  O29  1  0.05614040  0.42006341  0.84891612  1
  O  O30  1  0.06942422  0.15637642  0.59514492  1
  O  O31  1  0.07535497  0.84243707  0.90302103  1
  O  O32  1  0.15444673  0.96917065  0.43802411  1
  O  O33  1  0.15504039  0.03097495  0.06825230  1
  O  O34  1  0.15280342  0.57951753  0.33851291  1
  O  O35  1  0.15006908  0.42399999  0.15653916  1
  O  O36  1  0.16142275  0.18020221  0.26651842  1
  O  O37  1  0.16699937  0.81936228  0.23988399  1
  O  O38  1  0.16617682  0.23125765  0.98681782  1
  O  O39  1  0.16194374  0.77084134  0.52224772  1
  O  O40  1  0.32167624  0.27534920  0.48328123  1
  O  O41  1  0.32564263  0.72605294  0.01713114  1
  O  O42  1  0.33613131  0.68065154  0.73631676  1
  O  O43  1  0.35257504  0.32276683  0.76714607  1
  O  O44  1  0.36061929  0.07434165  0.64832036  1
  O  O45  1  0.34606253  0.92623516  0.84174507  1
  O  O46  1  0.34187831  0.46990312  0.56466963  1
  O  O47  1  0.34144476  0.52990049  0.93340452  1
  O  O48  1  0.43382181  0.66123368  0.40507682  1
  O  O49  1  0.43375028  0.33995230  0.09925099  1
  O  O50  1  0.43914614  0.07349721  0.35363844  1
  O  O51  1  0.44403502  0.92942190  0.14481163  1
  O  O52  1  0.55435129  0.92292087  0.65297870  1
  O  O53  1  0.55482646  0.07417675  0.85468123  1
  O  O54  1  0.57095752  0.34313287  0.58877484  1
  O  O55  1  0.56925030  0.65736013  0.90511061  1
  O  O56  1  0.65533828  0.47252664  0.06894015  1
  O  O57  1  0.65774622  0.52999285  0.42779434  1
  O  O58  1  0.65020608  0.07835645  0.16308768  1
  O  O59  1  0.64458203  0.92372656  0.34510560  1
  O  O60  1  0.66293817  0.68153175  0.23264534  1
  O  O61  1  0.66842863  0.31925311  0.26242794  1
  O  O62  1  0.68762626  0.27865023  0.98113699  1
  O  O63  1  0.69234575  0.72417435  0.51199738  1
  O  O64  1  0.82397055  0.22617880  0.48561846  1
  O  O65  1  0.82574968  0.77545931  0.01229183  1
  O  O66  1  0.84278782  0.18507326  0.76884259  1
  O  O67  1  0.85582853  0.82138357  0.72654583  1
  O  O68  1  0.84434483  0.42111470  0.66368209  1
  O  O69  1  0.85854574  0.57404521  0.84895374  1
  O  O70  1  0.83628336  0.03165282  0.57371965  1
  O  O71  1  0.84405306  0.96931687  0.92835798  1
  O  O72  1  0.92652296  0.84145723  0.39943329  1
  O  O73  1  0.92745236  0.15969866  0.09748373  1
  O  O74  1  0.94585589  0.43088564  0.35553493  1
  O  O75  1  0.94286178  0.57328939  0.14730383  1
