# generated using pymatgen
data_Li2VFeO4
_symmetry_space_group_name_H-M   'P 1'
_cell_length_a   6.00226397
_cell_length_b   5.95560466
_cell_length_c   5.99214909
_cell_angle_alpha   60.20741145
_cell_angle_beta   120.40570480
_cell_angle_gamma   120.05974826
_symmetry_Int_Tables_number   1
_chemical_formula_structural   Li2VFeO4
_chemical_formula_sum   'Li4 V2 Fe2 O8'
_cell_volume   151.15944613
_cell_formula_units_Z   2
loop_
 _symmetry_equiv_pos_site_id
 _symmetry_equiv_pos_as_xyz
  1  'x, y, z'
loop_
 _atom_site_type_symbol
 _atom_site_label
 _atom_site_symmetry_multiplicity
 _atom_site_fract_x
 _atom_site_fract_y
 _atom_site_fract_z
 _atom_site_occupancy
  Li  Li0  1  0.00090462  0.50101925  0.99967585  1
  Li  Li1  1  0.50046134  0.50102774  0.99950465  1
  Li  Li2  1  0.50042957  0.50106488  0.49909399  1
  Li  Li3  1  0.50088479  0.00154581  0.99917921  1
  V  V4  1  0.00108238  0.50173937  0.49943273  1
  V  V5  1  0.00116568  0.00066408  0.49940086  1
  Fe  Fe6  1  0.00098073  0.00073375  0.00017794  1
  Fe  Fe7  1  0.49989620  0.00056462  0.49946192  1
  O  O8  1  0.77162213  0.76513627  0.25206886  1
  O  O9  1  0.23954461  0.75117657  0.25943436  1
  O  O10  1  0.24330174  0.76036544  0.72646816  1
  O  O11  1  0.75124279  0.76899556  0.74584315  1
  O  O12  1  0.24979078  0.23248625  0.25345694  1
  O  O13  1  0.75757819  0.24131320  0.27241806  1
  O  O14  1  0.76145052  0.25036789  0.73991306  1
  O  O15  1  0.22945791  0.23644933  0.74719027  1
