# generated using pymatgen
data_Ag2CO3
_symmetry_space_group_name_H-M   'P 1'
_cell_length_a   9.17750415
_cell_length_b   9.78665328
_cell_length_c   6.79504555
_cell_angle_alpha   69.68741432
_cell_angle_beta   90.00126883
_cell_angle_gamma   62.04156623
_symmetry_Int_Tables_number   1
_chemical_formula_structural   Ag2CO3
_chemical_formula_sum   'Ag12 C6 O18'
_cell_volume   495.69989726
_cell_formula_units_Z   6
loop_
 _symmetry_equiv_pos_site_id
 _symmetry_equiv_pos_as_xyz
  1  'x, y, z'
loop_
 _atom_site_type_symbol
 _atom_site_label
 _atom_site_symmetry_multiplicity
 _atom_site_fract_x
 _atom_site_fract_y
 _atom_site_fract_z
 _atom_site_occupancy
  Ag  Ag0  1  0.67370115  0.32638640  0.08705941  1
  Ag  Ag1  1  0.67369026  0.32639199  0.58662565  1
  Ag  Ag2  1  0.37165610  0.63535242  0.68236649  1
  Ag  Ag3  1  0.36480935  0.62822757  0.18587927  1
  Ag  Ag4  1  0.62837197  0.00684592  0.99659451  1
  Ag  Ag5  1  0.63505290  0.99323405  0.50333856  1
  Ag  Ag6  1  0.00011586  0.67363541  0.91337314  1
  Ag  Ag7  1  0.00011067  0.67363054  0.41298984  1
  Ag  Ag8  1  0.32632536  -0.00002019  0.74998976  1
  Ag  Ag9  1  0.32633195  -0.00002525  0.25003568  1
  Ag  Ag10  1  0.00700712  0.36456211  0.81768914  1
  Ag  Ag11  1  0.99297818  0.37178096  0.31410900  1
  C  C12  1  0.66667590  0.66676076  0.41619097  1
  C  C13  1  0.66668162  0.66675641  0.91705269  1
  C  C14  1  0.33334389  0.33327631  0.58293484  1
  C  C15  1  0.33333834  0.33327426  0.08378189  1
  C  C16  1  0.99994384  0.00000024  0.99999966  1
  C  C17  1  -0.00001744  0.99997572  0.50001171  1
  O  O18  1  0.92772006  0.90841389  0.04577587  1
  O  O19  1  0.72076102  0.77323385  0.36155536  1
  O  O20  1  0.72075621  0.77323642  0.86519130  1
  O  O21  1  0.77317028  0.50618437  0.99507115  1
  O  O22  1  0.77316007  0.50619056  0.49872862  1
  O  O23  1  0.90832177  0.16380635  0.91810444  1
  O  O24  1  0.83615547  0.09151159  0.45425701  1
  O  O25  1  0.50612254  0.72079186  0.38812393  1
  O  O26  1  0.50612692  0.72078724  0.89110005  1
  O  O27  1  0.16374145  0.92781023  0.03610120  1
  O  O28  1  0.49390110  0.22681632  0.13842597  1
  O  O29  1  0.49389892  0.22681496  0.63477778  1
  O  O30  1  0.27930900  0.49384050  0.00124163  1
  O  O31  1  0.27931995  0.49385095  0.50492441  1
  O  O32  1  0.07222379  0.83616515  0.58191218  1
  O  O33  1  0.22683542  0.27923355  0.11184161  1
  O  O34  1  0.22683026  0.27924575  0.60887408  1
  O  O35  1  0.09152776  0.07222183  0.46387122  1
