# generated using pymatgen
data_Li2MnV(PO4)3
_symmetry_space_group_name_H-M   'P 1'
_cell_length_a   9.21778544
_cell_length_b   8.28696851
_cell_length_c   8.39638918
_cell_angle_alpha   61.23632707
_cell_angle_beta   61.58241582
_cell_angle_gamma   92.54892141
_symmetry_Int_Tables_number   1
_chemical_formula_structural   Li2MnV(PO4)3
_chemical_formula_sum   'Li4 Mn2 V2 P6 O24'
_cell_volume   462.33925670
_cell_formula_units_Z   2
loop_
 _symmetry_equiv_pos_site_id
 _symmetry_equiv_pos_as_xyz
  1  'x, y, z'
loop_
 _atom_site_type_symbol
 _atom_site_label
 _atom_site_symmetry_multiplicity
 _atom_site_fract_x
 _atom_site_fract_y
 _atom_site_fract_z
 _atom_site_occupancy
  Li  Li0  1  0.13850625  0.07891865  0.58257836  1
  Li  Li1  1  0.61273886  0.78298723  0.66835308  1
  Li  Li2  1  0.96108952  0.98927433  0.19317672  1
  Li  Li3  1  0.85472728  0.24112021  0.83333554  1
  Mn  Mn4  1  0.55426132  0.85767843  0.29313183  1
  Mn  Mn5  1  0.42618870  0.14736590  0.72223533  1
  V  V6  1  0.04843642  0.36586267  0.29420779  1
  V  V7  1  0.95124895  0.64582068  0.70632248  1
  P  P8  1  0.24515694  0.04493581  0.21143728  1
  P  P9  1  0.24078651  0.46042584  0.49937536  1
  P  P10  1  0.24937497  0.75769769  0.78275226  1
  P  P11  1  0.75061144  0.25137941  0.22676908  1
  P  P12  1  0.75217909  0.53049748  0.51767573  1
  P  P13  1  0.74458519  0.95167057  0.79937248  1
  O  O14  1  0.08586476  0.83655261  0.39705472  1
  O  O15  1  0.24143718  0.11090030  0.00697091  1
  O  O16  1  0.18700483  0.18239656  0.28749237  1
  O  O17  1  0.19321939  0.48718172  0.33158595  1
  O  O18  1  0.08488348  0.46838492  0.68145637  1
  O  O19  1  0.12135596  0.79954262  0.70788697  1
  O  O20  1  0.41591545  0.02797201  0.18592347  1
  O  O21  1  0.24967270  0.25553396  0.60923367  1
  O  O22  1  0.41501437  0.62191266  0.37215764  1
  O  O23  1  0.18428016  0.54320175  0.97762143  1
  O  O24  1  0.26428865  0.89749770  0.84869015  1
  O  O25  1  0.43314253  0.79630385  0.59176213  1
  O  O26  1  0.57580356  0.21562705  0.41663596  1
  O  O27  1  0.73754252  0.10781971  0.15894443  1
  O  O28  1  0.82427931  0.46286001  0.01835955  1
  O  O29  1  0.56804172  0.38047212  0.64778830  1
  O  O30  1  0.74860043  0.74123426  0.41736216  1
  O  O31  1  0.58466186  0.96623498  0.79066434  1
  O  O32  1  0.89078483  0.20951848  0.28304433  1
  O  O33  1  0.89366698  0.51452714  0.33208545  1
  O  O34  1  0.80034967  0.48518831  0.68782389  1
  O  O35  1  0.79300745  0.79502270  0.75015706  1
  O  O36  1  0.72468496  0.89902466  0.01383525  1
  O  O37  1  0.90682781  0.15207102  0.62679518  1
