# generated using pymatgen
data_Li2MnV(PO4)3
_symmetry_space_group_name_H-M   'P 1'
_cell_length_a   8.95369004
_cell_length_b   8.58326875
_cell_length_c   8.31086251
_cell_angle_alpha   60.36597146
_cell_angle_beta   63.64554246
_cell_angle_gamma   93.71795121
_symmetry_Int_Tables_number   1
_chemical_formula_structural   Li2MnV(PO4)3
_chemical_formula_sum   'Li4 Mn2 V2 P6 O24'
_cell_volume   463.12620556
_cell_formula_units_Z   2
loop_
 _symmetry_equiv_pos_site_id
 _symmetry_equiv_pos_as_xyz
  1  'x, y, z'
loop_
 _atom_site_type_symbol
 _atom_site_label
 _atom_site_symmetry_multiplicity
 _atom_site_fract_x
 _atom_site_fract_y
 _atom_site_fract_z
 _atom_site_occupancy
  Li  Li0  1  0.14949205  0.07836414  0.58477001  1
  Li  Li1  1  0.57868562  0.69237361  0.72441605  1
  Li  Li2  1  0.91592849  0.97201207  0.29720054  1
  Li  Li3  1  0.85089097  0.25794565  0.82472103  1
  Mn  Mn4  1  0.05585689  0.36573811  0.29183017  1
  Mn  Mn5  1  0.94863650  0.64619436  0.70202477  1
  V  V6  1  0.55972168  0.85053942  0.29439951  1
  V  V7  1  0.43023352  0.15162214  0.71254936  1
  P  P8  1  0.25144583  0.03050341  0.21919384  1
  P  P9  1  0.24378664  0.45267617  0.50602963  1
  P  P10  1  0.25130067  0.75845124  0.78264410  1
  P  P11  1  0.74927182  0.25288335  0.21871595  1
  P  P12  1  0.75331146  0.54384772  0.49330551  1
  P  P13  1  0.74288466  0.97082359  0.78541621  1
  O  O14  1  0.07773194  0.84159830  0.38495754  1
  O  O15  1  0.26916023  0.11189548  0.99622741  1
  O  O16  1  0.22047974  0.16835138  0.28508231  1
  O  O17  1  0.22822114  0.49308817  0.31287777  1
  O  O18  1  0.08260235  0.45014415  0.68363450  1
  O  O19  1  0.11245262  0.79299364  0.71802906  1
  O  O20  1  0.41778676  0.98288280  0.20779819  1
  O  O21  1  0.26926771  0.25828060  0.61299077  1
  O  O22  1  0.41798703  0.61551707  0.40309093  1
  O  O23  1  0.20549281  0.55356654  0.97051135  1
  O  O24  1  0.27484427  0.90744007  0.83114971  1
  O  O25  1  0.43688410  0.80545960  0.58700260  1
  O  O26  1  0.57172428  0.20248588  0.41814217  1
  O  O27  1  0.73038684  0.10513612  0.16140326  1
  O  O28  1  0.80285141  0.45627334  0.02061494  1
  O  O29  1  0.56888081  0.38830675  0.61098798  1
  O  O30  1  0.72442984  0.74090931  0.40689207  1
  O  O31  1  0.58180138  0.02542182  0.79321566  1
  O  O32  1  0.89792228  0.21967830  0.26888400  1
  O  O33  1  0.90165581  0.54014669  0.31634635  1
  O  O34  1  0.77384170  0.49828621  0.68865935  1
  O  O35  1  0.76530248  0.82872701  0.72356966  1
  O  O36  1  0.72228976  0.89355089  0.01041185  1
  O  O37  1  0.91877889  0.15849990  0.62235890  1
