# generated using pymatgen
data_Li3Fe2(SiO4)2
_symmetry_space_group_name_H-M   'P 1'
_cell_length_a   8.32796356
_cell_length_b   8.27068870
_cell_length_c   10.68895119
_cell_angle_alpha   90.00714142
_cell_angle_beta   90.01526413
_cell_angle_gamma   104.80814303
_symmetry_Int_Tables_number   1
_chemical_formula_structural   Li3Fe2(SiO4)2
_chemical_formula_sum   'Li12 Fe8 Si8 O32'
_cell_volume   711.78100894
_cell_formula_units_Z   4
loop_
 _symmetry_equiv_pos_site_id
 _symmetry_equiv_pos_as_xyz
  1  'x, y, z'
loop_
 _atom_site_type_symbol
 _atom_site_label
 _atom_site_symmetry_multiplicity
 _atom_site_fract_x
 _atom_site_fract_y
 _atom_site_fract_z
 _atom_site_occupancy
  Li  Li0  1  0.14598276  0.64293942  0.65353872  1
  Li  Li1  1  0.33356648  0.83545133  0.34197628  1
  Li  Li2  1  0.23041933  0.47545104  0.92450492  1
  Li  Li3  1  0.76702124  0.02409534  0.42388581  1
  Li  Li4  1  0.66747598  0.66517850  0.84283460  1
  Li  Li5  1  0.14592492  0.14282501  0.84646405  1
  Li  Li6  1  0.85386361  0.85646035  0.15479805  1
  Li  Li7  1  0.33355850  0.33547776  0.15802016  1
  Li  Li8  1  0.23069580  0.97561860  0.57551517  1
  Li  Li9  1  0.76711268  0.52415244  0.07611746  1
  Li  Li10  1  0.66735547  0.16521034  0.65718356  1
  Li  Li11  1  0.85381702  0.35640568  0.34516946  1
  Fe  Fe12  1  0.09406538  0.59977526  0.16236953  1
  Fe  Fe13  1  0.41115310  0.90650872  0.83680708  1
  Fe  Fe14  1  0.58956259  0.59382506  0.33679504  1
  Fe  Fe15  1  0.09401084  0.09952930  0.33765671  1
  Fe  Fe16  1  0.90503992  0.89726568  0.66341359  1
  Fe  Fe17  1  0.41106927  0.40653088  0.66320891  1
  Fe  Fe18  1  0.58953661  0.09382131  0.16319400  1
  Fe  Fe19  1  0.90492741  0.39699513  0.83635781  1
  Si  Si20  1  0.03825447  0.77292755  0.90773585  1
  Si  Si21  1  0.47001662  0.71473269  0.08783740  1
  Si  Si22  1  0.53055727  0.78578685  0.58761039  1
  Si  Si23  1  0.03846303  0.27282191  0.59200194  1
  Si  Si24  1  0.96154314  0.72687650  0.40736127  1
  Si  Si25  1  0.46990831  0.21469108  0.41212955  1
  Si  Si26  1  0.53051832  0.28569394  0.91241418  1
  Si  Si27  1  0.96175688  0.22683547  0.09288801  1
  O  O28  1  0.97636610  0.72692336  0.05262493  1
  O  O29  1  0.20680054  0.93480463  0.89615662  1
  O  O30  1  0.11718227  0.68344622  0.33455803  1
  O  O31  1  0.09755835  0.61657515  0.84122641  1
  O  O32  1  0.43919641  0.87580421  0.16718100  1
  O  O33  1  0.37379809  0.83959325  0.65973960  1
  O  O34  1  0.30828971  0.55298430  0.09560749  1
  O  O35  1  0.50613783  0.76304726  0.93881745  1
  O  O36  1  0.49336516  0.73637524  0.43864686  1
  O  O37  1  0.97621873  0.22689158  0.44731538  1
  O  O38  1  0.69252348  0.94700011  0.59409287  1
  O  O39  1  0.20679280  0.43483452  0.60382717  1
  O  O40  1  0.62711036  0.66153641  0.16002075  1
  O  O41  1  0.11709867  0.18358036  0.16544343  1
  O  O42  1  0.56166361  0.62483558  0.66713516  1
  O  O43  1  0.09749857  0.11658742  0.65862552  1
  O  O44  1  0.90074548  0.88313594  0.34234516  1
  O  O45  1  0.43921114  0.37588936  0.33283646  1
  O  O46  1  0.88390736  0.82016527  0.83660546  1
  O  O47  1  0.37377699  0.33960143  0.84025039  1
  O  O48  1  0.79410207  0.56430695  0.39476496  1
  O  O49  1  0.30832560  0.05302279  0.40435632  1
  O  O50  1  0.02286185  0.77220125  0.55201275  1
  O  O51  1  0.50604092  0.26301992  0.56123275  1
  O  O52  1  0.49329993  0.23628075  0.06130447  1
  O  O53  1  0.69264283  0.44695427  0.90612108  1
  O  O54  1  0.62707153  0.16154012  0.33998646  1
  O  O55  1  0.56169508  0.12491483  0.83281199  1
  O  O56  1  0.90074152  0.38327081  0.15774498  1
  O  O57  1  0.88389480  0.32036850  0.66344620  1
  O  O58  1  0.79412941  0.06437741  0.10530262  1
  O  O59  1  0.02278088  0.27224065  0.94806479  1
