# generated using pymatgen
data_Li3Mn2(P2O7)2
_symmetry_space_group_name_H-M   'P 1'
_cell_length_a   9.87258715
_cell_length_b   9.85936534
_cell_length_c   11.33858133
_cell_angle_alpha   90.45360315
_cell_angle_beta   103.27809971
_cell_angle_gamma   89.56944895
_symmetry_Int_Tables_number   1
_chemical_formula_structural   Li3Mn2(P2O7)2
_chemical_formula_sum   'Li12 Mn8 P16 O56'
_cell_volume   1074.11179595
_cell_formula_units_Z   4
loop_
 _symmetry_equiv_pos_site_id
 _symmetry_equiv_pos_as_xyz
  1  'x, y, z'
loop_
 _atom_site_type_symbol
 _atom_site_label
 _atom_site_symmetry_multiplicity
 _atom_site_fract_x
 _atom_site_fract_y
 _atom_site_fract_z
 _atom_site_occupancy
  Li  Li0  1  0.12148059  0.71947592  0.45095885  1
  Li  Li1  1  0.18517550  0.40859683  0.55686177  1
  Li  Li2  1  0.08723099  0.10365392  0.02883485  1
  Li  Li3  1  0.14664724  0.40064674  0.03942079  1
  Li  Li4  1  0.41164791  0.60891508  0.97002654  1
  Li  Li5  1  0.37714540  0.95429266  0.49609982  1
  Li  Li6  1  0.63108216  0.05017675  0.51027236  1
  Li  Li7  1  0.58681345  0.39524546  0.02915399  1
  Li  Li8  1  0.64833054  0.09833912  0.03649900  1
  Li  Li9  1  0.91316937  0.89146937  0.97115863  1
  Li  Li10  1  0.81536224  0.59250419  0.44364659  1
  Li  Li11  1  0.88215047  0.27619650  0.55268067  1
  Mn  Mn12  1  0.20010053  0.92454026  0.67518318  1
  Mn  Mn13  1  0.25100524  0.21528031  0.82224497  1
  Mn  Mn14  1  0.24732617  0.71755049  0.17098154  1
  Mn  Mn15  1  0.29937123  0.42399600  0.33055720  1
  Mn  Mn16  1  0.70249286  0.57776699  0.67402991  1
  Mn  Mn17  1  0.74707356  0.28660833  0.82151125  1
  Mn  Mn18  1  0.74159035  0.78087044  0.16871604  1
  Mn  Mn19  1  0.80173912  0.07334867  0.32851852  1
  P  P20  1  0.01859874  0.45418147  0.75347360  1
  P  P21  1  0.12087347  0.71096920  0.87950221  1
  P  P22  1  0.06206606  0.92692695  0.24401634  1
  P  P23  1  0.12241851  0.14588072  0.42600082  1
  P  P24  1  0.38189417  0.64769142  0.58055550  1
  P  P25  1  0.43566151  0.43063654  0.75839150  1
  P  P26  1  0.51456508  0.04150099  0.74939505  1
  P  P27  1  0.38029745  0.20986794  0.11144693  1
  P  P28  1  0.62136732  0.78841144  0.88383445  1
  P  P29  1  0.48429209  0.95869041  0.25239967  1
  P  P30  1  0.56120920  0.57084006  0.24351228  1
  P  P31  1  0.62115665  0.35420615  0.42356144  1
  P  P32  1  0.88042334  0.85185917  0.57783152  1
  P  P33  1  0.93444792  0.07119316  0.75786730  1
  P  P34  1  0.88048981  0.29092635  0.11438188  1
  P  P35  1  0.97836131  0.54667919  0.24695686  1
  O  O36  1  0.02395252  0.40722775  0.62694539  1
  O  O37  1  0.03600877  0.83935757  0.56981742  1
  O  O38  1  0.07986089  0.08725210  0.73076488  1
  O  O39  1  0.09616759  0.36227637  0.85603993  1
  O  O40  1  0.09391692  0.59782481  0.76998388  1
  O  O41  1  0.19232151  0.82433497  0.82402438  1
  O  O42  1  0.22324027  0.64376719  0.99018195  1
  O  O43  1  0.02136274  0.26995459  0.08688846  1
  O  O44  1  0.12083916  0.07350752  0.29822767  1
  O  O45  1  0.06531754  0.93309961  0.11161234  1
  O  O46  1  0.13034606  0.52600947  0.22429475  1
  O  O47  1  0.18286851  0.28641781  0.41770468  1
  O  O48  1  0.16276432  0.81707627  0.30943966  1
  O  O49  1  0.20733679  0.05380331  0.52421050  1
  O  O50  1  0.28332931  0.56145078  0.48308219  1
  O  O51  1  0.32699205  0.32886943  0.69243978  1
  O  O52  1  0.31976502  0.79052545  0.58149399  1
  O  O53  1  0.36217400  0.02864366  0.77024183  1
  O  O54  1  0.37829975  0.58010081  0.70795704  1
  O  O55  1  0.43796580  0.43498562  0.89200197  1
  O  O56  1  0.48774977  0.75894963  0.91829081  1
  O  O57  1  0.26939113  0.15613997  0.00243453  1
  O  O58  1  0.31919122  0.33438179  0.16505412  1
  O  O59  1  0.40049612  0.09917463  0.21813528  1
  O  O60  1  0.41709196  0.58609932  0.27469769  1
  O  O61  1  0.40884794  0.84946450  0.16772684  1
  O  O62  1  0.51338152  0.06828951  0.61885950  1
  O  O63  1  0.46953826  0.34694922  0.43354042  1
  O  O64  1  0.53421324  0.65089578  0.57042321  1
  O  O65  1  0.49461842  0.94522017  0.38581588  1
  O  O66  1  0.59311746  0.14058306  0.84594153  1
  O  O67  1  0.57971995  0.41412990  0.72810943  1
  O  O68  1  0.59234093  0.89832230  0.77520746  1
  O  O69  1  0.69059012  0.67243599  0.82737912  1
  O  O70  1  0.72554570  0.85833027  0.99301966  1
  O  O71  1  0.52013937  0.22908375  0.08184698  1
  O  O72  1  0.55737108  0.56325114  0.10998278  1
  O  O73  1  0.62313881  0.42357084  0.29624506  1
  O  O74  1  0.63446418  0.97430132  0.22293914  1
  O  O75  1  0.68678734  0.21268175  0.41916655  1
  O  O76  1  0.67040843  0.67511194  0.30577601  1
  O  O77  1  0.71838258  0.44093459  0.52149795  1
  O  O78  1  0.79504326  0.94368561  0.47985991  1
  O  O79  1  0.83191166  0.17805955  0.68962020  1
  O  O80  1  0.82151570  0.71061843  0.58350759  1
  O  O81  1  0.86431168  0.47122717  0.76793499  1
  O  O82  1  0.93171204  0.06789738  0.89059934  1
  O  O83  1  0.87950528  0.92320959  0.70537869  1
  O  O84  1  0.98460105  0.74335034  0.90872237  1
  O  O85  1  0.77064954  0.34391942  0.00449736  1
  O  O86  1  0.81897708  0.16749607  0.16658578  1
  O  O87  1  0.89914897  0.40339627  0.22263115  1
  O  O88  1  0.90138959  0.64782075  0.15384390  1
  O  O89  1  0.91561096  0.91285147  0.27034573  1
  O  O90  1  0.96723077  0.16050495  0.43383735  1
  O  O91  1  0.98146483  0.58109531  0.37796816  1
