# generated using pymatgen
data_Li2Si4Ni2O11
_symmetry_space_group_name_H-M   'P 1'
_cell_length_a   8.69555486
_cell_length_b   7.44482455
_cell_length_c   6.94389204
_cell_angle_alpha   105.01980756
_cell_angle_beta   101.23177149
_cell_angle_gamma   99.22495242
_symmetry_Int_Tables_number   1
_chemical_formula_structural   Li2Si4Ni2O11
_chemical_formula_sum   'Li4 Si8 Ni4 O22'
_cell_volume   415.17736018
_cell_formula_units_Z   2
loop_
 _symmetry_equiv_pos_site_id
 _symmetry_equiv_pos_as_xyz
  1  'x, y, z'
loop_
 _atom_site_type_symbol
 _atom_site_label
 _atom_site_symmetry_multiplicity
 _atom_site_fract_x
 _atom_site_fract_y
 _atom_site_fract_z
 _atom_site_occupancy
  Li  Li0  1  0.19856728  0.79633546  0.60979149  1
  Li  Li1  1  0.15435436  0.75374532  0.14353424  1
  Li  Li2  1  0.84564564  0.24625468  0.85646576  1
  Li  Li3  1  0.80143272  0.20366454  0.39020851  1
  Si  Si4  1  0.03006636  0.39286042  0.23993073  1
  Si  Si5  1  0.23232492  0.22216731  0.95833488  1
  Si  Si6  1  0.22487997  0.22183483  0.51995565  1
  Si  Si7  1  0.59292627  0.97725857  0.76824133  1
  Si  Si8  1  0.40707373  0.02274143  0.23175867  1
  Si  Si9  1  0.77512003  0.77816517  0.48004435  1
  Si  Si10  1  0.76767508  0.77783269  0.04166512  1
  Si  Si11  1  0.96993364  0.60713958  0.76006927  1
  Ni  Ni12  1  0.39166563  0.61480220  0.88094247  1
  Ni  Ni13  1  0.39725802  0.61372192  0.37066158  1
  Ni  Ni14  1  0.60274198  0.38627808  0.62933842  1
  Ni  Ni15  1  0.60833437  0.38519780  0.11905753  1
  O  O16  1  0.15727727  0.61324963  0.81840496  1
  O  O17  1  0.05702093  0.25992122  0.39876839  1
  O  O18  1  0.15725542  0.59721743  0.32496575  1
  O  O19  1  0.06550659  0.25861782  0.02401545  1
  O  O20  1  0.18042737  0.14757875  0.70758328  1
  O  O21  1  0.27445893  0.03520239  0.37921235  1
  O  O22  1  0.43416954  0.80460922  0.67408157  1
  O  O23  1  0.37019986  0.41019507  0.58349134  1
  O  O24  1  0.42144832  0.80199211  0.18245571  1
  O  O25  1  0.29388747  0.04275379  0.01874130  1
  O  O26  1  0.37346712  0.41520348  0.06460469  1
  O  O27  1  0.62653288  0.58479652  0.93539531  1
  O  O28  1  0.70611253  0.95724621  0.98125870  1
  O  O29  1  0.57855168  0.19800789  0.81754429  1
  O  O30  1  0.62980014  0.58980493  0.41650866  1
  O  O31  1  0.56583046  0.19539078  0.32591843  1
  O  O32  1  0.72554107  0.96479761  0.62078765  1
  O  O33  1  0.81957263  0.85242125  0.29241672  1
  O  O34  1  0.93449341  0.74138218  0.97598455  1
  O  O35  1  0.84274458  0.40278257  0.67503425  1
  O  O36  1  0.94297907  0.74007878  0.60123161  1
  O  O37  1  0.84272273  0.38675037  0.18159504  1
