# generated using pymatgen
data_Y(CoO2)2
_symmetry_space_group_name_H-M   'P 1'
_cell_length_a   5.62492914
_cell_length_b   5.61470522
_cell_length_c   6.26926012
_cell_angle_alpha   116.51773120
_cell_angle_beta   116.57010143
_cell_angle_gamma   90.16880522
_symmetry_Int_Tables_number   1
_chemical_formula_structural   Y(CoO2)2
_chemical_formula_sum   'Y2 Co4 O8'
_cell_volume   153.29226976
_cell_formula_units_Z   2
loop_
 _symmetry_equiv_pos_site_id
 _symmetry_equiv_pos_as_xyz
  1  'x, y, z'
loop_
 _atom_site_type_symbol
 _atom_site_label
 _atom_site_symmetry_multiplicity
 _atom_site_fract_x
 _atom_site_fract_y
 _atom_site_fract_z
 _atom_site_occupancy
  Y  Y0  1  0.87500226  0.12500226  0.75000552  1
  Y  Y1  1  0.12499774  0.87499774  0.24999448  1
  Co  Co2  1  0.50000000  0.00000000  0.00000000  1
  Co  Co3  1  0.50000000  0.50000000  0.00000000  1
  Co  Co4  1  0.00000000  0.50000000  0.50000000  1
  Co  Co5  1  0.50000000  0.50000000  0.50000000  1
  O  O6  1  0.71327817  0.52628229  0.85296274  1
  O  O7  1  0.13968457  0.82668045  0.85296274  1
  O  O8  1  0.28672183  0.47371771  0.14703726  1
  O  O9  1  0.86031543  0.17331955  0.14703726  1
  O  O10  1  0.52733465  0.14019484  0.35314187  1
  O  O11  1  0.82580722  0.71294704  0.35314187  1
  O  O12  1  0.17419278  0.28705296  0.64685813  1
  O  O13  1  0.47266535  0.85980516  0.64685813  1
