# generated using pymatgen
data_V2Co(H4O5)2
_symmetry_space_group_name_H-M   'P 1'
_cell_length_a   13.70272136
_cell_length_b   9.74990074
_cell_length_c   7.06925984
_cell_angle_alpha   90.00000000
_cell_angle_beta   111.74045244
_cell_angle_gamma   90.00000000
_symmetry_Int_Tables_number   1
_chemical_formula_structural   V2Co(H4O5)2
_chemical_formula_sum   'V8 Co4 H32 O40'
_cell_volume   877.27651825
_cell_formula_units_Z   4
loop_
 _symmetry_equiv_pos_site_id
 _symmetry_equiv_pos_as_xyz
  1  'x, y, z'
loop_
 _atom_site_type_symbol
 _atom_site_label
 _atom_site_symmetry_multiplicity
 _atom_site_fract_x
 _atom_site_fract_y
 _atom_site_fract_z
 _atom_site_occupancy
  V  V0  1  0.10298048  0.02829040  0.69273694  1
  V  V1  1  0.89701952  0.02829040  0.80726306  1
  V  V2  1  0.89701952  0.97170960  0.30726306  1
  V  V3  1  0.10298048  0.97170960  0.19273694  1
  V  V4  1  0.60298048  0.52829040  0.69273694  1
  V  V5  1  0.39701952  0.52829040  0.80726306  1
  V  V6  1  0.39701952  0.47170960  0.30726306  1
  V  V7  1  0.60298048  0.47170960  0.19273694  1
  Co  Co8  1  0.25000000  0.75000000  0.00000000  1
  Co  Co9  1  0.75000000  0.75000000  0.50000000  1
  Co  Co10  1  0.75000000  0.25000000  0.00000000  1
  Co  Co11  1  0.25000000  0.25000000  0.50000000  1
  H  H12  1  0.59658092  0.83713808  0.16366784  1
  H  H13  1  0.40341908  0.83713808  0.33633216  1
  H  H14  1  0.40341908  0.16286192  0.83633216  1
  H  H15  1  0.59658092  0.16286192  0.66366784  1
  H  H16  1  0.09658092  0.33713808  0.16366784  1
  H  H17  1  0.90341908  0.33713808  0.33633216  1
  H  H18  1  0.90341908  0.66286192  0.83633216  1
  H  H19  1  0.09658092  0.66286192  0.66366784  1
  H  H20  1  0.63792223  0.81608125  0.84606438  1
  H  H21  1  0.36207777  0.81608125  0.65393562  1
  H  H22  1  0.36207777  0.18391875  0.15393562  1
  H  H23  1  0.63792223  0.18391875  0.34606438  1
  H  H24  1  0.13792223  0.31608125  0.84606438  1
  H  H25  1  0.86207777  0.31608125  0.65393562  1
  H  H26  1  0.86207777  0.68391875  0.15393562  1
  H  H27  1  0.13792223  0.68391875  0.34606438  1
  H  H28  1  0.61241132  0.05026165  0.83605677  1
  H  H29  1  0.38758868  0.05026165  0.66394323  1
  H  H30  1  0.38758868  0.94973835  0.16394323  1
  H  H31  1  0.61241132  0.94973835  0.33605677  1
  H  H32  1  0.11241132  0.55026165  0.83605677  1
  H  H33  1  0.88758868  0.55026165  0.66394323  1
  H  H34  1  0.88758868  0.44973835  0.16394323  1
  H  H35  1  0.11241132  0.44973835  0.33605677  1
  H  H36  1  0.69271502  0.90864761  0.03834275  1
  H  H37  1  0.30728498  0.90864761  0.46165725  1
  H  H38  1  0.30728498  0.09135239  0.96165725  1
  H  H39  1  0.69271502  0.09135239  0.53834275  1
  H  H40  1  0.19271502  0.40864761  0.03834275  1
  H  H41  1  0.80728498  0.40864761  0.46165725  1
  H  H42  1  0.80728498  0.59135239  0.96165725  1
  H  H43  1  0.19271502  0.59135239  0.53834275  1
  O  O44  1  0.55773201  0.54018463  0.92123934  1
  O  O45  1  0.44226799  0.54018463  0.57876066  1
  O  O46  1  0.44226799  0.45981537  0.07876066  1
  O  O47  1  0.55773201  0.45981537  0.42123934  1
  O  O48  1  0.05773201  0.04018463  0.92123934  1
  O  O49  1  0.94226799  0.04018463  0.57876066  1
  O  O50  1  0.94226799  0.95981537  0.07876066  1
  O  O51  1  0.05773201  0.95981537  0.42123934  1
  O  O52  1  0.34088831  0.68105128  0.81577994  1
  O  O53  1  0.65911169  0.68105128  0.68422006  1
  O  O54  1  0.65911169  0.31894872  0.18422006  1
  O  O55  1  0.34088831  0.31894872  0.31577994  1
  O  O56  1  0.84088831  0.18105128  0.81577994  1
  O  O57  1  0.15911169  0.18105128  0.68422006  1
  O  O58  1  0.15911169  0.81894872  0.18422006  1
  O  O59  1  0.84088831  0.81894872  0.31577994  1
  O  O60  1  0.29818848  0.58288766  0.19038196  1
  O  O61  1  0.70181152  0.58288766  0.30961804  1
  O  O62  1  0.70181152  0.41711234  0.80961804  1
  O  O63  1  0.29818848  0.41711234  0.69038196  1
  O  O64  1  0.79818848  0.08288766  0.19038196  1
  O  O65  1  0.20181152  0.08288766  0.30961804  1
  O  O66  1  0.20181152  0.91711234  0.80961804  1
  O  O67  1  0.79818848  0.91711234  0.69038196  1
  O  O68  1  0.61784800  0.84963152  0.31220970  1
  O  O69  1  0.38215200  0.84963152  0.18779030  1
  O  O70  1  0.38215200  0.15036848  0.68779030  1
  O  O71  1  0.61784800  0.15036848  0.81220970  1
  O  O72  1  0.11784800  0.34963152  0.31220970  1
  O  O73  1  0.88215200  0.34963152  0.18779030  1
  O  O74  1  0.88215200  0.65036848  0.68779030  1
  O  O75  1  0.11784800  0.65036848  0.81220970  1
  O  O76  1  0.62429392  0.88830634  0.93225711  1
  O  O77  1  0.37570608  0.88830634  0.56774289  1
  O  O78  1  0.37570608  0.11169366  0.06774289  1
  O  O79  1  0.62429392  0.11169366  0.43225711  1
  O  O80  1  0.12429392  0.38830634  0.93225711  1
  O  O81  1  0.87570608  0.38830634  0.56774289  1
  O  O82  1  0.87570608  0.61169366  0.06774289  1
  O  O83  1  0.12429392  0.61169366  0.43225711  1
