# generated using pymatgen
data_KO2
_symmetry_space_group_name_H-M   'P 1'
_cell_length_a   4.64903792
_cell_length_b   5.57197619
_cell_length_c   8.08928620
_cell_angle_alpha   90.00000000
_cell_angle_beta   100.50442770
_cell_angle_gamma   90.00000000
_symmetry_Int_Tables_number   1
_chemical_formula_structural   KO2
_chemical_formula_sum   'K4 O8'
_cell_volume   206.03568336
_cell_formula_units_Z   4
loop_
 _symmetry_equiv_pos_site_id
 _symmetry_equiv_pos_as_xyz
  1  'x, y, z'
loop_
 _atom_site_type_symbol
 _atom_site_label
 _atom_site_symmetry_multiplicity
 _atom_site_fract_x
 _atom_site_fract_y
 _atom_site_fract_z
 _atom_site_occupancy
  K  K0  1  0.24973638  0.24101744  0.57360238  1
  K  K1  1  0.75026362  0.74101744  0.92639762  1
  K  K2  1  0.75026362  0.75898256  0.42639762  1
  K  K3  1  0.24973638  0.25898256  0.07360238  1
  O  O4  1  0.34521052  0.73577701  0.62229438  1
  O  O5  1  0.65478948  0.23577701  0.87770562  1
  O  O6  1  0.65478948  0.26422299  0.37770562  1
  O  O7  1  0.34521052  0.76422299  0.12229438  1
  O  O8  1  0.82178655  0.20997101  0.75838164  1
  O  O9  1  0.17821345  0.70997101  0.74161836  1
  O  O10  1  0.17821345  0.79002899  0.24161836  1
  O  O11  1  0.82178655  0.29002899  0.25838164  1
