# generated using pymatgen
data_Li2BH6N
_symmetry_space_group_name_H-M   'P 1'
_cell_length_a   8.90403008
_cell_length_b   8.90403008
_cell_length_c   8.90403066
_cell_angle_alpha   108.78346579
_cell_angle_beta   108.78346579
_cell_angle_gamma   108.78345915
_symmetry_Int_Tables_number   1
_chemical_formula_structural   Li2BH6N
_chemical_formula_sum   'Li12 B6 H36 N6'
_cell_volume   556.83055110
_cell_formula_units_Z   6
loop_
 _symmetry_equiv_pos_site_id
 _symmetry_equiv_pos_as_xyz
  1  'x, y, z'
loop_
 _atom_site_type_symbol
 _atom_site_label
 _atom_site_symmetry_multiplicity
 _atom_site_fract_x
 _atom_site_fract_y
 _atom_site_fract_z
 _atom_site_occupancy
  Li  Li0  1  0.77886437  0.94356278  0.42759086  1
  Li  Li1  1  0.94356278  0.42759086  0.77886437  1
  Li  Li2  1  0.42759086  0.77886437  0.94356278  1
  Li  Li3  1  0.22113563  0.05643722  0.57240914  1
  Li  Li4  1  0.05643722  0.57240914  0.22113563  1
  Li  Li5  1  0.57240914  0.22113563  0.05643722  1
  Li  Li6  1  0.30262196  0.38533580  0.56858227  1
  Li  Li7  1  0.38533580  0.56858227  0.30262196  1
  Li  Li8  1  0.56858227  0.30262196  0.38533580  1
  Li  Li9  1  0.69737804  0.61466420  0.43141773  1
  Li  Li10  1  0.61466420  0.43141773  0.69737804  1
  Li  Li11  1  0.43141773  0.69737804  0.61466420  1
  B  B12  1  0.07800362  0.24561278  0.64831493  1
  B  B13  1  0.24561278  0.64831493  0.07800362  1
  B  B14  1  0.64831493  0.07800362  0.24561278  1
  B  B15  1  0.92199638  0.75438722  0.35168507  1
  B  B16  1  0.75438722  0.35168507  0.92199638  1
  B  B17  1  0.35168507  0.92199638  0.75438722  1
  H  H18  1  0.21721545  0.25793654  0.75164933  1
  H  H19  1  0.25793654  0.75164933  0.21721545  1
  H  H20  1  0.75164933  0.21721545  0.25793654  1
  H  H21  1  0.78278455  0.74206346  0.24835067  1
  H  H22  1  0.74206346  0.24835067  0.78278455  1
  H  H23  1  0.24835067  0.78278455  0.74206346  1
  H  H24  1  0.03106774  0.14736497  0.49038788  1
  H  H25  1  0.14736497  0.49038788  0.03106774  1
  H  H26  1  0.49038788  0.03106774  0.14736497  1
  H  H27  1  0.96893226  0.85263503  0.50961212  1
  H  H28  1  0.85263503  0.50961212  0.96893226  1
  H  H29  1  0.50961212  0.96893226  0.85263503  1
  H  H30  1  0.10709203  0.39591096  0.66450529  1
  H  H31  1  0.39591096  0.66450529  0.10709203  1
  H  H32  1  0.66450529  0.10709203  0.39591096  1
  H  H33  1  0.89290797  0.60408904  0.33549471  1
  H  H34  1  0.60408904  0.33549471  0.89290797  1
  H  H35  1  0.33549471  0.89290797  0.60408904  1
  H  H36  1  0.96011987  0.18653766  0.68760251  1
  H  H37  1  0.18653766  0.68760251  0.96011987  1
  H  H38  1  0.68760251  0.96011987  0.18653766  1
  H  H39  1  0.03988013  0.81346234  0.31239749  1
  H  H40  1  0.81346234  0.31239749  0.03988013  1
  H  H41  1  0.31239749  0.03988013  0.81346234  1
  H  H42  1  0.65068010  0.70919220  0.87234790  1
  H  H43  1  0.70919220  0.87234790  0.65068010  1
  H  H44  1  0.87234790  0.65068010  0.70919220  1
  H  H45  1  0.34931990  0.29080780  0.12765210  1
  H  H46  1  0.29080780  0.12765210  0.34931990  1
  H  H47  1  0.12765210  0.34931990  0.29080780  1
  H  H48  1  0.44156440  0.11636833  0.49709571  1
  H  H49  1  0.11636833  0.49709571  0.44156440  1
  H  H50  1  0.49709571  0.44156440  0.11636833  1
  H  H51  1  0.55843560  0.88363167  0.50290429  1
  H  H52  1  0.88363167  0.50290429  0.55843560  1
  H  H53  1  0.50290429  0.55843560  0.88363167  1
  N  N54  1  0.51659977  0.61430336  0.80127983  1
  N  N55  1  0.61430336  0.80127983  0.51659977  1
  N  N56  1  0.80127983  0.51659977  0.61430336  1
  N  N57  1  0.48340023  0.38569664  0.19872017  1
  N  N58  1  0.38569664  0.19872017  0.48340023  1
  N  N59  1  0.19872017  0.48340023  0.38569664  1
