# generated using pymatgen
data_H5ClO6
_symmetry_space_group_name_H-M   'P 1'
_cell_length_a   6.25080933
_cell_length_b   11.97567036
_cell_length_c   7.44239204
_cell_angle_alpha   90.11173103
_cell_angle_beta   96.45235601
_cell_angle_gamma   90.39611288
_symmetry_Int_Tables_number   1
_chemical_formula_structural   H5ClO6
_chemical_formula_sum   'H20 Cl4 O24'
_cell_volume   553.57553604
_cell_formula_units_Z   4
loop_
 _symmetry_equiv_pos_site_id
 _symmetry_equiv_pos_as_xyz
  1  'x, y, z'
loop_
 _atom_site_type_symbol
 _atom_site_label
 _atom_site_symmetry_multiplicity
 _atom_site_fract_x
 _atom_site_fract_y
 _atom_site_fract_z
 _atom_site_occupancy
  H  H0  1  0.94616261  0.25061212  0.27926063  1
  H  H1  1  0.16771643  0.72005008  0.29248355  1
  H  H2  1  0.52140030  0.05593650  0.75037542  1
  H  H3  1  0.01516718  0.47744943  0.75441127  1
  H  H4  1  0.67982445  0.01706494  0.24271726  1
  H  H5  1  0.52349641  0.44059023  0.74710713  1
  H  H6  1  0.01162945  0.01903523  0.75485055  1
  H  H7  1  0.50176276  0.11572688  0.19158228  1
  H  H8  1  0.97019296  0.53874666  0.25026955  1
  H  H9  1  0.93168549  0.50881827  0.45130167  1
  H  H10  1  0.37649975  0.54074127  0.78153500  1
  H  H11  1  0.51570713  0.47720801  0.01490344  1
  H  H12  1  0.00012842  0.89172906  0.71354348  1
  H  H13  1  0.51946452  0.02059819  0.02805209  1
  H  H14  1  0.39305778  0.94852845  0.78803639  1
  H  H15  1  0.00970523  0.60626045  0.72210671  1
  H  H16  1  0.50026513  0.38083819  0.18225556  1
  H  H17  1  0.66917245  0.48192779  0.23313073  1
  H  H18  1  0.93066218  0.99074266  0.45348486  1
  H  H19  1  0.96587005  0.95835387  0.25101403  1
  Cl  Cl20  1  0.59625317  0.24962816  0.49766787  1
  Cl  Cl21  1  0.04171012  0.24952143  0.00917620  1
  Cl  Cl22  1  0.42857681  0.74879198  0.51025623  1
  Cl  Cl23  1  0.92718770  0.75696805  0.00539445  1
  O  O24  1  0.59437005  0.24982365  0.29523666  1
  O  O25  1  0.08812349  0.25008913  0.23011755  1
  O  O26  1  0.40313115  0.75121470  0.69851042  1
  O  O27  1  0.92538389  0.74296897  0.80883643  1
  O  O28  1  0.81950449  0.25125676  0.57590745  1
  O  O29  1  0.25635218  0.24867774  0.96096847  1
  O  O30  1  0.17673971  0.75097240  0.42061180  1
  O  O31  1  0.71435424  0.74859323  0.05919017  1
  O  O32  1  0.48580889  0.14913969  0.54716832  1
  O  O33  1  0.92680987  0.35042747  0.96009951  1
  O  O34  1  0.51485315  0.64678229  0.44901316  1
  O  O35  1  0.02847471  0.86454036  0.05692853  1
  O  O36  1  0.52846254  0.84693235  0.44835335  1
  O  O37  1  0.06591717  0.66658804  0.09479562  1
  O  O38  1  0.48362386  0.34884580  0.54785375  1
  O  O39  1  0.92065557  0.15027026  0.95963830  1
  O  O40  1  0.52238682  0.03537322  0.16842804  1
  O  O41  1  0.88818152  0.48933984  0.32206256  1
  O  O42  1  0.51023918  0.50322294  0.83109444  1
  O  O43  1  0.05185749  0.96324670  0.66929019  1
  O  O44  1  0.51741212  0.99397180  0.83649589  1
  O  O45  1  0.06356146  0.53549382  0.67617909  1
  O  O46  1  0.51865016  0.46144133  0.15849453  1
  O  O47  1  0.88911780  0.00999064  0.32343740  1
