# generated using pymatgen
data_Pb2O3
_symmetry_space_group_name_H-M   'P 1'
_cell_length_a   8.29417558
_cell_length_b   5.84791130
_cell_length_c   6.82268275
_cell_angle_alpha   102.41081948
_cell_angle_beta   89.99521698
_cell_angle_gamma   90.01095216
_symmetry_Int_Tables_number   1
_chemical_formula_structural   Pb2O3
_chemical_formula_sum   'Pb8 O12'
_cell_volume   323.19154605
_cell_formula_units_Z   4
loop_
 _symmetry_equiv_pos_site_id
 _symmetry_equiv_pos_as_xyz
  1  'x, y, z'
loop_
 _atom_site_type_symbol
 _atom_site_label
 _atom_site_symmetry_multiplicity
 _atom_site_fract_x
 _atom_site_fract_y
 _atom_site_fract_z
 _atom_site_occupancy
  Pb  Pb0  1  0.75052818  0.00113607  -0.00001433  1
  Pb  Pb1  1  0.24953692  0.00111208  -0.00007503  1
  Pb  Pb2  1  0.74941348  0.99884213  0.50034712  1
  Pb  Pb3  1  0.25053080  0.99892064  0.50033555  1
  Pb  Pb4  1  0.50005397  0.44781161  0.31945388  1
  Pb  Pb5  1  0.50001010  0.45434325  0.81992040  1
  Pb  Pb6  1  0.99985518  0.54596192  0.67954440  1
  Pb  Pb7  1  0.00010343  0.55265950  0.18035029  1
  O  O8  1  0.50004201  0.15265506  0.02826971  1
  O  O9  1  0.00001359  0.84657293  0.96956998  1
  O  O10  1  0.49996831  0.15295877  0.53041583  1
  O  O11  1  -0.00000135  0.84777382  0.47125795  1
  O  O12  1  0.71477265  0.75126817  0.20288496  1
  O  O13  1  0.71287953  0.75097909  0.70416203  1
  O  O14  1  0.21274080  0.24881494  0.79600311  1
  O  O15  1  0.21486862  0.24850338  0.29713481  1
  O  O16  1  0.78510477  0.24859892  0.29733452  1
  O  O17  1  0.78724264  0.24873965  0.79598775  1
  O  O18  1  0.28713758  0.75115076  0.70418928  1
  O  O19  1  0.28520078  0.75119632  0.20292679  1
