# generated using pymatgen
data_SmMg2H7
_symmetry_space_group_name_H-M   'P 1'
_cell_length_a   6.21803334
_cell_length_b   6.21803334
_cell_length_c   9.35204649
_cell_angle_alpha   90.00000000
_cell_angle_beta   90.00000000
_cell_angle_gamma   90.00000000
_symmetry_Int_Tables_number   1
_chemical_formula_structural   SmMg2H7
_chemical_formula_sum   'Sm4 Mg8 H28'
_cell_volume   361.58695144
_cell_formula_units_Z   4
loop_
 _symmetry_equiv_pos_site_id
 _symmetry_equiv_pos_as_xyz
  1  'x, y, z'
loop_
 _atom_site_type_symbol
 _atom_site_label
 _atom_site_symmetry_multiplicity
 _atom_site_fract_x
 _atom_site_fract_y
 _atom_site_fract_z
 _atom_site_occupancy
  Sm  Sm0  1  0.77084229  0.22915771  0.75000000  1
  Sm  Sm1  1  0.22915771  0.77084229  0.25000000  1
  Sm  Sm2  1  0.72915771  0.72915771  0.50000000  1
  Sm  Sm3  1  0.27084229  0.27084229  0.00000000  1
  Mg  Mg4  1  0.53204845  0.23961320  0.39982976  1
  Mg  Mg5  1  0.46795155  0.76038680  0.89982976  1
  Mg  Mg6  1  0.73961320  0.96795155  0.14982976  1
  Mg  Mg7  1  0.26038680  0.03204845  0.64982976  1
  Mg  Mg8  1  0.76038680  0.46795155  0.10017024  1
  Mg  Mg9  1  0.23961320  0.53204845  0.60017024  1
  Mg  Mg10  1  0.96795155  0.73961320  0.85017024  1
  Mg  Mg11  1  0.03204845  0.26038680  0.35017024  1
  H  H12  1  0.54032230  0.47662443  0.62303012  1
  H  H13  1  0.45967770  0.52337557  0.12303012  1
  H  H14  1  0.97662443  0.95967770  0.37303012  1
  H  H15  1  0.02337557  0.04032230  0.87303012  1
  H  H16  1  0.52337557  0.45967770  0.87696988  1
  H  H17  1  0.47662443  0.54032230  0.37696988  1
  H  H18  1  0.95967770  0.97662443  0.62696988  1
  H  H19  1  0.04032230  0.02337557  0.12696988  1
  H  H20  1  0.57935576  0.06710439  0.57204829  1
  H  H21  1  0.42064424  0.93289561  0.07204829  1
  H  H22  1  0.56710439  0.92064424  0.32204829  1
  H  H23  1  0.43289561  0.07935576  0.82204829  1
  H  H24  1  0.93289561  0.42064424  0.92795171  1
  H  H25  1  0.06710439  0.57935576  0.42795171  1
  H  H26  1  0.92064424  0.56710439  0.67795171  1
  H  H27  1  0.07935576  0.43289561  0.17795171  1
  H  H28  1  0.81259744  0.34571263  0.49792567  1
  H  H29  1  0.18740256  0.65428737  0.99792567  1
  H  H30  1  0.84571263  0.68740256  0.24792567  1
  H  H31  1  0.15428737  0.31259744  0.74792567  1
  H  H32  1  0.65428737  0.18740256  0.00207433  1
  H  H33  1  0.34571263  0.81259744  0.50207433  1
  H  H34  1  0.68740256  0.84571263  0.75207433  1
  H  H35  1  0.31259744  0.15428737  0.25207433  1
  H  H36  1  0.25162406  0.74837594  0.75000000  1
  H  H37  1  0.74837594  0.25162406  0.25000000  1
  H  H38  1  0.24837594  0.24837594  0.50000000  1
  H  H39  1  0.75162406  0.75162406  0.00000000  1
