# generated using pymatgen
data_LiMg(AlH4)3
_symmetry_space_group_name_H-M   'P 1'
_cell_length_a   8.49613127
_cell_length_b   8.83974237
_cell_length_c   14.55241043
_cell_angle_alpha   90.00000000
_cell_angle_beta   124.87832014
_cell_angle_gamma   90.00000000
_symmetry_Int_Tables_number   1
_chemical_formula_structural   LiMg(AlH4)3
_chemical_formula_sum   'Li4 Mg4 Al12 H48'
_cell_volume   896.61217484
_cell_formula_units_Z   4
loop_
 _symmetry_equiv_pos_site_id
 _symmetry_equiv_pos_as_xyz
  1  'x, y, z'
loop_
 _atom_site_type_symbol
 _atom_site_label
 _atom_site_symmetry_multiplicity
 _atom_site_fract_x
 _atom_site_fract_y
 _atom_site_fract_z
 _atom_site_occupancy
  Li  Li0  1  0.12876779  0.02904629  0.88189768  1
  Li  Li1  1  0.87123221  0.52904629  0.61810232  1
  Li  Li2  1  0.87123221  0.97095371  0.11810232  1
  Li  Li3  1  0.12876779  0.47095371  0.38189768  1
  Mg  Mg4  1  0.63279222  0.96998778  0.38485610  1
  Mg  Mg5  1  0.36720778  0.46998778  0.11514390  1
  Mg  Mg6  1  0.36720778  0.03001222  0.61514390  1
  Mg  Mg7  1  0.63279222  0.53001222  0.88485610  1
  Al  Al8  1  0.76112841  0.87332927  0.65099661  1
  Al  Al9  1  0.23887159  0.37332927  0.84900339  1
  Al  Al10  1  0.23887159  0.12667073  0.34900339  1
  Al  Al11  1  0.76112841  0.62667073  0.15099661  1
  Al  Al12  1  0.47477504  0.62099747  0.35948372  1
  Al  Al13  1  0.52522496  0.12099747  0.14051628  1
  Al  Al14  1  0.52522496  0.37900253  0.64051628  1
  Al  Al15  1  0.47477504  0.87900253  0.85948372  1
  Al  Al16  1  0.96089133  0.24976525  0.99800639  1
  Al  Al17  1  0.03910867  0.74976525  0.50199361  1
  Al  Al18  1  0.03910867  0.75023475  0.00199361  1
  Al  Al19  1  0.96089133  0.25023475  0.49800639  1
  H  H20  1  0.60513966  0.92769071  0.67666686  1
  H  H21  1  0.39486034  0.42769071  0.82333314  1
  H  H22  1  0.39486034  0.07230929  0.32333314  1
  H  H23  1  0.60513966  0.57230929  0.17666686  1
  H  H24  1  0.65084790  0.90751961  0.51649510  1
  H  H25  1  0.34915210  0.40751961  0.98350490  1
  H  H26  1  0.34915210  0.09248039  0.48350490  1
  H  H27  1  0.65084790  0.59248039  0.01649510  1
  H  H28  1  0.78657183  0.69368143  0.67011185  1
  H  H29  1  0.21342817  0.19368143  0.82988815  1
  H  H30  1  0.21342817  0.30631857  0.32988815  1
  H  H31  1  0.78657183  0.80631857  0.17011185  1
  H  H32  1  0.94905177  0.97717862  0.71996506  1
  H  H33  1  0.05094823  0.47717862  0.78003494  1
  H  H34  1  0.05094823  0.02282138  0.28003494  1
  H  H35  1  0.94905177  0.52282138  0.21996506  1
  H  H36  1  0.48754552  0.78854512  0.31499025  1
  H  H37  1  0.51245448  0.28854512  0.18500975  1
  H  H38  1  0.51245448  0.21145488  0.68500975  1
  H  H39  1  0.48754552  0.71145488  0.81499025  1
  H  H40  1  0.69085559  0.56762974  0.45444868  1
  H  H41  1  0.30914441  0.06762974  0.04555132  1
  H  H42  1  0.30914441  0.43237026  0.54555132  1
  H  H43  1  0.69085559  0.93237026  0.95444868  1
  H  H44  1  0.38499005  0.51258508  0.24878573  1
  H  H45  1  0.61500995  0.01258508  0.25121427  1
  H  H46  1  0.61500995  0.48741492  0.75121427  1
  H  H47  1  0.38499005  0.98741492  0.74878573  1
  H  H48  1  0.32978129  0.62162425  0.39667419  1
  H  H49  1  0.67021871  0.12162425  0.10332581  1
  H  H50  1  0.67021871  0.37837575  0.60332581  1
  H  H51  1  0.32978129  0.87837575  0.89667419  1
  H  H52  1  0.95408886  0.18602055  0.89228132  1
  H  H53  1  0.04591114  0.68602055  0.60771868  1
  H  H54  1  0.04591114  0.81397945  0.10771868  1
  H  H55  1  0.95408886  0.31397945  0.39228132  1
  H  H56  1  0.76202127  0.34333191  0.95410677  1
  H  H57  1  0.23797873  0.84333191  0.54589323  1
  H  H58  1  0.23797873  0.65666809  0.04589323  1
  H  H59  1  0.76202127  0.15666809  0.45410677  1
  H  H60  1  0.12978909  0.37757739  0.06420644  1
  H  H61  1  0.87021091  0.87757739  0.43579356  1
  H  H62  1  0.87021091  0.62242261  0.93579356  1
  H  H63  1  0.12978909  0.12242261  0.56420644  1
  H  H64  1  0.99335001  0.12827461  0.08940539  1
  H  H65  1  0.00664999  0.62827461  0.41059461  1
  H  H66  1  0.00664999  0.87172539  0.91059461  1
  H  H67  1  0.99335001  0.37172539  0.58940539  1
