# generated using pymatgen
data_BaH2
_symmetry_space_group_name_H-M   'P 1'
_cell_length_a   4.44425466
_cell_length_b   4.46751875
_cell_length_c   6.06041341
_cell_angle_alpha   90.00000000
_cell_angle_beta   90.00000000
_cell_angle_gamma   119.82789008
_symmetry_Int_Tables_number   1
_chemical_formula_structural   BaH2
_chemical_formula_sum   'Ba2 H4'
_cell_volume   104.38756985
_cell_formula_units_Z   2
loop_
 _symmetry_equiv_pos_site_id
 _symmetry_equiv_pos_as_xyz
  1  'x, y, z'
loop_
 _atom_site_type_symbol
 _atom_site_label
 _atom_site_symmetry_multiplicity
 _atom_site_fract_x
 _atom_site_fract_y
 _atom_site_fract_z
 _atom_site_occupancy
  Ba  Ba0  1  0.33386244  0.16772488  0.25000000  1
  Ba  Ba1  1  0.66613756  0.83227512  0.75000000  1
  H  H2  1  0.66554708  0.83109417  0.25000000  1
  H  H3  1  0.33445292  0.16890583  0.75000000  1
  H  H4  1  0.00000000  0.50000000  0.00000000  1
  H  H5  1  0.00000000  0.50000000  0.50000000  1
