# generated using pymatgen
data_Zn3Cr2(Si2O7)2
_symmetry_space_group_name_H-M   'P 1'
_cell_length_a   7.67587672
_cell_length_b   9.70847027
_cell_length_c   9.03078744
_cell_angle_alpha   63.60676073
_cell_angle_beta   64.85036141
_cell_angle_gamma   66.71415573
_symmetry_Int_Tables_number   1
_chemical_formula_structural   Zn3Cr2(Si2O7)2
_chemical_formula_sum   'Zn6 Cr4 Si8 O28'
_cell_volume   527.71132559
_cell_formula_units_Z   2
loop_
 _symmetry_equiv_pos_site_id
 _symmetry_equiv_pos_as_xyz
  1  'x, y, z'
loop_
 _atom_site_type_symbol
 _atom_site_label
 _atom_site_symmetry_multiplicity
 _atom_site_fract_x
 _atom_site_fract_y
 _atom_site_fract_z
 _atom_site_occupancy
  Zn  Zn0  1  0.92621098  0.91077241  0.43802455  1
  Zn  Zn1  1  0.27500794  0.58922759  0.06197545  1
  Zn  Zn2  1  0.72499206  0.41077241  0.93802455  1
  Zn  Zn3  1  0.61272606  0.25000000  0.75000000  1
  Zn  Zn4  1  0.07378902  0.08922759  0.56197545  1
  Zn  Zn5  1  0.38727394  0.75000000  0.25000000  1
  Cr  Cr6  1  0.20990104  0.25000000  0.75000000  1
  Cr  Cr7  1  0.79009896  0.75000000  0.25000000  1
  Cr  Cr8  1  0.00000000  0.00000000  0.00000000  1
  Cr  Cr9  1  0.00000000  0.50000000  0.50000000  1
  Si  Si10  1  0.47207713  0.29276831  0.34588919  1
  Si  Si11  1  0.88926437  0.79276831  0.84588919  1
  Si  Si12  1  0.47320599  0.90283402  0.85328692  1
  Si  Si13  1  0.77067407  0.40283402  0.35328692  1
  Si  Si14  1  0.11073563  0.20723169  0.15411081  1
  Si  Si15  1  0.52679401  0.09716598  0.14671308  1
  Si  Si16  1  0.22932593  0.59716598  0.64671308  1
  Si  Si17  1  0.52792287  0.70723169  0.65411081  1
  O  O18  1  0.15296612  0.65887688  0.47307288  1
  O  O19  1  0.03869015  0.58327930  0.25267431  1
  O  O20  1  0.53068860  0.91217671  0.20043588  1
  O  O21  1  0.12535625  0.08327930  0.75267431  1
  O  O22  1  0.74407296  0.67005256  0.51284635  1
  O  O23  1  0.94811860  0.37265718  0.17802030  1
  O  O24  1  0.35669781  0.41217671  0.70043588  1
  O  O25  1  0.92697187  0.82994744  0.98715365  1
  O  O26  1  0.05188140  0.62734282  0.82197970  1
  O  O27  1  0.35673240  0.73010993  0.57590220  1
  O  O28  1  0.96130985  0.41672070  0.74732569  1
  O  O29  1  0.25592704  0.32994744  0.48715365  1
  O  O30  1  0.49879708  0.12734282  0.32197970  1
  O  O31  1  0.71508312  0.15887688  0.97307288  1
  O  O32  1  0.33725547  0.23010993  0.07590220  1
  O  O33  1  0.07302813  0.17005256  0.01284635  1
  O  O34  1  0.09521520  0.06789462  0.34336418  1
  O  O35  1  0.64326760  0.26989007  0.42409780  1
  O  O36  1  0.50647300  0.43210538  0.15663582  1
  O  O37  1  0.66274453  0.76989007  0.92409780  1
  O  O38  1  0.50120292  0.87265718  0.67802030  1
  O  O39  1  0.87464375  0.91672070  0.24732569  1
  O  O40  1  0.49352700  0.56789462  0.84336418  1
  O  O41  1  0.46931140  0.08782329  0.79956412  1
  O  O42  1  0.90478480  0.93210538  0.65663582  1
  O  O43  1  0.64330219  0.58782329  0.29956412  1
  O  O44  1  0.28491688  0.84112312  0.02692712  1
  O  O45  1  0.84703388  0.34112312  0.52692712  1
