# generated using pymatgen
data_CuNi
_symmetry_space_group_name_H-M   'P 1'
_cell_length_a   2.49993223
_cell_length_b   2.49993414
_cell_length_c   4.14376128
_cell_angle_alpha   89.99783044
_cell_angle_beta   90.00218055
_cell_angle_gamma   119.99690483
_symmetry_Int_Tables_number   1
_chemical_formula_structural   CuNi
_chemical_formula_sum   'Cu1 Ni1'
_cell_volume   22.42826644
_cell_formula_units_Z   1
loop_
 _symmetry_equiv_pos_site_id
 _symmetry_equiv_pos_as_xyz
  1  'x, y, z'
loop_
 _atom_site_type_symbol
 _atom_site_label
 _atom_site_symmetry_multiplicity
 _atom_site_fract_x
 _atom_site_fract_y
 _atom_site_fract_z
 _atom_site_occupancy
  Cu  Cu0  1  0.66666608  0.33333414  0.74999926  1
  Ni  Ni1  1  0.33333292  0.66666486  0.24999974  1
