# generated using pymatgen
data_CaCuO2
_symmetry_space_group_name_H-M   'P 1'
_cell_length_a   3.05945124
_cell_length_b   9.01258499
_cell_length_c   7.87442347
_cell_angle_alpha   94.45815067
_cell_angle_beta   89.16746202
_cell_angle_gamma   70.98754622
_symmetry_Int_Tables_number   1
_chemical_formula_structural   CaCuO2
_chemical_formula_sum   'Ca4 Cu4 O8'
_cell_volume   204.47711094
_cell_formula_units_Z   4
loop_
 _symmetry_equiv_pos_site_id
 _symmetry_equiv_pos_as_xyz
  1  'x, y, z'
loop_
 _atom_site_type_symbol
 _atom_site_label
 _atom_site_symmetry_multiplicity
 _atom_site_fract_x
 _atom_site_fract_y
 _atom_site_fract_z
 _atom_site_occupancy
  Ca  Ca0  1  0.19697295  0.03410924  0.20885568  1
  Ca  Ca1  1  0.80083960  0.94570933  0.81918108  1
  Ca  Ca2  1  0.05475216  0.67095218  0.08941001  1
  Ca  Ca3  1  0.94214795  0.30892041  0.93875956  1
  Cu  Cu4  1  0.57391486  0.19834477  0.56749281  1
  Cu  Cu5  1  0.33474430  0.39341018  0.30718680  1
  Cu  Cu6  1  0.66023561  0.58661977  0.72115171  1
  Cu  Cu7  1  0.42152135  0.78160419  0.46094569  1
  O  O8  1  0.98601878  0.70906445  0.60652699  1
  O  O9  1  0.26963174  0.48672312  0.83007610  1
  O  O10  1  0.72575499  0.49329153  0.19813875  1
  O  O11  1  0.00741948  0.27078096  0.42198546  1
  O  O12  1  0.14250061  0.11932753  0.69355176  1
  O  O13  1  0.59192032  0.14986296  0.04831777  1
  O  O14  1  0.85408812  0.86074773  0.33460403  1
  O  O15  1  0.40581217  0.82986564  0.97943179  1
