# generated using pymatgen
data_Ca2SbWO6
_symmetry_space_group_name_H-M   'P 1'
_cell_length_a   5.63869070
_cell_length_b   5.91166463
_cell_length_c   8.20782851
_cell_angle_alpha   90.00000000
_cell_angle_beta   89.45867651
_cell_angle_gamma   90.00000000
_symmetry_Int_Tables_number   1
_chemical_formula_structural   Ca2SbWO6
_chemical_formula_sum   'Ca4 Sb2 W2 O12'
_cell_volume   273.58794152
_cell_formula_units_Z   2
loop_
 _symmetry_equiv_pos_site_id
 _symmetry_equiv_pos_as_xyz
  1  'x, y, z'
loop_
 _atom_site_type_symbol
 _atom_site_label
 _atom_site_symmetry_multiplicity
 _atom_site_fract_x
 _atom_site_fract_y
 _atom_site_fract_z
 _atom_site_occupancy
  Ca  Ca0  1  0.98734506  0.05746618  0.25126727  1
  Ca  Ca1  1  0.51265494  0.55746718  0.24873273  1
  Ca  Ca2  1  0.01265594  0.94253482  0.74873273  1
  Ca  Ca3  1  0.48734406  0.44253382  0.75126727  1
  Sb  Sb4  1  0.50000000  0.00000000  0.00000000  1
  Sb  Sb5  1  0.00000100  0.49999900  0.50000000  1
  W  W6  1  0.50000000  0.00000000  0.49999900  1
  W  W7  1  0.00000000  0.49999900  0.00000000  1
  O  O8  1  0.67478847  0.29069234  0.42997161  1
  O  O9  1  0.82521153  0.79069334  0.07002839  1
  O  O10  1  0.32521053  0.70930766  0.57002839  1
  O  O11  1  0.17478947  0.20930666  0.92997161  1
  O  O12  1  0.21358616  0.17461620  0.55395259  1
  O  O13  1  0.28641384  0.67461520  0.94604741  1
  O  O14  1  0.78641484  0.82538380  0.44604741  1
  O  O15  1  0.71358516  0.32538480  0.05395259  1
  O  O16  1  0.11952909  0.44290698  0.23300338  1
  O  O17  1  0.38047191  0.94290798  0.26699562  1
  O  O18  1  0.61952909  0.05709202  0.73300438  1
  O  O19  1  0.88047191  0.55709302  0.76699662  1
