# generated using pymatgen
data_Mg16Al12Cd
_symmetry_space_group_name_H-M   'P 1'
_cell_length_a   9.19435910
_cell_length_b   9.11539425
_cell_length_c   9.09101058
_cell_angle_alpha   109.29765155
_cell_angle_beta   109.65077750
_cell_angle_gamma   109.74834064
_symmetry_Int_Tables_number   1
_chemical_formula_structural   Mg16Al12Cd
_chemical_formula_sum   'Mg16 Al12 Cd1'
_cell_volume   584.46014189
_cell_formula_units_Z   1
loop_
 _symmetry_equiv_pos_site_id
 _symmetry_equiv_pos_as_xyz
  1  'x, y, z'
loop_
 _atom_site_type_symbol
 _atom_site_label
 _atom_site_symmetry_multiplicity
 _atom_site_fract_x
 _atom_site_fract_y
 _atom_site_fract_z
 _atom_site_occupancy
  Mg  Mg0  1  0.00089279  0.34315630  0.00000000  1
  Mg  Mg1  1  0.31256423  0.60283333  -0.00000000  1
  Mg  Mg2  1  0.00217572  0.00031828  0.00000100  1
  Mg  Mg3  1  0.34731830  0.00883985  0.00000100  1
  Mg  Mg4  1  0.67988402  0.68004618  0.27965712  1
  Mg  Mg5  1  0.59884011  0.99891483  0.31385084  1
  Mg  Mg6  1  0.00163243  0.60243594  0.31625714  1
  Mg  Mg7  1  0.00231099  0.99815723  0.34848167  1
  Mg  Mg8  1  0.71045219  0.39486886  0.39226154  1
  Mg  Mg9  1  0.39895557  0.71612799  0.40092809  1
  Mg  Mg10  1  0.99802748  0.31520090  0.59907291  1
  Mg  Mg11  1  0.31819265  0.00260732  0.60774046  1
  Mg  Mg12  1  0.65382732  0.64967456  0.65151633  1
  Mg  Mg13  1  0.68537529  0.28617880  0.68374286  1
  Mg  Mg14  1  0.28499027  0.68506599  0.68615016  1
  Mg  Mg15  1  0.40022589  0.40038905  0.72034288  1
  Al  Al16  1  0.63288098  0.81262590  0.00000000  1
  Al  Al17  1  0.81795790  0.63745040  0.00000000  1
  Al  Al18  1  0.36283530  0.36831643  0.18317335  1
  Al  Al19  1  0.18592925  0.81959135  0.18631398  1
  Al  Al20  1  0.82036289  0.18209895  0.18700648  1
  Al  Al21  1  0.18085425  0.36693390  0.36894816  1
  Al  Al22  1  0.36734573  0.18413544  0.36987798  1
  Al  Al23  1  0.99746675  0.81425846  0.63012202  1
  Al  Al24  1  0.81190609  0.99798574  0.63105184  1
  Al  Al25  1  0.63335741  0.99509247  0.81299352  1
  Al  Al26  1  0.99961527  0.63327937  0.81368602  1
  Al  Al27  1  0.17966095  0.18514307  0.81682565  1
  Cd  Cd28  1  0.61416596  0.31827713  0.00000000  1
