# generated using pymatgen
data_Mg16Al12Zn
_symmetry_space_group_name_H-M   'P 1'
_cell_length_a   9.14237342
_cell_length_b   9.06304522
_cell_length_c   9.06335389
_cell_angle_alpha   109.30610442
_cell_angle_beta   109.66140375
_cell_angle_gamma   109.62170595
_symmetry_Int_Tables_number   1
_chemical_formula_structural   Mg16Al12Zn
_chemical_formula_sum   'Mg16 Al12 Zn1'
_cell_volume   576.83538643
_cell_formula_units_Z   1
loop_
 _symmetry_equiv_pos_site_id
 _symmetry_equiv_pos_as_xyz
  1  'x, y, z'
loop_
 _atom_site_type_symbol
 _atom_site_label
 _atom_site_symmetry_multiplicity
 _atom_site_fract_x
 _atom_site_fract_y
 _atom_site_fract_z
 _atom_site_occupancy
  Mg  Mg0  1  0.31108297  0.60230019  0.99999900  1
  Mg  Mg1  1  0.99709748  0.34364328  -0.00000000  1
  Mg  Mg2  1  0.00253284  0.99938758  1.00000000  1
  Mg  Mg3  1  0.35911293  0.02230697  0.00000100  1
  Mg  Mg4  1  0.67695261  0.67231856  0.27212833  1
  Mg  Mg5  1  0.59796173  0.99819473  0.31162352  1
  Mg  Mg6  1  0.00046641  0.60133099  0.31683048  1
  Mg  Mg7  1  0.00045384  0.99628428  0.34788118  1
  Mg  Mg8  1  0.70621354  0.39360992  0.38653290  1
  Mg  Mg9  1  0.39936540  0.71797442  0.40223578  1
  Mg  Mg10  1  0.99712962  0.31573865  0.59776522  1
  Mg  Mg11  1  0.31968164  0.00707703  0.61346810  1
  Mg  Mg12  1  0.65257265  0.64840210  0.65211682  1
  Mg  Mg13  1  0.68363493  0.28450050  0.68316852  1
  Mg  Mg14  1  0.28633721  0.68657021  0.68837548  1
  Mg  Mg15  1  0.40482528  0.40019124  0.72787267  1
  Al  Al16  1  0.63577944  0.81272093  0.00000000  1
  Al  Al17  1  0.81482529  0.62787275  0.00000100  1
  Al  Al18  1  0.35919506  0.36809861  0.18274763  1
  Al  Al19  1  0.81748258  0.18352062  0.18410947  1
  Al  Al20  1  0.18412330  0.81988555  0.18540433  1
  Al  Al21  1  0.18025825  0.36664722  0.37037970  1
  Al  Al22  1  0.36548242  0.18417916  0.37014186  1
  Al  Al23  1  0.99533956  0.81403730  0.62985814  1
  Al  Al24  1  0.80987955  0.99626852  0.62962130  1
  Al  Al25  1  0.99871797  0.63448221  0.81459567  1
  Al  Al26  1  0.63337412  0.99941116  0.81589053  1
  Al  Al27  1  0.17644643  0.18534997  0.81725137  1
  Zn  Zn28  1  0.63367096  0.31769234  0.99999900  1
