# generated using pymatgen
data_Mg16Al12Ag
_symmetry_space_group_name_H-M   'P 1'
_cell_length_a   9.11908742
_cell_length_b   9.08485609
_cell_length_c   9.06183569
_cell_angle_alpha   109.47485387
_cell_angle_beta   109.62801453
_cell_angle_gamma   109.49022155
_symmetry_Int_Tables_number   1
_chemical_formula_structural   Mg16Al12Ag
_chemical_formula_sum   'Mg16 Al12 Ag1'
_cell_volume   576.63046576
_cell_formula_units_Z   1
loop_
 _symmetry_equiv_pos_site_id
 _symmetry_equiv_pos_as_xyz
  1  'x, y, z'
loop_
 _atom_site_type_symbol
 _atom_site_label
 _atom_site_symmetry_multiplicity
 _atom_site_fract_x
 _atom_site_fract_y
 _atom_site_fract_z
 _atom_site_occupancy
  Mg  Mg0  1  0.36114678  0.02251975  0.00000000  1
  Mg  Mg1  1  0.00262405  0.99952619  0.00000000  1
  Mg  Mg2  1  0.99725594  0.34128243  0.00000000  1
  Mg  Mg3  1  0.30953002  0.60266901  0.00000100  1
  Mg  Mg4  1  0.67571889  0.67067053  0.26930369  1
  Mg  Mg5  1  0.59669077  0.99755728  0.31256106  1
  Mg  Mg6  1  0.00049945  0.60194171  0.31593554  1
  Mg  Mg7  1  -0.00020466  0.99726308  0.34952961  1
  Mg  Mg8  1  0.70705083  0.39415228  0.38786692  1
  Mg  Mg9  1  0.39784802  0.71628267  0.40076339  1
  Mg  Mg10  1  0.99708363  0.31551828  0.59923661  1
  Mg  Mg11  1  0.31918491  0.00628536  0.61213408  1
  Mg  Mg12  1  0.65026374  0.64773147  0.65046839  1
  Mg  Mg13  1  0.68456491  0.28600717  0.68406546  1
  Mg  Mg14  1  0.28412971  0.68499722  0.68743894  1
  Mg  Mg15  1  0.40641620  0.40136884  0.73069731  1
  Al  Al16  1  0.81573675  0.63351934  -0.00000000  1
  Al  Al17  1  0.63414358  0.81362137  -0.00000000  1
  Al  Al18  1  0.35926353  0.36704983  0.18251164  1
  Al  Al19  1  0.81761625  0.18160440  0.18539672  1
  Al  Al20  1  0.18482104  0.82160930  0.18570718  1
  Al  Al21  1  0.36490987  0.18388134  0.36938926  1
  Al  Al22  1  0.17989808  0.36631929  0.37098454  1
  Al  Al23  1  0.80891354  0.99533575  0.62901546  1
  Al  Al24  1  0.99552262  0.81449508  0.63061274  1
  Al  Al25  1  0.99911485  0.63590212  0.81429282  1
  Al  Al26  1  0.63221953  0.99620767  0.81460228  1
  Al  Al27  1  0.17675088  0.18453819  0.81748736  1
  Ag  Ag28  1  0.64129129  0.32014804  -0.00000000  1
