# generated using pymatgen
data_MgPb2
_symmetry_space_group_name_H-M   'P 1'
_cell_length_a   3.48732469
_cell_length_b   6.76913508
_cell_length_c   7.90281233
_cell_angle_alpha   74.01839755
_cell_angle_beta   90.00000019
_cell_angle_gamma   104.92712632
_symmetry_Int_Tables_number   1
_chemical_formula_structural   MgPb2
_chemical_formula_sum   'Mg2 Pb4'
_cell_volume   172.78686494
_cell_formula_units_Z   2
loop_
 _symmetry_equiv_pos_site_id
 _symmetry_equiv_pos_as_xyz
  1  'x, y, z'
loop_
 _atom_site_type_symbol
 _atom_site_label
 _atom_site_symmetry_multiplicity
 _atom_site_fract_x
 _atom_site_fract_y
 _atom_site_fract_z
 _atom_site_occupancy
  Mg  Mg0  1  0.72318196  0.44636492  0.05817078  1
  Mg  Mg1  1  0.66570604  0.33141308  0.66405222  1
  Pb  Pb2  1  0.01800246  0.03600592  0.98799472  1
  Pb  Pb3  1  0.32761071  0.65522143  0.32929607  1
  Pb  Pb4  1  0.06127829  0.12255557  0.39292593  1
  Pb  Pb5  1  0.37088554  0.74177108  0.73422728  1
