# generated using pymatgen
data_Mg16Al12Ga
_symmetry_space_group_name_H-M   'P 1'
_cell_length_a   9.14366541
_cell_length_b   9.04222335
_cell_length_c   9.11019907
_cell_angle_alpha   109.22530593
_cell_angle_beta   109.67617637
_cell_angle_gamma   109.43569823
_symmetry_Int_Tables_number   1
_chemical_formula_structural   Mg16Al12Ga
_chemical_formula_sum   'Mg16 Al12 Ga1'
_cell_volume   580.37103136
_cell_formula_units_Z   1
loop_
 _symmetry_equiv_pos_site_id
 _symmetry_equiv_pos_as_xyz
  1  'x, y, z'
loop_
 _atom_site_type_symbol
 _atom_site_label
 _atom_site_symmetry_multiplicity
 _atom_site_fract_x
 _atom_site_fract_y
 _atom_site_fract_z
 _atom_site_occupancy
  Mg  Mg0  1  0.99805685  0.34550893  0.99999900  1
  Mg  Mg1  1  0.31311677  0.60272173  -0.00000000  1
  Mg  Mg2  1  0.35392775  0.01630568  0.00000000  1
  Mg  Mg3  1  0.00224601  -0.00019054  -0.00000000  1
  Mg  Mg4  1  0.67821724  0.67557514  0.27594376  1
  Mg  Mg5  1  0.59931027  0.99920009  0.31260160  1
  Mg  Mg6  1  0.99970323  0.59998484  0.31615855  1
  Mg  Mg7  1  0.00106321  0.99718534  0.34792208  1
  Mg  Mg8  1  0.70833303  0.39474404  0.38902229  1
  Mg  Mg9  1  0.40083475  0.71851523  0.40286686  1
  Mg  Mg10  1  0.99796789  0.31564737  0.59713414  1
  Mg  Mg11  1  0.31930974  0.00572175  0.61097871  1
  Mg  Mg12  1  0.65314114  0.64926326  0.65207692  1
  Mg  Mg13  1  0.68354369  0.28382630  0.68383945  1
  Mg  Mg14  1  0.28670867  0.68659949  0.68739840  1
  Mg  Mg15  1  0.40227447  0.39963237  0.72405624  1
  Al  Al16  1  0.63495603  0.81273845  0.00000000  1
  Al  Al17  1  0.81650229  0.62955699  0.00000100  1
  Al  Al18  1  0.36102276  0.36859018  0.18266923  1
  Al  Al19  1  0.18422223  0.81902744  0.18523908  1
  Al  Al20  1  0.81953079  0.18430093  0.18554407  1
  Al  Al21  1  0.18063087  0.36665995  0.37021551  1
  Al  Al22  1  0.36633148  0.18368150  0.36999972  1
  Al  Al23  1  0.99633176  0.81368178  0.63000128  1
  Al  Al24  1  0.81041637  0.99644544  0.62978549  1
  Al  Al25  1  0.63398771  0.99875786  0.81445593  1
  Al  Al26  1  0.99898214  0.63378835  0.81476092  1
  Al  Al27  1  0.17835354  0.18591995  0.81732977  1
  Ga  Ga28  1  0.62097532  0.31661314  0.00000100  1
