# generated using pymatgen
data_Pm3Dy
_symmetry_space_group_name_H-M   'P 1'
_cell_length_a   7.30062416
_cell_length_b   7.30062404
_cell_length_c   5.93104582
_cell_angle_alpha   90.00000000
_cell_angle_beta   90.00000000
_cell_angle_gamma   120.00000551
_symmetry_Int_Tables_number   1
_chemical_formula_structural   Pm3Dy
_chemical_formula_sum   'Pm6 Dy2'
_cell_volume   273.76748239
_cell_formula_units_Z   2
loop_
 _symmetry_equiv_pos_site_id
 _symmetry_equiv_pos_as_xyz
  1  'x, y, z'
loop_
 _atom_site_type_symbol
 _atom_site_label
 _atom_site_symmetry_multiplicity
 _atom_site_fract_x
 _atom_site_fract_y
 _atom_site_fract_z
 _atom_site_occupancy
  Pm  Pm0  1  0.16719926  0.33439652  0.25000100  1
  Pm  Pm1  1  0.66560548  0.83280274  0.25000100  1
  Pm  Pm2  1  0.16719726  0.83280274  0.25000100  1
  Pm  Pm3  1  0.83280174  0.66560548  0.75000000  1
  Pm  Pm4  1  0.33439652  0.16719926  0.75000000  1
  Pm  Pm5  1  0.83280274  0.16719926  0.75000000  1
  Dy  Dy6  1  0.33333300  0.66666700  0.75000000  1
  Dy  Dy7  1  0.66666700  0.33333300  0.25000100  1
