# generated using pymatgen
data_TbPm3
_symmetry_space_group_name_H-M   'P 1'
_cell_length_a   7.30239460
_cell_length_b   7.30239380
_cell_length_c   5.93301613
_cell_angle_alpha   90.00000000
_cell_angle_beta   90.00000000
_cell_angle_gamma   119.99999864
_symmetry_Int_Tables_number   1
_chemical_formula_structural   TbPm3
_chemical_formula_sum   'Tb2 Pm6'
_cell_volume   273.99126274
_cell_formula_units_Z   2
loop_
 _symmetry_equiv_pos_site_id
 _symmetry_equiv_pos_as_xyz
  1  'x, y, z'
loop_
 _atom_site_type_symbol
 _atom_site_label
 _atom_site_symmetry_multiplicity
 _atom_site_fract_x
 _atom_site_fract_y
 _atom_site_fract_z
 _atom_site_occupancy
  Tb  Tb0  1  0.33333300  0.66666600  0.75000200  1
  Tb  Tb1  1  0.66666800  0.33333300  0.25000000  1
  Pm  Pm2  1  0.16711228  0.33422355  0.25000000  1
  Pm  Pm3  1  0.66577645  0.83288772  0.25000000  1
  Pm  Pm4  1  0.16711128  0.83288772  0.25000000  1
  Pm  Pm5  1  0.83288972  0.66577745  0.75000200  1
  Pm  Pm6  1  0.33422455  0.16711228  0.75000200  1
  Pm  Pm7  1  0.83288972  0.16711228  0.75000200  1
