# generated using pymatgen
data_TbSm3
_symmetry_space_group_name_H-M   'P 1'
_cell_length_a   7.28199363
_cell_length_b   7.28199369
_cell_length_c   5.89900704
_cell_angle_alpha   90.00000000
_cell_angle_beta   90.00000000
_cell_angle_gamma   119.99999446
_symmetry_Int_Tables_number   1
_chemical_formula_structural   TbSm3
_chemical_formula_sum   'Tb2 Sm6'
_cell_volume   270.90072242
_cell_formula_units_Z   2
loop_
 _symmetry_equiv_pos_site_id
 _symmetry_equiv_pos_as_xyz
  1  'x, y, z'
loop_
 _atom_site_type_symbol
 _atom_site_label
 _atom_site_symmetry_multiplicity
 _atom_site_fract_x
 _atom_site_fract_y
 _atom_site_fract_z
 _atom_site_occupancy
  Tb  Tb0  1  0.33333400  0.66666800  0.75000000  1
  Tb  Tb1  1  0.66666700  0.33333400  0.25000100  1
  Sm  Sm2  1  0.16698219  0.33396438  0.25000100  1
  Sm  Sm3  1  0.66603762  0.83301981  0.25000100  1
  Sm  Sm4  1  0.16698219  0.83301981  0.25000100  1
  Sm  Sm5  1  0.83301881  0.66603762  0.75000000  1
  Sm  Sm6  1  0.33396338  0.16698219  0.75000000  1
  Sm  Sm7  1  0.83301881  0.16698219  0.75000000  1
