# generated using pymatgen
data_Zn3Co2(Si2O7)2
_symmetry_space_group_name_H-M   'P 1'
_cell_length_a   7.58747205
_cell_length_b   9.51795222
_cell_length_c   9.26080212
_cell_angle_alpha   63.00239867
_cell_angle_beta   65.81682062
_cell_angle_gamma   66.51009727
_symmetry_Int_Tables_number   1
_chemical_formula_structural   Zn3Co2(Si2O7)2
_chemical_formula_sum   'Zn6 Co4 Si8 O28'
_cell_volume   524.68340891
_cell_formula_units_Z   2
loop_
 _symmetry_equiv_pos_site_id
 _symmetry_equiv_pos_as_xyz
  1  'x, y, z'
loop_
 _atom_site_type_symbol
 _atom_site_label
 _atom_site_symmetry_multiplicity
 _atom_site_fract_x
 _atom_site_fract_y
 _atom_site_fract_z
 _atom_site_occupancy
  Zn  Zn0  1  0.93049938  0.88983891  0.44350839  1
  Zn  Zn1  1  0.26384668  0.61016109  0.05649161  1
  Zn  Zn2  1  0.73615332  0.38983891  0.94350839  1
  Zn  Zn3  1  0.61211344  0.25000000  0.75000000  1
  Zn  Zn4  1  0.06950062  0.11016109  0.55649161  1
  Zn  Zn5  1  0.38788656  0.75000000  0.25000000  1
  Co  Co6  1  0.21069207  0.25000000  0.75000000  1
  Co  Co7  1  0.78930793  0.75000000  0.25000000  1
  Co  Co8  1  0.00000000  0.00000000  0.00000000  1
  Co  Co9  1  0.00000000  0.50000000  0.50000000  1
  Si  Si10  1  0.45873571  0.29219157  0.33812820  1
  Si  Si11  1  0.91094352  0.79219157  0.83812820  1
  Si  Si12  1  0.47865125  0.89815291  0.86369843  1
  Si  Si13  1  0.75949841  0.39815291  0.36369843  1
  Si  Si14  1  0.08905648  0.20780843  0.16187180  1
  Si  Si15  1  0.52134875  0.10184709  0.13630157  1
  Si  Si16  1  0.24050159  0.60184709  0.63630157  1
  Si  Si17  1  0.54126429  0.70780843  0.66187180  1
  O  O18  1  0.16742337  0.67130424  0.46325584  1
  O  O19  1  0.02975214  0.58824094  0.27153577  1
  O  O20  1  0.54981593  0.90748147  0.18548659  1
  O  O21  1  0.11047114  0.08824094  0.77153577  1
  O  O22  1  0.76298699  0.69583021  0.52557676  1
  O  O23  1  0.94262588  0.37719193  0.19600219  1
  O  O24  1  0.35721501  0.40748147  0.68548659  1
  O  O25  1  0.98439395  0.80416979  0.97442324  1
  O  O26  1  0.05737412  0.62280807  0.80399781  1
  O  O27  1  0.37638023  0.72638396  0.57877588  1
  O  O28  1  0.97024786  0.41175906  0.72846423  1
  O  O29  1  0.23701301  0.30416979  0.47442324  1
  O  O30  1  0.51582101  0.12280807  0.30399781  1
  O  O31  1  0.69801555  0.17130424  0.96325584  1
  O  O32  1  0.31845994  0.22638396  0.07877588  1
  O  O33  1  0.01560605  0.19583021  0.02557676  1
  O  O34  1  0.08798735  0.05766360  0.34232874  1
  O  O35  1  0.62361977  0.27361604  0.42122412  1
  O  O36  1  0.48797868  0.44233640  0.15767126  1
  O  O37  1  0.68154006  0.77361604  0.92122412  1
  O  O38  1  0.48417899  0.87719193  0.69600219  1
  O  O39  1  0.88952886  0.91175906  0.22846423  1
  O  O40  1  0.51202132  0.55766360  0.84232874  1
  O  O41  1  0.45018407  0.09251853  0.81451341  1
  O  O42  1  0.91201265  0.94233640  0.65767126  1
  O  O43  1  0.64278499  0.59251853  0.31451341  1
  O  O44  1  0.30198445  0.82869576  0.03674416  1
  O  O45  1  0.83257663  0.32869576  0.53674416  1
