# generated using pymatgen
data_UGe2Rh
_symmetry_space_group_name_H-M   'P 1'
_cell_length_a   4.33812962
_cell_length_b   8.79361641
_cell_length_c   9.37677443
_cell_angle_alpha   117.96318433
_cell_angle_beta   103.37498245
_cell_angle_gamma   90.00000000
_symmetry_Int_Tables_number   1
_chemical_formula_structural   UGe2Rh
_chemical_formula_sum   'U4 Ge8 Rh4'
_cell_volume   304.91356477
_cell_formula_units_Z   4
loop_
 _symmetry_equiv_pos_site_id
 _symmetry_equiv_pos_as_xyz
  1  'x, y, z'
loop_
 _atom_site_type_symbol
 _atom_site_label
 _atom_site_symmetry_multiplicity
 _atom_site_fract_x
 _atom_site_fract_y
 _atom_site_fract_z
 _atom_site_occupancy
  U  U0  1  -0.00000000  0.26331400  -0.00000000  1
  U  U1  1  -0.00000000  0.73668600  -0.00000000  1
  U  U2  1  0.79519915  0.29519915  0.59039830  1
  U  U3  1  0.20480085  0.70480085  0.40960170  1
  Ge  Ge4  1  0.42415044  0.92415044  0.84830087  1
  Ge  Ge5  1  0.57584956  0.07584956  0.15169913  1
  Ge  Ge6  1  0.42399833  0.42399833  0.84799666  1
  Ge  Ge7  1  0.57600167  0.57600167  0.15200334  1
  Ge  Ge8  1  0.19832289  0.04493036  0.39664578  1
  Ge  Ge9  1  0.80167711  0.95506964  0.60335422  1
  Ge  Ge10  1  0.19832289  0.35171542  0.39664578  1
  Ge  Ge11  1  0.80167711  0.64828458  0.60335422  1
  Rh  Rh12  1  0.35338804  0.10205545  0.70677608  1
  Rh  Rh13  1  0.64661196  0.89794455  0.29322392  1
  Rh  Rh14  1  0.35338804  0.60472063  0.70677608  1
  Rh  Rh15  1  0.64661196  0.39527937  0.29322392  1
