# generated using pymatgen
data_Ba2ZnTe3
_symmetry_space_group_name_H-M   'P 1'
_cell_length_a   4.73219748
_cell_length_b   9.87616322
_cell_length_c   19.16008922
_cell_angle_alpha   90.00000000
_cell_angle_beta   90.00000000
_cell_angle_gamma   90.00000000
_symmetry_Int_Tables_number   1
_chemical_formula_structural   Ba2ZnTe3
_chemical_formula_sum   'Ba8 Zn4 Te12'
_cell_volume   895.46506187
_cell_formula_units_Z   4
loop_
 _symmetry_equiv_pos_site_id
 _symmetry_equiv_pos_as_xyz
  1  'x, y, z'
loop_
 _atom_site_type_symbol
 _atom_site_label
 _atom_site_symmetry_multiplicity
 _atom_site_fract_x
 _atom_site_fract_y
 _atom_site_fract_z
 _atom_site_occupancy
  Ba  Ba0  1  0.75000000  0.25401474  0.95788977  1
  Ba  Ba1  1  0.75000000  0.75401474  0.54211023  1
  Ba  Ba2  1  0.25000000  0.74598526  0.04211023  1
  Ba  Ba3  1  0.25000000  0.24598526  0.45788977  1
  Ba  Ba4  1  0.75000000  0.08033896  0.21180287  1
  Ba  Ba5  1  0.75000000  0.58033896  0.28819713  1
  Ba  Ba6  1  0.25000000  0.91966104  0.78819713  1
  Ba  Ba7  1  0.25000000  0.41966104  0.71180287  1
  Zn  Zn8  1  0.75000000  0.13985258  0.63643350  1
  Zn  Zn9  1  0.75000000  0.63985258  0.86356650  1
  Zn  Zn10  1  0.25000000  0.86014742  0.36356650  1
  Zn  Zn11  1  0.25000000  0.36014742  0.13643350  1
  Te  Te12  1  0.75000000  0.49537852  0.10154484  1
  Te  Te13  1  0.75000000  0.99537852  0.39845516  1
  Te  Te14  1  0.25000000  0.50462148  0.89845516  1
  Te  Te15  1  0.25000000  0.00462148  0.60154484  1
  Te  Te16  1  0.75000000  0.37896088  0.57002030  1
  Te  Te17  1  0.75000000  0.87896088  0.92997970  1
  Te  Te18  1  0.25000000  0.62103912  0.42997970  1
  Te  Te19  1  0.25000000  0.12103912  0.07002030  1
  Te  Te20  1  0.75000000  0.18501903  0.77494921  1
  Te  Te21  1  0.75000000  0.68501903  0.72505079  1
  Te  Te22  1  0.25000000  0.81498097  0.22505079  1
  Te  Te23  1  0.25000000  0.31498097  0.27494921  1
