# generated using pymatgen
data_Mg2NiWO6
_symmetry_space_group_name_H-M   'P 1'
_cell_length_a   5.01154943
_cell_length_b   5.22044442
_cell_length_c   8.30171140
_cell_angle_alpha   90.00000000
_cell_angle_beta   90.93104467
_cell_angle_gamma   90.00000000
_symmetry_Int_Tables_number   1
_chemical_formula_structural   Mg2NiWO6
_chemical_formula_sum   'Mg4 Ni2 W2 O12'
_cell_volume   217.16497615
_cell_formula_units_Z   2
loop_
 _symmetry_equiv_pos_site_id
 _symmetry_equiv_pos_as_xyz
  1  'x, y, z'
loop_
 _atom_site_type_symbol
 _atom_site_label
 _atom_site_symmetry_multiplicity
 _atom_site_fract_x
 _atom_site_fract_y
 _atom_site_fract_z
 _atom_site_occupancy
  Mg  Mg0  1  0.97094444  0.05493401  0.26541413  1
  Mg  Mg1  1  0.52905556  0.55493501  0.23458587  1
  Mg  Mg2  1  0.02905656  0.94506699  0.73458587  1
  Mg  Mg3  1  0.47094344  0.44506599  0.76541413  1
  Ni  Ni4  1  0.50000000  0.00000000  0.00000000  1
  Ni  Ni5  1  0.00000100  0.49999900  0.50000000  1
  W  W6  1  0.50000000  0.00000000  0.49999900  1
  W  W7  1  0.00000000  0.49999900  0.00000000  1
  O  O8  1  0.69033351  0.29335892  0.39762985  1
  O  O9  1  0.80966649  0.79335992  0.10237015  1
  O  O10  1  0.30966549  0.70664108  0.60237015  1
  O  O11  1  0.19033451  0.20664008  0.89762985  1
  O  O12  1  0.19184440  0.19872304  0.55693725  1
  O  O13  1  0.30815560  0.69872204  0.94306275  1
  O  O14  1  0.80815660  0.80127696  0.44306275  1
  O  O15  1  0.69184340  0.30127796  0.05693725  1
  O  O16  1  0.15564909  0.40427000  0.20694514  1
  O  O17  1  0.34435191  0.90427100  0.29305386  1
  O  O18  1  0.65564909  0.09572900  0.70694614  1
  O  O19  1  0.84435191  0.59573000  0.79305486  1
