# generated using pymatgen
data_Y2RuAu
_symmetry_space_group_name_H-M   'P 1'
_cell_length_a   4.96922866
_cell_length_b   4.96926170
_cell_length_c   4.96922772
_cell_angle_alpha   59.99960130
_cell_angle_beta   59.99995811
_cell_angle_gamma   59.99974017
_symmetry_Int_Tables_number   1
_chemical_formula_structural   Y2RuAu
_chemical_formula_sum   'Y2 Ru1 Au1'
_cell_volume   86.76657460
_cell_formula_units_Z   1
loop_
 _symmetry_equiv_pos_site_id
 _symmetry_equiv_pos_as_xyz
  1  'x, y, z'
loop_
 _atom_site_type_symbol
 _atom_site_label
 _atom_site_symmetry_multiplicity
 _atom_site_fract_x
 _atom_site_fract_y
 _atom_site_fract_z
 _atom_site_occupancy
  Y  Y0  1  0.50000089  0.49999965  0.50000001  1
  Y  Y1  1  0.99999953  0.99999995  0.99999991  1
  Ru  Ru2  1  0.75000017  0.75000112  0.75000094  1
  Au  Au3  1  0.24999940  0.24999928  0.24999914  1
