# generated using pymatgen
data_TeO2
_symmetry_space_group_name_H-M   'P 1'
_cell_length_a   5.87448399
_cell_length_b   7.30102612
_cell_length_c   7.83748952
_cell_angle_alpha   107.66954148
_cell_angle_beta   87.02672023
_cell_angle_gamma   115.91179228
_symmetry_Int_Tables_number   1
_chemical_formula_structural   TeO2
_chemical_formula_sum   'Te6 O12'
_cell_volume   286.80804374
_cell_formula_units_Z   6
loop_
 _symmetry_equiv_pos_site_id
 _symmetry_equiv_pos_as_xyz
  1  'x, y, z'
loop_
 _atom_site_type_symbol
 _atom_site_label
 _atom_site_symmetry_multiplicity
 _atom_site_fract_x
 _atom_site_fract_y
 _atom_site_fract_z
 _atom_site_occupancy
  Te  Te0  1  0.93231950  0.18247364  0.97157673  1
  Te  Te1  1  0.06768050  0.81752636  0.02842327  1
  Te  Te2  1  0.51082512  0.47006278  0.75060344  1
  Te  Te3  1  0.48917488  0.52993722  0.24939656  1
  Te  Te4  1  0.25801220  0.87000113  0.58757965  1
  Te  Te5  1  0.74198780  0.12999887  0.41242035  1
  O  O6  1  0.82926029  0.85169990  0.88467925  1
  O  O7  1  0.17073971  0.14830010  0.11532075  1
  O  O8  1  0.70043778  0.41652046  0.55054201  1
  O  O9  1  0.29956222  0.58347954  0.44945799  1
  O  O10  1  0.62289742  0.01646213  0.63706682  1
  O  O11  1  0.37710258  0.98353787  0.36293318  1
  O  O12  1  0.28308383  0.81674089  0.83505076  1
  O  O13  1  0.71691617  0.18325911  0.16494924  1
  O  O14  1  0.26153227  0.17605891  0.72534708  1
  O  O15  1  0.73846773  0.82394109  0.27465292  1
  O  O16  1  0.25145630  0.51013091  0.07201544  1
  O  O17  1  0.74854370  0.48986909  0.92798456  1
