# generated using pymatgen
data_NaCdSbS3
_symmetry_space_group_name_H-M   'P 1'
_cell_length_a   5.85337392
_cell_length_b   5.85337392
_cell_length_c   17.27833742
_cell_angle_alpha   80.81787953
_cell_angle_beta   80.81787953
_cell_angle_gamma   90.57424047
_symmetry_Int_Tables_number   1
_chemical_formula_structural   NaCdSbS3
_chemical_formula_sum   'Na4 Cd4 Sb4 S12'
_cell_volume   576.53337181
_cell_formula_units_Z   4
loop_
 _symmetry_equiv_pos_site_id
 _symmetry_equiv_pos_as_xyz
  1  'x, y, z'
loop_
 _atom_site_type_symbol
 _atom_site_label
 _atom_site_symmetry_multiplicity
 _atom_site_fract_x
 _atom_site_fract_y
 _atom_site_fract_z
 _atom_site_occupancy
  Na  Na0  1  0.81194060  0.51066493  0.42136139  1
  Na  Na1  1  0.48933507  0.18805940  0.07863861  1
  Na  Na2  1  0.18805940  0.48933507  0.57863861  1
  Na  Na3  1  0.51066493  0.81194060  0.92136139  1
  Cd  Cd4  1  0.88541616  0.11458384  0.25000000  1
  Cd  Cd5  1  0.11458384  0.88541616  0.75000000  1
  Cd  Cd6  1  0.38059632  0.61940368  0.25000000  1
  Cd  Cd7  1  0.61940368  0.38059632  0.75000000  1
  Sb  Sb8  1  0.05173923  0.30226196  0.90644800  1
  Sb  Sb9  1  0.69773804  0.94826077  0.59355200  1
  Sb  Sb10  1  0.94826077  0.69773804  0.09355200  1
  Sb  Sb11  1  0.30226196  0.05173923  0.40644800  1
  S  S12  1  0.98477605  0.11678719  0.09828505  1
  S  S13  1  0.88321281  0.01522395  0.40171495  1
  S  S14  1  0.01522395  0.88321281  0.90171495  1
  S  S15  1  0.11678719  0.98477605  0.59828505  1
  S  S16  1  0.32775944  0.47633147  0.40302191  1
  S  S17  1  0.52366853  0.67224056  0.09697809  1
  S  S18  1  0.67224056  0.52366853  0.59697809  1
  S  S19  1  0.47633147  0.32775944  0.90302191  1
  S  S20  1  0.92237707  0.58252256  0.24022043  1
  S  S21  1  0.41747744  0.07762293  0.25977957  1
  S  S22  1  0.07762293  0.41747744  0.75977957  1
  S  S23  1  0.58252256  0.92237707  0.74022043  1
