# generated using pymatgen
data_Co(WCl5)2
_symmetry_space_group_name_H-M   'P 1'
_cell_length_a   6.20881663
_cell_length_b   8.88390091
_cell_length_c   12.40578957
_cell_angle_alpha   86.64911498
_cell_angle_beta   80.37095409
_cell_angle_gamma   69.54681244
_symmetry_Int_Tables_number   1
_chemical_formula_structural   Co(WCl5)2
_chemical_formula_sum   'Co2 W4 Cl20'
_cell_volume   632.11333360
_cell_formula_units_Z   2
loop_
 _symmetry_equiv_pos_site_id
 _symmetry_equiv_pos_as_xyz
  1  'x, y, z'
loop_
 _atom_site_type_symbol
 _atom_site_label
 _atom_site_symmetry_multiplicity
 _atom_site_fract_x
 _atom_site_fract_y
 _atom_site_fract_z
 _atom_site_occupancy
  Co  Co0  1  0.94639471  0.60721057  0.25000000  1
  Co  Co1  1  0.05360529  0.39278943  0.75000000  1
  W  W2  1  0.56555417  0.36889166  0.25000000  1
  W  W3  1  0.43444583  0.63110834  0.75000000  1
  W  W4  1  0.72788786  0.04422427  0.25000000  1
  W  W5  1  0.27211214  0.95577573  0.75000000  1
  Cl  Cl6  1  0.22437483  0.79330432  0.61606480  1
  Cl  Cl7  1  0.48232086  0.79330432  0.88393520  1
  Cl  Cl8  1  0.77562517  0.20669568  0.38393520  1
  Cl  Cl9  1  0.51767914  0.20669568  0.11606480  1
  Cl  Cl10  1  0.09910391  0.60161655  0.85979592  1
  Cl  Cl11  1  0.79927954  0.60161655  0.64020408  1
  Cl  Cl12  1  0.90089609  0.39838345  0.14020408  1
  Cl  Cl13  1  0.20072046  0.39838345  0.35979592  1
  Cl  Cl14  1  0.91878218  0.98019595  0.85686931  1
  Cl  Cl15  1  0.60102187  0.98019595  0.64313069  1
  Cl  Cl16  1  0.08121782  0.01980405  0.14313069  1
  Cl  Cl17  1  0.39897813  0.01980405  0.35686931  1
  Cl  Cl18  1  0.40992057  0.41690518  0.64174496  1
  Cl  Cl19  1  0.67317425  0.41690518  0.85825504  1
  Cl  Cl20  1  0.59007943  0.58309482  0.35825504  1
  Cl  Cl21  1  0.32682575  0.58309482  0.14174496  1
  Cl  Cl22  1  0.04750187  0.17901739  0.64127845  1
  Cl  Cl23  1  0.27348073  0.17901739  0.85872155  1
  Cl  Cl24  1  0.95249813  0.82098261  0.35872155  1
  Cl  Cl25  1  0.72651927  0.82098261  0.14127845  1
