# generated using pymatgen
data_Zn6Sb5
_symmetry_space_group_name_H-M   'P 1'
_cell_length_a   8.21773194
_cell_length_b   8.21773194
_cell_length_c   8.21773156
_cell_angle_alpha   96.75445767
_cell_angle_beta   96.75445767
_cell_angle_gamma   96.75445412
_symmetry_Int_Tables_number   1
_chemical_formula_structural   Zn6Sb5
_chemical_formula_sum   'Zn12 Sb10'
_cell_volume   542.39240520
_cell_formula_units_Z   2
loop_
 _symmetry_equiv_pos_site_id
 _symmetry_equiv_pos_as_xyz
  1  'x, y, z'
loop_
 _atom_site_type_symbol
 _atom_site_label
 _atom_site_symmetry_multiplicity
 _atom_site_fract_x
 _atom_site_fract_y
 _atom_site_fract_z
 _atom_site_occupancy
  Zn  Zn0  1  0.93259092  0.01756020  0.34053325  1
  Zn  Zn1  1  0.01756020  0.34053325  0.93259092  1
  Zn  Zn2  1  0.34053325  0.93259092  0.01756020  1
  Zn  Zn3  1  0.43259092  0.84053325  0.51756020  1
  Zn  Zn4  1  0.84053325  0.51756020  0.43259092  1
  Zn  Zn5  1  0.51756020  0.43259092  0.84053325  1
  Zn  Zn6  1  0.06740908  0.98243980  0.65946675  1
  Zn  Zn7  1  0.98243980  0.65946675  0.06740908  1
  Zn  Zn8  1  0.65946675  0.06740908  0.98243980  1
  Zn  Zn9  1  0.56740908  0.15946675  0.48243980  1
  Zn  Zn10  1  0.15946675  0.48243980  0.56740908  1
  Zn  Zn11  1  0.48243980  0.56740908  0.15946675  1
  Sb  Sb12  1  0.60552689  0.89447311  0.25000000  1
  Sb  Sb13  1  0.89447311  0.25000000  0.60552689  1
  Sb  Sb14  1  0.25000000  0.60552689  0.89447311  1
  Sb  Sb15  1  0.10552689  0.75000000  0.39447311  1
  Sb  Sb16  1  0.75000000  0.39447311  0.10552689  1
  Sb  Sb17  1  0.39447311  0.10552689  0.75000000  1
  Sb  Sb18  1  0.36406639  0.36406639  0.36406639  1
  Sb  Sb19  1  0.86406639  0.86406639  0.86406639  1
  Sb  Sb20  1  0.63593361  0.63593361  0.63593361  1
  Sb  Sb21  1  0.13593361  0.13593361  0.13593361  1
