# generated using pymatgen
data_NaB3H8
_symmetry_space_group_name_H-M   'P 1'
_cell_length_a   4.71388522
_cell_length_b   5.98412089
_cell_length_c   8.43179362
_cell_angle_alpha   90.00000000
_cell_angle_beta   90.00000000
_cell_angle_gamma   90.00000000
_symmetry_Int_Tables_number   1
_chemical_formula_structural   NaB3H8
_chemical_formula_sum   'Na2 B6 H16'
_cell_volume   237.84790478
_cell_formula_units_Z   2
loop_
 _symmetry_equiv_pos_site_id
 _symmetry_equiv_pos_as_xyz
  1  'x, y, z'
loop_
 _atom_site_type_symbol
 _atom_site_label
 _atom_site_symmetry_multiplicity
 _atom_site_fract_x
 _atom_site_fract_y
 _atom_site_fract_z
 _atom_site_occupancy
  Na  Na0  1  0.50000000  0.05022834  0.50000000  1
  Na  Na1  1  -0.00000000  0.94977166  0.00000000  1
  B  B2  1  -0.00000000  0.51015640  0.50000000  1
  B  B3  1  0.50000000  0.48984360  0.00000000  1
  B  B4  1  0.50000000  0.23241224  0.89437753  1
  B  B5  1  -0.00000000  0.76758776  0.39437753  1
  B  B6  1  -0.00000000  0.76758776  0.60562247  1
  B  B7  1  0.50000000  0.23241224  0.10562247  1
  H  H8  1  0.50000000  0.42697733  0.83460064  1
  H  H9  1  -0.00000000  0.57302267  0.33460064  1
  H  H10  1  -0.00000000  0.57302267  0.66539936  1
  H  H11  1  0.50000000  0.42697733  0.16539936  1
  H  H12  1  0.78226843  0.40237289  0.50000000  1
  H  H13  1  0.21773157  0.40237289  0.50000000  1
  H  H14  1  0.28226843  0.59762711  0.00000000  1
  H  H15  1  0.71773157  0.59762711  0.00000000  1
  H  H16  1  0.21584735  0.84351472  0.66277221  1
  H  H17  1  0.78415265  0.84351472  0.66277221  1
  H  H18  1  0.71584735  0.15648528  0.16277221  1
  H  H19  1  0.28415265  0.15648528  0.83722779  1
  H  H20  1  0.78415265  0.84351472  0.33722779  1
  H  H21  1  0.21584735  0.84351472  0.33722779  1
  H  H22  1  0.71584735  0.15648528  0.83722779  1
  H  H23  1  0.28415265  0.15648528  0.16277221  1
