# generated using pymatgen
data_Mg2V2CuO8
_symmetry_space_group_name_H-M   'P 1'
_cell_length_a   6.25086046
_cell_length_b   6.47416706
_cell_length_c   8.21318799
_cell_angle_alpha   90.00000000
_cell_angle_beta   90.00000000
_cell_angle_gamma   115.95453847
_symmetry_Int_Tables_number   1
_chemical_formula_structural   Mg2V2CuO8
_chemical_formula_sum   'Mg4 V4 Cu2 O16'
_cell_volume   298.85708485
_cell_formula_units_Z   2
loop_
 _symmetry_equiv_pos_site_id
 _symmetry_equiv_pos_as_xyz
  1  'x, y, z'
loop_
 _atom_site_type_symbol
 _atom_site_label
 _atom_site_symmetry_multiplicity
 _atom_site_fract_x
 _atom_site_fract_y
 _atom_site_fract_z
 _atom_site_occupancy
  Mg  Mg0  1  0.38305025  0.77036057  0.25029497  1
  Mg  Mg1  1  0.11694975  0.22963943  0.75029497  1
  Mg  Mg2  1  0.61694975  0.22963943  0.74970503  1
  Mg  Mg3  1  0.88305025  0.77036057  0.24970503  1
  V  V4  1  0.36479754  0.25730164  0.37389997  1
  V  V5  1  0.13520246  0.74269836  0.87389997  1
  V  V6  1  0.63520246  0.74269836  0.62610003  1
  V  V7  1  0.86479754  0.25730164  0.12610003  1
  Cu  Cu8  1  -0.00000000  0.50000000  0.50000000  1
  Cu  Cu9  1  0.50000000  0.50000000  -0.00000000  1
  O  O10  1  0.49838602  0.49141398  0.76273182  1
  O  O11  1  0.00161398  0.50858602  0.26273182  1
  O  O12  1  0.50161398  0.50858602  0.23726818  1
  O  O13  1  0.99838602  0.49141398  0.73726818  1
  O  O14  1  0.25976075  0.00249819  0.76978034  1
  O  O15  1  0.24023925  0.99750181  0.26978034  1
  O  O16  1  0.74023925  0.99750181  0.23021966  1
  O  O17  1  0.75976075  0.00249819  0.73021966  1
  O  O18  1  0.41892896  0.74548487  0.50310305  1
  O  O19  1  0.08107104  0.25451513  0.00310305  1
  O  O20  1  0.58107104  0.25451513  0.49689695  1
  O  O21  1  0.91892896  0.74548487  0.99689695  1
  O  O22  1  0.35565077  0.72574428  0.99720751  1
  O  O23  1  0.14434923  0.27425572  0.49720751  1
  O  O24  1  0.64434923  0.27425572  0.00279249  1
  O  O25  1  0.85565077  0.72574428  0.50279249  1
