# generated using pymatgen
data_Mg(SnO2)2
_symmetry_space_group_name_H-M   'P 1'
_cell_length_a   6.39720928
_cell_length_b   6.37696711
_cell_length_c   20.23774020
_cell_angle_alpha   61.81913249
_cell_angle_beta   62.84808540
_cell_angle_gamma   60.12428048
_symmetry_Int_Tables_number   1
_chemical_formula_structural   Mg(SnO2)2
_chemical_formula_sum   'Mg6 Sn12 O24'
_cell_volume   604.03848461
_cell_formula_units_Z   6
loop_
 _symmetry_equiv_pos_site_id
 _symmetry_equiv_pos_as_xyz
  1  'x, y, z'
loop_
 _atom_site_type_symbol
 _atom_site_label
 _atom_site_symmetry_multiplicity
 _atom_site_fract_x
 _atom_site_fract_y
 _atom_site_fract_z
 _atom_site_occupancy
  Mg  Mg0  1  0.13286410  0.10762223  0.05055383  1
  Mg  Mg1  1  0.49945299  0.49740243  0.33530659  1
  Mg  Mg2  1  0.99712048  0.49402690  0.17171651  1
  Mg  Mg3  1  0.49759578  0.50322803  0.66531260  1
  Mg  Mg4  1  0.99854196  0.49893107  0.50127220  1
  Mg  Mg5  1  0.99640651  0.51070477  0.82726176  1
  Sn  Sn6  1  0.50808096  0.98938202  0.16861484  1
  Sn  Sn7  1  0.13383074  0.12117722  0.37451901  1
  Sn  Sn8  1  0.48734957  0.49449459  0.00782570  1
  Sn  Sn9  1  0.50809911  0.49689181  0.16857777  1
  Sn  Sn10  1  0.49941291  0.99895757  0.50091233  1
  Sn  Sn11  1  0.12371220  0.12288373  0.70991100  1
  Sn  Sn12  1  0.49943567  0.49914275  0.50087591  1
  Sn  Sn13  1  0.49124962  0.01167068  0.83112783  1
  Sn  Sn14  1  0.87081318  0.87281010  0.29481704  1
  Sn  Sn15  1  0.49129385  0.50318728  0.83116429  1
  Sn  Sn16  1  0.86534390  0.87691954  0.62724306  1
  Sn  Sn17  1  0.86189543  0.89207628  0.95124147  1
  O  O18  1  0.26179271  0.23033505  0.09557534  1
  O  O19  1  0.29181262  0.27311779  0.22071838  1
  O  O20  1  0.26167857  0.72105177  0.09560644  1
  O  O21  1  0.73907756  0.23258842  0.09859358  1
  O  O22  1  0.26835209  0.24975466  0.42585287  1
  O  O23  1  0.30341388  0.73615086  0.24147455  1
  O  O24  1  0.27875407  0.27180637  0.55932212  1
  O  O25  1  0.72773456  0.29081998  0.24688537  1
  O  O26  1  0.26843226  0.70419021  0.42582044  1
  O  O27  1  0.73003320  0.71695254  0.11208236  1
  O  O28  1  0.70177567  0.25599651  0.42878732  1
  O  O29  1  0.72770790  0.74121540  0.24693221  1
  O  O30  1  0.26452164  0.26582047  0.75629184  1
  O  O31  1  0.30038088  0.74146309  0.57228238  1
  O  O32  1  0.72829549  0.29525171  0.57611884  1
  O  O33  1  0.26460866  0.69995999  0.75634607  1
  O  O34  1  0.27465744  0.25297365  0.90634326  1
  O  O35  1  0.71990304  0.72655858  0.44240997  1
  O  O36  1  0.68644044  0.27130610  0.75685002  1
  O  O37  1  0.72833594  0.74865384  0.57616603  1
  O  O38  1  0.27247786  0.77341978  0.89346435  1
  O  O39  1  0.76795905  0.28722590  0.88802446  1
  O  O40  1  0.70136918  0.74119839  0.77187411  1
  O  O41  1  0.76798533  0.78067793  0.88792498  1
