# generated using pymatgen
data_K2H4Pd(N2O5)2
_symmetry_space_group_name_H-M   'P 1'
_cell_length_a   6.96838541
_cell_length_b   7.22541913
_cell_length_c   7.49708971
_cell_angle_alpha   116.74948759
_cell_angle_beta   104.81718343
_cell_angle_gamma   97.84862877
_symmetry_Int_Tables_number   1
_chemical_formula_structural   K2H4Pd(N2O5)2
_chemical_formula_sum   'K2 H4 Pd1 N4 O10'
_cell_volume   311.71593744
_cell_formula_units_Z   1
loop_
 _symmetry_equiv_pos_site_id
 _symmetry_equiv_pos_as_xyz
  1  'x, y, z'
loop_
 _atom_site_type_symbol
 _atom_site_label
 _atom_site_symmetry_multiplicity
 _atom_site_fract_x
 _atom_site_fract_y
 _atom_site_fract_z
 _atom_site_occupancy
  K  K0  1  0.67955682  0.73191471  0.36067168  1
  K  K1  1  0.32044318  0.26808529  0.63932832  1
  H  H2  1  0.18149978  0.79317262  0.63299442  1
  H  H3  1  0.81850022  0.20682738  0.36700558  1
  H  H4  1  0.15899111  0.74470094  0.40433739  1
  H  H5  1  0.84100889  0.25529906  0.59566261  1
  Pd  Pd6  1  0.00000000  0.00000000  0.00000000  1
  N  N7  1  0.75017195  0.11789238  0.95257256  1
  N  N8  1  0.24982805  0.88210762  0.04742744  1
  N  N9  1  0.80291135  0.69622056  0.86796097  1
  N  N10  1  0.19708865  0.30377944  0.13203903  1
  O  O11  1  0.70356066  0.23524574  0.10850029  1
  O  O12  1  0.29643934  0.76475426  0.89149971  1
  O  O13  1  0.64956020  0.07430612  0.76828388  1
  O  O14  1  0.35043980  0.92569388  0.23171612  1
  O  O15  1  0.71166226  0.58483148  0.66959871  1
  O  O16  1  0.28833774  0.41516852  0.33040129  1
  O  O17  1  0.77628411  0.62235136  0.98438794  1
  O  O18  1  0.22371589  0.37764864  0.01561206  1
  O  O19  1  0.11802750  0.82917893  0.52423775  1
  O  O20  1  0.88197250  0.17082107  0.47576225  1
