# generated using pymatgen
data_Ti4Ni4Ge7
_symmetry_space_group_name_H-M   'P 1'
_cell_length_a   5.12312688
_cell_length_b   9.52461580
_cell_length_c   9.52461580
_cell_angle_alpha   85.85220453
_cell_angle_beta   74.39871672
_cell_angle_gamma   74.39871672
_symmetry_Int_Tables_number   1
_chemical_formula_structural   Ti4Ni4Ge7
_chemical_formula_sum   'Ti8 Ni8 Ge14'
_cell_volume   431.14544583
_cell_formula_units_Z   2
loop_
 _symmetry_equiv_pos_site_id
 _symmetry_equiv_pos_as_xyz
  1  'x, y, z'
loop_
 _atom_site_type_symbol
 _atom_site_label
 _atom_site_symmetry_multiplicity
 _atom_site_fract_x
 _atom_site_fract_y
 _atom_site_fract_z
 _atom_site_occupancy
  Ti  Ti0  1  0.13499926  -0.00000000  0.73000148  1
  Ti  Ti1  1  0.86500074  0.00000000  0.26999852  1
  Ti  Ti2  1  0.86500074  0.26999852  -0.00000000  1
  Ti  Ti3  1  0.13499926  0.73000148  0.00000000  1
  Ti  Ti4  1  0.50000000  0.81066173  0.18933827  1
  Ti  Ti5  1  0.50000000  0.18933827  0.81066173  1
  Ti  Ti6  1  0.68933827  0.81066173  0.81066173  1
  Ti  Ti7  1  0.31066173  0.18933827  0.18933827  1
  Ni  Ni8  1  0.39970339  0.50000000  0.20059321  1
  Ni  Ni9  1  0.10029661  0.50000000  0.79940679  1
  Ni  Ni10  1  0.10029661  0.79940679  0.50000000  1
  Ni  Ni11  1  0.39970339  0.20059321  0.50000000  1
  Ni  Ni12  1  0.60029661  0.79940679  0.50000000  1
  Ni  Ni13  1  0.89970339  0.20059321  0.50000000  1
  Ni  Ni14  1  0.89970339  0.50000000  0.20059321  1
  Ni  Ni15  1  0.60029661  0.50000000  0.79940679  1
  Ge  Ge16  1  0.50000000  0.59580298  0.40419702  1
  Ge  Ge17  1  0.50000000  0.40419702  0.59580298  1
  Ge  Ge18  1  0.90419702  0.59580298  0.59580298  1
  Ge  Ge19  1  0.09580298  0.40419702  0.40419702  1
  Ge  Ge20  1  0.75095967  0.00000000  -0.00000000  1
  Ge  Ge21  1  0.24904033  0.00000000  -0.00000000  1
  Ge  Ge22  1  0.29899490  0.00000000  0.40201020  1
  Ge  Ge23  1  0.70100510  -0.00000000  0.59798980  1
  Ge  Ge24  1  0.70100510  0.59798980  -0.00000000  1
  Ge  Ge25  1  0.29899490  0.40201020  0.00000000  1
  Ge  Ge26  1  0.00000000  0.27977688  0.72022312  1
  Ge  Ge27  1  -0.00000000  0.72022312  0.27977688  1
  Ge  Ge28  1  0.72022312  0.27977688  0.27977688  1
  Ge  Ge29  1  0.27977688  0.72022312  0.72022312  1
