# generated using pymatgen
data_LuMoBrO4
_symmetry_space_group_name_H-M   'P 1'
_cell_length_a   6.93791181
_cell_length_b   7.20254026
_cell_length_c   10.77698868
_cell_angle_alpha   102.83320102
_cell_angle_beta   107.80925922
_cell_angle_gamma   95.42992227
_symmetry_Int_Tables_number   1
_chemical_formula_structural   LuMoBrO4
_chemical_formula_sum   'Lu4 Mo4 Br4 O16'
_cell_volume   492.19351076
_cell_formula_units_Z   4
loop_
 _symmetry_equiv_pos_site_id
 _symmetry_equiv_pos_as_xyz
  1  'x, y, z'
loop_
 _atom_site_type_symbol
 _atom_site_label
 _atom_site_symmetry_multiplicity
 _atom_site_fract_x
 _atom_site_fract_y
 _atom_site_fract_z
 _atom_site_occupancy
  Lu  Lu0  1  0.66433423  0.09911442  0.73004584  1
  Lu  Lu1  1  0.33566577  0.90088558  0.26995416  1
  Lu  Lu2  1  0.37926965  0.66549927  0.76762300  1
  Lu  Lu3  1  0.62073035  0.33450073  0.23237700  1
  Mo  Mo4  1  0.72752775  0.81613135  0.13396600  1
  Mo  Mo5  1  0.27247225  0.18386865  0.86603400  1
  Mo  Mo6  1  0.77203825  0.58535455  0.62700629  1
  Mo  Mo7  1  0.22796175  0.41464545  0.37299371  1
  Br  Br8  1  0.26546245  0.00705228  0.52100437  1
  Br  Br9  1  0.73453755  0.99294772  0.47899563  1
  Br  Br10  1  0.19012290  0.72106047  0.98477277  1
  Br  Br11  1  0.80987710  0.27893953  0.01522723  1
  O  O12  1  0.65487817  0.73331195  0.95530668  1
  O  O13  1  0.34512183  0.26668805  0.04469332  1
  O  O14  1  0.99925247  0.88770100  0.20514031  1
  O  O15  1  0.00074753  0.11229900  0.79485969  1
  O  O16  1  0.64814655  0.62642644  0.19997487  1
  O  O17  1  0.35185345  0.37357356  0.80002513  1
  O  O18  1  0.40754280  0.98729580  0.81419244  1
  O  O19  1  0.59245720  0.01270420  0.18580756  1
  O  O20  1  0.04141249  0.65496782  0.67047412  1
  O  O21  1  0.95858751  0.34503218  0.32952588  1
  O  O22  1  0.72781871  0.39183039  0.69864216  1
  O  O23  1  0.27218129  0.60816961  0.30135784  1
  O  O24  1  0.66921899  0.50047946  0.44626880  1
  O  O25  1  0.33078101  0.49952054  0.55373120  1
  O  O26  1  0.65402921  0.78174301  0.70400257  1
  O  O27  1  0.34597079  0.21825699  0.29599743  1
