# generated using pymatgen
data_Zn(SbO2)2
_symmetry_space_group_name_H-M   'P 1'
_cell_length_a   7.19021086
_cell_length_b   6.52311165
_cell_length_c   20.61529249
_cell_angle_alpha   62.73173482
_cell_angle_beta   60.72181259
_cell_angle_gamma   62.92870273
_symmetry_Int_Tables_number   1
_chemical_formula_structural   Zn(SbO2)2
_chemical_formula_sum   'Zn6 Sb12 O24'
_cell_volume   715.60946131
_cell_formula_units_Z   6
loop_
 _symmetry_equiv_pos_site_id
 _symmetry_equiv_pos_as_xyz
  1  'x, y, z'
loop_
 _atom_site_type_symbol
 _atom_site_label
 _atom_site_symmetry_multiplicity
 _atom_site_fract_x
 _atom_site_fract_y
 _atom_site_fract_z
 _atom_site_occupancy
  Zn  Zn0  1  0.12881951  0.10412889  0.08340243  1
  Zn  Zn1  1  0.33358303  0.54510684  0.33988063  1
  Zn  Zn2  1  0.04082065  0.51121778  0.16541656  1
  Zn  Zn3  1  0.59626691  0.37817960  0.65204957  1
  Zn  Zn4  1  -0.01163473  0.44721153  0.49649428  1
  Zn  Zn5  1  0.07862752  0.50099670  0.79222215  1
  Sb  Sb6  1  0.56204309  0.95439696  0.17700030  1
  Sb  Sb7  1  0.07112982  0.19696744  0.35786860  1
  Sb  Sb8  1  0.33665577  0.62215218  -0.00406723  1
  Sb  Sb9  1  0.55401592  0.47175612  0.17130759  1
  Sb  Sb10  1  0.47224648  -0.05968229  0.53410214  1
  Sb  Sb11  1  0.18048576  0.07735305  0.71764972  1
  Sb  Sb12  1  0.53325208  0.49265379  0.46423125  1
  Sb  Sb13  1  0.57900491  -0.01107372  0.82649622  1
  Sb  Sb14  1  0.76808794  0.95700291  0.29871971  1
  Sb  Sb15  1  0.50664613  0.50846660  0.82235606  1
  Sb  Sb16  1  0.93752321  0.82637755  0.62692456  1
  Sb  Sb17  1  0.82377093  0.98264748  0.94138243  1
  O  O18  1  0.23464294  0.33892561  0.07754234  1
  O  O19  1  0.16811997  0.35181702  0.24354429  1
  O  O20  1  0.17235844  0.80294387  0.07406247  1
  O  O21  1  0.83369218  0.16956020  0.16188649  1
  O  O22  1  0.04074995  0.45741208  0.39107667  1
  O  O23  1  0.34580294  0.76105315  0.23281638  1
  O  O24  1  0.44065656  0.03216368  0.62163030  1
  O  O25  1  0.52199665  0.28215635  0.28580420  1
  O  O26  1  0.26700245  0.55108125  0.44310743  1
  O  O27  1  0.77071116  0.65747993  0.13947955  1
  O  O28  1  0.73818082  0.31188806  0.38442420  1
  O  O29  1  0.66408337  0.79089236  0.26702619  1
  O  O30  1  0.33787443  0.24211863  0.73142793  1
  O  O31  1  0.26754451  0.73394128  0.59936224  1
  O  O32  1  0.89249216  0.17636878  0.59031093  1
  O  O33  1  0.27149604  0.69546806  0.77086435  1
  O  O34  1  0.39275702  0.22939841  0.89648388  1
  O  O35  1  0.54992331  0.83224200  0.40957123  1
  O  O36  1  0.67272395  0.29763545  0.74859537  1
  O  O37  1  0.71097214  0.64306910  0.55822301  1
  O  O38  1  0.12641316  0.74803704  0.94106013  1
  O  O39  1  0.90574165  0.26281281  0.85398592  1
  O  O40  1  0.87092061  0.78780643  0.73725718  1
  O  O41  1  0.81179763  0.83786704  0.87702136  1
