# generated using pymatgen
data_Y2GaB13H10C4O29
_symmetry_space_group_name_H-M   'P 1'
_cell_length_a   8.58098782
_cell_length_b   10.60533842
_cell_length_c   17.50322104
_cell_angle_alpha   104.85512327
_cell_angle_beta   90.00000000
_cell_angle_gamma   113.86354678
_symmetry_Int_Tables_number   1
_chemical_formula_structural   Y2GaB13H10C4O29
_chemical_formula_sum   'Y4 Ga2 B26 H20 C8 O58'
_cell_volume   1398.28301805
_cell_formula_units_Z   2
loop_
 _symmetry_equiv_pos_site_id
 _symmetry_equiv_pos_as_xyz
  1  'x, y, z'
loop_
 _atom_site_type_symbol
 _atom_site_label
 _atom_site_symmetry_multiplicity
 _atom_site_fract_x
 _atom_site_fract_y
 _atom_site_fract_z
 _atom_site_occupancy
  Y  Y0  1  0.48803420  0.31213148  0.31286723  1
  Y  Y1  1  0.17590272  0.68786852  0.18713277  1
  Y  Y2  1  0.51196580  0.68786852  0.68713277  1
  Y  Y3  1  0.82409728  0.31213148  0.81286723  1
  Ga  Ga4  1  -0.00000000  0.50000000  -0.00000000  1
  Ga  Ga5  1  0.50000000  0.50000000  0.50000000  1
  B  B6  1  0.61787857  0.87581066  0.24966368  1
  B  B7  1  0.74206791  0.12418934  0.25033632  1
  B  B8  1  0.38212143  0.12418934  0.75033632  1
  B  B9  1  0.25793209  0.87581066  0.74966368  1
  B  B10  1  0.42751960  0.00000000  0.25000000  1
  B  B11  1  0.57248040  0.00000000  0.75000000  1
  B  B12  1  0.22321739  0.01144295  0.15190167  1
  B  B13  1  0.21177444  0.98855705  0.34809833  1
  B  B14  1  0.77678261  0.98855705  0.84809833  1
  B  B15  1  0.78822556  0.01144295  0.65190167  1
  B  B16  1  0.03345467  0.80038981  0.04323078  1
  B  B17  1  0.23306486  0.19961019  0.45676922  1
  B  B18  1  0.96654533  0.19961019  0.95676922  1
  B  B19  1  0.76693514  0.80038981  0.54323078  1
  B  B20  1  0.90558901  0.65795748  0.90350444  1
  B  B21  1  0.24763154  0.34204252  0.59649556  1
  B  B22  1  0.09441099  0.34204252  0.09649556  1
  B  B23  1  0.75236846  0.65795748  0.40350444  1
  B  B24  1  0.78520848  0.55514812  0.75945532  1
  B  B25  1  0.23006036  0.44485188  0.74054468  1
  B  B26  1  0.21479152  0.44485188  0.24054468  1
  B  B27  1  0.76993964  0.55514812  0.25945532  1
  B  B28  1  0.09199089  0.61561723  0.73670869  1
  B  B29  1  0.47637366  0.38438277  0.76329131  1
  B  B30  1  0.90800911  0.38438277  0.26329131  1
  B  B31  1  0.52362634  0.61561723  0.23670869  1
  H  H32  1  0.22537813  0.21176847  0.16940397  1
  H  H33  1  0.01360966  0.78823153  0.33059603  1
  H  H34  1  0.77462187  0.78823153  0.83059603  1
  H  H35  1  0.98639034  0.21176847  0.66940397  1
  H  H36  1  0.73116559  0.54302760  0.64420475  1
  H  H37  1  0.18813799  0.45697240  0.85579525  1
  H  H38  1  0.26883441  0.45697240  0.35579525  1
  H  H39  1  0.81186201  0.54302760  0.14420475  1
  H  H40  1  0.89298131  0.23566691  0.46682448  1
  H  H41  1  0.65731440  0.76433309  0.03317552  1
  H  H42  1  0.10701869  0.76433309  0.53317552  1
  H  H43  1  0.34268560  0.23566691  0.96682448  1
  H  H44  1  0.96826475  0.40413790  0.54274732  1
  H  H45  1  0.56412684  0.59586210  0.95725268  1
  H  H46  1  0.03173525  0.59586210  0.45725268  1
  H  H47  1  0.43587316  0.40413790  0.04274732  1
  H  H48  1  0.80093350  0.25266986  0.55878224  1
  H  H49  1  0.54826364  0.74733014  0.94121776  1
  H  H50  1  0.19906650  0.74733014  0.44121776  1
  H  H51  1  0.45173636  0.25266986  0.05878224  1
  C  C52  1  0.72649447  0.34565348  0.47853292  1
  C  C53  1  0.38084099  0.65434652  0.02146708  1
  C  C54  1  0.27350553  0.65434652  0.52146708  1
  C  C55  1  0.61915901  0.34565348  0.97853292  1
  C  C56  1  0.85500062  0.30586519  0.51276486  1
  C  C57  1  0.54913543  0.69413481  0.98723514  1
  C  C58  1  0.14499938  0.69413481  0.48723514  1
  C  C59  1  0.45086457  0.30586519  0.01276486  1
  O  O60  1  0.75956574  0.00000000  0.25000000  1
  O  O61  1  0.24043426  0.00000000  0.75000000  1
  O  O62  1  0.45913201  0.87839287  0.25926408  1
  O  O63  1  0.58073914  0.12160713  0.24073592  1
  O  O64  1  0.54086799  0.12160713  0.74073592  1
  O  O65  1  0.41926086  0.87839287  0.75926408  1
  O  O66  1  0.29471748  0.93493985  0.18072992  1
  O  O67  1  0.35977763  0.06506015  0.31927008  1
  O  O68  1  0.70528252  0.06506015  0.81927008  1
  O  O69  1  0.64022237  0.93493985  0.68072992  1
  O  O70  1  0.28647422  0.15775688  0.18775665  1
  O  O71  1  0.12871734  0.84224312  0.31224335  1
  O  O72  1  0.71352578  0.84224312  0.81224335  1
  O  O73  1  0.87128266  0.15775688  0.68775665  1
  O  O74  1  0.09683307  0.94352019  0.08930797  1
  O  O75  1  0.15331288  0.05647981  0.41069203  1
  O  O76  1  0.90316693  0.05647981  0.91069203  1
  O  O77  1  0.84668712  0.94352019  0.58930797  1
  O  O78  1  0.04423408  0.69421060  0.07041215  1
  O  O79  1  0.35002348  0.30578940  0.42958785  1
  O  O80  1  0.95576592  0.30578940  0.92958785  1
  O  O81  1  0.64997652  0.69421060  0.57041215  1
  O  O82  1  0.95826546  0.77823142  0.96824418  1
  O  O83  1  0.18003404  0.22176858  0.53175582  1
  O  O84  1  0.04173454  0.22176858  0.03175582  1
  O  O85  1  0.81996596  0.77823142  0.46824418  1
  O  O86  1  0.92830150  0.53771045  0.90399015  1
  O  O87  1  0.39059106  0.46228955  0.59600985  1
  O  O88  1  0.07169850  0.46228955  0.09600985  1
  O  O89  1  0.60940894  0.53771045  0.40399015  1
  O  O90  1  0.93002027  0.51369202  0.73843153  1
  O  O91  1  0.41632825  0.48630798  0.76156847  1
  O  O92  1  0.06997973  0.48630798  0.26156847  1
  O  O93  1  0.58367175  0.51369202  0.23843153  1
  O  O94  1  0.23204969  0.58271322  0.73158602  1
  O  O95  1  0.64933648  0.41728678  0.76841398  1
  O  O96  1  0.76795031  0.41728678  0.26841398  1
  O  O97  1  0.35066352  0.58271322  0.23158602  1
  O  O98  1  0.11206105  0.75356635  0.74165273  1
  O  O99  1  0.35849470  0.24643365  0.75834727  1
  O  O100  1  0.88793895  0.24643365  0.25834727  1
  O  O101  1  0.64150530  0.75356635  0.24165273  1
  O  O102  1  0.67904291  0.29856664  0.40441665  1
  O  O103  1  0.38047627  0.70143336  0.09558335  1
  O  O104  1  0.32095709  0.70143336  0.59558335  1
  O  O105  1  0.61952373  0.29856664  0.90441665  1
  O  O106  1  0.67285545  0.42798075  0.52875619  1
  O  O107  1  0.24487470  0.57201925  0.97124381  1
  O  O108  1  0.32714455  0.57201925  0.47124381  1
  O  O109  1  0.75512530  0.42798075  0.02875619  1
  O  O110  1  0.72914731  0.60230765  0.69748773  1
  O  O111  1  0.12683966  0.39769235  0.80251227  1
  O  O112  1  0.27085269  0.39769235  0.30251227  1
  O  O113  1  0.87316034  0.60230765  0.19748773  1
  O  O114  1  0.82920316  0.66645166  0.83620627  1
  O  O115  1  0.16275150  0.33354834  0.66379373  1
  O  O116  1  0.17079684  0.33354834  0.16379373  1
  O  O117  1  0.83724850  0.66645166  0.33620627  1
