# generated using pymatgen
data_CeMoClO4
_symmetry_space_group_name_H-M   'P 1'
_cell_length_a   5.93548397
_cell_length_b   7.55012521
_cell_length_c   19.66253358
_cell_angle_alpha   90.22026791
_cell_angle_beta   90.00000000
_cell_angle_gamma   90.00000000
_symmetry_Int_Tables_number   1
_chemical_formula_structural   CeMoClO4
_chemical_formula_sum   'Ce8 Mo8 Cl8 O32'
_cell_volume   881.14333105
_cell_formula_units_Z   8
loop_
 _symmetry_equiv_pos_site_id
 _symmetry_equiv_pos_as_xyz
  1  'x, y, z'
loop_
 _atom_site_type_symbol
 _atom_site_label
 _atom_site_symmetry_multiplicity
 _atom_site_fract_x
 _atom_site_fract_y
 _atom_site_fract_z
 _atom_site_occupancy
  Ce  Ce0  1  0.30539117  0.62914889  0.10799343  1
  Ce  Ce1  1  0.80539117  0.87085111  0.89200657  1
  Ce  Ce2  1  0.69460883  0.37085111  0.89200657  1
  Ce  Ce3  1  0.19460883  0.12914889  0.10799343  1
  Ce  Ce4  1  0.30432854  0.61876811  0.60812693  1
  Ce  Ce5  1  0.80432854  0.88123189  0.39187307  1
  Ce  Ce6  1  0.69567146  0.38123189  0.39187307  1
  Ce  Ce7  1  0.19567146  0.11876811  0.60812693  1
  Mo  Mo8  1  0.24777728  0.61847304  0.82263087  1
  Mo  Mo9  1  0.74777728  0.88152696  0.17736913  1
  Mo  Mo10  1  0.75222272  0.38152696  0.17736913  1
  Mo  Mo11  1  0.25222272  0.11847304  0.82263087  1
  Mo  Mo12  1  0.24816164  0.62989810  0.32253428  1
  Mo  Mo13  1  0.74816164  0.87010190  0.67746572  1
  Mo  Mo14  1  0.75183836  0.37010190  0.67746572  1
  Mo  Mo15  1  0.25183836  0.12989810  0.32253428  1
  Cl  Cl16  1  0.23142215  0.87315193  0.99363385  1
  Cl  Cl17  1  0.73142215  0.62684807  0.00636615  1
  Cl  Cl18  1  0.76857785  0.12684807  0.00636615  1
  Cl  Cl19  1  0.26857785  0.37315193  0.99363385  1
  Cl  Cl20  1  0.23144550  0.87330611  0.49372003  1
  Cl  Cl21  1  0.73144550  0.62669389  0.50627997  1
  Cl  Cl22  1  0.76855450  0.12669389  0.50627997  1
  Cl  Cl23  1  0.26855450  0.37330611  0.49372003  1
  O  O24  1  0.23752049  0.61582090  0.73314245  1
  O  O25  1  0.73752049  0.88417910  0.26685755  1
  O  O26  1  0.76247951  0.38417910  0.26685755  1
  O  O27  1  0.26247951  0.11582090  0.73314245  1
  O  O28  1  0.15579001  0.86946280  0.83743777  1
  O  O29  1  0.65579001  0.63053720  0.16256223  1
  O  O30  1  0.84420999  0.13053720  0.16256223  1
  O  O31  1  0.34420999  0.36946280  0.83743777  1
  O  O32  1  0.03049926  0.83981742  0.13246084  1
  O  O33  1  0.53049926  0.66018258  0.86753916  1
  O  O34  1  0.96950074  0.16018258  0.86753916  1
  O  O35  1  0.46950074  0.33981742  0.13246084  1
  O  O36  1  0.46833987  0.91917351  0.12909368  1
  O  O37  1  0.96833987  0.58082649  0.87090632  1
  O  O38  1  0.53166013  0.08082649  0.87090632  1
  O  O39  1  0.03166013  0.41917351  0.12909368  1
  O  O40  1  0.23931574  0.62827118  0.23324372  1
  O  O41  1  0.73931574  0.87172882  0.76675628  1
  O  O42  1  0.76068426  0.37172882  0.76675628  1
  O  O43  1  0.26068426  0.12827118  0.23324372  1
  O  O44  1  0.15416871  0.88031039  0.33739186  1
  O  O45  1  0.65416871  0.61968961  0.66260814  1
  O  O46  1  0.84583129  0.11968961  0.66260814  1
  O  O47  1  0.34583129  0.38031039  0.33739186  1
  O  O48  1  0.03084262  0.82816517  0.63242832  1
  O  O49  1  0.53084262  0.67183483  0.36757168  1
  O  O50  1  0.96915738  0.17183483  0.36757168  1
  O  O51  1  0.46915738  0.32816517  0.63242832  1
  O  O52  1  0.46884519  0.90914817  0.62916202  1
  O  O53  1  0.96884519  0.59085183  0.37083798  1
  O  O54  1  0.53115481  0.09085183  0.37083798  1
  O  O55  1  0.03115481  0.40914817  0.62916202  1
