# generated using pymatgen
data_FeAs2H3OF13
_symmetry_space_group_name_H-M   'P 1'
_cell_length_a   7.31159627
_cell_length_b   10.63801763
_cell_length_c   14.30589628
_cell_angle_alpha   90.00000000
_cell_angle_beta   90.00000000
_cell_angle_gamma   90.00000000
_symmetry_Int_Tables_number   1
_chemical_formula_structural   FeAs2H3OF13
_chemical_formula_sum   'Fe4 As8 H12 O4 F52'
_cell_volume   1112.72534525
_cell_formula_units_Z   4
loop_
 _symmetry_equiv_pos_site_id
 _symmetry_equiv_pos_as_xyz
  1  'x, y, z'
loop_
 _atom_site_type_symbol
 _atom_site_label
 _atom_site_symmetry_multiplicity
 _atom_site_fract_x
 _atom_site_fract_y
 _atom_site_fract_z
 _atom_site_occupancy
  Fe  Fe0  1  -0.00000000  -0.00000000  0.00000000  1
  Fe  Fe1  1  0.50000000  0.50000000  0.50000000  1
  Fe  Fe2  1  0.50000000  0.00000000  0.00000000  1
  Fe  Fe3  1  0.00000000  0.50000000  0.50000000  1
  As  As4  1  0.75000000  0.24581819  0.13631673  1
  As  As5  1  0.75000000  0.25418181  0.63631673  1
  As  As6  1  0.25000000  0.75418181  0.86368327  1
  As  As7  1  0.25000000  0.74581819  0.36368327  1
  As  As8  1  0.75000000  0.72839332  0.10328142  1
  As  As9  1  0.75000000  0.77160668  0.60328142  1
  As  As10  1  0.25000000  0.27160668  0.89671858  1
  As  As11  1  0.25000000  0.22839332  0.39671858  1
  H  H12  1  0.63763139  0.00949702  0.39532782  1
  H  H13  1  0.86236861  0.49050298  0.89532782  1
  H  H14  1  0.13763139  0.99050298  0.60467218  1
  H  H15  1  0.36236861  0.50949702  0.10467218  1
  H  H16  1  0.36236861  0.99050298  0.60467218  1
  H  H17  1  0.13763139  0.50949702  0.10467218  1
  H  H18  1  0.86236861  0.00949702  0.39532782  1
  H  H19  1  0.63763139  0.49050298  0.89532782  1
  H  H20  1  0.75000000  0.07338554  0.30953720  1
  H  H21  1  0.75000000  0.42661446  0.80953720  1
  H  H22  1  0.25000000  0.92661446  0.69046280  1
  H  H23  1  0.25000000  0.57338554  0.19046280  1
  O  O24  1  0.75000000  0.00148708  0.35751116  1
  O  O25  1  0.75000000  0.49851292  0.85751116  1
  O  O26  1  0.25000000  0.99851292  0.64248884  1
  O  O27  1  0.25000000  0.50148708  0.14248884  1
  F  F28  1  0.75000000  0.00661098  0.95167595  1
  F  F29  1  0.75000000  0.49338902  0.45167595  1
  F  F30  1  0.25000000  0.99338902  0.04832405  1
  F  F31  1  0.25000000  0.50661098  0.54832405  1
  F  F32  1  0.92008547  0.12617989  0.11347769  1
  F  F33  1  0.57991453  0.37382011  0.61347769  1
  F  F34  1  0.42008547  0.87382011  0.88652231  1
  F  F35  1  0.07991453  0.62617989  0.38652231  1
  F  F36  1  0.07991453  0.87382011  0.88652231  1
  F  F37  1  0.42008547  0.62617989  0.38652231  1
  F  F38  1  0.57991453  0.12617989  0.11347769  1
  F  F39  1  0.92008547  0.37382011  0.61347769  1
  F  F40  1  0.75000000  0.28876946  0.01774503  1
  F  F41  1  0.75000000  0.21123054  0.51774503  1
  F  F42  1  0.25000000  0.71123054  0.98225497  1
  F  F43  1  0.25000000  0.78876946  0.48225497  1
  F  F44  1  0.92315852  0.35133252  0.16426156  1
  F  F45  1  0.57684148  0.14866748  0.66426156  1
  F  F46  1  0.42315852  0.64866748  0.83573844  1
  F  F47  1  0.07684148  0.85133252  0.33573844  1
  F  F48  1  0.07684148  0.64866748  0.83573844  1
  F  F49  1  0.42315852  0.85133252  0.33573844  1
  F  F50  1  0.57684148  0.35133252  0.16426156  1
  F  F51  1  0.92315852  0.14866748  0.66426156  1
  F  F52  1  0.75000000  0.19176887  0.25620708  1
  F  F53  1  0.75000000  0.30823113  0.75620708  1
  F  F54  1  0.25000000  0.80823113  0.74379292  1
  F  F55  1  0.25000000  0.69176887  0.24379292  1
  F  F56  1  0.92293672  0.85014924  0.09979391  1
  F  F57  1  0.57706328  0.64985076  0.59979391  1
  F  F58  1  0.42293672  0.14985076  0.90020609  1
  F  F59  1  0.07706328  0.35014924  0.40020609  1
  F  F60  1  0.07706328  0.14985076  0.90020609  1
  F  F61  1  0.42293672  0.35014924  0.40020609  1
  F  F62  1  0.57706328  0.85014924  0.09979391  1
  F  F63  1  0.92293672  0.64985076  0.59979391  1
  F  F64  1  0.75000000  0.72605012  0.98022686  1
  F  F65  1  0.75000000  0.77394988  0.48022686  1
  F  F66  1  0.25000000  0.27394988  0.01977314  1
  F  F67  1  0.25000000  0.22605012  0.51977314  1
  F  F68  1  0.92255990  0.61057059  0.10341413  1
  F  F69  1  0.57744010  0.88942941  0.60341413  1
  F  F70  1  0.42255990  0.38942941  0.89658587  1
  F  F71  1  0.07744010  0.11057059  0.39658587  1
  F  F72  1  0.07744010  0.38942941  0.89658587  1
  F  F73  1  0.42255990  0.11057059  0.39658587  1
  F  F74  1  0.57744010  0.61057059  0.10341413  1
  F  F75  1  0.92255990  0.88942941  0.60341413  1
  F  F76  1  0.75000000  0.73585865  0.22412581  1
  F  F77  1  0.75000000  0.76414135  0.72412581  1
  F  F78  1  0.25000000  0.26414135  0.77587419  1
  F  F79  1  0.25000000  0.23585865  0.27587419  1
