# generated using pymatgen
data_CaTeO3
_symmetry_space_group_name_H-M   'P 1'
_cell_length_a   6.55125372
_cell_length_b   8.23491043
_cell_length_c   13.77760815
_cell_angle_alpha   90.00000000
_cell_angle_beta   90.00000000
_cell_angle_gamma   90.00000000
_symmetry_Int_Tables_number   1
_chemical_formula_structural   CaTeO3
_chemical_formula_sum   'Ca8 Te8 O24'
_cell_volume   743.28801108
_cell_formula_units_Z   8
loop_
 _symmetry_equiv_pos_site_id
 _symmetry_equiv_pos_as_xyz
  1  'x, y, z'
loop_
 _atom_site_type_symbol
 _atom_site_label
 _atom_site_symmetry_multiplicity
 _atom_site_fract_x
 _atom_site_fract_y
 _atom_site_fract_z
 _atom_site_occupancy
  Ca  Ca0  1  0.39035502  0.41303656  0.07328981  1
  Ca  Ca1  1  0.60964498  0.58696344  0.57328981  1
  Ca  Ca2  1  0.39035502  0.08696344  0.57328981  1
  Ca  Ca3  1  0.60964498  0.91303656  0.07328981  1
  Ca  Ca4  1  0.88885852  0.31226264  0.13582598  1
  Ca  Ca5  1  0.11114148  0.68773736  0.63582598  1
  Ca  Ca6  1  0.88885852  0.18773736  0.63582598  1
  Ca  Ca7  1  0.11114148  0.81226264  0.13582598  1
  Te  Te8  1  0.40941941  0.16886024  0.26510135  1
  Te  Te9  1  0.59058059  0.83113976  0.76510135  1
  Te  Te10  1  0.40941941  0.33113976  0.76510135  1
  Te  Te11  1  0.59058059  0.66886024  0.26510135  1
  Te  Te12  1  0.91200207  0.94420693  0.44278929  1
  Te  Te13  1  0.08799793  0.05579307  0.94278929  1
  Te  Te14  1  0.91200207  0.55579307  0.94278929  1
  Te  Te15  1  0.08799793  0.44420693  0.44278929  1
  O  O16  1  0.20651140  0.31156102  0.21617295  1
  O  O17  1  0.79348860  0.68843898  0.71617295  1
  O  O18  1  0.20651140  0.18843898  0.71617295  1
  O  O19  1  0.79348860  0.81156102  0.21617295  1
  O  O20  1  0.56481408  0.17390234  0.14665066  1
  O  O21  1  0.43518592  0.82609766  0.64665066  1
  O  O22  1  0.56481408  0.32609766  0.64665066  1
  O  O23  1  0.43518592  0.67390234  0.14665066  1
  O  O24  1  0.29075072  0.96461257  0.24570641  1
  O  O25  1  0.70924928  0.03538743  0.74570641  1
  O  O26  1  0.29075072  0.53538743  0.74570641  1
  O  O27  1  0.70924928  0.46461257  0.24570641  1
  O  O28  1  0.70443500  0.07681727  0.49577170  1
  O  O29  1  0.29556500  0.92318273  0.99577170  1
  O  O30  1  0.70443500  0.42318273  0.99577170  1
  O  O31  1  0.29556500  0.57681727  0.49577170  1
  O  O32  1  0.06834561  0.94734265  0.55984003  1
  O  O33  1  0.93165439  0.05265735  0.05984003  1
  O  O34  1  0.06834561  0.55265735  0.05984003  1
  O  O35  1  0.93165439  0.44734265  0.55984003  1
  O  O36  1  0.80261484  0.73430594  0.45925884  1
  O  O37  1  0.19738516  0.26569406  0.95925884  1
  O  O38  1  0.80261484  0.76569406  0.95925884  1
  O  O39  1  0.19738516  0.23430594  0.45925884  1
