# generated using pymatgen
data_Nb4Rh2C
_symmetry_space_group_name_H-M   'P 1'
_cell_length_a   8.47733499
_cell_length_b   8.47733499
_cell_length_c   8.47733499
_cell_angle_alpha   60.00000000
_cell_angle_beta   60.00000000
_cell_angle_gamma   60.00000000
_symmetry_Int_Tables_number   1
_chemical_formula_structural   Nb4Rh2C
_chemical_formula_sum   'Nb16 Rh8 C4'
_cell_volume   430.78744521
_cell_formula_units_Z   4
loop_
 _symmetry_equiv_pos_site_id
 _symmetry_equiv_pos_as_xyz
  1  'x, y, z'
loop_
 _atom_site_type_symbol
 _atom_site_label
 _atom_site_symmetry_multiplicity
 _atom_site_fract_x
 _atom_site_fract_y
 _atom_site_fract_z
 _atom_site_occupancy
  Nb  Nb0  1  -0.00000000  0.00000000  0.50000000  1
  Nb  Nb1  1  -0.00000000  0.50000000  0.00000000  1
  Nb  Nb2  1  0.50000000  0.00000000  0.00000000  1
  Nb  Nb3  1  -0.00000000  0.00000000  0.00000000  1
  Nb  Nb4  1  0.44218149  0.80781851  0.80781851  1
  Nb  Nb5  1  0.80781851  0.44218149  0.44218149  1
  Nb  Nb6  1  0.80781851  0.44218149  0.80781851  1
  Nb  Nb7  1  0.44218149  0.80781851  0.44218149  1
  Nb  Nb8  1  0.80781851  0.80781851  0.44218149  1
  Nb  Nb9  1  0.44218149  0.44218149  0.80781851  1
  Nb  Nb10  1  0.55781851  0.19218149  0.19218149  1
  Nb  Nb11  1  0.19218149  0.55781851  0.55781851  1
  Nb  Nb12  1  0.19218149  0.55781851  0.19218149  1
  Nb  Nb13  1  0.55781851  0.19218149  0.55781851  1
  Nb  Nb14  1  0.19218149  0.19218149  0.55781851  1
  Nb  Nb15  1  0.55781851  0.55781851  0.19218149  1
  Rh  Rh16  1  0.21245059  0.21245059  0.86264823  1
  Rh  Rh17  1  0.21245059  0.86264823  0.21245059  1
  Rh  Rh18  1  0.86264823  0.21245059  0.21245059  1
  Rh  Rh19  1  0.21245059  0.21245059  0.21245059  1
  Rh  Rh20  1  0.78754941  0.78754941  0.13735177  1
  Rh  Rh21  1  0.78754941  0.13735177  0.78754941  1
  Rh  Rh22  1  0.13735177  0.78754941  0.78754941  1
  Rh  Rh23  1  0.78754941  0.78754941  0.78754941  1
  C  C24  1  0.50000000  0.50000000  0.00000000  1
  C  C25  1  0.50000000  0.00000000  0.50000000  1
  C  C26  1  -0.00000000  0.50000000  0.50000000  1
  C  C27  1  0.50000000  0.50000000  0.50000000  1
