# generated using pymatgen
data_Zr9Re4P
_symmetry_space_group_name_H-M   'P 1'
_cell_length_a   8.59760603
_cell_length_b   8.59760603
_cell_length_c   8.80163662
_cell_angle_alpha   90.00000000
_cell_angle_beta   90.00000000
_cell_angle_gamma   120.00021399
_symmetry_Int_Tables_number   1
_chemical_formula_structural   Zr9Re4P
_chemical_formula_sum   'Zr18 Re8 P2'
_cell_volume   563.44069428
_cell_formula_units_Z   2
loop_
 _symmetry_equiv_pos_site_id
 _symmetry_equiv_pos_as_xyz
  1  'x, y, z'
loop_
 _atom_site_type_symbol
 _atom_site_label
 _atom_site_symmetry_multiplicity
 _atom_site_fract_x
 _atom_site_fract_y
 _atom_site_fract_z
 _atom_site_occupancy
  Zr  Zr0  1  0.80203930  0.60411890  0.54821187  1
  Zr  Zr1  1  0.80206354  0.19793646  0.54820772  1
  Zr  Zr2  1  0.39588110  0.19796070  0.54821187  1
  Zr  Zr3  1  0.19796070  0.39588110  0.45178813  1
  Zr  Zr4  1  0.19793646  0.80206354  0.45179228  1
  Zr  Zr5  1  0.60411890  0.80203930  0.45178813  1
  Zr  Zr6  1  0.19796070  0.39588110  0.04821187  1
  Zr  Zr7  1  0.19793646  0.80206354  0.04820772  1
  Zr  Zr8  1  0.60411890  0.80203930  0.04821187  1
  Zr  Zr9  1  0.80203930  0.60411890  0.95178813  1
  Zr  Zr10  1  0.80206354  0.19793646  0.95179228  1
  Zr  Zr11  1  0.39588110  0.19796070  0.95178813  1
  Zr  Zr12  1  0.46365771  0.92732861  0.75000000  1
  Zr  Zr13  1  0.46365320  0.53634680  0.75000000  1
  Zr  Zr14  1  0.07267139  0.53634229  0.75000000  1
  Zr  Zr15  1  0.53634229  0.07267139  0.25000000  1
  Zr  Zr16  1  0.53634680  0.46365320  0.25000000  1
  Zr  Zr17  1  0.92732861  0.46365771  0.25000000  1
  Re  Re18  1  0.10680903  0.21359927  0.75000000  1
  Re  Re19  1  0.10679629  0.89320371  0.75000000  1
  Re  Re20  1  0.78640073  0.89319097  0.75000000  1
  Re  Re21  1  0.89319097  0.78640073  0.25000000  1
  Re  Re22  1  0.89320371  0.10679629  0.25000000  1
  Re  Re23  1  0.21359927  0.10680903  0.25000000  1
  Re  Re24  1  0.00000000  -0.00000000  0.50000000  1
  Re  Re25  1  0.00000000  -0.00000000  0.00000000  1
  P  P26  1  0.66668564  0.33331436  0.75000000  1
  P  P27  1  0.33331436  0.66668564  0.25000000  1
