# generated using pymatgen
data_Zr4Os2N
_symmetry_space_group_name_H-M   'P 1'
_cell_length_a   8.80673717
_cell_length_b   8.80673717
_cell_length_c   8.80673717
_cell_angle_alpha   60.00000000
_cell_angle_beta   60.00000000
_cell_angle_gamma   60.00000000
_symmetry_Int_Tables_number   1
_chemical_formula_structural   Zr4Os2N
_chemical_formula_sum   'Zr16 Os8 N4'
_cell_volume   482.98106813
_cell_formula_units_Z   4
loop_
 _symmetry_equiv_pos_site_id
 _symmetry_equiv_pos_as_xyz
  1  'x, y, z'
loop_
 _atom_site_type_symbol
 _atom_site_label
 _atom_site_symmetry_multiplicity
 _atom_site_fract_x
 _atom_site_fract_y
 _atom_site_fract_z
 _atom_site_occupancy
  Zr  Zr0  1  -0.00000000  0.00000000  0.50000000  1
  Zr  Zr1  1  -0.00000000  0.50000000  0.00000000  1
  Zr  Zr2  1  0.50000000  0.00000000  0.00000000  1
  Zr  Zr3  1  -0.00000000  0.00000000  0.00000000  1
  Zr  Zr4  1  0.43991862  0.81008138  0.81008138  1
  Zr  Zr5  1  0.81008138  0.43991862  0.43991862  1
  Zr  Zr6  1  0.81008138  0.43991862  0.81008138  1
  Zr  Zr7  1  0.43991862  0.81008138  0.43991862  1
  Zr  Zr8  1  0.81008138  0.81008138  0.43991862  1
  Zr  Zr9  1  0.43991862  0.43991862  0.81008138  1
  Zr  Zr10  1  0.56008138  0.18991862  0.18991862  1
  Zr  Zr11  1  0.18991862  0.56008138  0.56008138  1
  Zr  Zr12  1  0.18991862  0.56008138  0.18991862  1
  Zr  Zr13  1  0.56008138  0.18991862  0.56008138  1
  Zr  Zr14  1  0.18991862  0.18991862  0.56008138  1
  Zr  Zr15  1  0.56008138  0.56008138  0.18991862  1
  Os  Os16  1  0.21145263  0.21145263  0.86564212  1
  Os  Os17  1  0.21145263  0.86564212  0.21145263  1
  Os  Os18  1  0.86564212  0.21145263  0.21145263  1
  Os  Os19  1  0.21145263  0.21145263  0.21145263  1
  Os  Os20  1  0.78854737  0.78854737  0.13435788  1
  Os  Os21  1  0.78854737  0.13435788  0.78854737  1
  Os  Os22  1  0.13435788  0.78854737  0.78854737  1
  Os  Os23  1  0.78854737  0.78854737  0.78854737  1
  N  N24  1  0.50000000  0.50000000  0.00000000  1
  N  N25  1  0.50000000  0.00000000  0.50000000  1
  N  N26  1  -0.00000000  0.50000000  0.50000000  1
  N  N27  1  0.50000000  0.50000000  0.50000000  1
