# generated using pymatgen
data_CoH12C2(NCl2)2
_symmetry_space_group_name_H-M   'P 1'
_cell_length_a   7.84989532
_cell_length_b   11.21427142
_cell_length_c   12.85813110
_cell_angle_alpha   90.00000000
_cell_angle_beta   90.00000000
_cell_angle_gamma   96.57887882
_symmetry_Int_Tables_number   1
_chemical_formula_structural   CoH12C2(NCl2)2
_chemical_formula_sum   'Co4 H48 C8 N8 Cl16'
_cell_volume   1124.45873131
_cell_formula_units_Z   4
loop_
 _symmetry_equiv_pos_site_id
 _symmetry_equiv_pos_as_xyz
  1  'x, y, z'
loop_
 _atom_site_type_symbol
 _atom_site_label
 _atom_site_symmetry_multiplicity
 _atom_site_fract_x
 _atom_site_fract_y
 _atom_site_fract_z
 _atom_site_occupancy
  Co  Co0  1  0.26947734  0.22721615  0.56126709  1
  Co  Co1  1  0.73052266  0.27278385  0.06126709  1
  Co  Co2  1  0.73052266  0.77278385  0.43873291  1
  Co  Co3  1  0.26947734  0.72721615  0.93873291  1
  H  H4  1  0.71628060  0.46049411  0.78489831  1
  H  H5  1  0.28371940  0.03950589  0.28489831  1
  H  H6  1  0.28371940  0.53950589  0.21510169  1
  H  H7  1  0.71628060  0.96049411  0.71510169  1
  H  H8  1  0.71857781  0.58456818  0.70921462  1
  H  H9  1  0.28142219  0.91543182  0.20921462  1
  H  H10  1  0.28142219  0.41543182  0.29078538  1
  H  H11  1  0.71857781  0.08456818  0.79078538  1
  H  H12  1  0.57437525  0.46456242  0.68666142  1
  H  H13  1  0.42562475  0.03543758  0.18666142  1
  H  H14  1  0.42562475  0.53543758  0.31333858  1
  H  H15  1  0.57437525  0.96456242  0.81333858  1
  H  H16  1  0.21468997  0.92011172  0.66705316  1
  H  H17  1  0.78531003  0.57988828  0.16705316  1
  H  H18  1  0.78531003  0.07988828  0.33294684  1
  H  H19  1  0.21468997  0.42011172  0.83294684  1
  H  H20  1  0.32497549  0.91380425  0.55640996  1
  H  H21  1  0.67502451  0.58619575  0.05640996  1
  H  H22  1  0.67502451  0.08619575  0.44359004  1
  H  H23  1  0.32497549  0.41380425  0.94359004  1
  H  H24  1  0.11198900  0.88064542  0.55476486  1
  H  H25  1  0.88801100  0.61935458  0.05476486  1
  H  H26  1  0.88801100  0.11935458  0.44523514  1
  H  H27  1  0.11198900  0.38064542  0.94523514  1
  H  H28  1  0.19902480  0.15580941  0.13886344  1
  H  H29  1  0.80097520  0.34419059  0.63886344  1
  H  H30  1  0.80097520  0.84419059  0.86113656  1
  H  H31  1  0.19902480  0.65580941  0.36113656  1
  H  H32  1  0.19342559  0.02155444  0.06032407  1
  H  H33  1  0.80657441  0.47844556  0.56032407  1
  H  H34  1  0.80657441  0.97844556  0.93967593  1
  H  H35  1  0.19342559  0.52155444  0.43967593  1
  H  H36  1  0.04426362  0.02947055  0.16549551  1
  H  H37  1  0.95573638  0.47052945  0.66549551  1
  H  H38  1  0.95573638  0.97052945  0.83450449  1
  H  H39  1  0.04426362  0.52947055  0.33450449  1
  H  H40  1  0.12883363  0.70368866  0.66135840  1
  H  H41  1  0.87116637  0.79631134  0.16135840  1
  H  H42  1  0.87116637  0.29631134  0.33864160  1
  H  H43  1  0.12883363  0.20368866  0.83864160  1
  H  H44  1  0.25825989  0.69962843  0.54563628  1
  H  H45  1  0.74174011  0.80037157  0.04563628  1
  H  H46  1  0.74174011  0.30037157  0.45436372  1
  H  H47  1  0.25825989  0.19962843  0.95436372  1
  H  H48  1  0.35711288  0.74091082  0.66779594  1
  H  H49  1  0.64288712  0.75908918  0.16779594  1
  H  H50  1  0.64288712  0.25908918  0.33220406  1
  H  H51  1  0.35711288  0.24091082  0.83220406  1
  C  C52  1  0.17481961  0.05738435  0.13816654  1
  C  C53  1  0.82518039  0.44261565  0.63816654  1
  C  C54  1  0.82518039  0.94261565  0.86183346  1
  C  C55  1  0.17481961  0.55738435  0.36183346  1
  C  C56  1  0.24260609  0.74449070  0.62005628  1
  C  C57  1  0.75739391  0.75550930  0.12005628  1
  C  C58  1  0.75739391  0.25550930  0.37994372  1
  C  C59  1  0.24260609  0.24449070  0.87994372  1
  N  N60  1  0.70103120  0.49148971  0.70983068  1
  N  N61  1  0.29896880  0.00851029  0.20983068  1
  N  N62  1  0.29896880  0.50851029  0.29016932  1
  N  N63  1  0.70103120  0.99148971  0.79016932  1
  N  N64  1  0.22149086  0.87276590  0.59841975  1
  N  N65  1  0.77850914  0.62723410  0.09841975  1
  N  N66  1  0.77850914  0.12723410  0.40158025  1
  N  N67  1  0.22149086  0.37276590  0.90158025  1
  Cl  Cl68  1  0.02015490  0.12729564  0.61762909  1
  Cl  Cl69  1  0.97984510  0.37270436  0.11762909  1
  Cl  Cl70  1  0.97984510  0.87270436  0.38237091  1
  Cl  Cl71  1  0.02015490  0.62729564  0.88237091  1
  Cl  Cl72  1  0.31194680  0.41357359  0.63424629  1
  Cl  Cl73  1  0.68805320  0.08642641  0.13424629  1
  Cl  Cl74  1  0.68805320  0.58642641  0.36575371  1
  Cl  Cl75  1  0.31194680  0.91357359  0.86575371  1
  Cl  Cl76  1  0.24393509  0.23090076  0.38476411  1
  Cl  Cl77  1  0.75606491  0.26909924  0.88476411  1
  Cl  Cl78  1  0.75606491  0.76909924  0.61523589  1
  Cl  Cl79  1  0.24393509  0.73090076  0.11523589  1
  Cl  Cl80  1  0.49400866  0.12784585  0.60364438  1
  Cl  Cl81  1  0.50599134  0.37215415  0.10364438  1
  Cl  Cl82  1  0.50599134  0.87215415  0.39635562  1
  Cl  Cl83  1  0.49400866  0.62784585  0.89635562  1
