# generated using pymatgen
data_Ce4Bi2S9
_symmetry_space_group_name_H-M   'P 1'
_cell_length_a   3.96629423
_cell_length_b   12.76258729
_cell_length_c   28.28811128
_cell_angle_alpha   90.00000000
_cell_angle_beta   90.00000000
_cell_angle_gamma   90.00000000
_symmetry_Int_Tables_number   1
_chemical_formula_structural   Ce4Bi2S9
_chemical_formula_sum   'Ce16 Bi8 S36'
_cell_volume   1431.94918099
_cell_formula_units_Z   4
loop_
 _symmetry_equiv_pos_site_id
 _symmetry_equiv_pos_as_xyz
  1  'x, y, z'
loop_
 _atom_site_type_symbol
 _atom_site_label
 _atom_site_symmetry_multiplicity
 _atom_site_fract_x
 _atom_site_fract_y
 _atom_site_fract_z
 _atom_site_occupancy
  Ce  Ce0  1  0.25000000  0.89396107  0.68892671  1
  Ce  Ce1  1  0.25000000  0.60603893  0.18892671  1
  Ce  Ce2  1  0.75000000  0.10603893  0.31107329  1
  Ce  Ce3  1  0.75000000  0.39396107  0.81107329  1
  Ce  Ce4  1  0.25000000  0.74160537  0.81916233  1
  Ce  Ce5  1  0.25000000  0.75839463  0.31916233  1
  Ce  Ce6  1  0.75000000  0.25839463  0.18083767  1
  Ce  Ce7  1  0.75000000  0.24160537  0.68083767  1
  Ce  Ce8  1  0.25000000  0.73938462  0.05545864  1
  Ce  Ce9  1  0.25000000  0.76061538  0.55545864  1
  Ce  Ce10  1  0.75000000  0.26061538  0.94454136  1
  Ce  Ce11  1  0.75000000  0.23938462  0.44454136  1
  Ce  Ce12  1  0.25000000  0.07436222  0.80448855  1
  Ce  Ce13  1  0.25000000  0.42563778  0.30448855  1
  Ce  Ce14  1  0.75000000  0.92563778  0.19551145  1
  Ce  Ce15  1  0.75000000  0.57436222  0.69551145  1
  Bi  Bi16  1  0.25000000  0.42883964  0.56054316  1
  Bi  Bi17  1  0.25000000  0.07116036  0.06054316  1
  Bi  Bi18  1  0.75000000  0.57116036  0.43945684  1
  Bi  Bi19  1  0.75000000  0.92883964  0.93945684  1
  Bi  Bi20  1  0.25000000  0.55950785  0.93377835  1
  Bi  Bi21  1  0.25000000  0.94049215  0.43377835  1
  Bi  Bi22  1  0.75000000  0.44049215  0.06622165  1
  Bi  Bi23  1  0.75000000  0.05950785  0.56622165  1
  S  S24  1  0.25000000  0.38493021  0.99526109  1
  S  S25  1  0.25000000  0.11506979  0.49526109  1
  S  S26  1  0.75000000  0.61506979  0.00473891  1
  S  S27  1  0.75000000  0.88493021  0.50473891  1
  S  S28  1  0.25000000  0.10652431  0.63637374  1
  S  S29  1  0.25000000  0.39347569  0.13637374  1
  S  S30  1  0.75000000  0.89347569  0.36362626  1
  S  S31  1  0.75000000  0.60652431  0.86362626  1
  S  S32  1  0.25000000  0.10055884  0.95680353  1
  S  S33  1  0.25000000  0.39944116  0.45680353  1
  S  S34  1  0.75000000  0.89944116  0.04319647  1
  S  S35  1  0.75000000  0.60055884  0.54319647  1
  S  S36  1  0.25000000  0.71142213  0.44208349  1
  S  S37  1  0.25000000  0.78857787  0.94208349  1
  S  S38  1  0.75000000  0.28857787  0.55791651  1
  S  S39  1  0.75000000  0.21142213  0.05791651  1
  S  S40  1  0.25000000  0.53722803  0.76790746  1
  S  S41  1  0.25000000  0.96277197  0.26790746  1
  S  S42  1  0.75000000  0.46277197  0.23209254  1
  S  S43  1  0.75000000  0.03722803  0.73209254  1
  S  S44  1  0.25000000  0.37424820  0.88497285  1
  S  S45  1  0.25000000  0.12575180  0.38497285  1
  S  S46  1  0.75000000  0.62575180  0.11502715  1
  S  S47  1  0.75000000  0.87424820  0.61502715  1
  S  S48  1  0.25000000  0.41093540  0.65826321  1
  S  S49  1  0.25000000  0.08906460  0.15826321  1
  S  S50  1  0.75000000  0.58906460  0.34173679  1
  S  S51  1  0.75000000  0.91093540  0.84173679  1
  S  S52  1  0.25000000  0.27229995  0.75496900  1
  S  S53  1  0.25000000  0.22770005  0.25496900  1
  S  S54  1  0.75000000  0.72770005  0.24503100  1
  S  S55  1  0.75000000  0.77229995  0.74503100  1
  S  S56  1  0.25000000  0.68472599  0.64959500  1
  S  S57  1  0.25000000  0.81527401  0.14959500  1
  S  S58  1  0.75000000  0.31527401  0.35040500  1
  S  S59  1  0.75000000  0.18472599  0.85040500  1
