# generated using pymatgen
data_MnZnO2
_symmetry_space_group_name_H-M   'P 1'
_cell_length_a   3.13149606
_cell_length_b   8.16517836
_cell_length_c   8.81782949
_cell_angle_alpha   88.08667089
_cell_angle_beta   74.24972614
_cell_angle_gamma   88.05010176
_symmetry_Int_Tables_number   1
_chemical_formula_structural   MnZnO2
_chemical_formula_sum   'Mn4 Zn4 O8'
_cell_volume   216.80570822
_cell_formula_units_Z   4
loop_
 _symmetry_equiv_pos_site_id
 _symmetry_equiv_pos_as_xyz
  1  'x, y, z'
loop_
 _atom_site_type_symbol
 _atom_site_label
 _atom_site_symmetry_multiplicity
 _atom_site_fract_x
 _atom_site_fract_y
 _atom_site_fract_z
 _atom_site_occupancy
  Mn  Mn0  1  0.44358262  0.23720539  0.58621133  1
  Mn  Mn1  1  0.06670681  0.40144794  0.22986147  1
  Mn  Mn2  1  0.92786187  0.57837611  0.79836618  1
  Mn  Mn3  1  0.55254633  0.74258462  0.44191246  1
  Zn  Zn4  1  0.39282802  0.07460552  0.26614307  1
  Zn  Zn5  1  0.60433563  0.90528203  0.76219087  1
  Zn  Zn6  1  0.12379209  0.73709343  0.12894809  1
  Zn  Zn7  1  0.87348543  0.24289434  0.89928316  1
  O  O8  1  0.93510016  0.73734318  0.59935409  1
  O  O9  1  0.44087508  0.38070885  0.78410308  1
  O  O10  1  0.55465682  0.59936026  0.24399876  1
  O  O11  1  0.06086471  0.24258861  0.42880538  1
  O  O12  1  0.08956421  0.05819903  0.75789018  1
  O  O13  1  0.65498903  0.26202860  0.12147790  1
  O  O14  1  0.90740010  0.92162823  0.27044924  1
  O  O15  1  0.33969009  0.71799086  0.90662375  1
