# generated using pymatgen
data_LiB6(H5O)2
_symmetry_space_group_name_H-M   'P 1'
_cell_length_a   7.22854899
_cell_length_b   7.22854899
_cell_length_c   7.39779290
_cell_angle_alpha   68.78437200
_cell_angle_beta   68.78437200
_cell_angle_gamma   80.91760511
_symmetry_Int_Tables_number   1
_chemical_formula_structural   LiB6(H5O)2
_chemical_formula_sum   'Li2 B12 H20 O4'
_cell_volume   335.76692248
_cell_formula_units_Z   2
loop_
 _symmetry_equiv_pos_site_id
 _symmetry_equiv_pos_as_xyz
  1  'x, y, z'
loop_
 _atom_site_type_symbol
 _atom_site_label
 _atom_site_symmetry_multiplicity
 _atom_site_fract_x
 _atom_site_fract_y
 _atom_site_fract_z
 _atom_site_occupancy
  Li  Li0  1  0.64424454  0.64424454  0.48220298  1
  Li  Li1  1  0.35575546  0.35575546  0.51779702  1
  B  B2  1  0.00625092  0.19508750  0.78685008  1
  B  B3  1  0.19508750  0.00625092  0.78685008  1
  B  B4  1  0.99374908  0.80491250  0.21314992  1
  B  B5  1  0.80491250  0.99374908  0.21314992  1
  B  B6  1  0.91436754  0.22066310  0.03391185  1
  B  B7  1  0.22066310  0.91436754  0.03391185  1
  B  B8  1  0.08563246  0.77933690  0.96608815  1
  B  B9  1  0.77933690  0.08563246  0.96608815  1
  B  B10  1  0.82876023  0.82876023  0.07623505  1
  B  B11  1  0.17123977  0.17123977  0.92376495  1
  B  B12  1  0.04716902  0.04716902  0.18774982  1
  B  B13  1  0.95283098  0.95283098  0.81225018  1
  H  H14  1  0.24734693  0.70013807  0.61763576  1
  H  H15  1  0.70013807  0.24734693  0.61763576  1
  H  H16  1  0.75265307  0.29986193  0.38236424  1
  H  H17  1  0.29986193  0.75265307  0.38236424  1
  H  H18  1  0.55186595  0.71628127  0.83819512  1
  H  H19  1  0.71628127  0.55186595  0.83819512  1
  H  H20  1  0.44813405  0.28371873  0.16180488  1
  H  H21  1  0.28371873  0.44813405  0.16180488  1
  H  H22  1  0.01235751  0.33480987  0.63437854  1
  H  H23  1  0.33480987  0.01235751  0.63437854  1
  H  H24  1  0.98764249  0.66519013  0.36562146  1
  H  H25  1  0.66519013  0.98764249  0.36562146  1
  H  H26  1  0.85435603  0.37824312  0.05720461  1
  H  H27  1  0.37824312  0.85435603  0.05720461  1
  H  H28  1  0.14564397  0.62175688  0.94279539  1
  H  H29  1  0.62175688  0.14564397  0.94279539  1
  H  H30  1  0.70654681  0.70654681  0.13195798  1
  H  H31  1  0.29345319  0.29345319  0.86804202  1
  H  H32  1  0.08075121  0.08075121  0.31959947  1
  H  H33  1  0.91924879  0.91924879  0.68040053  1
  O  O34  1  0.33774934  0.66225066  0.50000000  1
  O  O35  1  0.66225066  0.33774934  0.50000000  1
  O  O36  1  0.62391108  0.62391108  0.76588053  1
  O  O37  1  0.37608892  0.37608892  0.23411947  1
