# generated using pymatgen
data_Y2(MoO4)3
_symmetry_space_group_name_H-M   'P 1'
_cell_length_a   7.46026770
_cell_length_b   7.46026770
_cell_length_c   10.75411518
_cell_angle_alpha   90.00000000
_cell_angle_beta   90.00000000
_cell_angle_gamma   90.00000000
_symmetry_Int_Tables_number   1
_chemical_formula_structural   Y2(MoO4)3
_chemical_formula_sum   'Y4 Mo6 O24'
_cell_volume   598.52666996
_cell_formula_units_Z   2
loop_
 _symmetry_equiv_pos_site_id
 _symmetry_equiv_pos_as_xyz
  1  'x, y, z'
loop_
 _atom_site_type_symbol
 _atom_site_label
 _atom_site_symmetry_multiplicity
 _atom_site_fract_x
 _atom_site_fract_y
 _atom_site_fract_z
 _atom_site_occupancy
  Y  Y0  1  0.68660794  0.18660794  0.26175969  1
  Y  Y1  1  0.81339206  0.68660794  0.73824031  1
  Y  Y2  1  0.31339206  0.81339206  0.26175969  1
  Y  Y3  1  0.18660794  0.31339206  0.73824031  1
  Mo  Mo4  1  0.50000000  0.50000000  -0.00000000  1
  Mo  Mo5  1  -0.00000000  -0.00000000  -0.00000000  1
  Mo  Mo6  1  0.70597078  0.20597078  0.64293631  1
  Mo  Mo7  1  0.79402922  0.70597078  0.35706369  1
  Mo  Mo8  1  0.29402922  0.79402922  0.64293631  1
  Mo  Mo9  1  0.20597078  0.29402922  0.35706369  1
  O  O10  1  0.30995640  0.45616847  0.90274778  1
  O  O11  1  0.19004360  0.95616847  0.09725222  1
  O  O12  1  0.69004360  0.54383153  0.90274778  1
  O  O13  1  0.80995640  0.04383153  0.09725222  1
  O  O14  1  0.54383153  0.30995640  0.09725222  1
  O  O15  1  0.95616847  0.80995640  0.90274778  1
  O  O16  1  0.45616847  0.69004360  0.09725222  1
  O  O17  1  0.04383153  0.19004360  0.90274778  1
  O  O18  1  0.99277598  0.22598132  0.29884653  1
  O  O19  1  0.50722402  0.72598132  0.70115347  1
  O  O20  1  0.00722402  0.77401868  0.29884653  1
  O  O21  1  0.49277598  0.27401868  0.70115347  1
  O  O22  1  0.77401868  0.99277598  0.70115347  1
  O  O23  1  0.72598132  0.49277598  0.29884653  1
  O  O24  1  0.22598132  0.00722402  0.70115347  1
  O  O25  1  0.27401868  0.50722402  0.29884653  1
  O  O26  1  0.69387025  0.19387025  0.47790121  1
  O  O27  1  0.80612975  0.69387025  0.52209879  1
  O  O28  1  0.30612975  0.80612975  0.47790121  1
  O  O29  1  0.19387025  0.30612975  0.52209879  1
  O  O30  1  0.87301980  0.37301980  0.69141588  1
  O  O31  1  0.62698020  0.87301980  0.30858412  1
  O  O32  1  0.12698020  0.62698020  0.69141588  1
  O  O33  1  0.37301980  0.12698020  0.30858412  1
