# generated using pymatgen
data_Ca4Ce2TiSi4(BO6)4
_symmetry_space_group_name_H-M   'P 1'
_cell_length_a   4.80780029
_cell_length_b   10.36760403
_cell_length_c   17.97094493
_cell_angle_alpha   100.35993088
_cell_angle_beta   90.00000000
_cell_angle_gamma   90.00000000
_symmetry_Int_Tables_number   1
_chemical_formula_structural   Ca4Ce2TiSi4(BO6)4
_chemical_formula_sum   'Ca8 Ce4 Ti2 Si8 B8 O48'
_cell_volume   881.16510545
_cell_formula_units_Z   2
loop_
 _symmetry_equiv_pos_site_id
 _symmetry_equiv_pos_as_xyz
  1  'x, y, z'
loop_
 _atom_site_type_symbol
 _atom_site_label
 _atom_site_symmetry_multiplicity
 _atom_site_fract_x
 _atom_site_fract_y
 _atom_site_fract_z
 _atom_site_occupancy
  Ca  Ca0  1  0.00010768  0.41571400  0.75345563  1
  Ca  Ca1  1  0.00010768  0.08428600  0.74654437  1
  Ca  Ca2  1  0.99989232  0.58428600  0.24654437  1
  Ca  Ca3  1  0.99989232  0.91571400  0.25345563  1
  Ca  Ca4  1  0.96507227  0.77370391  0.84393717  1
  Ca  Ca5  1  0.96507227  0.72629609  0.65606283  1
  Ca  Ca6  1  0.03492773  0.22629609  0.15606283  1
  Ca  Ca7  1  0.03492773  0.27370391  0.34393717  1
  Ce  Ce8  1  0.01624636  0.19110187  0.53606688  1
  Ce  Ce9  1  0.01624636  0.30889813  0.96393312  1
  Ce  Ce10  1  0.98375364  0.80889813  0.46393312  1
  Ce  Ce11  1  0.98375364  0.69110187  0.03606688  1
  Ti  Ti12  1  0.00000000  0.50000000  0.50000000  1
  Ti  Ti13  1  0.00000000  -0.00000000  -0.00000000  1
  Si  Si14  1  0.48538401  0.95657695  0.60176946  1
  Si  Si15  1  0.48538401  0.54342305  0.89823054  1
  Si  Si16  1  0.51461599  0.04342305  0.39823054  1
  Si  Si17  1  0.51461599  0.45657695  0.10176946  1
  Si  Si18  1  0.50248532  0.04862769  0.88560718  1
  Si  Si19  1  0.50248532  0.45137231  0.61439282  1
  Si  Si20  1  0.49751468  0.95137231  0.11439282  1
  Si  Si21  1  0.49751468  0.54862769  0.38560718  1
  B  B22  1  0.52636975  0.22086966  0.67155880  1
  B  B23  1  0.52636975  0.27913034  0.82844120  1
  B  B24  1  0.47363025  0.77913034  0.32844120  1
  B  B25  1  0.47363025  0.72086966  0.17155880  1
  B  B26  1  0.46371805  0.87877915  0.74554920  1
  B  B27  1  0.46371805  0.62122085  0.75445080  1
  B  B28  1  0.53628195  0.12122085  0.25445080  1
  B  B29  1  0.53628195  0.37877915  0.24554920  1
  O  O30  1  0.24101420  0.52062526  0.95904005  1
  O  O31  1  0.24101420  0.97937474  0.54095995  1
  O  O32  1  0.75898580  0.47937474  0.04095995  1
  O  O33  1  0.75898580  0.02062526  0.45904005  1
  O  O34  1  0.31840363  0.58124512  0.82432813  1
  O  O35  1  0.31840363  0.91875488  0.67567187  1
  O  O36  1  0.68159637  0.41875488  0.17567187  1
  O  O37  1  0.68159637  0.08124512  0.32432813  1
  O  O38  1  0.71010798  0.84448443  0.56747193  1
  O  O39  1  0.71010798  0.65551557  0.93252807  1
  O  O40  1  0.28989202  0.15551557  0.43252807  1
  O  O41  1  0.28989202  0.34448443  0.06747193  1
  O  O42  1  0.66583394  0.09451894  0.63163766  1
  O  O43  1  0.66583394  0.40548106  0.86836234  1
  O  O44  1  0.33416606  0.90548106  0.36836234  1
  O  O45  1  0.33416606  0.59451894  0.13163766  1
  O  O46  1  0.16187062  0.82791137  0.97030876  1
  O  O47  1  0.16187062  0.67208863  0.52969124  1
  O  O48  1  0.83812938  0.17208863  0.02969124  1
  O  O49  1  0.83812938  0.32791137  0.47030876  1
  O  O50  1  0.75487151  0.61172859  0.75512262  1
  O  O51  1  0.75487151  0.88827141  0.74487738  1
  O  O52  1  0.24512849  0.38827141  0.24487738  1
  O  O53  1  0.24512849  0.11172859  0.25512262  1
  O  O54  1  0.23157521  0.21954246  0.66354057  1
  O  O55  1  0.23157521  0.28045754  0.83645943  1
  O  O56  1  0.76842479  0.78045754  0.33645943  1
  O  O57  1  0.76842479  0.71954246  0.16354057  1
  O  O58  1  0.67421450  0.32149190  0.63246308  1
  O  O59  1  0.67421450  0.17850810  0.86753692  1
  O  O60  1  0.32578550  0.67850810  0.36753692  1
  O  O61  1  0.32578550  0.82149190  0.13246308  1
  O  O62  1  0.33141655  0.97281422  0.81130158  1
  O  O63  1  0.33141655  0.52718578  0.68869842  1
  O  O64  1  0.66858345  0.02718578  0.18869842  1
  O  O65  1  0.66858345  0.47281422  0.31130158  1
  O  O66  1  0.73770242  0.54289775  0.58593403  1
  O  O67  1  0.73770242  0.95710225  0.91406597  1
  O  O68  1  0.26229758  0.45710225  0.41406597  1
  O  O69  1  0.26229758  0.04289775  0.08593403  1
  O  O70  1  0.25064706  0.39845585  0.55626971  1
  O  O71  1  0.25064706  0.10154415  0.94373029  1
  O  O72  1  0.74935294  0.60154415  0.44373029  1
  O  O73  1  0.74935294  0.89845585  0.05626971  1
  O  O74  1  0.33815836  0.75000000  0.75000000  1
  O  O75  1  0.66184164  0.25000000  0.25000000  1
  O  O76  1  0.63761195  0.25000000  0.75000000  1
  O  O77  1  0.36238805  0.75000000  0.25000000  1
