# generated using pymatgen
data_Nb3(CrSi)8
_symmetry_space_group_name_H-M   'P 1'
_cell_length_a   4.82603927
_cell_length_b   13.12213074
_cell_length_c   15.71283503
_cell_angle_alpha   90.00000000
_cell_angle_beta   90.00000000
_cell_angle_gamma   90.00000000
_symmetry_Int_Tables_number   1
_chemical_formula_structural   Nb3(CrSi)8
_chemical_formula_sum   'Nb12 Cr32 Si32'
_cell_volume   995.06113237
_cell_formula_units_Z   4
loop_
 _symmetry_equiv_pos_site_id
 _symmetry_equiv_pos_as_xyz
  1  'x, y, z'
loop_
 _atom_site_type_symbol
 _atom_site_label
 _atom_site_symmetry_multiplicity
 _atom_site_fract_x
 _atom_site_fract_y
 _atom_site_fract_z
 _atom_site_occupancy
  Nb  Nb0  1  0.25000000  0.56498896  0.30525919  1
  Nb  Nb1  1  0.25000000  0.06498896  0.19474081  1
  Nb  Nb2  1  0.75000000  0.43501104  0.69474081  1
  Nb  Nb3  1  0.75000000  0.93501104  0.80525919  1
  Nb  Nb4  1  0.25000000  0.86550046  0.45715956  1
  Nb  Nb5  1  0.25000000  0.36550046  0.04284044  1
  Nb  Nb6  1  0.75000000  0.13449954  0.54284044  1
  Nb  Nb7  1  0.75000000  0.63449954  0.95715956  1
  Nb  Nb8  1  0.25000000  0.75150344  0.02817877  1
  Nb  Nb9  1  0.25000000  0.25150344  0.47182123  1
  Nb  Nb10  1  0.75000000  0.24849656  0.97182123  1
  Nb  Nb11  1  0.75000000  0.74849656  0.52817877  1
  Cr  Cr12  1  0.99182671  0.86581114  0.17259179  1
  Cr  Cr13  1  0.50817329  0.36581114  0.32740821  1
  Cr  Cr14  1  0.49182671  0.13418886  0.82740821  1
  Cr  Cr15  1  0.00817329  0.63418886  0.67259179  1
  Cr  Cr16  1  0.00817329  0.13418886  0.82740821  1
  Cr  Cr17  1  0.49182671  0.63418886  0.67259179  1
  Cr  Cr18  1  0.50817329  0.86581114  0.17259179  1
  Cr  Cr19  1  0.99182671  0.36581114  0.32740821  1
  Cr  Cr20  1  0.00918266  0.56008797  0.12297347  1
  Cr  Cr21  1  0.49081734  0.06008797  0.37702653  1
  Cr  Cr22  1  0.50918266  0.43991203  0.87702653  1
  Cr  Cr23  1  0.99081734  0.93991203  0.62297347  1
  Cr  Cr24  1  0.99081734  0.43991203  0.87702653  1
  Cr  Cr25  1  0.50918266  0.93991203  0.62297347  1
  Cr  Cr26  1  0.49081734  0.56008797  0.12297347  1
  Cr  Cr27  1  0.00918266  0.06008797  0.37702653  1
  Cr  Cr28  1  0.25000000  0.63661051  0.84383676  1
  Cr  Cr29  1  0.25000000  0.13661051  0.65616324  1
  Cr  Cr30  1  0.75000000  0.36338949  0.15616324  1
  Cr  Cr31  1  0.75000000  0.86338949  0.34383676  1
  Cr  Cr32  1  0.25000000  0.95762840  0.90613891  1
  Cr  Cr33  1  0.25000000  0.45762840  0.59386109  1
  Cr  Cr34  1  0.75000000  0.04237160  0.09386109  1
  Cr  Cr35  1  0.75000000  0.54237160  0.40613891  1
  Cr  Cr36  1  0.25000000  0.62261676  0.50681928  1
  Cr  Cr37  1  0.25000000  0.12261676  0.99318072  1
  Cr  Cr38  1  0.75000000  0.37738324  0.49318072  1
  Cr  Cr39  1  0.75000000  0.87738324  0.00681928  1
  Cr  Cr40  1  0.25000000  0.81150643  0.75028501  1
  Cr  Cr41  1  0.25000000  0.31150643  0.74971499  1
  Cr  Cr42  1  0.75000000  0.18849357  0.24971499  1
  Cr  Cr43  1  0.75000000  0.68849357  0.25028501  1
  Si  Si44  1  0.00035078  0.71136724  0.38191639  1
  Si  Si45  1  0.49964922  0.21136724  0.11808361  1
  Si  Si46  1  0.50035078  0.28863276  0.61808361  1
  Si  Si47  1  -0.00035078  0.78863276  0.88191639  1
  Si  Si48  1  -0.00035078  0.28863276  0.61808361  1
  Si  Si49  1  0.50035078  0.78863276  0.88191639  1
  Si  Si50  1  0.49964922  0.71136724  0.38191639  1
  Si  Si51  1  0.00035078  0.21136724  0.11808361  1
  Si  Si52  1  0.25000000  0.70937260  0.19475446  1
  Si  Si53  1  0.25000000  0.20937260  0.30524554  1
  Si  Si54  1  0.75000000  0.29062740  0.80524554  1
  Si  Si55  1  0.75000000  0.79062740  0.69475446  1
  Si  Si56  1  0.25000000  0.91067399  0.30106723  1
  Si  Si57  1  0.25000000  0.41067399  0.19893277  1
  Si  Si58  1  0.75000000  0.08932601  0.69893277  1
  Si  Si59  1  0.75000000  0.58932601  0.80106723  1
  Si  Si60  1  0.25000000  0.55022158  0.98181050  1
  Si  Si61  1  0.25000000  0.05022158  0.51818950  1
  Si  Si62  1  0.75000000  0.44977842  0.01818950  1
  Si  Si63  1  0.75000000  0.94977842  0.48181050  1
  Si  Si64  1  0.25000000  0.95207851  0.05697681  1
  Si  Si65  1  0.25000000  0.45207851  0.44302319  1
  Si  Si66  1  0.75000000  0.04792149  0.94302319  1
  Si  Si67  1  0.75000000  0.54792149  0.55697681  1
  Si  Si68  1  0.25000000  0.77448542  0.60341059  1
  Si  Si69  1  0.25000000  0.27448542  0.89658941  1
  Si  Si70  1  0.75000000  0.22551458  0.39658941  1
  Si  Si71  1  0.75000000  0.72551458  0.10341059  1
  Si  Si72  1  0.25000000  0.99630119  0.75223868  1
  Si  Si73  1  0.25000000  0.49630119  0.74776132  1
  Si  Si74  1  0.75000000  0.00369881  0.24776132  1
  Si  Si75  1  0.75000000  0.50369881  0.25223868  1
