# generated using pymatgen
data_Gd4(SiS4)3
_symmetry_space_group_name_H-M   'P 1'
_cell_length_a   7.84590289
_cell_length_b   11.27702849
_cell_length_c   11.27702865
_cell_angle_alpha   114.79190648
_cell_angle_beta   103.40978228
_cell_angle_gamma   103.40978252
_symmetry_Int_Tables_number   1
_chemical_formula_structural   Gd4(SiS4)3
_chemical_formula_sum   'Gd8 Si6 S24'
_cell_volume   817.62312587
_cell_formula_units_Z   2
loop_
 _symmetry_equiv_pos_site_id
 _symmetry_equiv_pos_as_xyz
  1  'x, y, z'
loop_
 _atom_site_type_symbol
 _atom_site_label
 _atom_site_symmetry_multiplicity
 _atom_site_fract_x
 _atom_site_fract_y
 _atom_site_fract_z
 _atom_site_occupancy
  Gd  Gd0  1  0.50142979  0.00000000  0.00000000  1
  Gd  Gd1  1  0.00142979  0.00000000  0.00000000  1
  Gd  Gd2  1  0.06949132  0.54064618  0.77609779  1
  Gd  Gd3  1  0.29339352  0.22390221  0.76454838  1
  Gd  Gd4  1  0.52884514  0.23545162  0.45935382  1
  Gd  Gd5  1  0.56949132  0.77609779  0.54064618  1
  Gd  Gd6  1  0.02884514  0.45935382  0.23545162  1
  Gd  Gd7  1  0.79339352  0.76454838  0.22390221  1
  Si  Si8  1  0.35924348  0.82681515  0.21296389  1
  Si  Si9  1  0.14627959  0.78703611  0.61385127  1
  Si  Si10  1  0.53242833  0.38614873  0.17318485  1
  Si  Si11  1  0.85924348  0.21296389  0.82681515  1
  Si  Si12  1  0.03242833  0.17318485  0.38614873  1
  Si  Si13  1  0.64627959  0.61385127  0.78703611  1
  S  S14  1  0.11100401  0.39391315  0.92440237  1
  S  S15  1  0.18660164  0.07559763  0.46951078  1
  S  S16  1  0.71709086  0.53048922  0.60608685  1
  S  S17  1  0.61100401  0.92440237  0.39391315  1
  S  S18  1  0.21709086  0.60608685  0.53048922  1
  S  S19  1  0.68660164  0.46951078  0.07559763  1
  S  S20  1  0.31430918  0.99875554  0.18583867  1
  S  S21  1  0.12847051  0.81416133  0.81291687  1
  S  S22  1  0.31555364  0.18708313  0.00124446  1
  S  S23  1  0.81430918  0.18583867  0.99875554  1
  S  S24  1  0.81555364  0.00124446  0.18708313  1
  S  S25  1  0.62847051  0.81291687  0.81416133  1
  S  S26  1  0.41375551  0.71229788  0.03132086  1
  S  S27  1  0.38243465  0.96867914  0.68097702  1
  S  S28  1  0.70145763  0.31902298  0.28770212  1
  S  S29  1  0.91375551  0.03132086  0.71229788  1
  S  S30  1  0.20145763  0.28770212  0.31902298  1
  S  S31  1  0.88243465  0.68097702  0.96867914  1
  S  S32  1  0.64689339  0.26701978  0.72844918  1
  S  S33  1  0.91844422  0.27155082  0.53857061  1
  S  S34  1  0.37987361  0.46142939  0.73298022  1
  S  S35  1  0.14689339  0.72844918  0.26701978  1
  S  S36  1  0.87987361  0.73298022  0.46142939  1
  S  S37  1  0.41844422  0.53857061  0.27155082  1
