# generated using pymatgen
data_Sm(MnSn)6
_symmetry_space_group_name_H-M   'P 1'
_cell_length_a   5.49302847
_cell_length_b   9.04762323
_cell_length_c   15.17442545
_cell_angle_alpha   107.34476796
_cell_angle_beta   100.42779441
_cell_angle_gamma   90.00000000
_symmetry_Int_Tables_number   1
_chemical_formula_structural   Sm(MnSn)6
_chemical_formula_sum   'Sm3 Mn18 Sn18'
_cell_volume   706.79906162
_cell_formula_units_Z   3
loop_
 _symmetry_equiv_pos_site_id
 _symmetry_equiv_pos_as_xyz
  1  'x, y, z'
loop_
 _atom_site_type_symbol
 _atom_site_label
 _atom_site_symmetry_multiplicity
 _atom_site_fract_x
 _atom_site_fract_y
 _atom_site_fract_z
 _atom_site_occupancy
  Sm  Sm0  1  0.66853810  0.16853810  0.33707619  1
  Sm  Sm1  1  0.33146190  0.83146190  0.66292381  1
  Sm  Sm2  1  -0.00000000  0.00000000  -0.00000000  1
  Mn  Mn3  1  0.50000000  0.24903143  -0.00000000  1
  Mn  Mn4  1  0.50000000  0.75096857  -0.00000000  1
  Mn  Mn5  1  -0.00000000  0.50000000  0.50000000  1
  Mn  Mn6  1  -0.00000000  0.00000000  0.50000000  1
  Mn  Mn7  1  0.50000000  0.00000000  0.50000000  1
  Mn  Mn8  1  0.50000000  0.50000000  0.50000000  1
  Mn  Mn9  1  0.83332035  0.58336364  0.66664069  1
  Mn  Mn10  1  0.16667965  0.91672295  0.33335931  1
  Mn  Mn11  1  0.83332035  0.08327705  0.66664069  1
  Mn  Mn12  1  0.16667965  0.41663636  0.33335931  1
  Mn  Mn13  1  0.83404141  0.33241968  0.16662452  1
  Mn  Mn14  1  0.16595859  0.16579516  0.83337548  1
  Mn  Mn15  1  0.33258311  0.83420484  0.16662452  1
  Mn  Mn16  1  0.66741689  0.66758032  0.83337548  1
  Mn  Mn17  1  0.16595859  0.66758032  0.83337548  1
  Mn  Mn18  1  0.83404141  0.83420484  0.16662452  1
  Mn  Mn19  1  0.66741689  0.16579516  0.83337548  1
  Mn  Mn20  1  0.33258311  0.33241968  0.16662452  1
  Sn  Sn21  1  0.55587320  0.05587320  0.11174640  1
  Sn  Sn22  1  0.44412680  0.94412680  0.88825360  1
  Sn  Sn23  1  0.55543443  0.55543443  0.11086886  1
  Sn  Sn24  1  0.44456557  0.44456557  0.88913114  1
  Sn  Sn25  1  0.11196671  0.11196671  0.22393342  1
  Sn  Sn26  1  0.88803329  0.88803329  0.77606658  1
  Sn  Sn27  1  0.11013227  0.61013227  0.22026455  1
  Sn  Sn28  1  0.88986773  0.38986773  0.77973545  1
  Sn  Sn29  1  0.22390288  0.22390288  0.44780575  1
  Sn  Sn30  1  0.77609712  0.77609712  0.55219425  1
  Sn  Sn31  1  0.21998722  0.71998722  0.43997443  1
  Sn  Sn32  1  0.78001278  0.28001278  0.56002557  1
  Sn  Sn33  1  -0.00000000  0.33383699  -0.00000000  1
  Sn  Sn34  1  -0.00000000  0.66616301  -0.00000000  1
  Sn  Sn35  1  0.66630899  0.49991868  0.33261798  1
  Sn  Sn36  1  0.33369101  0.16730070  0.66738202  1
  Sn  Sn37  1  0.66630899  0.83269930  0.33261798  1
  Sn  Sn38  1  0.33369101  0.50008132  0.66738202  1
