# generated using pymatgen
data_Mg2TiIrO6
_symmetry_space_group_name_H-M   'P 1'
_cell_length_a   5.15097922
_cell_length_b   5.32752294
_cell_length_c   7.52393928
_cell_angle_alpha   90.00000000
_cell_angle_beta   90.35114892
_cell_angle_gamma   90.00000000
_symmetry_Int_Tables_number   1
_chemical_formula_structural   Mg2TiIrO6
_chemical_formula_sum   'Mg4 Ti2 Ir2 O12'
_cell_volume   206.46776259
_cell_formula_units_Z   2
loop_
 _symmetry_equiv_pos_site_id
 _symmetry_equiv_pos_as_xyz
  1  'x, y, z'
loop_
 _atom_site_type_symbol
 _atom_site_label
 _atom_site_symmetry_multiplicity
 _atom_site_fract_x
 _atom_site_fract_y
 _atom_site_fract_z
 _atom_site_occupancy
  Mg  Mg0  1  0.00993589  0.94240690  0.24993021  1
  Mg  Mg1  1  0.49006411  0.44240690  0.25006979  1
  Mg  Mg2  1  0.50993589  0.55759310  0.74993021  1
  Mg  Mg3  1  0.99006411  0.05759310  0.75006979  1
  Ti  Ti4  1  0.00000000  0.50000000  0.00000000  1
  Ti  Ti5  1  0.50000000  0.00000000  0.50000000  1
  Ir  Ir6  1  0.00000000  0.50000000  0.50000000  1
  Ir  Ir7  1  0.50000000  0.00000000  0.00000000  1
  O  O8  1  0.13059183  0.43572027  0.75183790  1
  O  O9  1  0.17775810  0.18958873  0.06977049  1
  O  O10  1  0.18441428  0.18354918  0.43343725  1
  O  O11  1  0.31558572  0.68354918  0.06656275  1
  O  O12  1  0.32224190  0.68958873  0.43022951  1
  O  O13  1  0.36940817  0.93572027  0.74816210  1
  O  O14  1  0.63059183  0.06427973  0.25183790  1
  O  O15  1  0.67775810  0.31041127  0.56977049  1
  O  O16  1  0.68441428  0.31645082  0.93343725  1
  O  O17  1  0.82224190  0.81041127  0.93022951  1
  O  O18  1  0.81558572  0.81645082  0.56656275  1
  O  O19  1  0.86940817  0.56427973  0.24816210  1
