# generated using pymatgen
data_Zn3P2
_symmetry_space_group_name_H-M   'P 1'
_cell_length_a   9.90585095
_cell_length_b   9.90585095
_cell_length_c   9.90585095
_cell_angle_alpha   109.47122063
_cell_angle_beta   109.47122063
_cell_angle_gamma   109.47122063
_symmetry_Int_Tables_number   1
_chemical_formula_structural   Zn3P2
_chemical_formula_sum   'Zn24 P16'
_cell_volume   748.26163007
_cell_formula_units_Z   8
loop_
 _symmetry_equiv_pos_site_id
 _symmetry_equiv_pos_as_xyz
  1  'x, y, z'
loop_
 _atom_site_type_symbol
 _atom_site_label
 _atom_site_symmetry_multiplicity
 _atom_site_fract_x
 _atom_site_fract_y
 _atom_site_fract_z
 _atom_site_occupancy
  Zn  Zn0  1  0.97555643  0.72773985  0.96451145  1
  Zn  Zn1  1  0.73677160  0.77226015  0.24781657  1
  Zn  Zn2  1  0.52444357  0.98895503  0.25218343  1
  Zn  Zn3  1  0.76322840  0.51104497  0.53548855  1
  Zn  Zn4  1  0.72773985  0.96451145  0.97555643  1
  Zn  Zn5  1  0.77226015  0.24781657  0.73677160  1
  Zn  Zn6  1  0.98895503  0.25218343  0.52444357  1
  Zn  Zn7  1  0.51104497  0.53548855  0.76322840  1
  Zn  Zn8  1  0.96451145  0.97555643  0.72773985  1
  Zn  Zn9  1  0.24781657  0.73677160  0.77226015  1
  Zn  Zn10  1  0.25218343  0.52444357  0.98895503  1
  Zn  Zn11  1  0.53548855  0.76322840  0.51104497  1
  Zn  Zn12  1  0.02444357  0.27226015  0.03548855  1
  Zn  Zn13  1  0.26322840  0.22773985  0.75218343  1
  Zn  Zn14  1  0.47555643  0.01104497  0.74781657  1
  Zn  Zn15  1  0.23677160  0.48895503  0.46451145  1
  Zn  Zn16  1  0.27226015  0.03548855  0.02444357  1
  Zn  Zn17  1  0.22773985  0.75218343  0.26322840  1
  Zn  Zn18  1  0.01104497  0.74781657  0.47555643  1
  Zn  Zn19  1  0.48895503  0.46451145  0.23677160  1
  Zn  Zn20  1  0.03548855  0.02444357  0.27226015  1
  Zn  Zn21  1  0.75218343  0.26322840  0.22773985  1
  Zn  Zn22  1  0.74781657  0.47555643  0.01104497  1
  Zn  Zn23  1  0.46451145  0.23677160  0.48895503  1
  P  P24  1  0.00000000  0.50000000  -0.00000000  1
  P  P25  1  0.00000000  0.00000000  0.50000000  1
  P  P26  1  0.50000000  0.00000000  -0.00000000  1
  P  P27  1  0.50000000  0.50000000  0.50000000  1
  P  P28  1  0.26023738  0.75000000  0.51023738  1
  P  P29  1  0.23976262  0.25000000  0.98976262  1
  P  P30  1  0.75000000  0.51023738  0.26023738  1
  P  P31  1  0.25000000  0.98976262  0.23976262  1
  P  P32  1  0.51023738  0.26023738  0.75000000  1
  P  P33  1  0.98976262  0.23976262  0.25000000  1
  P  P34  1  0.73976262  0.25000000  0.48976262  1
  P  P35  1  0.76023738  0.75000000  0.01023738  1
  P  P36  1  0.25000000  0.48976262  0.73976262  1
  P  P37  1  0.75000000  0.01023738  0.76023738  1
  P  P38  1  0.48976262  0.73976262  0.25000000  1
  P  P39  1  0.01023738  0.76023738  0.75000000  1
