# generated using pymatgen
data_Ce5Rh3
_symmetry_space_group_name_H-M   'P 1'
_cell_length_a   5.92054403
_cell_length_b   11.32892666
_cell_length_c   11.32892666
_cell_angle_alpha   90.00000000
_cell_angle_beta   90.00000000
_cell_angle_gamma   90.00000000
_symmetry_Int_Tables_number   1
_chemical_formula_structural   Ce5Rh3
_chemical_formula_sum   'Ce20 Rh12'
_cell_volume   759.86973257
_cell_formula_units_Z   4
loop_
 _symmetry_equiv_pos_site_id
 _symmetry_equiv_pos_as_xyz
  1  'x, y, z'
loop_
 _atom_site_type_symbol
 _atom_site_label
 _atom_site_symmetry_multiplicity
 _atom_site_fract_x
 _atom_site_fract_y
 _atom_site_fract_z
 _atom_site_occupancy
  Ce  Ce0  1  0.36726374  0.83784361  0.53381525  1
  Ce  Ce1  1  0.86726374  0.66215639  0.53381525  1
  Ce  Ce2  1  0.86726374  0.83784361  0.96618475  1
  Ce  Ce3  1  0.36726374  0.66215639  0.96618475  1
  Ce  Ce4  1  0.86726374  0.53381525  0.83784361  1
  Ce  Ce5  1  0.36726374  0.96618475  0.83784361  1
  Ce  Ce6  1  0.36726374  0.53381525  0.66215639  1
  Ce  Ce7  1  0.86726374  0.96618475  0.66215639  1
  Ce  Ce8  1  0.63273626  0.16215639  0.46618475  1
  Ce  Ce9  1  0.13273626  0.33784361  0.46618475  1
  Ce  Ce10  1  0.13273626  0.16215639  0.03381525  1
  Ce  Ce11  1  0.63273626  0.33784361  0.03381525  1
  Ce  Ce12  1  0.13273626  0.46618475  0.16215639  1
  Ce  Ce13  1  0.63273626  0.03381525  0.16215639  1
  Ce  Ce14  1  0.63273626  0.46618475  0.33784361  1
  Ce  Ce15  1  0.13273626  0.03381525  0.33784361  1
  Ce  Ce16  1  0.50000000  0.75000000  0.25000000  1
  Ce  Ce17  1  -0.00000000  0.75000000  0.25000000  1
  Ce  Ce18  1  -0.00000000  0.25000000  0.75000000  1
  Ce  Ce19  1  0.50000000  0.25000000  0.75000000  1
  Rh  Rh20  1  0.25000000  0.91260940  0.08739060  1
  Rh  Rh21  1  0.75000000  0.58739060  0.08739060  1
  Rh  Rh22  1  0.75000000  0.91260940  0.41260940  1
  Rh  Rh23  1  0.25000000  0.58739060  0.41260940  1
  Rh  Rh24  1  0.75000000  0.08739060  0.91260940  1
  Rh  Rh25  1  0.25000000  0.41260940  0.91260940  1
  Rh  Rh26  1  0.25000000  0.08739060  0.58739060  1
  Rh  Rh27  1  0.75000000  0.41260940  0.58739060  1
  Rh  Rh28  1  0.09740651  0.75000000  0.75000000  1
  Rh  Rh29  1  0.59740651  0.75000000  0.75000000  1
  Rh  Rh30  1  0.90259349  0.25000000  0.25000000  1
  Rh  Rh31  1  0.40259349  0.25000000  0.25000000  1
