# generated using pymatgen
data_VAsO5
_symmetry_space_group_name_H-M   'P 1'
_cell_length_a   8.40051136
_cell_length_b   7.20450378
_cell_length_c   7.42073812
_cell_angle_alpha   89.98532314
_cell_angle_beta   90.03722115
_cell_angle_gamma   89.99443750
_symmetry_Int_Tables_number   1
_chemical_formula_structural   VAsO5
_chemical_formula_sum   'V4 As4 O20'
_cell_volume   449.11420747
_cell_formula_units_Z   4
loop_
 _symmetry_equiv_pos_site_id
 _symmetry_equiv_pos_as_xyz
  1  'x, y, z'
loop_
 _atom_site_type_symbol
 _atom_site_label
 _atom_site_symmetry_multiplicity
 _atom_site_fract_x
 _atom_site_fract_y
 _atom_site_fract_z
 _atom_site_occupancy
  V  V0  1  0.06165965  0.50899040  0.70424973  1
  V  V1  1  0.43866179  0.49081277  0.20449893  1
  V  V2  1  0.56130756  0.99095244  0.29551664  1
  V  V3  1  0.93842063  0.00910088  0.79572561  1
  As  As4  1  0.60754366  0.24003065  0.92550240  1
  As  As5  1  0.89237219  0.76020014  0.42545125  1
  As  As6  1  0.10763869  0.25995678  0.07460121  1
  As  As7  1  0.39244483  0.73997743  0.57437499  1
  O  O8  1  0.87914823  0.82063733  0.88969277  1
  O  O9  1  0.62067975  0.17924659  0.38942826  1
  O  O10  1  0.37920796  0.67890485  0.11047044  1
  O  O11  1  0.12086697  0.32094954  0.61045739  1
  O  O12  1  0.80516964  0.19805664  0.85064401  1
  O  O13  1  0.69447289  0.80196684  0.35045495  1
  O  O14  1  0.30554114  0.30169178  0.14954054  1
  O  O15  1  0.19478614  0.69807570  0.64939780  1
  O  O16  1  0.48467429  0.28413626  0.76003332  1
  O  O17  1  0.01497601  0.71635319  0.26016468  1
  O  O18  1  0.98508815  0.21609551  0.23996825  1
  O  O19  1  0.51534008  0.78405227  0.73990549  1
  O  O20  1  0.56728205  0.03851942  0.05596411  1
  O  O21  1  0.93243520  0.96157943  0.55613136  1
  O  O22  1  0.06754189  0.46146831  0.94392704  1
  O  O23  1  0.43268824  0.53848253  0.44402182  1
  O  O24  1  0.62371387  0.41926408  0.08741634  1
  O  O25  1  0.87640473  0.58067124  0.58722061  1
  O  O26  1  0.12363171  0.08062055  0.91284182  1
  O  O27  1  0.37624207  0.91926347  0.41250123  1
