# generated using pymatgen
data_HfZn22
_symmetry_space_group_name_H-M   'P 1'
_cell_length_a   9.99750424
_cell_length_b   9.99750424
_cell_length_c   9.99750424
_cell_angle_alpha   60.00000000
_cell_angle_beta   60.00000000
_cell_angle_gamma   60.00000000
_symmetry_Int_Tables_number   1
_chemical_formula_structural   HfZn22
_chemical_formula_sum   'Hf2 Zn44'
_cell_volume   706.57748175
_cell_formula_units_Z   2
loop_
 _symmetry_equiv_pos_site_id
 _symmetry_equiv_pos_as_xyz
  1  'x, y, z'
loop_
 _atom_site_type_symbol
 _atom_site_label
 _atom_site_symmetry_multiplicity
 _atom_site_fract_x
 _atom_site_fract_y
 _atom_site_fract_z
 _atom_site_occupancy
  Hf  Hf0  1  0.12500000  0.12500000  0.12500000  1
  Hf  Hf1  1  0.87500000  0.87500000  0.87500000  1
  Zn  Zn2  1  0.48548906  0.76451094  0.76451094  1
  Zn  Zn3  1  0.76451094  0.48548906  0.48548906  1
  Zn  Zn4  1  0.76451094  0.48548906  0.76451094  1
  Zn  Zn5  1  0.48548906  0.76451094  0.48548906  1
  Zn  Zn6  1  0.76451094  0.76451094  0.48548906  1
  Zn  Zn7  1  0.48548906  0.48548906  0.76451094  1
  Zn  Zn8  1  0.51451094  0.23548906  0.23548906  1
  Zn  Zn9  1  0.23548906  0.51451094  0.51451094  1
  Zn  Zn10  1  0.23548906  0.51451094  0.23548906  1
  Zn  Zn11  1  0.51451094  0.23548906  0.51451094  1
  Zn  Zn12  1  0.23548906  0.23548906  0.51451094  1
  Zn  Zn13  1  0.51451094  0.51451094  0.23548906  1
  Zn  Zn14  1  0.31810203  0.31810203  0.05838907  1
  Zn  Zn15  1  0.80540686  0.05838907  0.31810203  1
  Zn  Zn16  1  0.05838907  0.80540686  0.31810203  1
  Zn  Zn17  1  0.31810203  0.31810203  0.80540686  1
  Zn  Zn18  1  0.05838907  0.31810203  0.31810203  1
  Zn  Zn19  1  0.31810203  0.80540686  0.05838907  1
  Zn  Zn20  1  0.31810203  0.05838907  0.80540686  1
  Zn  Zn21  1  0.80540686  0.31810203  0.31810203  1
  Zn  Zn22  1  0.31810203  0.05838907  0.31810203  1
  Zn  Zn23  1  0.05838907  0.31810203  0.80540686  1
  Zn  Zn24  1  0.80540686  0.31810203  0.05838907  1
  Zn  Zn25  1  0.31810203  0.80540686  0.31810203  1
  Zn  Zn26  1  0.68189797  0.68189797  0.94161093  1
  Zn  Zn27  1  0.19459314  0.94161093  0.68189797  1
  Zn  Zn28  1  0.94161093  0.19459314  0.68189797  1
  Zn  Zn29  1  0.68189797  0.68189797  0.19459314  1
  Zn  Zn30  1  0.94161093  0.68189797  0.68189797  1
  Zn  Zn31  1  0.68189797  0.19459314  0.94161093  1
  Zn  Zn32  1  0.68189797  0.94161093  0.19459314  1
  Zn  Zn33  1  0.19459314  0.68189797  0.68189797  1
  Zn  Zn34  1  0.68189797  0.94161093  0.68189797  1
  Zn  Zn35  1  0.94161093  0.68189797  0.19459314  1
  Zn  Zn36  1  0.19459314  0.68189797  0.94161093  1
  Zn  Zn37  1  0.68189797  0.19459314  0.68189797  1
  Zn  Zn38  1  -0.00000000  0.00000000  0.50000000  1
  Zn  Zn39  1  -0.00000000  0.50000000  -0.00000000  1
  Zn  Zn40  1  0.50000000  0.00000000  -0.00000000  1
  Zn  Zn41  1  -0.00000000  0.00000000  -0.00000000  1
  Zn  Zn42  1  0.50000000  0.50000000  -0.00000000  1
  Zn  Zn43  1  0.50000000  0.00000000  0.50000000  1
  Zn  Zn44  1  -0.00000000  0.50000000  0.50000000  1
  Zn  Zn45  1  0.50000000  0.50000000  0.50000000  1
