# generated using pymatgen
data_Zn5P4H12C2(NO8)2
_symmetry_space_group_name_H-M   'P 1'
_cell_length_a   7.38646151
_cell_length_b   13.62613816
_cell_length_c   18.34027688
_cell_angle_alpha   90.00000000
_cell_angle_beta   90.00000000
_cell_angle_gamma   90.00000000
_symmetry_Int_Tables_number   1
_chemical_formula_structural   Zn5P4H12C2(NO8)2
_chemical_formula_sum   'Zn20 P16 H48 C8 N8 O64'
_cell_volume   1845.92951987
_cell_formula_units_Z   4
loop_
 _symmetry_equiv_pos_site_id
 _symmetry_equiv_pos_as_xyz
  1  'x, y, z'
loop_
 _atom_site_type_symbol
 _atom_site_label
 _atom_site_symmetry_multiplicity
 _atom_site_fract_x
 _atom_site_fract_y
 _atom_site_fract_z
 _atom_site_occupancy
  Zn  Zn0  1  0.51526904  0.11435657  0.29309320  1
  Zn  Zn1  1  0.98473096  0.88564343  0.79309320  1
  Zn  Zn2  1  0.01526904  0.38564343  0.70690680  1
  Zn  Zn3  1  0.48473096  0.61435657  0.20690680  1
  Zn  Zn4  1  0.50284176  0.87088458  0.27737497  1
  Zn  Zn5  1  0.99715824  0.12911542  0.77737497  1
  Zn  Zn6  1  0.00284176  0.62911542  0.72262503  1
  Zn  Zn7  1  0.49715824  0.37088458  0.22262503  1
  Zn  Zn8  1  0.85818010  0.49832608  0.41719381  1
  Zn  Zn9  1  0.64181990  0.50167392  0.91719381  1
  Zn  Zn10  1  0.35818010  0.00167392  0.58280619  1
  Zn  Zn11  1  0.14181990  0.99832608  0.08280619  1
  Zn  Zn12  1  0.05443998  0.85951539  0.30317659  1
  Zn  Zn13  1  0.44556002  0.14048461  0.80317659  1
  Zn  Zn14  1  0.55443998  0.64048461  0.69682341  1
  Zn  Zn15  1  0.94556002  0.35951539  0.19682341  1
  Zn  Zn16  1  0.05764243  0.11238190  0.31231982  1
  Zn  Zn17  1  0.44235757  0.88761810  0.81231982  1
  Zn  Zn18  1  0.55764243  0.38761810  0.68768018  1
  Zn  Zn19  1  0.94235757  0.61238190  0.18768018  1
  P  P20  1  0.31532871  0.98081187  0.40630614  1
  P  P21  1  0.18467129  0.01918813  0.90630614  1
  P  P22  1  0.81532871  0.51918813  0.59369386  1
  P  P23  1  0.68467129  0.48081187  0.09369386  1
  P  P24  1  0.74043380  0.69286196  0.32822017  1
  P  P25  1  0.75956620  0.30713804  0.82822017  1
  P  P26  1  0.24043380  0.80713804  0.67177983  1
  P  P27  1  0.25956620  0.19286196  0.17177983  1
  P  P28  1  0.75975901  0.28876256  0.34568510  1
  P  P29  1  0.74024099  0.71123744  0.84568510  1
  P  P30  1  0.25975901  0.21123744  0.65431490  1
  P  P31  1  0.24024099  0.78876256  0.15431490  1
  P  P32  1  0.80944459  0.99610138  0.20641905  1
  P  P33  1  0.69055541  0.00389862  0.70641905  1
  P  P34  1  0.30944459  0.50389862  0.79358095  1
  P  P35  1  0.19055541  0.49610138  0.29358095  1
  H  H36  1  0.26195669  0.21511851  0.46750876  1
  H  H37  1  0.23804331  0.78488149  0.96750876  1
  H  H38  1  0.76195669  0.28488149  0.53249124  1
  H  H39  1  0.73804331  0.71511851  0.03249124  1
  H  H40  1  0.38894244  0.26488556  0.40219318  1
  H  H41  1  0.11105756  0.73511444  0.90219318  1
  H  H42  1  0.88894244  0.23511444  0.59780682  1
  H  H43  1  0.61105756  0.76488556  0.09780682  1
  H  H44  1  0.16416888  0.28563107  0.40519670  1
  H  H45  1  0.33583112  0.71436893  0.90519670  1
  H  H46  1  0.66416888  0.21436893  0.59480330  1
  H  H47  1  0.83583112  0.78563107  0.09480330  1
  H  H48  1  0.16188561  0.65709465  0.41190257  1
  H  H49  1  0.33811439  0.34290535  0.91190257  1
  H  H50  1  0.66188561  0.84290535  0.58809743  1
  H  H51  1  0.83811439  0.15709465  0.08809743  1
  H  H52  1  0.37740967  0.65809234  0.38964991  1
  H  H53  1  0.12259033  0.34190766  0.88964991  1
  H  H54  1  0.87740967  0.84190766  0.61035009  1
  H  H55  1  0.62259033  0.15809234  0.11035009  1
  H  H56  1  0.28125545  0.76120000  0.41886622  1
  H  H57  1  0.21874455  0.23880000  0.91886622  1
  H  H58  1  0.78125545  0.73880000  0.58113378  1
  H  H59  1  0.71874455  0.26120000  0.08113378  1
  H  H60  1  0.23231730  0.36118970  0.53342479  1
  H  H61  1  0.26768270  0.63881030  0.03342479  1
  H  H62  1  0.73231730  0.13881030  0.46657521  1
  H  H63  1  0.76768270  0.86118970  0.96657521  1
  H  H64  1  0.27446485  0.43160301  0.45281307  1
  H  H65  1  0.22553515  0.56839699  0.95281307  1
  H  H66  1  0.77446485  0.06839699  0.54718693  1
  H  H67  1  0.72553515  0.93160301  0.04718693  1
  H  H68  1  0.45751261  0.36948270  0.49765022  1
  H  H69  1  0.04248739  0.63051730  0.99765022  1
  H  H70  1  0.95751261  0.13051730  0.50234978  1
  H  H71  1  0.54248739  0.86948270  0.00234978  1
  H  H72  1  0.43542568  0.71021702  0.52410103  1
  H  H73  1  0.06457432  0.28978298  0.02410103  1
  H  H74  1  0.93542568  0.78978298  0.47589897  1
  H  H75  1  0.56457432  0.21021702  0.97589897  1
  H  H76  1  0.39286098  0.58470986  0.50458419  1
  H  H77  1  0.10713902  0.41529014  0.00458419  1
  H  H78  1  0.89286098  0.91529014  0.49541581  1
  H  H79  1  0.60713902  0.08470986  0.99541581  1
  H  H80  1  0.21424835  0.66111437  0.53802977  1
  H  H81  1  0.28575165  0.33888563  0.03802977  1
  H  H82  1  0.71424835  0.83888563  0.46197023  1
  H  H83  1  0.78575165  0.16111437  0.96197023  1
  C  C84  1  0.31351681  0.36635510  0.48370728  1
  C  C85  1  0.18648319  0.63364490  0.98370728  1
  C  C86  1  0.81351681  0.13364490  0.51629272  1
  C  C87  1  0.68648319  0.86635510  0.01629272  1
  C  C88  1  0.33486473  0.65851311  0.50345289  1
  C  C89  1  0.16513527  0.34148689  0.00345289  1
  C  C90  1  0.83486473  0.84148689  0.49654711  1
  C  C91  1  0.66513527  0.15851311  0.99654711  1
  N  N92  1  0.27912621  0.27821134  0.43715873  1
  N  N93  1  0.22087379  0.72178866  0.93715873  1
  N  N94  1  0.77912621  0.22178866  0.56284127  1
  N  N95  1  0.72087379  0.77821134  0.06284127  1
  N  N96  1  0.28581036  0.68520473  0.42713531  1
  N  N97  1  0.21418964  0.31479527  0.92713531  1
  N  N98  1  0.78581036  0.81479527  0.57286469  1
  N  N99  1  0.71418964  0.18520473  0.07286469  1
  O  O100  1  0.59070968  0.22198568  0.35761332  1
  O  O101  1  0.90929032  0.77801432  0.85761332  1
  O  O102  1  0.09070968  0.27801432  0.64238668  1
  O  O103  1  0.40929032  0.72198568  0.14238668  1
  O  O104  1  0.46432325  0.98751401  0.34304703  1
  O  O105  1  0.03567675  0.01248599  0.84304703  1
  O  O106  1  0.96432325  0.51248599  0.65695297  1
  O  O107  1  0.53567675  0.48751401  0.15695297  1
  O  O108  1  0.69910749  0.09073122  0.21985228  1
  O  O109  1  0.80089251  0.90926878  0.71985228  1
  O  O110  1  0.19910749  0.40926878  0.78014772  1
  O  O111  1  0.30089251  0.59073122  0.28014772  1
  O  O112  1  0.69565403  0.90130143  0.20887253  1
  O  O113  1  0.80434597  0.09869857  0.70887253  1
  O  O114  1  0.19565403  0.59869857  0.79112747  1
  O  O115  1  0.30434597  0.40130143  0.29112747  1
  O  O116  1  0.57785021  0.76273483  0.33854644  1
  O  O117  1  0.92214979  0.23726517  0.83854644  1
  O  O118  1  0.07785021  0.73726517  0.66145356  1
  O  O119  1  0.42214979  0.26273483  0.16145356  1
  O  O120  1  0.72000373  0.61156463  0.38526852  1
  O  O121  1  0.77999627  0.38843537  0.88526852  1
  O  O122  1  0.22000373  0.88843537  0.61473148  1
  O  O123  1  0.27999627  0.11156463  0.11473148  1
  O  O124  1  0.91162203  0.52406431  0.52034988  1
  O  O125  1  0.58837797  0.47593569  0.02034988  1
  O  O126  1  0.41162203  0.97593569  0.47965012  1
  O  O127  1  0.08837797  0.02406431  0.97965012  1
  O  O128  1  0.76248302  0.36472773  0.40751284  1
  O  O129  1  0.73751698  0.63527227  0.90751284  1
  O  O130  1  0.26248302  0.13527227  0.59248716  1
  O  O131  1  0.23751698  0.86472773  0.09248716  1
  O  O132  1  0.09492917  0.50487135  0.36725909  1
  O  O133  1  0.40507083  0.49512865  0.86725909  1
  O  O134  1  0.59492917  0.99512865  0.63274091  1
  O  O135  1  0.90507083  0.00487135  0.13274091  1
  O  O136  1  0.92720157  0.74359204  0.33352277  1
  O  O137  1  0.57279843  0.25640796  0.83352277  1
  O  O138  1  0.42720157  0.75640796  0.66647723  1
  O  O139  1  0.07279843  0.24359204  0.16647723  1
  O  O140  1  0.26129979  0.83936737  0.23173213  1
  O  O141  1  0.23870021  0.16063263  0.73173213  1
  O  O142  1  0.76129979  0.66063263  0.76826787  1
  O  O143  1  0.73870021  0.33936737  0.26826787  1
  O  O144  1  0.20734689  0.88479596  0.39067135  1
  O  O145  1  0.29265311  0.11520404  0.89067135  1
  O  O146  1  0.70734689  0.61520404  0.60932865  1
  O  O147  1  0.79265311  0.38479596  0.10932865  1
  O  O148  1  0.95310097  0.98903813  0.27185822  1
  O  O149  1  0.54689903  0.01096187  0.77185822  1
  O  O150  1  0.45310097  0.51096187  0.72814178  1
  O  O151  1  0.04689903  0.48903813  0.22814178  1
  O  O152  1  0.19437928  0.07337549  0.40044585  1
  O  O153  1  0.30562072  0.92662451  0.90044585  1
  O  O154  1  0.69437928  0.42662451  0.59955415  1
  O  O155  1  0.80562072  0.57337549  0.09955415  1
  O  O156  1  0.27338211  0.14799953  0.25168804  1
  O  O157  1  0.22661789  0.85200047  0.75168804  1
  O  O158  1  0.77338211  0.35200047  0.74831196  1
  O  O159  1  0.72661789  0.64799953  0.24831196  1
  O  O160  1  0.93978281  0.23098744  0.34556914  1
  O  O161  1  0.56021719  0.76901256  0.84556914  1
  O  O162  1  0.43978281  0.26901256  0.65443086  1
  O  O163  1  0.06021719  0.73098744  0.15443086  1
