# generated using pymatgen
data_Al3PH29(SO14)2
_symmetry_space_group_name_H-M   'P 1'
_cell_length_a   10.60489909
_cell_length_b   11.09175411
_cell_length_c   11.27502988
_cell_angle_alpha   85.50216389
_cell_angle_beta   64.91234568
_cell_angle_gamma   74.71839728
_symmetry_Int_Tables_number   1
_chemical_formula_structural   Al3PH29(SO14)2
_chemical_formula_sum   'Al6 P2 H58 S4 O56'
_cell_volume   1157.81631370
_cell_formula_units_Z   2
loop_
 _symmetry_equiv_pos_site_id
 _symmetry_equiv_pos_as_xyz
  1  'x, y, z'
loop_
 _atom_site_type_symbol
 _atom_site_label
 _atom_site_symmetry_multiplicity
 _atom_site_fract_x
 _atom_site_fract_y
 _atom_site_fract_z
 _atom_site_occupancy
  Al  Al0  1  0.74559569  0.38317144  0.97302693  1
  Al  Al1  1  0.25440431  0.61682856  0.02697307  1
  Al  Al2  1  0.73027427  0.37992916  0.67018987  1
  Al  Al3  1  0.26972573  0.62007084  0.32981013  1
  Al  Al4  1  0.44613763  0.05910916  0.90582496  1
  Al  Al5  1  0.55386237  0.94089084  0.09417504  1
  P  P6  1  0.48211606  0.33868895  0.94183999  1
  P  P7  1  0.51788394  0.66131105  0.05816001  1
  H  H8  1  0.91338250  0.37376404  0.74411193  1
  H  H9  1  0.08661750  0.62623596  0.25588807  1
  H  H10  1  0.10236876  0.80284563  0.95158882  1
  H  H11  1  0.89763124  0.19715437  0.04841118  1
  H  H12  1  0.93916712  0.16421644  0.89778960  1
  H  H13  1  0.06083288  0.83578356  0.10221040  1
  H  H14  1  0.30459844  0.54812545  0.78787456  1
  H  H15  1  0.69540156  0.45187455  0.21212544  1
  H  H16  1  0.34420528  0.67936979  0.77572799  1
  H  H17  1  0.65579472  0.32063021  0.22427201  1
  H  H18  1  0.00661146  0.40842978  0.90285163  1
  H  H19  1  0.99338854  0.59157022  0.09714837  1
  H  H20  1  0.89605341  0.54334343  0.91540386  1
  H  H21  1  0.10394659  0.45665657  0.08459614  1
  H  H22  1  0.87182770  0.49594026  0.47330354  1
  H  H23  1  0.12817230  0.50405974  0.52669646  1
  H  H24  1  0.98672789  0.36641096  0.47513460  1
  H  H25  1  0.01327211  0.63358904  0.52486540  1
  H  H26  1  0.82887557  0.16951238  0.53381799  1
  H  H27  1  0.17112443  0.83048762  0.46618201  1
  H  H28  1  0.85203191  0.13642506  0.66614292  1
  H  H29  1  0.14796809  0.86357494  0.33385708  1
  H  H30  1  0.73034847  0.61535704  0.67419220  1
  H  H31  1  0.26965153  0.38464296  0.32580780  1
  H  H32  1  0.59011608  0.58639633  0.79206222  1
  H  H33  1  0.40988392  0.41360367  0.20793778  1
  H  H34  1  0.53101675  0.40263728  0.59769471  1
  H  H35  1  0.46898325  0.59736272  0.40230529  1
  H  H36  1  0.65749843  0.44245227  0.47458063  1
  H  H37  1  0.34250157  0.55754773  0.52541937  1
  H  H38  1  0.71811795  0.99296831  0.86064663  1
  H  H39  1  0.28188205  0.00703169  0.13935337  1
  H  H40  1  0.47832530  0.14776296  0.68218539  1
  H  H41  1  0.52167470  0.85223704  0.31781461  1
  H  H42  1  0.60838076  0.01860152  0.65699170  1
  H  H43  1  0.39161924  0.98139848  0.34300830  1
  H  H44  1  0.23308137  0.20539258  0.86957230  1
  H  H45  1  0.76691863  0.79460742  0.13042770  1
  H  H46  1  0.21598252  0.06624319  0.87557385  1
  H  H47  1  0.78401748  0.93375681  0.12442615  1
  H  H48  1  0.43310342  0.87185901  0.77219004  1
  H  H49  1  0.56689658  0.12814099  0.22780996  1
  H  H50  1  0.42364762  0.82693204  0.91362463  1
  H  H51  1  0.57635238  0.17306796  0.08637537  1
  H  H52  1  0.93216054  0.74509098  0.85504739  1
  H  H53  1  0.06783946  0.25490902  0.14495261  1
  H  H54  1  0.77217594  0.72799306  0.92485655  1
  H  H55  1  0.22782406  0.27200694  0.07514345  1
  H  H56  1  0.76238112  0.95507824  0.47631363  1
  H  H57  1  0.23761888  0.04492176  0.52368637  1
  H  H58  1  0.68052669  0.16831904  0.35902969  1
  H  H59  1  0.31947331  0.83168096  0.64097031  1
  H  H60  1  0.51425053  0.23464125  0.41999076  1
  H  H61  1  0.48574947  0.76535875  0.58000924  1
  H  H62  1  0.85482669  0.70913291  0.71323744  1
  H  H63  1  0.14517331  0.29086709  0.28676256  1
  H  H64  1  0.80667272  0.78106239  0.60042218  1
  H  H65  1  0.19332728  0.21893761  0.39957782  1
  S  S66  1  0.04224081  0.95496293  0.74672068  1
  S  S67  1  0.95775919  0.04503707  0.25327932  1
  S  S68  1  0.25909207  0.35622148  0.67110939  1
  S  S69  1  0.74090793  0.64377852  0.32889061  1
  O  O70  1  0.41473284  0.22728542  0.95946421  1
  O  O71  1  0.58526716  0.77271458  0.04053579  1
  O  O72  1  0.55876876  0.36276711  0.79617847  1
  O  O73  1  0.44123124  0.63723289  0.20382153  1
  O  O74  1  0.59206535  0.30814129  0.00568576  1
  O  O75  1  0.40793465  0.69185871  0.99431424  1
  O  O76  1  0.63815391  0.54653280  0.98269442  1
  O  O77  1  0.36184609  0.45346720  0.01730558  1
  O  O78  1  0.81563937  0.36324718  0.78779329  1
  O  O79  1  0.18436063  0.63675282  0.21220671  1
  O  O80  1  0.86911896  0.22143618  0.97485389  1
  O  O81  1  0.13088104  0.77856382  0.02514611  1
  O  O82  1  0.30710989  0.61544418  0.83924117  1
  O  O83  1  0.69289011  0.38455582  0.16075883  1
  O  O84  1  0.90377099  0.45538400  0.94634662  1
  O  O85  1  0.09622901  0.54461600  0.05365338  1
  O  O86  1  0.88699324  0.42142371  0.52707811  1
  O  O87  1  0.11300676  0.57857629  0.47292189  1
  O  O88  1  0.82378241  0.20593385  0.61345564  1
  O  O89  1  0.17621759  0.79406615  0.38654436  1
  O  O90  1  0.65631780  0.56441567  0.70000852  1
  O  O91  1  0.34368220  0.43558433  0.29999148  1
  O  O92  1  0.63705918  0.38716698  0.55136393  1
  O  O93  1  0.36294082  0.61283302  0.44863607  1
  O  O94  1  0.61916843  0.99374168  0.92157744  1
  O  O95  1  0.38083157  0.00625832  0.07842256  1
  O  O96  1  0.53498068  0.09013942  0.72412163  1
  O  O97  1  0.46501932  0.90986058  0.27587837  1
  O  O98  1  0.25649236  0.12011119  0.90642759  1
  O  O99  1  0.74350764  0.87988881  0.09357241  1
  O  O100  1  0.44089116  0.89625349  0.85124581  1
  O  O101  1  0.55910884  0.10374651  0.14875419  1
  O  O102  1  0.90160731  0.00174966  0.73896574  1
  O  O103  1  0.09839269  0.99825034  0.26103426  1
  O  O104  1  0.04086916  0.84442130  0.83153026  1
  O  O105  1  0.95913084  0.15557870  0.16846974  1
  O  O106  1  0.07779941  0.05486624  0.79835306  1
  O  O107  1  0.92220059  0.94513376  0.20164694  1
  O  O108  1  0.16072281  0.91210413  0.61207434  1
  O  O109  1  0.83927719  0.08789587  0.38792566  1
  O  O110  1  0.18951150  0.33574426  0.81470722  1
  O  O111  1  0.81048850  0.66425574  0.18529278  1
  O  O112  1  0.33043827  0.46231691  0.65221168  1
  O  O113  1  0.66956173  0.53768309  0.34778832  1
  O  O114  1  0.37318810  0.24227987  0.60157845  1
  O  O115  1  0.62681190  0.75772013  0.39842155  1
  O  O116  1  0.14734745  0.39022425  0.61999626  1
  O  O117  1  0.85265255  0.60977575  0.38000374  1
  O  O118  1  0.87082334  0.68968912  0.85823612  1
  O  O119  1  0.12917666  0.31031088  0.14176388  1
  O  O120  1  0.72197524  0.91745847  0.56201265  1
  O  O121  1  0.27802476  0.08254153  0.43798735  1
  O  O122  1  0.59944208  0.21009879  0.33573743  1
  O  O123  1  0.40055792  0.78990121  0.66426257  1
  O  O124  1  0.84901023  0.69763530  0.62850421  1
  O  O125  1  0.15098977  0.30236470  0.37149579  1
