# generated using pymatgen
data_KB5(H2O3)4
_symmetry_space_group_name_H-M   'P 1'
_cell_length_a   7.43762592
_cell_length_b   7.43762592
_cell_length_c   10.80177643
_cell_angle_alpha   90.00000000
_cell_angle_beta   90.00000000
_cell_angle_gamma   94.34082355
_symmetry_Int_Tables_number   1
_chemical_formula_structural   KB5(H2O3)4
_chemical_formula_sum   'K2 B10 H16 O24'
_cell_volume   595.82162953
_cell_formula_units_Z   2
loop_
 _symmetry_equiv_pos_site_id
 _symmetry_equiv_pos_as_xyz
  1  'x, y, z'
loop_
 _atom_site_type_symbol
 _atom_site_label
 _atom_site_symmetry_multiplicity
 _atom_site_fract_x
 _atom_site_fract_y
 _atom_site_fract_z
 _atom_site_occupancy
  K  K0  1  0.57958179  0.57958179  0.50000000  1
  K  K1  1  0.07958179  0.07958179  0.00000000  1
  B  B2  1  0.91322298  0.91322298  0.50000000  1
  B  B3  1  0.41322298  0.41322298  0.00000000  1
  B  B4  1  0.74277627  0.92530526  0.69973310  1
  B  B5  1  0.92530526  0.74277627  0.30026690  1
  B  B6  1  0.24277627  0.42530526  0.80026690  1
  B  B7  1  0.42530526  0.24277627  0.19973310  1
  B  B8  1  0.06656288  0.92960977  0.70780738  1
  B  B9  1  0.92960977  0.06656288  0.29219262  1
  B  B10  1  0.56656288  0.42960977  0.79219262  1
  B  B11  1  0.42960977  0.56656288  0.20780738  1
  H  H12  1  0.02317295  0.27294137  0.47350119  1
  H  H13  1  0.27294137  0.02317295  0.52649881  1
  H  H14  1  0.52317295  0.77294137  0.02649881  1
  H  H15  1  0.77294137  0.52317295  0.97350119  1
  H  H16  1  0.15986943  0.43574031  0.43440165  1
  H  H17  1  0.43574031  0.15986943  0.56559835  1
  H  H18  1  0.65986943  0.93574031  0.06559835  1
  H  H19  1  0.93574031  0.65986943  0.93440165  1
  H  H20  1  0.09276581  0.42525096  0.64602798  1
  H  H21  1  0.42525096  0.09276581  0.35397202  1
  H  H22  1  0.59276581  0.92525096  0.85397202  1
  H  H23  1  0.92525096  0.59276581  0.14602798  1
  H  H24  1  0.33592834  0.92960450  0.75067138  1
  H  H25  1  0.92960450  0.33592834  0.24932862  1
  H  H26  1  0.83592834  0.42960450  0.74932862  1
  H  H27  1  0.42960450  0.83592834  0.25067138  1
  O  O28  1  0.74804283  0.90860446  0.57479171  1
  O  O29  1  0.90860446  0.74804283  0.42520829  1
  O  O30  1  0.24804283  0.40860446  0.92520829  1
  O  O31  1  0.40860446  0.24804283  0.07479171  1
  O  O32  1  0.07628559  0.92483307  0.58181283  1
  O  O33  1  0.92483307  0.07628559  0.41818717  1
  O  O34  1  0.57628559  0.42483307  0.91818717  1
  O  O35  1  0.42483307  0.57628559  0.08181283  1
  O  O36  1  0.90224323  0.93392342  0.77037381  1
  O  O37  1  0.93392342  0.90224323  0.22962619  1
  O  O38  1  0.40224323  0.43392342  0.72962619  1
  O  O39  1  0.43392342  0.40224323  0.27037381  1
  O  O40  1  0.58097076  0.92788684  0.76073390  1
  O  O41  1  0.92788684  0.58097076  0.23926610  1
  O  O42  1  0.08097076  0.42788684  0.73926610  1
  O  O43  1  0.42788684  0.08097076  0.26073390  1
  O  O44  1  0.21312918  0.93425930  0.78515873  1
  O  O45  1  0.93425930  0.21312918  0.21484127  1
  O  O46  1  0.71312918  0.43425930  0.71484127  1
  O  O47  1  0.43425930  0.71312918  0.28515873  1
  O  O48  1  0.07811491  0.39327379  0.49998946  1
  O  O49  1  0.39327379  0.07811491  0.50001054  1
  O  O50  1  0.57811491  0.89327379  0.00001054  1
  O  O51  1  0.89327379  0.57811491  -0.00001054  1
