# generated using pymatgen
data_Lu2H16S3O20
_symmetry_space_group_name_H-M   'P 1'
_cell_length_a   6.64916028
_cell_length_b   7.64519068
_cell_length_c   18.42490101
_cell_angle_alpha   101.86204020
_cell_angle_beta   90.00000002
_cell_angle_gamma   115.77632298
_symmetry_Int_Tables_number   1
_chemical_formula_structural   Lu2H16S3O20
_chemical_formula_sum   'Lu4 H32 S6 O40'
_cell_volume   821.15100497
_cell_formula_units_Z   2
loop_
 _symmetry_equiv_pos_site_id
 _symmetry_equiv_pos_as_xyz
  1  'x, y, z'
loop_
 _atom_site_type_symbol
 _atom_site_label
 _atom_site_symmetry_multiplicity
 _atom_site_fract_x
 _atom_site_fract_y
 _atom_site_fract_z
 _atom_site_occupancy
  Lu  Lu0  1  0.14685195  0.33649524  0.89311005  1
  Lu  Lu1  1  0.81035671  0.66350476  0.60688995  1
  Lu  Lu2  1  0.85314805  0.66350476  0.10688995  1
  Lu  Lu3  1  0.18964329  0.33649524  0.39311005  1
  H  H4  1  0.49434160  0.70551185  0.98167845  1
  H  H5  1  0.78882975  0.29448815  0.51832155  1
  H  H6  1  0.50565840  0.29448815  0.01832155  1
  H  H7  1  0.21117025  0.70551185  0.48167845  1
  H  H8  1  0.27920791  0.74447989  0.98774717  1
  H  H9  1  0.53472802  0.25552011  0.51225283  1
  H  H10  1  0.72079209  0.25552011  0.01225283  1
  H  H11  1  0.46527198  0.74447989  0.48774717  1
  H  H12  1  0.20058329  0.44072852  0.74839919  1
  H  H13  1  0.75985477  0.55927148  0.75160081  1
  H  H14  1  0.79941671  0.55927148  0.25160081  1
  H  H15  1  0.24014523  0.44072852  0.24839919  1
  H  H16  1  0.37076312  0.64228882  0.80484508  1
  H  H17  1  0.72847430  0.35771118  0.69515492  1
  H  H18  1  0.62923688  0.35771118  0.19515492  1
  H  H19  1  0.27152570  0.64228882  0.30484508  1
  H  H20  1  0.69226549  0.01799177  0.89346184  1
  H  H21  1  0.67427372  0.98200823  0.60653816  1
  H  H22  1  0.30773451  0.98200823  0.10653816  1
  H  H23  1  0.32572628  0.01799177  0.39346184  1
  H  H24  1  0.83617175  0.99498832  0.95586226  1
  H  H25  1  0.84118343  0.00501168  0.54413774  1
  H  H26  1  0.16382825  0.00501168  0.04413774  1
  H  H27  1  0.15881657  0.99498832  0.45586226  1
  H  H28  1  0.05223150  0.90562171  0.85662860  1
  H  H29  1  0.14660979  0.09437829  0.64337140  1
  H  H30  1  0.94776850  0.09437829  0.14337140  1
  H  H31  1  0.85339021  0.90562171  0.35662860  1
  H  H32  1  0.31057104  0.02944880  0.84564160  1
  H  H33  1  0.28112224  0.97055120  0.65435840  1
  H  H34  1  0.68942896  0.97055120  0.15435840  1
  H  H35  1  0.71887776  0.02944880  0.34564160  1
  S  S36  1  0.24731397  0.44191368  0.08814525  1
  S  S37  1  0.80540029  0.55808632  0.41185475  1
  S  S38  1  0.75268603  0.55808632  0.91185475  1
  S  S39  1  0.19459971  0.44191368  0.58814525  1
  S  S40  1  0.69119411  1.00000000  0.75000000  1
  S  S41  1  0.30880589  0.00000000  0.25000000  1
  O  O42  1  0.22497710  0.30560055  0.01300674  1
  O  O43  1  0.91937655  0.69439945  0.48699326  1
  O  O44  1  0.77502290  0.69439945  0.98699326  1
  O  O45  1  0.08062345  0.30560055  0.51300674  1
  O  O46  1  0.48134086  0.60139080  0.10354752  1
  O  O47  1  0.87995006  0.39860920  0.39645248  1
  O  O48  1  0.51865914  0.39860920  0.89645248  1
  O  O49  1  0.12004994  0.60139080  0.60354752  1
  O  O50  1  0.09315960  0.53256965  0.08311347  1
  O  O51  1  0.56058994  0.46743035  0.41688653  1
  O  O52  1  0.90684040  0.46743035  0.91688653  1
  O  O53  1  0.43941006  0.53256965  0.58311347  1
  O  O54  1  0.19132114  0.32369494  0.14548381  1
  O  O55  1  0.86762620  0.67630506  0.35451619  1
  O  O56  1  0.80867886  0.67630506  0.85451619  1
  O  O57  1  0.13237380  0.32369494  0.64548381  1
  O  O58  1  0.90420675  0.16548489  0.78993572  1
  O  O59  1  0.73872186  0.83451511  0.71006428  1
  O  O60  1  0.09579325  0.83451511  0.21006428  1
  O  O61  1  0.26127814  0.16548489  0.28993572  1
  O  O62  1  0.52773429  0.92868341  0.80544169  1
  O  O63  1  0.59905089  0.07131659  0.69455831  1
  O  O64  1  0.47226571  0.07131659  0.19455831  1
  O  O65  1  0.40094911  0.92868341  0.30544169  1
  O  O66  1  0.35190988  0.67623872  0.95424635  1
  O  O67  1  0.67567116  0.32376128  0.54575365  1
  O  O68  1  0.64809012  0.32376128  0.04575365  1
  O  O69  1  0.32432884  0.67623872  0.45424635  1
  O  O70  1  0.26368484  0.50210176  0.80088565  1
  O  O71  1  0.76158309  0.49789824  0.69911435  1
  O  O72  1  0.73631516  0.49789824  0.19911435  1
  O  O73  1  0.23841691  0.50210176  0.30088565  1
  O  O74  1  0.81076403  0.09442586  0.93647663  1
  O  O75  1  0.71633817  0.90557414  0.56352337  1
  O  O76  1  0.18923597  0.90557414  0.06352337  1
  O  O77  1  0.28366183  0.09442586  0.43647663  1
  O  O78  1  0.17917219  0.04093066  0.86626887  1
  O  O79  1  0.13824153  0.95906934  0.63373113  1
  O  O80  1  0.82082781  0.95906934  0.13373113  1
  O  O81  1  0.86175847  0.04093066  0.36626887  1
