# generated using pymatgen
data_H8AuC2S2N4Cl
_symmetry_space_group_name_H-M   'P 1'
_cell_length_a   7.62398419
_cell_length_b   9.13024848
_cell_length_c   9.21147866
_cell_angle_alpha   60.29128508
_cell_angle_beta   80.35374968
_cell_angle_gamma   70.23818388
_symmetry_Int_Tables_number   1
_chemical_formula_structural   H8AuC2S2N4Cl
_chemical_formula_sum   'H16 Au2 C4 S4 N8 Cl2'
_cell_volume   524.11973669
_cell_formula_units_Z   2
loop_
 _symmetry_equiv_pos_site_id
 _symmetry_equiv_pos_as_xyz
  1  'x, y, z'
loop_
 _atom_site_type_symbol
 _atom_site_label
 _atom_site_symmetry_multiplicity
 _atom_site_fract_x
 _atom_site_fract_y
 _atom_site_fract_z
 _atom_site_occupancy
  H  H0  1  0.04693266  0.32317247  0.15451778  1
  H  H1  1  0.45306734  0.52230975  0.15451778  1
  H  H2  1  0.95306734  0.67682753  0.84548222  1
  H  H3  1  0.54693266  0.47769025  0.84548222  1
  H  H4  1  0.23573984  0.29204309  0.02264402  1
  H  H5  1  0.26426016  0.68531288  0.02264402  1
  H  H6  1  0.76426016  0.70795691  0.97735598  1
  H  H7  1  0.73573984  0.31468712  0.97735598  1
  H  H8  1  0.07426724  0.16044138  0.43833853  1
  H  H9  1  0.42573276  0.40122010  0.43833853  1
  H  H10  1  0.92573276  0.83955862  0.56166147  1
  H  H11  1  0.57426724  0.59877990  0.56166147  1
  H  H12  1  0.25165161  0.95860249  0.52463488  1
  H  H13  1  0.24834839  0.51676263  0.52463488  1
  H  H14  1  0.74834839  0.04139751  0.47536512  1
  H  H15  1  0.75165161  0.48323737  0.47536512  1
  Au  Au16  1  0.50000000  -0.00000000  -0.00000000  1
  Au  Au17  1  -0.00000000  -0.00000000  -0.00000000  1
  C  C18  1  0.27111541  0.11127866  0.27336310  1
  C  C19  1  0.22888459  0.61535824  0.27336310  1
  C  C20  1  0.72888459  0.88872134  0.72663690  1
  C  C21  1  0.77111541  0.38464176  0.72663690  1
  S  S22  1  0.48325877  0.96472438  0.26677479  1
  S  S23  1  0.01674123  0.76850083  0.26677479  1
  S  S24  1  0.51674123  0.03527562  0.73322521  1
  S  S25  1  0.98325877  0.23149917  0.73322521  1
  N  N26  1  0.18077181  0.25476456  0.13955041  1
  N  N27  1  0.31922819  0.60568504  0.13955041  1
  N  N28  1  0.81922819  0.74523544  0.86044959  1
  N  N29  1  0.68077181  0.39431496  0.86044959  1
  N  N30  1  0.19830203  0.07846562  0.42475427  1
  N  N31  1  0.30169797  0.49678011  0.42475427  1
  N  N32  1  0.80169797  0.92153438  0.57524573  1
  N  N33  1  0.69830203  0.50321989  0.57524573  1
  Cl  Cl34  1  0.25000000  0.62803633  0.74392734  1
  Cl  Cl35  1  0.75000000  0.37196367  0.25607266  1
