# generated using pymatgen
data_Na2AlMo6H6O29
_symmetry_space_group_name_H-M   'P 1'
_cell_length_a   6.26755476
_cell_length_b   10.55670587
_cell_length_c   10.50978253
_cell_angle_alpha   65.62043239
_cell_angle_beta   77.57613779
_cell_angle_gamma   87.41674585
_symmetry_Int_Tables_number   1
_chemical_formula_structural   Na2AlMo6H6O29
_chemical_formula_sum   'Na2 Al1 Mo6 H6 O29'
_cell_volume   617.79091218
_cell_formula_units_Z   1
loop_
 _symmetry_equiv_pos_site_id
 _symmetry_equiv_pos_as_xyz
  1  'x, y, z'
loop_
 _atom_site_type_symbol
 _atom_site_label
 _atom_site_symmetry_multiplicity
 _atom_site_fract_x
 _atom_site_fract_y
 _atom_site_fract_z
 _atom_site_occupancy
  Na  Na0  1  0.28847618  0.45107315  0.14577030  1
  Na  Na1  1  0.71152382  0.54892685  0.85422970  1
  Al  Al2  1  0.00000000  -0.00000000  0.00000000  1
  Mo  Mo3  1  0.76420866  0.67520420  0.14092121  1
  Mo  Mo4  1  0.23579134  0.32479580  0.85907879  1
  Mo  Mo5  1  0.17632792  0.77773136  0.84998052  1
  Mo  Mo6  1  0.82367208  0.22226864  0.15001948  1
  Mo  Mo7  1  0.43073651  0.09580414  0.71915611  1
  Mo  Mo8  1  0.56926349  0.90419586  0.28084389  1
  H  H9  1  0.79357530  0.92470771  0.85797230  1
  H  H10  1  0.20642470  0.07529229  0.14202770  1
  H  H11  1  0.01562723  0.82259615  0.25071510  1
  H  H12  1  0.98437277  0.17740385  0.74928490  1
  H  H13  1  0.36488326  0.87875640  0.02545257  1
  H  H14  1  0.63511674  0.12124360  0.97454743  1
  O  O15  1  0.52996372  0.79942621  0.16890187  1
  O  O16  1  0.47003628  0.20057379  0.83109813  1
  O  O17  1  0.62255833  0.59172319  0.06780497  1
  O  O18  1  0.37744167  0.40827681  0.93219503  1
  O  O19  1  0.75650281  0.55597103  0.31364410  1
  O  O20  1  0.24349719  0.44402897  0.68635590  1
  O  O21  1  0.88258254  0.88181272  0.93296497  1
  O  O22  1  0.11741746  0.11818728  0.06703503  1
  O  O23  1  0.06710251  0.65533537  0.05614809  1
  O  O24  1  0.93289749  0.34466463  0.94385191  1
  O  O25  1  0.91462357  0.84894482  0.18620392  1
  O  O26  1  0.08537643  0.15105518  0.81379608  1
  O  O27  1  0.43045860  0.70622740  0.83132765  1
  O  O28  1  0.56954140  0.29377260  0.16867235  1
  O  O29  1  0.27434193  0.92212907  0.95315098  1
  O  O30  1  0.72565807  0.07787093  0.04684902  1
  O  O31  1  0.24831237  0.96332353  0.69734879  1
  O  O32  1  0.75168763  0.03667647  0.30265121  1
  O  O33  1  0.01507794  0.70569862  0.77797302  1
  O  O34  1  0.98492206  0.29430138  0.22202698  1
  O  O35  1  0.68623823  0.01745686  0.72073226  1
  O  O36  1  0.31376177  0.98254314  0.27926774  1
  O  O37  1  0.45538464  0.22823273  0.55173898  1
  O  O38  1  0.54461536  0.77176727  0.44826102  1
  O  O39  1  0.15727466  0.43601936  0.41762030  1
  O  O40  1  0.84272534  0.56398064  0.58237970  1
  O  O41  1  0.98114513  0.65177085  0.49509640  1
  O  O42  1  0.01885487  0.34822915  0.50490360  1
  O  O43  1  0.00000000  -0.00000000  0.50000000  1
