# generated using pymatgen
data_Cu5H14(SO9)2
_symmetry_space_group_name_H-M   'P 1'
_cell_length_a   5.62177306
_cell_length_b   6.10575184
_cell_length_c   11.26754973
_cell_angle_alpha   88.45747402
_cell_angle_beta   103.66815381
_cell_angle_gamma   88.27234417
_symmetry_Int_Tables_number   1
_chemical_formula_structural   Cu5H14(SO9)2
_chemical_formula_sum   'Cu5 H14 S2 O18'
_cell_volume   375.40587673
_cell_formula_units_Z   1
loop_
 _symmetry_equiv_pos_site_id
 _symmetry_equiv_pos_as_xyz
  1  'x, y, z'
loop_
 _atom_site_type_symbol
 _atom_site_label
 _atom_site_symmetry_multiplicity
 _atom_site_fract_x
 _atom_site_fract_y
 _atom_site_fract_z
 _atom_site_occupancy
  Cu  Cu0  1  0.00000000  0.00000000  0.00000000  1
  Cu  Cu1  1  0.00000000  0.50000000  0.00000000  1
  Cu  Cu2  1  0.50017750  0.24947070  0.99875672  1
  Cu  Cu3  1  0.49982250  0.75052930  0.00124328  1
  Cu  Cu4  1  0.00000000  0.50000000  0.50000000  1
  H  H5  1  0.84876666  0.25413103  0.82366205  1
  H  H6  1  0.15123334  0.74586897  0.17633795  1
  H  H7  1  0.74844783  0.50407477  0.17027627  1
  H  H8  1  0.25155217  0.49592523  0.82972373  1
  H  H9  1  0.76777023  0.00400451  0.16572949  1
  H  H10  1  0.23222977  0.99599549  0.83427051  1
  H  H11  1  0.13237759  0.87436553  0.41830335  1
  H  H12  1  0.86762241  0.12563447  0.58169665  1
  H  H13  1  0.26662045  0.83829530  0.56494582  1
  H  H14  1  0.73337955  0.16170470  0.43505418  1
  H  H15  1  0.65910702  0.75723051  0.36207009  1
  H  H16  1  0.34089298  0.24276949  0.63792991  1
  H  H17  1  0.55615738  0.51721137  0.36759699  1
  H  H18  1  0.44384262  0.48278863  0.63240301  1
  S  S19  1  0.29785479  0.17180111  0.28080055  1
  S  S20  1  0.70214521  0.82819889  0.71919945  1
  O  O21  1  0.84073718  0.25998354  0.90936010  1
  O  O22  1  0.15926282  0.74001646  0.09063990  1
  O  O23  1  0.71207468  0.49998526  0.08083548  1
  O  O24  1  0.28792532  0.50001474  0.91916452  1
  O  O25  1  0.71584571  0.99632536  0.07601231  1
  O  O26  1  0.28415429  0.00367464  0.92398769  1
  O  O27  1  0.25694879  0.23003674  0.14741820  1
  O  O28  1  0.74305121  0.76996326  0.85258180  1
  O  O29  1  0.09918960  0.02464803  0.29738336  1
  O  O30  1  0.90081040  0.97535197  0.70261664  1
  O  O31  1  0.29507019  0.37551564  0.35042046  1
  O  O32  1  0.70492981  0.62448436  0.64957954  1
  O  O33  1  0.54225035  0.05199835  0.32362077  1
  O  O34  1  0.45774965  0.94800165  0.67637923  1
  O  O35  1  0.14861820  0.77660099  0.49345484  1
  O  O36  1  0.85138180  0.22339901  0.50654516  1
  O  O37  1  0.70754081  0.59938327  0.36318307  1
  O  O38  1  0.29245919  0.40061673  0.63681693  1
