# generated using pymatgen
data_AgH14C3S3N6ClO
_symmetry_space_group_name_H-M   'P 1'
_cell_length_a   6.33373765
_cell_length_b   10.14306055
_cell_length_c   11.53992667
_cell_angle_alpha   100.77984024
_cell_angle_beta   92.04299019
_cell_angle_gamma   100.90091279
_symmetry_Int_Tables_number   1
_chemical_formula_structural   AgH14C3S3N6ClO
_chemical_formula_sum   'Ag2 H28 C6 S6 N12 Cl2 O2'
_cell_volume   713.20012497
_cell_formula_units_Z   2
loop_
 _symmetry_equiv_pos_site_id
 _symmetry_equiv_pos_as_xyz
  1  'x, y, z'
loop_
 _atom_site_type_symbol
 _atom_site_label
 _atom_site_symmetry_multiplicity
 _atom_site_fract_x
 _atom_site_fract_y
 _atom_site_fract_z
 _atom_site_occupancy
  Ag  Ag0  1  0.36508736  0.45752331  0.61582879  1
  Ag  Ag1  1  0.63491264  0.54247669  0.38417121  1
  H  H2  1  0.81547273  0.16102160  0.56882713  1
  H  H3  1  0.18452727  0.83897840  0.43117287  1
  H  H4  1  0.67455053  0.29071153  0.62214618  1
  H  H5  1  0.32544947  0.70928847  0.37785382  1
  H  H6  1  0.73288335  0.03943828  0.36904945  1
  H  H7  1  0.26711665  0.96056172  0.63095055  1
  H  H8  1  0.51101172  0.07080881  0.28985312  1
  H  H9  1  0.48898828  0.92919119  0.71014688  1
  H  H10  1  0.98716758  0.26864968  0.87402103  1
  H  H11  1  0.01283242  0.73135032  0.12597897  1
  H  H12  1  0.08837031  0.41346309  0.81450109  1
  H  H13  1  0.91162969  0.58653691  0.18549891  1
  H  H14  1  0.20788364  0.12877532  0.91681957  1
  H  H15  1  0.79211636  0.87122468  0.08318043  1
  H  H16  1  0.48037034  0.15867907  0.88425362  1
  H  H17  1  0.51962966  0.84132093  0.11574638  1
  H  H18  1  0.01708360  0.84708819  0.90145927  1
  H  H19  1  0.98291640  0.15291181  0.09854073  1
  H  H20  1  0.84510413  0.76590906  0.77518091  1
  H  H21  1  0.15489587  0.23409094  0.22481909  1
  H  H22  1  0.32896605  0.77268996  0.93611307  1
  H  H23  1  0.67103395  0.22731004  0.06388693  1
  H  H24  1  0.39031519  0.62856363  0.84248725  1
  H  H25  1  0.60968481  0.37143637  0.15751275  1
  H  H26  1  0.93487759  0.03997149  0.71150969  1
  H  H27  1  0.06512241  0.96002851  0.28849031  1
  H  H28  1  0.88784454  0.93413352  0.59382731  1
  H  H29  1  0.11215546  0.06586648  0.40617269  1
  C  C30  1  0.58038871  0.19131597  0.45336601  1
  C  C31  1  0.41961129  0.80868403  0.54663399  1
  C  C32  1  0.31215791  0.30489646  0.85342017  1
  C  C33  1  0.68784209  0.69510354  0.14657983  1
  C  C34  1  0.11210992  0.68473174  0.79438145  1
  C  C35  1  0.88789008  0.31526826  0.20561855  1
  S  S36  1  0.37855410  0.28081905  0.43254555  1
  S  S37  1  0.62144590  0.71918095  0.56745445  1
  S  S38  1  0.53236814  0.40802089  0.81060112  1
  S  S39  1  0.46763186  0.59197911  0.18939888  1
  S  S40  1  0.03613150  0.55725151  0.67156268  1
  S  S41  1  0.96386850  0.44274849  0.32843732  1
  N  N42  1  0.70646095  0.21987726  0.55317072  1
  N  N43  1  0.29353905  0.78012274  0.44682928  1
  N  N44  1  0.60743310  0.09011033  0.36587938  1
  N  N45  1  0.39256690  0.90988967  0.63412062  1
  N  N46  1  0.11694210  0.33704544  0.85572430  1
  N  N47  1  0.88305790  0.66295456  0.14427570  1
  N  N48  1  0.33604088  0.18997648  0.88990584  1
  N  N49  1  0.66395912  0.81002352  0.11009416  1
  N  N50  1  0.97958359  0.77128791  0.82799064  1
  N  N51  1  0.02041641  0.22871209  0.17200936  1
  N  N52  1  0.29877309  0.70217628  0.85879421  1
  N  N53  1  0.70122691  0.29782372  0.14120579  1
  Cl  Cl54  1  0.21712859  0.93774309  0.10636123  1
  Cl  Cl55  1  0.78287141  0.06225691  0.89363877  1
  O  O56  1  0.97885292  0.02371969  0.62961653  1
  O  O57  1  0.02114708  0.97628031  0.37038347  1
