# generated using pymatgen
data_BaCu(SiO3)2
_symmetry_space_group_name_H-M   'P 1'
_cell_length_a   7.18540965
_cell_length_b   7.18540965
_cell_length_c   11.19459340
_cell_angle_alpha   90.00000000
_cell_angle_beta   90.00000000
_cell_angle_gamma   90.00000000
_symmetry_Int_Tables_number   1
_chemical_formula_structural   BaCu(SiO3)2
_chemical_formula_sum   'Ba4 Cu4 Si8 O24'
_cell_volume   577.97810943
_cell_formula_units_Z   4
loop_
 _symmetry_equiv_pos_site_id
 _symmetry_equiv_pos_as_xyz
  1  'x, y, z'
loop_
 _atom_site_type_symbol
 _atom_site_label
 _atom_site_symmetry_multiplicity
 _atom_site_fract_x
 _atom_site_fract_y
 _atom_site_fract_z
 _atom_site_occupancy
  Ba  Ba0  1  0.25000000  0.25000000  0.50576236  1
  Ba  Ba1  1  0.25000000  0.25000000  0.00576236  1
  Ba  Ba2  1  0.75000000  0.75000000  0.49423764  1
  Ba  Ba3  1  0.75000000  0.75000000  0.99423764  1
  Cu  Cu4  1  0.75000000  0.25000000  0.62760396  1
  Cu  Cu5  1  0.25000000  0.75000000  0.12760396  1
  Cu  Cu6  1  0.25000000  0.75000000  0.37239604  1
  Cu  Cu7  1  0.75000000  0.25000000  0.87239604  1
  Si  Si8  1  0.47612580  0.97603122  0.75000075  1
  Si  Si9  1  0.02387420  0.52396878  0.75000075  1
  Si  Si10  1  0.52396878  0.47612580  0.25000075  1
  Si  Si11  1  0.97603122  0.02387420  0.25000075  1
  Si  Si12  1  0.52387420  0.02396878  0.24999925  1
  Si  Si13  1  0.97612580  0.47603122  0.24999925  1
  Si  Si14  1  0.47603122  0.52387420  0.74999925  1
  Si  Si15  1  0.02396878  0.97612580  0.74999925  1
  O  O16  1  0.25007123  0.01479023  0.74458530  1
  O  O17  1  0.24992877  0.48520977  0.74458530  1
  O  O18  1  0.48520977  0.25007123  0.24458530  1
  O  O19  1  0.01479023  0.24992877  0.24458530  1
  O  O20  1  0.74992877  0.98520977  0.25541470  1
  O  O21  1  0.75007123  0.51479023  0.25541470  1
  O  O22  1  0.51479023  0.74992877  0.75541470  1
  O  O23  1  0.98520977  0.75007123  0.75541470  1
  O  O24  1  0.94589998  0.05943248  0.87520838  1
  O  O25  1  0.55410002  0.44056752  0.87520838  1
  O  O26  1  0.44056752  0.94589998  0.37520838  1
  O  O27  1  0.05943248  0.55410002  0.37520838  1
  O  O28  1  0.05410002  0.94056752  0.12479162  1
  O  O29  1  0.44589998  0.55943248  0.12479162  1
  O  O30  1  0.55943248  0.05410002  0.62479162  1
  O  O31  1  0.94056752  0.44589998  0.62479162  1
  O  O32  1  0.44566538  0.94065740  0.12482236  1
  O  O33  1  0.05433462  0.55934260  0.12482236  1
  O  O34  1  0.55934260  0.44566538  0.62482236  1
  O  O35  1  0.94065740  0.05433462  0.62482236  1
  O  O36  1  0.55433462  0.05934260  0.87517764  1
  O  O37  1  0.94566538  0.44065740  0.87517764  1
  O  O38  1  0.44065740  0.55433462  0.37517764  1
  O  O39  1  0.05934260  0.94566538  0.37517764  1
