# generated using pymatgen
data_CaV2O4
_symmetry_space_group_name_H-M   'P 1'
_cell_length_a   6.31044077
_cell_length_b   6.28378817
_cell_length_c   18.73852085
_cell_angle_alpha   59.84249567
_cell_angle_beta   60.23820912
_cell_angle_gamma   60.15945461
_symmetry_Int_Tables_number   1
_chemical_formula_structural   CaV2O4
_chemical_formula_sum   'Ca6 V12 O24'
_cell_volume   526.35301598
_cell_formula_units_Z   6
loop_
 _symmetry_equiv_pos_site_id
 _symmetry_equiv_pos_as_xyz
  1  'x, y, z'
loop_
 _atom_site_type_symbol
 _atom_site_label
 _atom_site_symmetry_multiplicity
 _atom_site_fract_x
 _atom_site_fract_y
 _atom_site_fract_z
 _atom_site_occupancy
  Ca  Ca0  1  0.13540810  0.12108937  0.04091657  1
  Ca  Ca1  1  0.50167145  0.50092203  0.33261023  1
  Ca  Ca2  1  0.99826508  0.50016217  0.16706669  1
  Ca  Ca3  1  0.50196911  0.49617718  0.66854346  1
  Ca  Ca4  1  0.00005155  0.49973659  0.50018401  1
  Ca  Ca5  1  0.99804856  0.50247248  0.83216723  1
  V  V6  1  0.49722276  0.00902897  0.16598394  1
  V  V7  1  0.13102784  0.11511762  0.37942624  1
  V  V8  1  0.49517724  0.49694761  0.00375805  1
  V  V9  1  0.49659035  0.49485083  0.16633747  1
  V  V10  1  0.49990717  0.00017553  0.50004897  1
  V  V11  1  0.13637126  0.11697419  0.70990153  1
  V  V12  1  0.49972676  0.49995444  0.50011648  1
  V  V13  1  0.50134953  0.99845728  0.83314688  1
  V  V14  1  0.86598344  0.88289008  0.28952640  1
  V  V15  1  0.50006522  0.50074134  0.83377100  1
  V  V16  1  0.86808332  0.88457961  0.62115600  1
  V  V17  1  0.86313057  0.88164090  0.95775863  1
  O  O18  1  0.29873560  0.25484874  0.08361600  1
  O  O19  1  0.26838108  0.23534018  0.25173066  1
  O  O20  1  0.29856209  0.69631315  0.08367409  1
  O  O21  1  0.69863410  0.26178306  0.09283678  1
  O  O22  1  0.27386106  0.21902768  0.42378483  1
  O  O23  1  0.26120564  0.76437141  0.23540595  1
  O  O24  1  0.27897669  0.24378619  0.57884441  1
  O  O25  1  0.73294811  0.25800028  0.24135462  1
  O  O26  1  0.27246718  0.73574576  0.42435071  1
  O  O27  1  0.72027427  0.76501499  0.08480718  1
  O  O28  1  0.74166985  0.24076021  0.42463756  1
  O  O29  1  0.73359883  0.78360915  0.24175566  1
  O  O30  1  0.27068349  0.21591494  0.75772196  1
  O  O31  1  0.25704064  0.75881831  0.57612274  1
  O  O32  1  0.72892518  0.26141442  0.57629099  1
  O  O33  1  0.26988993  0.74032310  0.75792090  1
  O  O34  1  0.30201076  0.25442001  0.89553710  1
  O  O35  1  0.72324906  0.75607479  0.42070813  1
  O  O36  1  0.75518195  0.23690630  0.75893699  1
  O  O37  1  0.72768542  0.78118357  0.57665861  1
  O  O38  1  0.25660622  0.74190004  0.91807800  1
  O  O39  1  0.71003593  0.27377524  0.91981144  1
  O  O40  1  0.71931071  0.76106782  0.75362104  1
  O  O41  1  0.71001588  0.75768042  0.91937487  1
