# generated using pymatgen
data_CdCu4H14(SO9)2
_symmetry_space_group_name_H-M   'P 1'
_cell_length_a   5.63902992
_cell_length_b   6.13860210
_cell_length_c   22.34014325
_cell_angle_alpha   90.00000000
_cell_angle_beta   90.00000000
_cell_angle_gamma   91.69100128
_symmetry_Int_Tables_number   1
_chemical_formula_structural   CdCu4H14(SO9)2
_chemical_formula_sum   'Cd2 Cu8 H28 S4 O36'
_cell_volume   772.98428149
_cell_formula_units_Z   2
loop_
 _symmetry_equiv_pos_site_id
 _symmetry_equiv_pos_as_xyz
  1  'x, y, z'
loop_
 _atom_site_type_symbol
 _atom_site_label
 _atom_site_symmetry_multiplicity
 _atom_site_fract_x
 _atom_site_fract_y
 _atom_site_fract_z
 _atom_site_occupancy
  Cd  Cd0  1  0.37863063  0.52001799  0.75000000  1
  Cd  Cd1  1  0.62136937  0.47998201  0.25000000  1
  Cu  Cu2  1  0.99945621  0.75056721  0.50099820  1
  Cu  Cu3  1  0.00054379  0.24943279  0.00099820  1
  Cu  Cu4  1  0.00054379  0.24943279  0.49900180  1
  Cu  Cu5  1  0.99945621  0.75056721  0.99900180  1
  Cu  Cu6  1  0.50000000  0.50000000  0.50000000  1
  Cu  Cu7  1  0.50000000  0.50000000  0.00000000  1
  Cu  Cu8  1  0.50000000  0.00000000  0.50000000  1
  Cu  Cu9  1  0.50000000  0.00000000  -0.00000000  1
  H  H10  1  0.82663429  0.52038939  0.41785432  1
  H  H11  1  0.17336571  0.47961061  0.91785432  1
  H  H12  1  0.17336571  0.47961061  0.58214568  1
  H  H13  1  0.82663429  0.52038939  0.08214568  1
  H  H14  1  0.17588127  0.99466459  0.58129809  1
  H  H15  1  0.82411873  0.00533541  0.08129809  1
  H  H16  1  0.82411873  0.00533541  0.41870191  1
  H  H17  1  0.17588127  0.99466459  0.91870191  1
  H  H18  1  0.43956842  0.76405893  0.41414261  1
  H  H19  1  0.56043158  0.23594107  0.91414261  1
  H  H20  1  0.56043158  0.23594107  0.58585739  1
  H  H21  1  0.43956842  0.76405893  0.08585739  1
  H  H22  1  0.07737142  0.84886181  0.78637439  1
  H  H23  1  0.92262858  0.15113819  0.28637439  1
  H  H24  1  0.92262858  0.15113819  0.21362561  1
  H  H25  1  0.07737142  0.84886181  0.71362561  1
  H  H26  1  0.52930245  0.11424659  0.78615502  1
  H  H27  1  0.47069755  0.88575341  0.28615502  1
  H  H28  1  0.47069755  0.88575341  0.21384498  1
  H  H29  1  0.52930245  0.11424659  0.71384498  1
  H  H30  1  0.94141792  0.46958238  0.82539206  1
  H  H31  1  0.05858208  0.53041762  0.32539206  1
  H  H32  1  0.05858208  0.53041762  0.17460794  1
  H  H33  1  0.94141792  0.46958238  0.67460794  1
  H  H34  1  0.04709826  0.23679485  0.82982958  1
  H  H35  1  0.95290174  0.76320515  0.32982958  1
  H  H36  1  0.95290174  0.76320515  0.17017042  1
  H  H37  1  0.04709826  0.23679485  0.67017042  1
  S  S38  1  0.69957330  0.82439051  0.63801082  1
  S  S39  1  0.30042670  0.17560949  0.13801082  1
  S  S40  1  0.30042670  0.17560949  0.36198918  1
  S  S41  1  0.69957330  0.82439051  0.86198918  1
  O  O42  1  0.50883089  0.98080970  0.64951448  1
  O  O43  1  0.49116911  0.01919030  0.14951448  1
  O  O44  1  0.49116911  0.01919030  0.35048552  1
  O  O45  1  0.50883089  0.98080970  0.85048552  1
  O  O46  1  0.93750240  0.92643073  0.65245896  1
  O  O47  1  0.06249760  0.07356927  0.15245896  1
  O  O48  1  0.06249760  0.07356927  0.34754104  1
  O  O49  1  0.93750240  0.92643073  0.84754104  1
  O  O50  1  0.69400905  0.75927571  0.57373329  1
  O  O51  1  0.30599095  0.24072429  0.07373329  1
  O  O52  1  0.30599095  0.24072429  0.42626671  1
  O  O53  1  0.69400905  0.75927571  0.92626671  1
  O  O54  1  0.66538708  0.62331727  0.67587032  1
  O  O55  1  0.33461292  0.37668273  0.17587032  1
  O  O56  1  0.33461292  0.37668273  0.32412968  1
  O  O57  1  0.66538708  0.62331727  0.82412968  1
  O  O58  1  0.82364604  0.50479678  0.46176617  1
  O  O59  1  0.17635396  0.49520322  0.96176617  1
  O  O60  1  0.17635396  0.49520322  0.53823383  1
  O  O61  1  0.82364604  0.50479678  0.03823383  1
  O  O62  1  0.17759626  0.00189702  0.53736377  1
  O  O63  1  0.82240374  0.99810298  0.03736377  1
  O  O64  1  0.82240374  0.99810298  0.46263623  1
  O  O65  1  0.17759626  0.00189702  0.96263623  1
  O  O66  1  0.38813088  0.74580741  0.45566572  1
  O  O67  1  0.61186912  0.25419259  0.95566572  1
  O  O68  1  0.61186912  0.25419259  0.54433428  1
  O  O69  1  0.38813088  0.74580741  0.04433428  1
  O  O70  1  0.17486705  0.81994480  0.75000000  1
  O  O71  1  0.82513295  0.18005520  0.25000000  1
  O  O72  1  0.56035505  0.20703602  0.75000000  1
  O  O73  1  0.43964495  0.79296398  0.25000000  1
  O  O74  1  0.09321384  0.39291734  0.83021662  1
  O  O75  1  0.90678616  0.60708266  0.33021662  1
  O  O76  1  0.90678616  0.60708266  0.16978338  1
  O  O77  1  0.09321384  0.39291734  0.66978338  1
