# generated using pymatgen
data_BaP3NO11
_symmetry_space_group_name_H-M   'P 1'
_cell_length_a   7.25680987
_cell_length_b   12.41865221
_cell_length_c   12.33884200
_cell_angle_alpha   90.00000000
_cell_angle_beta   90.00000000
_cell_angle_gamma   100.52438484
_symmetry_Int_Tables_number   1
_chemical_formula_structural   BaP3NO11
_chemical_formula_sum   'Ba4 P12 N4 O44'
_cell_volume   1093.26749907
_cell_formula_units_Z   4
loop_
 _symmetry_equiv_pos_site_id
 _symmetry_equiv_pos_as_xyz
  1  'x, y, z'
loop_
 _atom_site_type_symbol
 _atom_site_label
 _atom_site_symmetry_multiplicity
 _atom_site_fract_x
 _atom_site_fract_y
 _atom_site_fract_z
 _atom_site_occupancy
  Ba  Ba0  1  0.73622422  0.14945983  0.44850425  1
  Ba  Ba1  1  0.23622422  0.64945983  0.05149575  1
  Ba  Ba2  1  0.26377578  0.85054017  0.55149575  1
  Ba  Ba3  1  0.76377578  0.35054017  0.94850425  1
  P  P4  1  0.22390384  0.06457841  0.33572103  1
  P  P5  1  0.72390384  0.56457841  0.16427897  1
  P  P6  1  0.77609616  0.93542159  0.66427897  1
  P  P7  1  0.27609616  0.43542159  0.83572103  1
  P  P8  1  0.26693316  0.91868794  0.15104529  1
  P  P9  1  0.76693316  0.41868794  0.34895471  1
  P  P10  1  0.73306684  0.08131206  0.84895471  1
  P  P11  1  0.23306684  0.58131206  0.65104529  1
  P  P12  1  0.49978462  0.13577824  0.16976985  1
  P  P13  1  0.99978462  0.63577824  0.33023015  1
  P  P14  1  0.50021538  0.86422176  0.83023015  1
  P  P15  1  0.00021538  0.36422176  0.66976985  1
  N  N16  1  0.61323629  0.85370285  0.25318044  1
  N  N17  1  0.11323629  0.35370285  0.24681956  1
  N  N18  1  0.38676371  0.14629715  0.74681956  1
  N  N19  1  0.88676371  0.64629715  0.75318044  1
  O  O20  1  0.38935337  0.02658592  0.10273977  1
  O  O21  1  0.88935337  0.52658592  0.39726023  1
  O  O22  1  0.61064663  0.97341408  0.89726023  1
  O  O23  1  0.11064663  0.47341408  0.60273977  1
  O  O24  1  0.32885562  0.15572087  0.25124417  1
  O  O25  1  0.82885562  0.65572087  0.24875583  1
  O  O26  1  0.67114438  0.84427913  0.74875583  1
  O  O27  1  0.17114438  0.34427913  0.75124417  1
  O  O28  1  0.16704051  0.95763935  0.25513055  1
  O  O29  1  0.66704051  0.45763935  0.24486945  1
  O  O30  1  0.83295949  0.04236065  0.74486945  1
  O  O31  1  0.33295949  0.54236065  0.75513055  1
  O  O32  1  0.04729409  0.09737894  0.37221255  1
  O  O33  1  0.54729409  0.59737894  0.12778745  1
  O  O34  1  0.95270591  0.90262106  0.62778745  1
  O  O35  1  0.45270591  0.40262106  0.87221255  1
  O  O36  1  0.35971854  0.03475331  0.41836433  1
  O  O37  1  0.85971854  0.53475331  0.08163567  1
  O  O38  1  0.64028146  0.96524669  0.58163567  1
  O  O39  1  0.14028146  0.46524669  0.91836433  1
  O  O40  1  0.39625309  0.83535945  0.18701529  1
  O  O41  1  0.89625309  0.33535945  0.31298471  1
  O  O42  1  0.60374691  0.16464055  0.81298471  1
  O  O43  1  0.10374691  0.66464055  0.68701529  1
  O  O44  1  0.13017363  0.85686564  0.07397076  1
  O  O45  1  0.63017363  0.35686564  0.42602924  1
  O  O46  1  0.86982637  0.14313436  0.92602924  1
  O  O47  1  0.36982637  0.64313436  0.57397076  1
  O  O48  1  0.65039302  0.10176901  0.23713742  1
  O  O49  1  0.15039302  0.60176901  0.26286258  1
  O  O50  1  0.34960698  0.89823099  0.76286258  1
  O  O51  1  0.84960698  0.39823099  0.73713742  1
  O  O52  1  0.53501960  0.22723218  0.09064518  1
  O  O53  1  0.03501960  0.72723218  0.40935482  1
  O  O54  1  0.46498040  0.77276782  0.90935482  1
  O  O55  1  0.96498040  0.27276782  0.59064518  1
  O  O56  1  0.23653166  0.38304452  0.30834051  1
  O  O57  1  0.73653166  0.88304452  0.19165949  1
  O  O58  1  0.76346834  0.61695548  0.69165949  1
  O  O59  1  0.26346834  0.11695548  0.80834051  1
  O  O60  1  0.58833035  0.82312842  0.34399801  1
  O  O61  1  0.08833035  0.32312842  0.15600199  1
  O  O62  1  0.41166965  0.17687158  0.65600199  1
  O  O63  1  0.91166965  0.67687158  0.84399801  1
