# generated using pymatgen
data_HfCrGa2
_symmetry_space_group_name_H-M   'P 1'
_cell_length_a   8.54169223
_cell_length_b   9.09125474
_cell_length_c   9.99176843
_cell_angle_alpha   90.00000000
_cell_angle_beta   90.00000000
_cell_angle_gamma   90.00000000
_symmetry_Int_Tables_number   1
_chemical_formula_structural   HfCrGa2
_chemical_formula_sum   'Hf12 Cr12 Ga24'
_cell_volume   775.90777964
_cell_formula_units_Z   12
loop_
 _symmetry_equiv_pos_site_id
 _symmetry_equiv_pos_as_xyz
  1  'x, y, z'
loop_
 _atom_site_type_symbol
 _atom_site_label
 _atom_site_symmetry_multiplicity
 _atom_site_fract_x
 _atom_site_fract_y
 _atom_site_fract_z
 _atom_site_occupancy
  Hf  Hf0  1  0.47417655  0.16579973  0.95231266  1
  Hf  Hf1  1  0.02582345  0.33420027  0.45231266  1
  Hf  Hf2  1  0.97417655  0.83420027  0.04768734  1
  Hf  Hf3  1  0.52582345  0.66579973  0.54768734  1
  Hf  Hf4  1  0.52582345  0.83420027  0.04768734  1
  Hf  Hf5  1  0.97417655  0.66579973  0.54768734  1
  Hf  Hf6  1  0.02582345  0.16579973  0.95231266  1
  Hf  Hf7  1  0.47417655  0.33420027  0.45231266  1
  Hf  Hf8  1  0.25000000  0.16444527  0.67978770  1
  Hf  Hf9  1  0.25000000  0.33555473  0.17978770  1
  Hf  Hf10  1  0.75000000  0.83555473  0.32021230  1
  Hf  Hf11  1  0.75000000  0.66444527  0.82021230  1
  Cr  Cr12  1  0.50004051  0.42495171  0.75650567  1
  Cr  Cr13  1  0.99995949  0.07504829  0.25650567  1
  Cr  Cr14  1  0.00004051  0.57504829  0.24349433  1
  Cr  Cr15  1  0.49995949  0.92495171  0.74349433  1
  Cr  Cr16  1  0.49995949  0.57504829  0.24349433  1
  Cr  Cr17  1  0.00004051  0.92495171  0.74349433  1
  Cr  Cr18  1  0.99995949  0.42495171  0.75650567  1
  Cr  Cr19  1  0.50004051  0.07504829  0.25650567  1
  Cr  Cr20  1  0.00000000  -0.00000000  0.50000000  1
  Cr  Cr21  1  0.50000000  0.50000000  0.00000000  1
  Cr  Cr22  1  0.50000000  0.00000000  0.50000000  1
  Cr  Cr23  1  0.00000000  0.50000000  -0.00000000  1
  Ga  Ga24  1  0.92452794  0.17807342  0.67998572  1
  Ga  Ga25  1  0.57547206  0.32192658  0.17998572  1
  Ga  Ga26  1  0.42452794  0.82192658  0.32001428  1
  Ga  Ga27  1  0.07547206  0.67807342  0.82001428  1
  Ga  Ga28  1  0.07547206  0.82192658  0.32001428  1
  Ga  Ga29  1  0.42452794  0.67807342  0.82001428  1
  Ga  Ga30  1  0.57547206  0.17807342  0.67998572  1
  Ga  Ga31  1  0.92452794  0.32192658  0.17998572  1
  Ga  Ga32  1  0.25000000  0.56767462  0.38058258  1
  Ga  Ga33  1  0.25000000  0.93232538  0.88058258  1
  Ga  Ga34  1  0.75000000  0.43232538  0.61941742  1
  Ga  Ga35  1  0.75000000  0.06767462  0.11941742  1
  Ga  Ga36  1  0.25000000  0.48774760  0.62874891  1
  Ga  Ga37  1  0.25000000  0.01225240  0.12874891  1
  Ga  Ga38  1  0.75000000  0.51225240  0.37125109  1
  Ga  Ga39  1  0.75000000  0.98774760  0.87125109  1
  Ga  Ga40  1  0.25000000  0.64254499  0.09327190  1
  Ga  Ga41  1  0.25000000  0.85745501  0.59327190  1
  Ga  Ga42  1  0.75000000  0.35745501  0.90672810  1
  Ga  Ga43  1  0.75000000  0.14254499  0.40672810  1
  Ga  Ga44  1  0.25000000  0.38491830  0.89671551  1
  Ga  Ga45  1  0.25000000  0.11508170  0.39671551  1
  Ga  Ga46  1  0.75000000  0.61508170  0.10328449  1
  Ga  Ga47  1  0.75000000  0.88491830  0.60328449  1
