# generated using pymatgen
data_Mg(BH4)2
_symmetry_space_group_name_H-M   'P 1'
_cell_length_a   7.97145487
_cell_length_b   7.97145487
_cell_length_c   7.97145487
_cell_angle_alpha   96.03330606
_cell_angle_beta   116.57998574
_cell_angle_gamma   116.57998574
_symmetry_Int_Tables_number   1
_chemical_formula_structural   Mg(BH4)2
_chemical_formula_sum   'Mg4 B8 H32'
_cell_volume   374.44462147
_cell_formula_units_Z   4
loop_
 _symmetry_equiv_pos_site_id
 _symmetry_equiv_pos_as_xyz
  1  'x, y, z'
loop_
 _atom_site_type_symbol
 _atom_site_label
 _atom_site_symmetry_multiplicity
 _atom_site_fract_x
 _atom_site_fract_y
 _atom_site_fract_z
 _atom_site_occupancy
  Mg  Mg0  1  0.25000000  0.87500000  0.12500000  1
  Mg  Mg1  1  0.75000000  0.12500000  0.87500000  1
  Mg  Mg2  1  0.75000000  0.62500000  0.37500000  1
  Mg  Mg3  1  0.25000000  0.37500000  0.62500000  1
  B  B4  1  0.98456283  0.71543864  0.23087582  1
  B  B5  1  0.48456283  0.23087582  0.71543864  1
  B  B6  1  0.01543717  0.23087582  0.24631299  1
  B  B7  1  0.51543717  0.24631299  0.23087582  1
  B  B8  1  0.01543717  0.28456136  0.76912418  1
  B  B9  1  0.51543717  0.76912418  0.28456136  1
  B  B10  1  0.98456283  0.76912418  0.75368701  1
  B  B11  1  0.48456283  0.75368701  0.76912418  1
  H  H12  1  0.79183332  0.67446269  0.13724750  1
  H  H13  1  0.03721519  0.67446269  0.38262937  1
  H  H14  1  0.29183332  0.13724750  0.67446269  1
  H  H15  1  0.96278481  0.13724750  0.34541418  1
  H  H16  1  0.46278481  0.34541418  0.13724750  1
  H  H17  1  0.70816668  0.34541418  0.38262937  1
  H  H18  1  0.53721519  0.38262937  0.67446269  1
  H  H19  1  0.20816668  0.38262937  0.34541418  1
  H  H20  1  0.20816668  0.32553731  0.86275250  1
  H  H21  1  0.96278481  0.32553731  0.61737063  1
  H  H22  1  0.70816668  0.86275250  0.32553731  1
  H  H23  1  0.03721519  0.86275250  0.65458582  1
  H  H24  1  0.53721519  0.65458582  0.86275250  1
  H  H25  1  0.29183332  0.65458582  0.61737063  1
  H  H26  1  0.46278481  0.61737063  0.32553731  1
  H  H27  1  0.79183332  0.61737063  0.65458582  1
  H  H28  1  0.38728446  0.17408501  0.28680056  1
  H  H29  1  0.88728446  0.28680056  0.17408501  1
  H  H30  1  0.61271554  0.28680056  0.89951610  1
  H  H31  1  0.11271554  0.89951610  0.28680056  1
  H  H32  1  0.61271554  0.82591499  0.71319944  1
  H  H33  1  0.11271554  0.71319944  0.82591499  1
  H  H34  1  0.38728446  0.71319944  0.10048390  1
  H  H35  1  0.88728446  0.10048390  0.71319944  1
  H  H36  1  0.99703000  0.61354402  0.11651402  1
  H  H37  1  0.49703000  0.11651402  0.61354402  1
  H  H38  1  0.00297000  0.11651402  0.11948402  1
  H  H39  1  0.50297000  0.11948402  0.11651402  1
  H  H40  1  0.00297000  0.38645598  0.88348598  1
  H  H41  1  0.50297000  0.88348598  0.38645598  1
  H  H42  1  0.99703000  0.88348598  0.88051598  1
  H  H43  1  0.49703000  0.88051598  0.88348598  1
