# generated using pymatgen
data_La3MoO7
_symmetry_space_group_name_H-M   'P 1'
_cell_length_a   7.59278293
_cell_length_b   7.76931555
_cell_length_c   11.20837407
_cell_angle_alpha   90.00000000
_cell_angle_beta   90.00000000
_cell_angle_gamma   90.00000000
_symmetry_Int_Tables_number   1
_chemical_formula_structural   La3MoO7
_chemical_formula_sum   'La12 Mo4 O28'
_cell_volume   661.19012911
_cell_formula_units_Z   4
loop_
 _symmetry_equiv_pos_site_id
 _symmetry_equiv_pos_as_xyz
  1  'x, y, z'
loop_
 _atom_site_type_symbol
 _atom_site_label
 _atom_site_symmetry_multiplicity
 _atom_site_fract_x
 _atom_site_fract_y
 _atom_site_fract_z
 _atom_site_occupancy
  La  La0  1  0.75601522  0.49812460  0.25000000  1
  La  La1  1  0.74398478  0.99812460  0.25000000  1
  La  La2  1  0.24398478  0.50187540  0.75000000  1
  La  La3  1  0.25601522  0.00187540  0.75000000  1
  La  La4  1  0.05170179  0.75035915  0.47575312  1
  La  La5  1  0.44829821  0.25035915  0.02424688  1
  La  La6  1  0.94829821  0.24964085  0.97575312  1
  La  La7  1  0.55170179  0.74964085  0.52424688  1
  La  La8  1  0.94829821  0.24964085  0.52424688  1
  La  La9  1  0.55170179  0.74964085  0.97575312  1
  La  La10  1  0.05170179  0.75035915  0.02424688  1
  La  La11  1  0.44829821  0.25035915  0.47575312  1
  Mo  Mo12  1  0.24851540  0.50273069  0.25000000  1
  Mo  Mo13  1  0.25148460  0.00273069  0.25000000  1
  Mo  Mo14  1  0.75148460  0.49726931  0.75000000  1
  Mo  Mo15  1  0.74851540  0.99726931  0.75000000  1
  O  O16  1  0.05812045  0.46821646  0.37358868  1
  O  O17  1  0.44187955  0.96821646  0.12641132  1
  O  O18  1  0.94187955  0.53178354  0.87358868  1
  O  O19  1  0.55812045  0.03178354  0.62641132  1
  O  O20  1  0.94187955  0.53178354  0.62641132  1
  O  O21  1  0.55812045  0.03178354  0.87358868  1
  O  O22  1  0.05812045  0.46821646  0.12641132  1
  O  O23  1  0.44187955  0.96821646  0.37358868  1
  O  O24  1  0.57030908  0.46262602  0.87682350  1
  O  O25  1  0.92969092  0.96262602  0.62317650  1
  O  O26  1  0.42969092  0.53737398  0.37682350  1
  O  O27  1  0.07030908  0.03737398  0.12317650  1
  O  O28  1  0.42969092  0.53737398  0.12317650  1
  O  O29  1  0.07030908  0.03737398  0.37682350  1
  O  O30  1  0.57030908  0.46262602  0.62317650  1
  O  O31  1  0.92969092  0.96262602  0.87682350  1
  O  O32  1  0.77626392  0.74866401  0.38015615  1
  O  O33  1  0.72373608  0.24866401  0.11984385  1
  O  O34  1  0.22373608  0.25133599  0.88015615  1
  O  O35  1  0.27626392  0.75133599  0.61984385  1
  O  O36  1  0.22373608  0.25133599  0.61984385  1
  O  O37  1  0.27626392  0.75133599  0.88015615  1
  O  O38  1  0.77626392  0.74866401  0.11984385  1
  O  O39  1  0.72373608  0.24866401  0.38015615  1
  O  O40  1  0.18869197  0.75342311  0.25000000  1
  O  O41  1  0.31130803  0.25342311  0.25000000  1
  O  O42  1  0.81130803  0.24657689  0.75000000  1
  O  O43  1  0.68869197  0.74657689  0.75000000  1
