# generated using pymatgen
data_Li3V2(PO4)3
_symmetry_space_group_name_H-M   'P 1'
_cell_length_a   8.70318920
_cell_length_b   8.82861295
_cell_length_c   12.21150132
_cell_angle_alpha   89.81560232
_cell_angle_beta   90.00000000
_cell_angle_gamma   90.00000000
_symmetry_Int_Tables_number   1
_chemical_formula_structural   Li3V2(PO4)3
_chemical_formula_sum   'Li12 V8 P12 O48'
_cell_volume   938.29135337
_cell_formula_units_Z   4
loop_
 _symmetry_equiv_pos_site_id
 _symmetry_equiv_pos_as_xyz
  1  'x, y, z'
loop_
 _atom_site_type_symbol
 _atom_site_label
 _atom_site_symmetry_multiplicity
 _atom_site_fract_x
 _atom_site_fract_y
 _atom_site_fract_z
 _atom_site_occupancy
  Li  Li0  1  0.21027687  0.85930951  0.95567343  1
  Li  Li1  1  0.71027687  0.64069049  0.54432657  1
  Li  Li2  1  0.78972313  0.14069049  0.04432657  1
  Li  Li3  1  0.28972313  0.35930951  0.45567343  1
  Li  Li4  1  0.70726193  0.07714516  0.75522932  1
  Li  Li5  1  0.20726193  0.42285484  0.74477068  1
  Li  Li6  1  0.29273807  0.92285484  0.24477068  1
  Li  Li7  1  0.79273807  0.57714516  0.25522932  1
  Li  Li8  1  0.67424970  0.48197574  0.79295638  1
  Li  Li9  1  0.17424970  0.01802426  0.70704362  1
  Li  Li10  1  0.32575030  0.51802426  0.20704362  1
  Li  Li11  1  0.82575030  0.98197574  0.29295638  1
  V  V12  1  0.03105783  0.74910257  0.61434783  1
  V  V13  1  0.53105783  0.75089743  0.88565217  1
  V  V14  1  0.96894217  0.25089743  0.38565217  1
  V  V15  1  0.46894217  0.24910257  0.11434783  1
  V  V16  1  0.02964084  0.25843340  0.88873349  1
  V  V17  1  0.52964084  0.24156660  0.61126651  1
  V  V18  1  0.97035916  0.74156660  0.11126651  1
  V  V19  1  0.47035916  0.75843340  0.38873349  1
  P  P20  1  0.39559300  0.60324323  0.64635544  1
  P  P21  1  0.89559300  0.89675677  0.85364456  1
  P  P22  1  0.60440700  0.39675677  0.35364456  1
  P  P23  1  0.10440700  0.10324323  0.14635544  1
  P  P24  1  0.39549958  0.10856191  0.85458832  1
  P  P25  1  0.89549958  0.39143809  0.64541168  1
  P  P26  1  0.60450042  0.89143809  0.14541168  1
  P  P27  1  0.10450042  0.60856191  0.35458832  1
  P  P28  1  0.25238422  0.53516144  0.99377617  1
  P  P29  1  0.75238422  0.96483856  0.50622383  1
  P  P30  1  0.74761578  0.46483856  0.00622383  1
  P  P31  1  0.24761578  0.03516144  0.49377617  1
  O  O32  1  0.39788150  0.93382403  0.83905203  1
  O  O33  1  0.89788150  0.56617597  0.66094797  1
  O  O34  1  0.60211850  0.06617597  0.16094797  1
  O  O35  1  0.10211850  0.43382403  0.33905203  1
  O  O36  1  0.37605886  0.42680342  0.62978188  1
  O  O37  1  0.87605886  0.07319658  0.87021812  1
  O  O38  1  0.62394114  0.57319658  0.37021812  1
  O  O39  1  0.12394114  0.92680342  0.12978188  1
  O  O40  1  0.01046773  0.87069463  0.75852914  1
  O  O41  1  0.51046773  0.62930537  0.74147086  1
  O  O42  1  0.98953227  0.12930537  0.24147086  1
  O  O43  1  0.48953227  0.37069463  0.25852914  1
  O  O44  1  0.01111801  0.31437761  0.72612067  1
  O  O45  1  0.51111801  0.18562239  0.77387933  1
  O  O46  1  0.98888199  0.68562239  0.27387933  1
  O  O47  1  0.48888199  0.81437761  0.22612067  1
  O  O48  1  0.46789137  0.67620908  0.54307990  1
  O  O49  1  0.96789137  0.82379092  0.95692010  1
  O  O50  1  0.53210863  0.32379092  0.45692010  1
  O  O51  1  0.03210863  0.17620908  0.04307990  1
  O  O52  1  0.43807648  0.15177532  0.97086894  1
  O  O53  1  0.93807648  0.34822468  0.52913106  1
  O  O54  1  0.56192352  0.84822468  0.02913106  1
  O  O55  1  0.06192352  0.65177532  0.47086894  1
  O  O56  1  0.13035329  0.94294414  0.56054102  1
  O  O57  1  0.63035329  0.55705586  0.93945898  1
  O  O58  1  0.86964671  0.05705586  0.43945898  1
  O  O59  1  0.36964671  0.44294414  0.06054102  1
  O  O60  1  0.17335935  0.43767426  0.90548826  1
  O  O61  1  0.67335935  0.06232574  0.59451174  1
  O  O62  1  0.82664065  0.56232574  0.09451174  1
  O  O63  1  0.32664065  0.93767426  0.40548826  1
  O  O64  1  0.32438982  0.67313139  0.93483984  1
  O  O65  1  0.82438982  0.82686861  0.56516016  1
  O  O66  1  0.67561018  0.32686861  0.06516016  1
  O  O67  1  0.17561018  0.17313139  0.43483984  1
  O  O68  1  0.35621690  0.10099482  0.58210617  1
  O  O69  1  0.85621690  0.39900518  0.91789383  1
  O  O70  1  0.64378310  0.89900518  0.41789383  1
  O  O71  1  0.14378310  0.60099482  0.08210617  1
  O  O72  1  0.23306525  0.65953437  0.67428035  1
  O  O73  1  0.73306525  0.84046563  0.82571965  1
  O  O74  1  0.76693475  0.34046563  0.32571965  1
  O  O75  1  0.26693475  0.15953437  0.17428035  1
  O  O76  1  0.22644264  0.15282814  0.82676080  1
  O  O77  1  0.72644264  0.34717186  0.67323920  1
  O  O78  1  0.77355736  0.84717186  0.17323920  1
  O  O79  1  0.27355736  0.65282814  0.32676080  1
