# generated using pymatgen
data_Ce2AlSi2O9
_symmetry_space_group_name_H-M   'P 1'
_cell_length_a   5.69586946
_cell_length_b   7.83923576
_cell_length_c   15.44257352
_cell_angle_alpha   96.07993675
_cell_angle_beta   90.00000000
_cell_angle_gamma   90.00000000
_symmetry_Int_Tables_number   1
_chemical_formula_structural   Ce2AlSi2O9
_chemical_formula_sum   'Ce8 Al4 Si8 O36'
_cell_volume   685.65187608
_cell_formula_units_Z   4
loop_
 _symmetry_equiv_pos_site_id
 _symmetry_equiv_pos_as_xyz
  1  'x, y, z'
loop_
 _atom_site_type_symbol
 _atom_site_label
 _atom_site_symmetry_multiplicity
 _atom_site_fract_x
 _atom_site_fract_y
 _atom_site_fract_z
 _atom_site_occupancy
  Ce  Ce0  1  0.79358925  0.83482168  0.06100754  1
  Ce  Ce1  1  0.29358925  0.66517832  0.43899246  1
  Ce  Ce2  1  0.20641075  0.16517832  0.93899246  1
  Ce  Ce3  1  0.70641075  0.33482168  0.56100754  1
  Ce  Ce4  1  0.70155282  0.32741283  0.13720354  1
  Ce  Ce5  1  0.20155282  0.17258717  0.36279646  1
  Ce  Ce6  1  0.29844718  0.67258717  0.86279646  1
  Ce  Ce7  1  0.79844718  0.82741283  0.63720354  1
  Al  Al8  1  0.00288686  0.74064037  0.25143602  1
  Al  Al9  1  0.50288686  0.75935963  0.24856398  1
  Al  Al10  1  0.99711314  0.25935963  0.74856398  1
  Al  Al11  1  0.49711314  0.24064037  0.75143602  1
  Si  Si12  1  0.25073548  0.56829121  0.08277900  1
  Si  Si13  1  0.75073548  0.93170879  0.41722100  1
  Si  Si14  1  0.74926452  0.43170879  0.91722100  1
  Si  Si15  1  0.24926452  0.06829121  0.58277900  1
  Si  Si16  1  0.27382062  0.06780136  0.15419765  1
  Si  Si17  1  0.77382062  0.43219864  0.34580235  1
  Si  Si18  1  0.72617938  0.93219864  0.84580235  1
  Si  Si19  1  0.22617938  0.56780136  0.65419765  1
  O  O20  1  0.31714147  0.37353069  0.04187231  1
  O  O21  1  0.81714147  0.12646931  0.45812769  1
  O  O22  1  0.68285853  0.62646931  0.95812769  1
  O  O23  1  0.18285853  0.87353069  0.54187231  1
  O  O24  1  0.19236314  0.69940545  0.00911424  1
  O  O25  1  0.69236314  0.80059455  0.49088576  1
  O  O26  1  0.80763686  0.30059455  0.99088576  1
  O  O27  1  0.30763686  0.19940545  0.50911424  1
  O  O28  1  0.49213760  0.61646775  0.13977908  1
  O  O29  1  0.99213760  0.88353225  0.36022092  1
  O  O30  1  0.50786240  0.38353225  0.86022092  1
  O  O31  1  0.00786240  0.11646775  0.63977908  1
  O  O32  1  0.00865516  0.58220769  0.14278620  1
  O  O33  1  0.50865516  0.91779231  0.35721380  1
  O  O34  1  0.99134484  0.41779231  0.85721380  1
  O  O35  1  0.49134484  0.08220769  0.64278620  1
  O  O36  1  0.33270692  0.23026518  0.22692807  1
  O  O37  1  0.83270692  0.26973482  0.27307193  1
  O  O38  1  0.66729308  0.76973482  0.77307193  1
  O  O39  1  0.16729308  0.73026518  0.72692807  1
  O  O40  1  0.24655897  0.89614783  0.20800302  1
  O  O41  1  0.74655897  0.60385217  0.29199698  1
  O  O42  1  0.75344103  0.10385217  0.79199698  1
  O  O43  1  0.25344103  0.39614783  0.70800302  1
  O  O44  1  0.03593193  0.08614735  0.09464431  1
  O  O45  1  0.53593193  0.41385265  0.40535569  1
  O  O46  1  0.96406807  0.91385265  0.90535569  1
  O  O47  1  0.46406807  0.58614735  0.59464431  1
  O  O48  1  0.50561885  0.05750389  0.08947707  1
  O  O49  1  0.00561885  0.44249611  0.41052293  1
  O  O50  1  0.49438115  0.94249611  0.91052293  1
  O  O51  1  0.99438115  0.55750389  0.58947707  1
  O  O52  1  0.26309533  0.64066907  0.29629663  1
  O  O53  1  0.76309533  0.85933093  0.20370337  1
  O  O54  1  0.73690467  0.35933093  0.70370337  1
  O  O55  1  0.23690467  0.14066907  0.79629663  1
