# generated using pymatgen
data_ThCd5
_symmetry_space_group_name_H-M   'P 1'
_cell_length_a   10.00998660
_cell_length_b   10.00998660
_cell_length_c   10.12490376
_cell_angle_alpha   90.00000000
_cell_angle_beta   90.00000000
_cell_angle_gamma   119.96732641
_symmetry_Int_Tables_number   1
_chemical_formula_structural   ThCd5
_chemical_formula_sum   'Th6 Cd30'
_cell_volume   878.88372296
_cell_formula_units_Z   6
loop_
 _symmetry_equiv_pos_site_id
 _symmetry_equiv_pos_as_xyz
  1  'x, y, z'
loop_
 _atom_site_type_symbol
 _atom_site_label
 _atom_site_symmetry_multiplicity
 _atom_site_fract_x
 _atom_site_fract_y
 _atom_site_fract_z
 _atom_site_occupancy
  Th  Th0  1  0.80784134  0.61562837  0.75000000  1
  Th  Th1  1  0.80775406  0.19224594  0.75000000  1
  Th  Th2  1  0.38437163  0.19215866  0.75000000  1
  Th  Th3  1  0.19215866  0.38437163  0.25000000  1
  Th  Th4  1  0.19224594  0.80775406  0.25000000  1
  Th  Th5  1  0.61562837  0.80784134  0.25000000  1
  Cd  Cd6  1  -0.00000000  -0.00000000  0.50000000  1
  Cd  Cd7  1  -0.00000000  -0.00000000  -0.00000000  1
  Cd  Cd8  1  0.66664645  0.33335355  0.53136349  1
  Cd  Cd9  1  0.33335355  0.66664645  0.46863651  1
  Cd  Cd10  1  0.33335355  0.66664645  0.03136349  1
  Cd  Cd11  1  0.66664645  0.33335355  0.96863651  1
  Cd  Cd12  1  0.50000000  -0.00000000  0.50000000  1
  Cd  Cd13  1  0.50000000  0.50000000  0.50000000  1
  Cd  Cd14  1  -0.00000000  0.50000000  0.50000000  1
  Cd  Cd15  1  0.50000000  -0.00000000  -0.00000000  1
  Cd  Cd16  1  0.50000000  0.50000000  -0.00000000  1
  Cd  Cd17  1  -0.00000000  0.50000000  -0.00000000  1
  Cd  Cd18  1  0.43376484  0.86749257  0.75000000  1
  Cd  Cd19  1  0.43381739  0.56618261  0.75000000  1
  Cd  Cd20  1  0.13250743  0.56623516  0.75000000  1
  Cd  Cd21  1  0.56623516  0.13250743  0.25000000  1
  Cd  Cd22  1  0.56618261  0.43381739  0.25000000  1
  Cd  Cd23  1  0.86749257  0.43376484  0.25000000  1
  Cd  Cd24  1  0.15637789  0.31264817  0.59608438  1
  Cd  Cd25  1  0.15636529  0.84363471  0.59609437  1
  Cd  Cd26  1  0.68735183  0.84362211  0.59608438  1
  Cd  Cd27  1  0.84362211  0.68735183  0.40391562  1
  Cd  Cd28  1  0.84363471  0.15636529  0.40390563  1
  Cd  Cd29  1  0.31264817  0.15637789  0.40391562  1
  Cd  Cd30  1  0.84362211  0.68735183  0.09608438  1
  Cd  Cd31  1  0.84363471  0.15636529  0.09609437  1
  Cd  Cd32  1  0.31264817  0.15637789  0.09608438  1
  Cd  Cd33  1  0.15637789  0.31264817  0.90391562  1
  Cd  Cd34  1  0.15636529  0.84363471  0.90390563  1
  Cd  Cd35  1  0.68735183  0.84362211  0.90391562  1
