# generated using pymatgen
data_Cu2Bi8Pb6S19
_symmetry_space_group_name_H-M   'P 1'
_cell_length_a   4.21978026
_cell_length_b   13.87345802
_cell_length_c   15.84168291
_cell_angle_alpha   89.39236431
_cell_angle_beta   82.34626466
_cell_angle_gamma   81.25245609
_symmetry_Int_Tables_number   1
_chemical_formula_structural   Cu2Bi8Pb6S19
_chemical_formula_sum   'Cu2 Bi8 Pb6 S19'
_cell_volume   908.42076454
_cell_formula_units_Z   1
loop_
 _symmetry_equiv_pos_site_id
 _symmetry_equiv_pos_as_xyz
  1  'x, y, z'
loop_
 _atom_site_type_symbol
 _atom_site_label
 _atom_site_symmetry_multiplicity
 _atom_site_fract_x
 _atom_site_fract_y
 _atom_site_fract_z
 _atom_site_occupancy
  Cu  Cu0  1  0.53928886  0.01038466  0.91103762  1
  Cu  Cu1  1  0.46071114  0.98961534  0.08896238  1
  Bi  Bi2  1  0.29788693  0.86523093  0.53899520  1
  Bi  Bi3  1  0.70211307  0.13476907  0.46100480  1
  Bi  Bi4  1  0.09365992  0.10521201  0.70746815  1
  Bi  Bi5  1  0.90634008  0.89478799  0.29253185  1
  Bi  Bi6  1  0.89800787  0.24621961  0.95776464  1
  Bi  Bi7  1  0.10199213  0.75378039  0.04223536  1
  Bi  Bi8  1  0.77996855  0.54461555  0.89544734  1
  Bi  Bi9  1  0.22003145  0.45538445  0.10455266  1
  Pb  Pb10  1  0.69037422  0.84241367  0.77683788  1
  Pb  Pb11  1  0.30962578  0.15758633  0.22316212  1
  Pb  Pb12  1  0.89890452  0.60966170  0.59252926  1
  Pb  Pb13  1  0.10109548  0.39033830  0.40747074  1
  Pb  Pb14  1  0.49036476  0.36471091  0.65455957  1
  Pb  Pb15  1  0.50963524  0.63528909  0.34544043  1
  S  S16  1  0.50000000  0.50000000  0.50000000  1
  S  S17  1  0.51235564  0.20153264  0.77375608  1
  S  S18  1  0.48764436  0.79846736  0.22624392  1
  S  S19  1  0.11281995  0.23034950  0.54401059  1
  S  S20  1  0.88718005  0.76965050  0.45598941  1
  S  S21  1  0.08812454  0.98475070  0.83900021  1
  S  S22  1  0.91187546  0.01524930  0.16099979  1
  S  S23  1  0.57182592  0.86342109  0.99292706  1
  S  S24  1  0.42817408  0.13657891  0.00707294  1
  S  S25  1  0.70074548  0.97339961  0.62510944  1
  S  S26  1  0.29925452  0.02660039  0.37489056  1
  S  S27  1  0.21460349  0.68549943  0.88529358  1
  S  S28  1  0.78539651  0.31450057  0.11470642  1
  S  S29  1  0.29567394  0.74312850  0.66552362  1
  S  S30  1  0.70432606  0.25687150  0.33447638  1
  S  S31  1  0.90180053  0.46988964  0.72650930  1
  S  S32  1  0.09819947  0.53011036  0.27349070  1
  S  S33  1  0.32879154  0.41101146  0.93140545  1
  S  S34  1  0.67120846  0.58898854  0.06859455  1
