# generated using pymatgen
data_CoH8(CO4)2
_symmetry_space_group_name_H-M   'P 1'
_cell_length_a   6.32313376
_cell_length_b   8.84960793
_cell_length_c   11.20468082
_cell_angle_alpha   71.06345239
_cell_angle_beta   85.36861897
_cell_angle_gamma   71.60392244
_symmetry_Int_Tables_number   1
_chemical_formula_structural   CoH8(CO4)2
_chemical_formula_sum   'Co3 H24 C6 O24'
_cell_volume   562.57965118
_cell_formula_units_Z   3
loop_
 _symmetry_equiv_pos_site_id
 _symmetry_equiv_pos_as_xyz
  1  'x, y, z'
loop_
 _atom_site_type_symbol
 _atom_site_label
 _atom_site_symmetry_multiplicity
 _atom_site_fract_x
 _atom_site_fract_y
 _atom_site_fract_z
 _atom_site_occupancy
  Co  Co0  1  0.51405278  0.85091114  0.31986579  1
  Co  Co1  1  0.48594722  0.14908886  0.68013421  1
  Co  Co2  1  0.50000000  0.50000000  0.00000000  1
  H  H3  1  0.71259709  0.04179620  0.13748191  1
  H  H4  1  0.28740291  0.95820380  0.86251809  1
  H  H5  1  0.79766307  0.03324554  0.26896562  1
  H  H6  1  0.20233693  0.96675446  0.73103438  1
  H  H7  1  0.20260772  0.77563701  0.48967158  1
  H  H8  1  0.79739228  0.22436299  0.51032842  1
  H  H9  1  0.21268370  0.66954282  0.39316161  1
  H  H10  1  0.78731630  0.33045718  0.60683839  1
  H  H11  1  0.18061525  0.35916771  0.08853717  1
  H  H12  1  0.81938475  0.64083229  0.91146283  1
  H  H13  1  0.20970056  0.45517207  0.18768402  1
  H  H14  1  0.79029944  0.54482793  0.81231598  1
  H  H15  1  0.97657318  0.85887170  0.65591371  1
  H  H16  1  0.02342682  0.14112830  0.34408629  1
  H  H17  1  0.20263914  0.72075726  0.71428708  1
  H  H18  1  0.79736086  0.27924274  0.28571292  1
  H  H19  1  0.97849583  0.23412464  0.00874179  1
  H  H20  1  0.02150417  0.76587536  0.99125821  1
  H  H21  1  0.20334093  0.09667567  0.07240368  1
  H  H22  1  0.79665907  0.90332433  0.92759632  1
  H  H23  1  0.98475010  0.54058820  0.33334059  1
  H  H24  1  0.01524990  0.45941180  0.66665941  1
  H  H25  1  0.20121787  0.39884414  0.40363062  1
  H  H26  1  0.79878213  0.60115586  0.59636938  1
  C  C27  1  0.43650434  0.76291839  0.10936308  1
  C  C28  1  0.56349566  0.23708161  0.89063692  1
  C  C29  1  0.60881117  0.60519326  0.19669868  1
  C  C30  1  0.39118883  0.39480674  0.80330132  1
  C  C31  1  0.40343869  0.07682873  0.46288413  1
  C  C32  1  0.59656131  0.92317127  0.53711587  1
  O  O33  1  0.37923859  0.89304404  0.14351195  1
  O  O34  1  0.62076141  0.10695596  0.85648805  1
  O  O35  1  0.68580752  0.62158178  0.29115335  1
  O  O36  1  0.31419248  0.37841822  0.70884665  1
  O  O37  1  0.36534420  0.75140452  0.01097291  1
  O  O38  1  0.63465580  0.24859548  0.98902709  1
  O  O39  1  0.65963936  0.47093656  0.16806473  1
  O  O40  1  0.34036064  0.52906344  0.83193527  1
  O  O41  1  0.33229417  0.07245022  0.36215435  1
  O  O42  1  0.66770583  0.92754978  0.63784565  1
  O  O43  1  0.66987363  0.80320495  0.49122294  1
  O  O44  1  0.33012637  0.19679505  0.50877706  1
  O  O45  1  0.74986731  0.96789831  0.22498941  1
  O  O46  1  0.25013269  0.03210169  0.77501059  1
  O  O47  1  0.25621533  0.76045470  0.40804203  1
  O  O48  1  0.74378467  0.23954530  0.59195797  1
  O  O49  1  0.23704503  0.44671830  0.10172836  1
  O  O50  1  0.76295497  0.55328170  0.89827164  1
  O  O51  1  0.14044121  0.83234398  0.64987274  1
  O  O52  1  0.85955879  0.16765602  0.35012726  1
  O  O53  1  0.12923458  0.21862900  0.03547663  1
  O  O54  1  0.87076542  0.78137100  0.96452337  1
  O  O55  1  0.14893502  0.51137735  0.33915971  1
  O  O56  1  0.85106498  0.48862265  0.66084029  1
