# generated using pymatgen
data_Ca5Zr3F22
_symmetry_space_group_name_H-M   'P 1'
_cell_length_a   7.51808691
_cell_length_b   10.06852010
_cell_length_c   10.14109384
_cell_angle_alpha   90.00000000
_cell_angle_beta   90.00000000
_cell_angle_gamma   90.00000000
_symmetry_Int_Tables_number   1
_chemical_formula_structural   Ca5Zr3F22
_chemical_formula_sum   'Ca10 Zr6 F44'
_cell_volume   767.64033227
_cell_formula_units_Z   2
loop_
 _symmetry_equiv_pos_site_id
 _symmetry_equiv_pos_as_xyz
  1  'x, y, z'
loop_
 _atom_site_type_symbol
 _atom_site_label
 _atom_site_symmetry_multiplicity
 _atom_site_fract_x
 _atom_site_fract_y
 _atom_site_fract_z
 _atom_site_occupancy
  Ca  Ca0  1  0.26026337  0.24769935  0.78839688  1
  Ca  Ca1  1  0.73973663  0.24769935  0.21160312  1
  Ca  Ca2  1  0.23973663  0.75230065  0.28839688  1
  Ca  Ca3  1  0.76026337  0.75230065  0.71160312  1
  Ca  Ca4  1  0.00000000  0.05522252  0.50000000  1
  Ca  Ca5  1  0.50000000  0.94477748  0.00000000  1
  Ca  Ca6  1  0.50000000  0.46238427  0.50000000  1
  Ca  Ca7  1  0.00000000  0.53761573  0.00000000  1
  Ca  Ca8  1  0.50000000  0.02183077  0.50000000  1
  Ca  Ca9  1  0.00000000  0.97816923  0.00000000  1
  Zr  Zr10  1  0.75216026  0.22375795  0.78785303  1
  Zr  Zr11  1  0.24783974  0.22375795  0.21214697  1
  Zr  Zr12  1  0.74783974  0.77624205  0.28785303  1
  Zr  Zr13  1  0.25216026  0.77624205  0.71214697  1
  Zr  Zr14  1  0.50000000  0.53875966  0.00000000  1
  Zr  Zr15  1  0.00000000  0.46124034  0.50000000  1
  F  F16  1  0.25958934  0.10594471  0.61268818  1
  F  F17  1  0.74041066  0.10594471  0.38731182  1
  F  F18  1  0.24041066  0.89405529  0.11268818  1
  F  F19  1  0.75958934  0.89405529  0.88731182  1
  F  F20  1  0.74110657  0.06842256  0.64810902  1
  F  F21  1  0.25889343  0.06842256  0.35189098  1
  F  F22  1  0.75889343  0.93157744  0.14810902  1
  F  F23  1  0.24110657  0.93157744  0.85189098  1
  F  F24  1  0.55947855  0.29182613  0.64823408  1
  F  F25  1  0.44052145  0.29182613  0.35176592  1
  F  F26  1  0.94052145  0.70817387  0.14823408  1
  F  F27  1  0.05947855  0.70817387  0.85176592  1
  F  F28  1  0.91217982  0.28808279  0.61123879  1
  F  F29  1  0.08782018  0.28808279  0.38876121  1
  F  F30  1  0.58782018  0.71191721  0.11123879  1
  F  F31  1  0.41217982  0.71191721  0.88876121  1
  F  F32  1  0.77843066  0.39479540  0.38966936  1
  F  F33  1  0.22156934  0.39479540  0.61033064  1
  F  F34  1  0.72156934  0.60520460  0.88966936  1
  F  F35  1  0.27843066  0.60520460  0.11033064  1
  F  F36  1  0.51540001  0.12238762  0.84279172  1
  F  F37  1  0.48459999  0.12238762  0.15720828  1
  F  F38  1  0.98459999  0.87761238  0.34279172  1
  F  F39  1  0.01540001  0.87761238  0.65720828  1
  F  F40  1  0.99474079  0.12130742  0.80449329  1
  F  F41  1  0.00525921  0.12130742  0.19550671  1
  F  F42  1  0.50525921  0.87869258  0.30449329  1
  F  F43  1  0.49474079  0.87869258  0.69550671  1
  F  F44  1  0.93447870  0.37036258  0.84976352  1
  F  F45  1  0.06552130  0.37036258  0.15023648  1
  F  F46  1  0.56552130  0.62963742  0.34976352  1
  F  F47  1  0.43447870  0.62963742  0.65023648  1
  F  F48  1  0.22449554  0.53301844  0.39362949  1
  F  F49  1  0.77550446  0.53301844  0.60637051  1
  F  F50  1  0.27550446  0.46698156  0.89362949  1
  F  F51  1  0.72449554  0.46698156  0.10637051  1
  F  F52  1  0.77976229  0.16918090  0.99043508  1
  F  F53  1  0.22023771  0.16918090  0.00956492  1
  F  F54  1  0.72023771  0.83081910  0.49043508  1
  F  F55  1  0.27976229  0.83081910  0.50956492  1
  F  F56  1  0.58271674  0.37190795  0.88294922  1
  F  F57  1  0.41728326  0.37190795  0.11705078  1
  F  F58  1  0.91728326  0.62809205  0.38294922  1
  F  F59  1  0.08271674  0.62809205  0.61705078  1
