# generated using pymatgen
data_Cu3Ag5(PO4)4
_symmetry_space_group_name_H-M   'P 1'
_cell_length_a   5.16451764
_cell_length_b   9.30114068
_cell_length_c   15.73637318
_cell_angle_alpha   81.16020589
_cell_angle_beta   80.55533971
_cell_angle_gamma   73.88130166
_symmetry_Int_Tables_number   1
_chemical_formula_structural   Cu3Ag5(PO4)4
_chemical_formula_sum   'Cu6 Ag10 P8 O32'
_cell_volume   711.67402823
_cell_formula_units_Z   2
loop_
 _symmetry_equiv_pos_site_id
 _symmetry_equiv_pos_as_xyz
  1  'x, y, z'
loop_
 _atom_site_type_symbol
 _atom_site_label
 _atom_site_symmetry_multiplicity
 _atom_site_fract_x
 _atom_site_fract_y
 _atom_site_fract_z
 _atom_site_occupancy
  Cu  Cu0  1  0.50000000  0.50000000  0.50000000  1
  Cu  Cu1  1  -0.00000000  0.00000000  -0.00000000  1
  Cu  Cu2  1  0.82516680  0.77205806  0.52454052  1
  Cu  Cu3  1  0.62176538  0.72794194  0.97545948  1
  Cu  Cu4  1  0.17483320  0.22794194  0.47545948  1
  Cu  Cu5  1  0.37823462  0.27205806  0.02454052  1
  Ag  Ag6  1  0.72729098  0.75000000  0.75000000  1
  Ag  Ag7  1  0.27270902  0.25000000  0.25000000  1
  Ag  Ag8  1  0.58541189  0.14775471  0.62212421  1
  Ag  Ag9  1  0.85529082  0.35224529  0.87787579  1
  Ag  Ag10  1  0.41458811  0.85224529  0.37787579  1
  Ag  Ag11  1  0.14470918  0.64775471  0.12212421  1
  Ag  Ag12  1  0.43122074  0.39683813  0.75044248  1
  Ag  Ag13  1  0.07850135  0.10316187  0.74955752  1
  Ag  Ag14  1  0.56877926  0.60316187  0.24955752  1
  Ag  Ag15  1  0.92149865  0.89683813  0.25044248  1
  P  P16  1  0.51637487  0.05531118  0.87913727  1
  P  P17  1  0.95082331  0.44468882  0.62086273  1
  P  P18  1  0.48362513  0.94468882  0.12086273  1
  P  P19  1  0.04917669  0.55531118  0.37913727  1
  P  P20  1  0.19628280  0.58651798  0.89774126  1
  P  P21  1  0.18054204  0.91348202  0.60225874  1
  P  P22  1  0.80371720  0.41348202  0.10225874  1
  P  P23  1  0.81945796  0.08651798  0.39774126  1
  O  O24  1  0.63857815  0.11155598  0.95004148  1
  O  O25  1  0.20017561  0.38844402  0.54995852  1
  O  O26  1  0.36142185  0.88844402  0.04995852  1
  O  O27  1  0.79982439  0.61155598  0.45004148  1
  O  O28  1  0.64021340  0.88340011  0.87695432  1
  O  O29  1  0.90056783  0.61659989  0.62304568  1
  O  O30  1  0.35978660  0.11659989  0.12304568  1
  O  O31  1  0.09943217  0.38340011  0.37695432  1
  O  O32  1  0.19948563  0.09632224  0.90192602  1
  O  O33  1  0.69773390  0.40367776  0.59807398  1
  O  O34  1  0.80051437  0.90367776  0.09807398  1
  O  O35  1  0.30226610  0.59632224  0.40192602  1
  O  O36  1  0.58691065  0.13650844  0.78827477  1
  O  O37  1  0.01169387  0.36349156  0.71172523  1
  O  O38  1  0.41308935  0.86349156  0.21172523  1
  O  O39  1  0.98830613  0.63650844  0.28827477  1
  O  O40  1  0.88568830  0.58636745  0.90495837  1
  O  O41  1  0.87701412  0.91363255  0.59504163  1
  O  O42  1  0.11431170  0.41363255  0.09504163  1
  O  O43  1  0.12298588  0.08636745  0.40495837  1
  O  O44  1  0.35950410  0.41684928  0.92280916  1
  O  O45  1  0.19916253  0.08315072  0.57719084  1
  O  O46  1  0.64049590  0.58315072  0.07719084  1
  O  O47  1  0.80083747  0.91684928  0.42280916  1
  O  O48  1  0.21933336  0.69801031  0.95602115  1
  O  O49  1  0.37336482  0.80198969  0.54397885  1
  O  O50  1  0.78066664  0.30198969  0.04397885  1
  O  O51  1  0.62663518  0.19801031  0.45602115  1
  O  O52  1  0.30678100  0.61972452  0.80165652  1
  O  O53  1  0.22816204  0.88027548  0.69834348  1
  O  O54  1  0.69321900  0.38027548  0.19834348  1
  O  O55  1  0.77183796  0.11972452  0.30165652  1
