# generated using pymatgen
data_KHo2Cu(MoO4)4
_symmetry_space_group_name_H-M   'P 1'
_cell_length_a   5.28223324
_cell_length_b   6.86912368
_cell_length_c   19.74210066
_cell_angle_alpha   88.71616993
_cell_angle_beta   86.65933939
_cell_angle_gamma   67.38785217
_symmetry_Int_Tables_number   1
_chemical_formula_structural   KHo2Cu(MoO4)4
_chemical_formula_sum   'K2 Ho4 Cu2 Mo8 O32'
_cell_volume   660.13979781
_cell_formula_units_Z   2
loop_
 _symmetry_equiv_pos_site_id
 _symmetry_equiv_pos_as_xyz
  1  'x, y, z'
loop_
 _atom_site_type_symbol
 _atom_site_label
 _atom_site_symmetry_multiplicity
 _atom_site_fract_x
 _atom_site_fract_y
 _atom_site_fract_z
 _atom_site_occupancy
  K  K0  1  0.02924292  0.94151416  0.25000000  1
  K  K1  1  0.97075708  0.05848584  0.75000000  1
  Ho  Ho2  1  0.14525736  0.70520462  0.46848522  1
  Ho  Ho3  1  0.14953802  0.70520462  0.03151478  1
  Ho  Ho4  1  0.85474264  0.29479538  0.53151478  1
  Ho  Ho5  1  0.85046198  0.29479538  0.96848522  1
  Cu  Cu6  1  0.30958145  0.38083710  0.25000000  1
  Cu  Cu7  1  0.69041855  0.61916290  0.75000000  1
  Mo  Mo8  1  0.45433073  0.12351842  0.40928314  1
  Mo  Mo9  1  0.42215085  0.12351842  0.09071686  1
  Mo  Mo10  1  0.54566927  0.87648158  0.59071686  1
  Mo  Mo11  1  0.57784915  0.87648158  0.90928314  1
  Mo  Mo12  1  0.75068924  0.51722284  0.35420397  1
  Mo  Mo13  1  0.73208792  0.51722284  0.14579603  1
  Mo  Mo14  1  0.24931076  0.48277716  0.64579603  1
  Mo  Mo15  1  0.26791208  0.48277716  0.85420397  1
  O  O16  1  0.58049170  0.47693902  0.06605710  1
  O  O17  1  0.94256928  0.47693902  0.43394290  1
  O  O18  1  0.41950830  0.52306098  0.93394290  1
  O  O19  1  0.05743072  0.52306098  0.56605710  1
  O  O20  1  0.83404385  0.66197377  0.95849054  1
  O  O21  1  0.50398238  0.66197377  0.54150946  1
  O  O22  1  0.16595615  0.33802623  0.04150946  1
  O  O23  1  0.49601762  0.33802623  0.45849054  1
  O  O24  1  0.25514088  0.96063336  0.96323639  1
  O  O25  1  0.78422575  0.96063336  0.53676361  1
  O  O26  1  0.74485912  0.03936664  0.03676361  1
  O  O27  1  0.21577425  0.03936664  0.46323639  1
  O  O28  1  0.98684014  0.27761111  0.17190635  1
  O  O29  1  0.73554875  0.27761111  0.32809365  1
  O  O30  1  0.01315986  0.72238889  0.82809365  1
  O  O31  1  0.26445125  0.72238889  0.67190635  1
  O  O32  1  0.48695001  0.81740732  0.82891121  1
  O  O33  1  0.69564267  0.81740732  0.67108879  1
  O  O34  1  0.51304999  0.18259268  0.17108879  1
  O  O35  1  0.30435733  0.18259268  0.32891121  1
  O  O36  1  0.47122730  0.59580001  0.21297249  1
  O  O37  1  0.93297269  0.59580001  0.28702751  1
  O  O38  1  0.52877270  0.40419999  0.78702751  1
  O  O39  1  0.06702731  0.40419999  0.71297249  1
  O  O40  1  0.32261795  0.90244473  0.09973143  1
  O  O41  1  0.77493732  0.90244473  0.40026857  1
  O  O42  1  0.67738205  0.09755527  0.90026857  1
  O  O43  1  0.22506268  0.09755527  0.59973143  1
  O  O44  1  0.90606290  0.69725449  0.12935420  1
  O  O45  1  0.39668261  0.69725449  0.37064580  1
  O  O46  1  0.09393710  0.30274551  0.87064580  1
  O  O47  1  0.60331739  0.30274551  0.62935420  1
