# generated using pymatgen
data_Lu6(Ga3Co)7
_symmetry_space_group_name_H-M   'P 1'
_cell_length_a   4.10645467
_cell_length_b   16.51202527
_cell_length_c   16.51202527
_cell_angle_alpha   90.00000000
_cell_angle_beta   90.00000000
_cell_angle_gamma   90.00000000
_symmetry_Int_Tables_number   1
_chemical_formula_structural   Lu6(Ga3Co)7
_chemical_formula_sum   'Lu12 Ga42 Co14'
_cell_volume   1119.61245819
_cell_formula_units_Z   2
loop_
 _symmetry_equiv_pos_site_id
 _symmetry_equiv_pos_as_xyz
  1  'x, y, z'
loop_
 _atom_site_type_symbol
 _atom_site_label
 _atom_site_symmetry_multiplicity
 _atom_site_fract_x
 _atom_site_fract_y
 _atom_site_fract_z
 _atom_site_occupancy
  Lu  Lu0  1  0.50000000  0.10842401  0.60842401  1
  Lu  Lu1  1  0.50000000  0.89157599  0.39157599  1
  Lu  Lu2  1  0.50000000  0.39157599  0.10842401  1
  Lu  Lu3  1  0.50000000  0.60842401  0.89157599  1
  Lu  Lu4  1  -0.00000000  0.65661330  0.58625334  1
  Lu  Lu5  1  0.00000000  0.34338670  0.41374666  1
  Lu  Lu6  1  0.00000000  0.84338670  0.08625334  1
  Lu  Lu7  1  -0.00000000  0.15661330  0.91374666  1
  Lu  Lu8  1  -0.00000000  0.58625334  0.34338670  1
  Lu  Lu9  1  0.00000000  0.41374666  0.65661330  1
  Lu  Lu10  1  0.00000000  0.08625334  0.15661330  1
  Lu  Lu11  1  -0.00000000  0.91374666  0.84338670  1
  Ga  Ga12  1  0.00000000  0.00000000  0.50000000  1
  Ga  Ga13  1  0.00000000  0.50000000  -0.00000000  1
  Ga  Ga14  1  -0.00000000  0.32061345  0.82061345  1
  Ga  Ga15  1  0.00000000  0.67938655  0.17938655  1
  Ga  Ga16  1  0.00000000  0.17938655  0.32061345  1
  Ga  Ga17  1  -0.00000000  0.82061345  0.67938655  1
  Ga  Ga18  1  0.50000000  0.42619754  0.92619754  1
  Ga  Ga19  1  0.50000000  0.57380246  0.07380246  1
  Ga  Ga20  1  0.50000000  0.07380246  0.42619754  1
  Ga  Ga21  1  0.50000000  0.92619754  0.57380246  1
  Ga  Ga22  1  -0.00000000  0.57535458  0.75745422  1
  Ga  Ga23  1  0.00000000  0.42464542  0.24254578  1
  Ga  Ga24  1  -0.00000000  0.92464542  0.25745422  1
  Ga  Ga25  1  0.00000000  0.07535458  0.74254578  1
  Ga  Ga26  1  0.00000000  0.75745422  0.42464542  1
  Ga  Ga27  1  -0.00000000  0.24254578  0.57535458  1
  Ga  Ga28  1  0.00000000  0.25745422  0.07535458  1
  Ga  Ga29  1  -0.00000000  0.74254578  0.92464542  1
  Ga  Ga30  1  0.50000000  0.53255881  0.61201167  1
  Ga  Ga31  1  0.50000000  0.46744119  0.38798833  1
  Ga  Ga32  1  0.50000000  0.96744119  0.11201167  1
  Ga  Ga33  1  0.50000000  0.03255881  0.88798833  1
  Ga  Ga34  1  0.50000000  0.61201167  0.46744119  1
  Ga  Ga35  1  0.50000000  0.38798833  0.53255881  1
  Ga  Ga36  1  0.50000000  0.11201167  0.03255881  1
  Ga  Ga37  1  0.50000000  0.88798833  0.96744119  1
  Ga  Ga38  1  0.50000000  0.67977026  0.70785730  1
  Ga  Ga39  1  0.50000000  0.32022974  0.29214270  1
  Ga  Ga40  1  0.50000000  0.82022974  0.20785730  1
  Ga  Ga41  1  0.50000000  0.17977026  0.79214270  1
  Ga  Ga42  1  0.50000000  0.70785730  0.32022974  1
  Ga  Ga43  1  0.50000000  0.29214270  0.67977026  1
  Ga  Ga44  1  0.50000000  0.20785730  0.17977026  1
  Ga  Ga45  1  0.50000000  0.79214270  0.82022974  1
  Ga  Ga46  1  0.50000000  0.77077788  0.54418898  1
  Ga  Ga47  1  0.50000000  0.22922212  0.45581102  1
  Ga  Ga48  1  0.50000000  0.72922212  0.04418898  1
  Ga  Ga49  1  0.50000000  0.27077788  0.95581102  1
  Ga  Ga50  1  0.50000000  0.54418898  0.22922212  1
  Ga  Ga51  1  0.50000000  0.45581102  0.77077788  1
  Ga  Ga52  1  0.50000000  0.04418898  0.27077788  1
  Ga  Ga53  1  0.50000000  0.95581102  0.72922212  1
  Co  Co54  1  -0.00000000  0.21860391  0.71860391  1
  Co  Co55  1  0.00000000  0.78139609  0.28139609  1
  Co  Co56  1  0.00000000  0.28139609  0.21860391  1
  Co  Co57  1  -0.00000000  0.71860391  0.78139609  1
  Co  Co58  1  0.00000000  0.96548041  0.64856462  1
  Co  Co59  1  -0.00000000  0.03451959  0.35143538  1
  Co  Co60  1  -0.00000000  0.53451959  0.14856462  1
  Co  Co61  1  0.00000000  0.46548041  0.85143538  1
  Co  Co62  1  -0.00000000  0.64856462  0.03451959  1
  Co  Co63  1  0.00000000  0.35143538  0.96548041  1
  Co  Co64  1  -0.00000000  0.14856462  0.46548041  1
  Co  Co65  1  0.00000000  0.85143538  0.53451959  1
  Co  Co66  1  0.00000000  0.50000000  0.50000000  1
  Co  Co67  1  0.00000000  0.00000000  -0.00000000  1
