# generated using pymatgen
data_Co3P2(H2O3)4
_symmetry_space_group_name_H-M   'P 1'
_cell_length_a   5.05606770
_cell_length_b   10.71745003
_cell_length_c   18.64453620
_cell_angle_alpha   90.00000000
_cell_angle_beta   90.00000000
_cell_angle_gamma   90.00000000
_symmetry_Int_Tables_number   1
_chemical_formula_structural   Co3P2(H2O3)4
_chemical_formula_sum   'Co12 P8 H32 O48'
_cell_volume   1010.31297878
_cell_formula_units_Z   4
loop_
 _symmetry_equiv_pos_site_id
 _symmetry_equiv_pos_as_xyz
  1  'x, y, z'
loop_
 _atom_site_type_symbol
 _atom_site_label
 _atom_site_symmetry_multiplicity
 _atom_site_fract_x
 _atom_site_fract_y
 _atom_site_fract_z
 _atom_site_occupancy
  Co  Co0  1  0.29119607  0.64185513  0.50024570  1
  Co  Co1  1  0.20880393  0.14185513  0.99975430  1
  Co  Co2  1  0.70880393  0.35814487  0.00024570  1
  Co  Co3  1  0.79119607  0.85814487  0.49975430  1
  Co  Co4  1  0.70880393  0.35814487  0.49975430  1
  Co  Co5  1  0.79119607  0.85814487  0.00024570  1
  Co  Co6  1  0.29119607  0.64185513  0.99975430  1
  Co  Co7  1  0.20880393  0.14185513  0.50024570  1
  Co  Co8  1  0.94162487  0.73817790  0.75000000  1
  Co  Co9  1  0.55837513  0.23817790  0.75000000  1
  Co  Co10  1  0.05837513  0.26182210  0.25000000  1
  Co  Co11  1  0.44162487  0.76182210  0.25000000  1
  P  P12  1  0.77115631  0.60286378  0.59499597  1
  P  P13  1  0.72884369  0.10286378  0.90500403  1
  P  P14  1  0.22884369  0.39713622  0.09499597  1
  P  P15  1  0.27115631  0.89713622  0.40500403  1
  P  P16  1  0.22884369  0.39713622  0.40500403  1
  P  P17  1  0.27115631  0.89713622  0.09499597  1
  P  P18  1  0.77115631  0.60286378  0.90500403  1
  P  P19  1  0.72884369  0.10286378  0.59499597  1
  H  H20  1  0.03963628  0.90065687  0.63678812  1
  H  H21  1  0.46036372  0.40065687  0.86321188  1
  H  H22  1  0.96036372  0.09934313  0.13678812  1
  H  H23  1  0.53963628  0.59934313  0.36321188  1
  H  H24  1  0.96036372  0.09934313  0.36321188  1
  H  H25  1  0.53963628  0.59934313  0.13678812  1
  H  H26  1  0.03963628  0.90065687  0.86321188  1
  H  H27  1  0.46036372  0.40065687  0.63678812  1
  H  H28  1  0.71042164  0.97617133  0.75000000  1
  H  H29  1  0.78957836  0.47617133  0.75000000  1
  H  H30  1  0.28957836  0.02382867  0.25000000  1
  H  H31  1  0.21042164  0.52382867  0.25000000  1
  H  H32  1  0.32181551  0.83807067  0.65078651  1
  H  H33  1  0.17818449  0.33807067  0.84921349  1
  H  H34  1  0.67818449  0.16192933  0.15078651  1
  H  H35  1  0.82181551  0.66192933  0.34921349  1
  H  H36  1  0.67818449  0.16192933  0.34921349  1
  H  H37  1  0.82181551  0.66192933  0.15078651  1
  H  H38  1  0.32181551  0.83807067  0.84921349  1
  H  H39  1  0.17818449  0.33807067  0.65078651  1
  H  H40  1  0.46068376  0.89175150  0.75000000  1
  H  H41  1  0.03931624  0.39175150  0.75000000  1
  H  H42  1  0.53931624  0.10824850  0.25000000  1
  H  H43  1  0.96068376  0.60824850  0.25000000  1
  H  H44  1  0.37296743  0.61051302  0.70886814  1
  H  H45  1  0.12703257  0.11051302  0.79113186  1
  H  H46  1  0.62703257  0.38948698  0.20886814  1
  H  H47  1  0.87296743  0.88948698  0.29113186  1
  H  H48  1  0.62703257  0.38948698  0.29113186  1
  H  H49  1  0.87296743  0.88948698  0.20886814  1
  H  H50  1  0.37296743  0.61051302  0.79113186  1
  H  H51  1  0.12703257  0.11051302  0.70886814  1
  O  O52  1  0.06841284  0.59389602  0.57997918  1
  O  O53  1  0.43158716  0.09389602  0.92002082  1
  O  O54  1  0.93158716  0.40610398  0.07997918  1
  O  O55  1  0.56841284  0.90610398  0.42002082  1
  O  O56  1  0.93158716  0.40610398  0.42002082  1
  O  O57  1  0.56841284  0.90610398  0.07997918  1
  O  O58  1  0.06841284  0.59389602  0.92002082  1
  O  O59  1  0.43158716  0.09389602  0.57997918  1
  O  O60  1  0.63738328  0.70023642  0.54137509  1
  O  O61  1  0.86261672  0.20023642  0.95862491  1
  O  O62  1  0.36261672  0.29976358  0.04137509  1
  O  O63  1  0.13738328  0.79976358  0.45862491  1
  O  O64  1  0.36261672  0.29976358  0.45862491  1
  O  O65  1  0.13738328  0.79976358  0.04137509  1
  O  O66  1  0.63738328  0.70023642  0.95862491  1
  O  O67  1  0.86261672  0.20023642  0.54137509  1
  O  O68  1  0.71228584  0.64066069  0.67297562  1
  O  O69  1  0.78771416  0.14066069  0.82702438  1
  O  O70  1  0.28771416  0.35933931  0.17297562  1
  O  O71  1  0.21228584  0.85933931  0.32702438  1
  O  O72  1  0.28771416  0.35933931  0.32702438  1
  O  O73  1  0.21228584  0.85933931  0.17297562  1
  O  O74  1  0.71228584  0.64066069  0.82702438  1
  O  O75  1  0.78771416  0.14066069  0.67297562  1
  O  O76  1  0.63295403  0.47562241  0.57828006  1
  O  O77  1  0.86704597  0.97562241  0.92171994  1
  O  O78  1  0.36704597  0.52437759  0.07828006  1
  O  O79  1  0.13295403  0.02437759  0.42171994  1
  O  O80  1  0.36704597  0.52437759  0.42171994  1
  O  O81  1  0.13295403  0.02437759  0.07828006  1
  O  O82  1  0.63295403  0.47562241  0.92171994  1
  O  O83  1  0.86704597  0.97562241  0.57828006  1
  O  O84  1  0.14469679  0.84635924  0.67060676  1
  O  O85  1  0.35530321  0.34635924  0.82939324  1
  O  O86  1  0.85530321  0.15364076  0.17060676  1
  O  O87  1  0.64469679  0.65364076  0.32939324  1
  O  O88  1  0.85530321  0.15364076  0.32939324  1
  O  O89  1  0.64469679  0.65364076  0.17060676  1
  O  O90  1  0.14469679  0.84635924  0.82939324  1
  O  O91  1  0.35530321  0.34635924  0.67060676  1
  O  O92  1  0.24904587  0.60822791  0.75000000  1
  O  O93  1  0.25095413  0.10822791  0.75000000  1
  O  O94  1  0.75095413  0.39177209  0.25000000  1
  O  O95  1  0.74904587  0.89177209  0.25000000  1
  O  O96  1  0.65390949  0.88856331  0.75000000  1
  O  O97  1  0.84609051  0.38856331  0.75000000  1
  O  O98  1  0.34609051  0.11143669  0.25000000  1
  O  O99  1  0.15390949  0.61143669  0.25000000  1
