# generated using pymatgen
data_CaAsWO5
_symmetry_space_group_name_H-M   'P 1'
_cell_length_a   8.37836840
_cell_length_b   6.02236227
_cell_length_c   9.74458231
_cell_angle_alpha   90.00446502
_cell_angle_beta   89.98016838
_cell_angle_gamma   89.43302468
_symmetry_Int_Tables_number   1
_chemical_formula_structural   CaAsWO5
_chemical_formula_sum   'Ca4 As4 W4 O20'
_cell_volume   491.66383687
_cell_formula_units_Z   4
loop_
 _symmetry_equiv_pos_site_id
 _symmetry_equiv_pos_as_xyz
  1  'x, y, z'
loop_
 _atom_site_type_symbol
 _atom_site_label
 _atom_site_symmetry_multiplicity
 _atom_site_fract_x
 _atom_site_fract_y
 _atom_site_fract_z
 _atom_site_occupancy
  Ca  Ca0  1  0.92127907  0.78452052  0.11524669  1
  Ca  Ca1  1  0.57960392  0.21555374  0.61476147  1
  Ca  Ca2  1  0.40350415  0.72544068  0.89301419  1
  Ca  Ca3  1  0.09647437  0.27473494  0.39353975  1
  As  As4  1  0.62173120  0.27096799  0.95541736  1
  As  As5  1  0.87790271  0.72909968  0.45570347  1
  As  As6  1  0.13098234  0.23210356  0.04642973  1
  As  As7  1  0.36934171  0.76826077  0.54613574  1
  W  W8  1  0.99422346  0.46572201  0.75650329  1
  W  W9  1  0.50559334  0.53427016  0.25622175  1
  W  W10  1  0.49064218  0.03115750  0.24318482  1
  W  W11  1  0.00942062  0.96875915  0.74357740  1
  O  O12  1  0.83630660  0.20005519  0.74106905  1
  O  O13  1  0.66374819  0.79969059  0.24042957  1
  O  O14  1  0.33542903  0.30329878  0.25852281  1
  O  O15  1  0.16450384  0.69649377  0.75837095  1
  O  O16  1  0.50314752  0.35973422  0.81703960  1
  O  O17  1  0.99697591  0.64002992  0.31764250  1
  O  O18  1  0.01594273  0.13970586  0.18552531  1
  O  O19  1  0.48437306  0.86037675  0.68520073  1
  O  O20  1  0.48920109  0.05410795  0.03713147  1
  O  O21  1  0.01042554  0.94563035  0.53752121  1
  O  O22  1  0.99501918  0.44823340  0.96258097  1
  O  O23  1  0.50508987  0.55177032  0.46230078  1
  O  O24  1  0.55979212  0.51587279  0.05613040  1
  O  O25  1  0.93869712  0.48391289  0.55657045  1
  O  O26  1  0.07511773  0.98565184  0.94196251  1
  O  O27  1  0.42571736  0.01446933  0.44182297  1
  O  O28  1  0.85040497  0.73647305  0.78783838  1
  O  O29  1  0.64970437  0.26365327  0.28703997  1
  O  O30  1  0.34614900  0.76635374  0.20295786  1
  O  O31  1  0.15355370  0.23389730  0.70260689  1
