# generated using pymatgen
data_Na6Mn2V4O15
_symmetry_space_group_name_H-M   'P 1'
_cell_length_a   5.78506674
_cell_length_b   7.47150942
_cell_length_c   17.52506275
_cell_angle_alpha   90.11305210
_cell_angle_beta   90.00000000
_cell_angle_gamma   90.00000000
_symmetry_Int_Tables_number   1
_chemical_formula_structural   Na6Mn2V4O15
_chemical_formula_sum   'Na12 Mn4 V8 O30'
_cell_volume   757.48747857
_cell_formula_units_Z   2
loop_
 _symmetry_equiv_pos_site_id
 _symmetry_equiv_pos_as_xyz
  1  'x, y, z'
loop_
 _atom_site_type_symbol
 _atom_site_label
 _atom_site_symmetry_multiplicity
 _atom_site_fract_x
 _atom_site_fract_y
 _atom_site_fract_z
 _atom_site_occupancy
  Na  Na0  1  0.73017224  0.50000000  0.25000000  1
  Na  Na1  1  0.26982776  0.50000000  0.75000000  1
  Na  Na2  1  0.74871083  -0.00000000  0.25000000  1
  Na  Na3  1  0.25128917  -0.00000000  0.75000000  1
  Na  Na4  1  0.23363675  0.99766971  0.42186232  1
  Na  Na5  1  0.23363675  0.00233029  0.07813768  1
  Na  Na6  1  0.76636325  0.00233029  0.57813768  1
  Na  Na7  1  0.76636325  0.99766971  0.92186232  1
  Na  Na8  1  0.21085155  0.45934130  0.41837926  1
  Na  Na9  1  0.21085155  0.54065870  0.08162074  1
  Na  Na10  1  0.78914845  0.54065870  0.58162074  1
  Na  Na11  1  0.78914845  0.45934130  0.91837926  1
  Mn  Mn12  1  0.74189010  0.74988583  0.40849792  1
  Mn  Mn13  1  0.74189010  0.25011417  0.09150208  1
  Mn  Mn14  1  0.25810990  0.25011417  0.59150208  1
  Mn  Mn15  1  0.25810990  0.74988583  0.90849792  1
  V  V16  1  0.25509251  0.74585459  0.55684580  1
  V  V17  1  0.25509251  0.25414541  0.94315420  1
  V  V18  1  0.74490749  0.25414541  0.44315420  1
  V  V19  1  0.74490749  0.74585459  0.05684580  1
  V  V20  1  0.24288239  0.73796035  0.26869394  1
  V  V21  1  0.24288239  0.26203965  0.23130606  1
  V  V22  1  0.75711761  0.26203965  0.73130606  1
  V  V23  1  0.75711761  0.73796035  0.76869394  1
  O  O24  1  0.26788583  0.94941347  0.60298267  1
  O  O25  1  0.26788583  0.05058653  0.89701733  1
  O  O26  1  0.73211417  0.05058653  0.39701733  1
  O  O27  1  0.73211417  0.94941347  0.10298267  1
  O  O28  1  0.23310478  0.55501392  0.61483288  1
  O  O29  1  0.23310478  0.44498608  0.88516712  1
  O  O30  1  0.76689522  0.44498608  0.38516712  1
  O  O31  1  0.76689522  0.55501392  0.11483288  1
  O  O32  1  0.01024027  0.75003351  0.49668939  1
  O  O33  1  0.01024027  0.24996649  0.00331061  1
  O  O34  1  0.98975973  0.24996649  0.50331061  1
  O  O35  1  0.98975973  0.75003351  0.99668939  1
  O  O36  1  0.49966624  0.72897199  0.49811870  1
  O  O37  1  0.49966624  0.27102801  0.00188130  1
  O  O38  1  0.50033376  0.27102801  0.50188130  1
  O  O39  1  0.50033376  0.72897199  0.99811870  1
  O  O40  1  0.49698951  0.77772202  0.31761842  1
  O  O41  1  0.49698951  0.22227798  0.18238158  1
  O  O42  1  0.50301049  0.22227798  0.68238158  1
  O  O43  1  0.50301049  0.77772202  0.81761842  1
  O  O44  1  0.25297808  0.50000000  0.25000000  1
  O  O45  1  0.74702192  0.50000000  0.75000000  1
  O  O46  1  0.99928785  0.77036772  0.32370958  1
  O  O47  1  0.99928785  0.22963228  0.17629042  1
  O  O48  1  0.00071215  0.22963228  0.67629042  1
  O  O49  1  0.00071215  0.77036772  0.82370958  1
  O  O50  1  0.22601747  0.84100041  0.18332725  1
  O  O51  1  0.22601747  0.15899959  0.31667275  1
  O  O52  1  0.77398253  0.15899959  0.81667275  1
  O  O53  1  0.77398253  0.84100041  0.68332725  1
