# generated using pymatgen
data_Tb2CoSi2
_symmetry_space_group_name_H-M   'P 1'
_cell_length_a   4.14721009
_cell_length_b   5.62825530
_cell_length_c   8.99557252
_cell_angle_alpha   82.97448849
_cell_angle_beta   76.67266737
_cell_angle_gamma   68.38131903
_symmetry_Int_Tables_number   1
_chemical_formula_structural   Tb2CoSi2
_chemical_formula_sum   'Tb4 Co2 Si4'
_cell_volume   189.78137743
_cell_formula_units_Z   2
loop_
 _symmetry_equiv_pos_site_id
 _symmetry_equiv_pos_as_xyz
  1  'x, y, z'
loop_
 _atom_site_type_symbol
 _atom_site_label
 _atom_site_symmetry_multiplicity
 _atom_site_fract_x
 _atom_site_fract_y
 _atom_site_fract_z
 _atom_site_occupancy
  Tb  Tb0  1  0.99927128  0.67280092  0.32865653  1
  Tb  Tb1  1  0.00072872  0.32719908  0.67134347  1
  Tb  Tb2  1  0.81290283  0.26686294  0.10733141  1
  Tb  Tb3  1  0.18709717  0.73313706  0.89266859  1
  Co  Co4  1  0.72691807  0.92303885  0.62312501  1
  Co  Co5  1  0.27308193  0.07696115  0.37687499  1
  Si  Si6  1  0.65172073  0.26245830  0.43410025  1
  Si  Si7  1  0.34827927  0.73754170  0.56589975  1
  Si  Si8  1  0.50594855  0.86293983  0.12516307  1
  Si  Si9  1  0.49405145  0.13706017  0.87483693  1
