# generated using pymatgen
data_Zn2MoWO6
_symmetry_space_group_name_H-M   'P 1'
_cell_length_a   5.64387896
_cell_length_b   5.63668017
_cell_length_c   7.88380373
_cell_angle_alpha   85.19119714
_cell_angle_beta   137.10541728
_cell_angle_gamma   123.54183015
_symmetry_Int_Tables_number   1
_chemical_formula_structural   Zn2MoWO6
_chemical_formula_sum   'Zn2 Mo1 W1 O6'
_cell_volume   117.32269656
_cell_formula_units_Z   1
loop_
 _symmetry_equiv_pos_site_id
 _symmetry_equiv_pos_as_xyz
  1  'x, y, z'
loop_
 _atom_site_type_symbol
 _atom_site_label
 _atom_site_symmetry_multiplicity
 _atom_site_fract_x
 _atom_site_fract_y
 _atom_site_fract_z
 _atom_site_occupancy
  Zn  Zn0  1  -0.00010739  0.54126028  0.26819271  1
  Zn  Zn1  1  0.97622188  0.53502786  0.76884547  1
  Mo  Mo2  1  0.99372515  0.97838312  0.49338700  1
  W  W3  1  0.99327839  0.97993555  0.99423813  1
  O  O4  1  0.26820116  0.09056269  0.37261563  1
  O  O5  1  0.72520260  0.81716856  0.61930096  1
  O  O6  1  0.35297930  0.46710329  0.09438689  1
  O  O7  1  0.38474583  0.84032131  0.75937940  1
  O  O8  1  0.60110729  0.10958801  0.21899403  1
  O  O9  1  0.67809580  0.49718333  0.89384478  1
