# generated using pymatgen
data_AlH30CS2NO20
_symmetry_space_group_name_H-M   'P 1'
_cell_length_a   12.63242466
_cell_length_b   12.67724501
_cell_length_c   12.54350582
_cell_angle_alpha   90.00000000
_cell_angle_beta   90.00000000
_cell_angle_gamma   90.00000000
_symmetry_Int_Tables_number   1
_chemical_formula_structural   AlH30CS2NO20
_chemical_formula_sum   'Al4 H120 C4 S8 N4 O80'
_cell_volume   2008.77149200
_cell_formula_units_Z   4
loop_
 _symmetry_equiv_pos_site_id
 _symmetry_equiv_pos_as_xyz
  1  'x, y, z'
loop_
 _atom_site_type_symbol
 _atom_site_label
 _atom_site_symmetry_multiplicity
 _atom_site_fract_x
 _atom_site_fract_y
 _atom_site_fract_z
 _atom_site_occupancy
  Al  Al0  1  0.25336293  0.49668990  0.74824436  1
  Al  Al1  1  0.74663707  0.50331010  0.24824436  1
  Al  Al2  1  0.25336293  0.00331010  0.24824436  1
  Al  Al3  1  0.74663707  0.99668990  0.74824436  1
  H  H4  1  0.23453614  0.29969241  0.69622747  1
  H  H5  1  0.76546386  0.70030759  0.19622747  1
  H  H6  1  0.23453614  0.20030759  0.19622747  1
  H  H7  1  0.76546386  0.79969241  0.69622747  1
  H  H8  1  0.27636638  0.30302804  0.82161789  1
  H  H9  1  0.72363362  0.69697196  0.32161789  1
  H  H10  1  0.27636638  0.19697196  0.32161789  1
  H  H11  1  0.72363362  0.80302804  0.82161789  1
  H  H12  1  0.72344401  0.30849134  0.30028442  1
  H  H13  1  0.27655599  0.69150866  0.80028442  1
  H  H14  1  0.72344401  0.19150866  0.80028442  1
  H  H15  1  0.27655599  0.80849134  0.30028442  1
  H  H16  1  0.77212655  0.31021278  0.17616746  1
  H  H17  1  0.22787345  0.68978722  0.67616746  1
  H  H18  1  0.77212655  0.18978722  0.67616746  1
  H  H19  1  0.22787345  0.81021278  0.17616746  1
  H  H20  1  0.06143790  0.42145975  0.77198155  1
  H  H21  1  0.93856210  0.57854025  0.27198155  1
  H  H22  1  0.06143790  0.07854025  0.27198155  1
  H  H23  1  0.93856210  0.92145975  0.77198155  1
  H  H24  1  0.94697780  0.45614667  0.22534668  1
  H  H25  1  0.05302220  0.54385333  0.72534668  1
  H  H26  1  0.94697780  0.04385333  0.72534668  1
  H  H27  1  0.05302220  0.95614667  0.22534668  1
  H  H28  1  0.44903056  0.43752464  0.77194787  1
  H  H29  1  0.55096944  0.56247536  0.27194787  1
  H  H30  1  0.44903056  0.06247536  0.27194787  1
  H  H31  1  0.55096944  0.93752464  0.77194787  1
  H  H32  1  0.54929609  0.43911384  0.22916682  1
  H  H33  1  0.45070391  0.56088616  0.72916682  1
  H  H34  1  0.54929609  0.06088616  0.72916682  1
  H  H35  1  0.45070391  0.93911384  0.22916682  1
  H  H36  1  0.18088389  0.47446008  0.55370733  1
  H  H37  1  0.81911611  0.52553992  0.05370733  1
  H  H38  1  0.18088389  0.02553992  0.05370733  1
  H  H39  1  0.81911611  0.97446008  0.55370733  1
  H  H40  1  0.69709267  0.47795513  0.04882713  1
  H  H41  1  0.30290733  0.52204487  0.54882713  1
  H  H42  1  0.69709267  0.02204487  0.54882713  1
  H  H43  1  0.30290733  0.97795513  0.04882713  1
  H  H44  1  0.19784512  0.47858621  0.94648735  1
  H  H45  1  0.80215488  0.52141379  0.44648735  1
  H  H46  1  0.19784512  0.02141379  0.44648735  1
  H  H47  1  0.80215488  0.97858621  0.94648735  1
  H  H48  1  0.67765583  0.47824780  0.44457006  1
  H  H49  1  0.32234417  0.52175220  0.94457006  1
  H  H50  1  0.67765583  0.02175220  0.94457006  1
  H  H51  1  0.32234417  0.97824780  0.44457006  1
  H  H52  1  0.02164805  0.48776408  0.49551508  1
  H  H53  1  0.97835195  0.51223592  0.99551508  1
  H  H54  1  0.02164805  0.01223592  0.99551508  1
  H  H55  1  0.97835195  0.98776408  0.49551508  1
  H  H56  1  0.06352295  0.37092800  0.49792006  1
  H  H57  1  0.93647705  0.62907200  0.99792006  1
  H  H58  1  0.06352295  0.12907200  0.99792006  1
  H  H59  1  0.93647705  0.87092800  0.49792006  1
  H  H60  1  0.38017531  0.25545795  0.44069987  1
  H  H61  1  0.61982469  0.74454205  0.94069987  1
  H  H62  1  0.38017531  0.24454205  0.94069987  1
  H  H63  1  0.61982469  0.75545795  0.44069987  1
  H  H64  1  0.26347401  0.25206284  0.98235987  1
  H  H65  1  0.73652599  0.74793716  0.48235987  1
  H  H66  1  0.26347401  0.24793716  0.48235987  1
  H  H67  1  0.73652599  0.75206284  0.98235987  1
  H  H68  1  0.48842389  0.28045389  0.24146581  1
  H  H69  1  0.51157611  0.71954611  0.74146581  1
  H  H70  1  0.48842389  0.21954611  0.74146581  1
  H  H71  1  0.51157611  0.78045389  0.24146581  1
  H  H72  1  0.48200455  0.32282056  0.12366755  1
  H  H73  1  0.51799545  0.67717944  0.62366755  1
  H  H74  1  0.48200455  0.17717944  0.62366755  1
  H  H75  1  0.51799545  0.82282056  0.12366755  1
  H  H76  1  0.51240520  0.48767501  0.49800200  1
  H  H77  1  0.48759480  0.51232499  0.99800200  1
  H  H78  1  0.51240520  0.01232499  0.99800200  1
  H  H79  1  0.48759480  0.98767501  0.49800200  1
  H  H80  1  0.55673119  0.37279260  0.51205331  1
  H  H81  1  0.44326881  0.62720740  0.01205331  1
  H  H82  1  0.55673119  0.12720740  0.01205331  1
  H  H83  1  0.44326881  0.87279260  0.51205331  1
  H  H84  1  0.76377719  0.24908568  0.51490304  1
  H  H85  1  0.23622281  0.75091432  0.01490304  1
  H  H86  1  0.76377719  0.25091432  0.01490304  1
  H  H87  1  0.23622281  0.74908568  0.51490304  1
  H  H88  1  0.88210130  0.25105022  0.55879455  1
  H  H89  1  0.11789870  0.74894978  0.05879455  1
  H  H90  1  0.88210130  0.24894978  0.05879455  1
  H  H91  1  0.11789870  0.75105022  0.55879455  1
  H  H92  1  0.00921544  0.24345041  0.26597990  1
  H  H93  1  0.99078456  0.75654959  0.76597990  1
  H  H94  1  0.00921544  0.25654959  0.76597990  1
  H  H95  1  0.99078456  0.74345041  0.26597990  1
  H  H96  1  0.00492851  0.30245913  0.88287755  1
  H  H97  1  0.99507149  0.69754087  0.38287755  1
  H  H98  1  0.00492851  0.19754087  0.38287755  1
  H  H99  1  0.99507149  0.80245913  0.88287755  1
  H  H100  1  0.77276309  0.42338513  0.65963064  1
  H  H101  1  0.22723691  0.57661487  0.15963064  1
  H  H102  1  0.77276309  0.07661487  0.15963064  1
  H  H103  1  0.22723691  0.92338513  0.65963064  1
  H  H104  1  0.85689580  0.44445131  0.77242956  1
  H  H105  1  0.14310420  0.55554869  0.27242956  1
  H  H106  1  0.85689580  0.05554869  0.27242956  1
  H  H107  1  0.14310420  0.94445131  0.77242956  1
  H  H108  1  0.72857006  0.38987988  0.78999439  1
  H  H109  1  0.27142994  0.61012012  0.28999439  1
  H  H110  1  0.72857006  0.11012012  0.28999439  1
  H  H111  1  0.27142994  0.88987988  0.78999439  1
  H  H112  1  0.26569152  0.42079221  0.33617494  1
  H  H113  1  0.73430848  0.57920779  0.83617494  1
  H  H114  1  0.26569152  0.07920779  0.83617494  1
  H  H115  1  0.73430848  0.92079221  0.33617494  1
  H  H116  1  0.34758155  0.43959635  0.23470148  1
  H  H117  1  0.65241845  0.56040365  0.73470148  1
  H  H118  1  0.34758155  0.06040365  0.73470148  1
  H  H119  1  0.65241845  0.93959635  0.23470148  1
  H  H120  1  0.22889087  0.39245291  0.21172591  1
  H  H121  1  0.77110913  0.60754709  0.71172591  1
  H  H122  1  0.22889087  0.10754709  0.71172591  1
  H  H123  1  0.77110913  0.89245291  0.21172591  1
  C  C124  1  0.77524763  0.44550951  0.74381785  1
  C  C125  1  0.22475237  0.55449049  0.24381785  1
  C  C126  1  0.77524763  0.05449049  0.24381785  1
  C  C127  1  0.22475237  0.94550951  0.74381785  1
  S  S128  1  0.08540880  0.33828226  0.08194353  1
  S  S129  1  0.91459120  0.66171774  0.58194353  1
  S  S130  1  0.08540880  0.16171774  0.58194353  1
  S  S131  1  0.91459120  0.83828226  0.08194353  1
  S  S132  1  0.57864043  0.32640187  0.91749373  1
  S  S133  1  0.42135957  0.67359813  0.41749373  1
  S  S134  1  0.57864043  0.17359813  0.41749373  1
  S  S135  1  0.42135957  0.82640187  0.91749373  1
  N  N136  1  0.26922680  0.44662682  0.25820236  1
  N  N137  1  0.73077320  0.55337318  0.75820236  1
  N  N138  1  0.26922680  0.05337318  0.75820236  1
  N  N139  1  0.73077320  0.94662682  0.25820236  1
  O  O140  1  0.03636407  0.35853561  0.18797152  1
  O  O141  1  0.96363593  0.64146439  0.68797152  1
  O  O142  1  0.03636407  0.14146439  0.68797152  1
  O  O143  1  0.96363593  0.85853561  0.18797152  1
  O  O144  1  0.02048963  0.26068093  0.02026788  1
  O  O145  1  0.97951037  0.73931907  0.52026788  1
  O  O146  1  0.02048963  0.23931907  0.52026788  1
  O  O147  1  0.97951037  0.76068093  0.02026788  1
  O  O148  1  0.09429232  0.43852020  0.02084635  1
  O  O149  1  0.90570768  0.56147980  0.52084635  1
  O  O150  1  0.09429232  0.06147980  0.52084635  1
  O  O151  1  0.90570768  0.93852020  0.02084635  1
  O  O152  1  0.19461918  0.29384199  0.09945414  1
  O  O153  1  0.80538082  0.70615801  0.59945414  1
  O  O154  1  0.19461918  0.20615801  0.59945414  1
  O  O155  1  0.80538082  0.79384199  0.09945414  1
  O  O156  1  0.52551930  0.33496420  0.81138759  1
  O  O157  1  0.47448070  0.66503580  0.31138759  1
  O  O158  1  0.52551930  0.16503580  0.31138759  1
  O  O159  1  0.47448070  0.83496420  0.81138759  1
  O  O160  1  0.50639878  0.26973891  0.99387937  1
  O  O161  1  0.49360122  0.73026109  0.49387937  1
  O  O162  1  0.50639878  0.23026109  0.49387937  1
  O  O163  1  0.49360122  0.76973891  0.99387937  1
  O  O164  1  0.60225615  0.43429872  0.95883143  1
  O  O165  1  0.39774385  0.56570128  0.45883143  1
  O  O166  1  0.60225615  0.06570128  0.45883143  1
  O  O167  1  0.39774385  0.93429872  0.95883143  1
  O  O168  1  0.67843866  0.26457203  0.90618135  1
  O  O169  1  0.32156134  0.73542797  0.40618135  1
  O  O170  1  0.67843866  0.23542797  0.40618135  1
  O  O171  1  0.32156134  0.76457203  0.90618135  1
  O  O172  1  0.25785959  0.34615756  0.75507570  1
  O  O173  1  0.74214041  0.65384244  0.25507570  1
  O  O174  1  0.25785959  0.15384244  0.25507570  1
  O  O175  1  0.74214041  0.84615756  0.75507570  1
  O  O176  1  0.74838325  0.35411658  0.24097812  1
  O  O177  1  0.25161675  0.64588342  0.74097812  1
  O  O178  1  0.74838325  0.14588342  0.74097812  1
  O  O179  1  0.25161675  0.85411658  0.24097812  1
  O  O180  1  0.10230234  0.48786309  0.74996444  1
  O  O181  1  0.89769766  0.51213691  0.24996444  1
  O  O182  1  0.10230234  0.01213691  0.24996444  1
  O  O183  1  0.89769766  0.98786309  0.74996444  1
  O  O184  1  0.40449889  0.49821989  0.74812505  1
  O  O185  1  0.59550111  0.50178011  0.24812505  1
  O  O186  1  0.40449889  0.00178011  0.24812505  1
  O  O187  1  0.59550111  0.99821989  0.74812505  1
  O  O188  1  0.24849328  0.49080803  0.59651974  1
  O  O189  1  0.75150672  0.50919197  0.09651974  1
  O  O190  1  0.24849328  0.00919197  0.09651974  1
  O  O191  1  0.75150672  0.99080803  0.59651974  1
  O  O192  1  0.25785811  0.50106487  0.90032878  1
  O  O193  1  0.74214189  0.49893513  0.40032878  1
  O  O194  1  0.25785811  0.99893513  0.40032878  1
  O  O195  1  0.74214189  0.00106487  0.90032878  1
  O  O196  1  0.30557615  0.26840723  0.41877953  1
  O  O197  1  0.69442385  0.73159277  0.91877953  1
  O  O198  1  0.30557615  0.23159277  0.91877953  1
  O  O199  1  0.69442385  0.76840723  0.41877953  1
  O  O200  1  0.47077962  0.34443861  0.19900750  1
  O  O201  1  0.52922038  0.65556139  0.69900750  1
  O  O202  1  0.47077962  0.15556139  0.69900750  1
  O  O203  1  0.52922038  0.84443861  0.19900750  1
  O  O204  1  0.80735372  0.25699731  0.58031550  1
  O  O205  1  0.19264628  0.74300269  0.08031550  1
  O  O206  1  0.80735372  0.24300269  0.08031550  1
  O  O207  1  0.19264628  0.75699731  0.58031550  1
  O  O208  1  0.99700328  0.32210914  0.80720619  1
  O  O209  1  0.00299672  0.67789086  0.30720619  1
  O  O210  1  0.99700328  0.17789086  0.30720619  1
  O  O211  1  0.00299672  0.82210914  0.80720619  1
  O  O212  1  0.08582938  0.44433897  0.48316538  1
  O  O213  1  0.91417062  0.55566103  0.98316538  1
  O  O214  1  0.08582938  0.05566103  0.98316538  1
  O  O215  1  0.91417062  0.94433897  0.48316538  1
  O  O216  1  0.57708776  0.44773792  0.51678510  1
  O  O217  1  0.42291224  0.55226208  0.01678510  1
  O  O218  1  0.57708776  0.05226208  0.01678510  1
  O  O219  1  0.42291224  0.94773792  0.51678510  1
