# generated using pymatgen
data_YAlMo6(H17O19)2
_symmetry_space_group_name_H-M   'P 1'
_cell_length_a   11.10853469
_cell_length_b   11.60280788
_cell_length_c   14.10425605
_cell_angle_alpha   77.22422773
_cell_angle_beta   86.73388401
_cell_angle_gamma   90.86695120
_symmetry_Int_Tables_number   1
_chemical_formula_structural   YAlMo6(H17O19)2
_chemical_formula_sum   'Y2 Al2 Mo12 H68 O76'
_cell_volume   1769.29674036
_cell_formula_units_Z   2
loop_
 _symmetry_equiv_pos_site_id
 _symmetry_equiv_pos_as_xyz
  1  'x, y, z'
loop_
 _atom_site_type_symbol
 _atom_site_label
 _atom_site_symmetry_multiplicity
 _atom_site_fract_x
 _atom_site_fract_y
 _atom_site_fract_z
 _atom_site_occupancy
  Y  Y0  1  0.28349876  0.72871082  0.54714165  1
  Y  Y1  1  0.71650124  0.27128918  0.45285835  1
  Al  Al2  1  -0.00000000  -0.00000000  0.00000000  1
  Al  Al3  1  0.50000000  0.50000000  0.00000000  1
  Mo  Mo4  1  0.26902329  0.42449614  0.88591186  1
  Mo  Mo5  1  0.73097671  0.57550386  0.11408814  1
  Mo  Mo6  1  0.74819133  0.63247224  0.86813030  1
  Mo  Mo7  1  0.25180867  0.36752776  0.13186970  1
  Mo  Mo8  1  0.03411040  0.07292414  0.75460848  1
  Mo  Mo9  1  0.96588960  0.92707586  0.24539152  1
  Mo  Mo10  1  0.51016597  0.56499628  0.75346782  1
  Mo  Mo11  1  0.48983403  0.43500372  0.24653218  1
  Mo  Mo12  1  0.25094752  0.92936986  0.88698003  1
  Mo  Mo13  1  0.74905248  0.07063014  0.11301997  1
  Mo  Mo14  1  0.78155318  0.14229236  0.87024189  1
  Mo  Mo15  1  0.21844682  0.85770764  0.12975811  1
  H  H16  1  0.04694970  0.72843907  0.44697971  1
  H  H17  1  0.95305030  0.27156093  0.55302029  1
  H  H18  1  0.01042447  0.76937989  0.54724803  1
  H  H19  1  0.98957553  0.23062011  0.45275197  1
  H  H20  1  0.39662440  0.08512550  0.01138163  1
  H  H21  1  0.60337560  0.91487450  0.98861837  1
  H  H22  1  0.53581074  0.11796041  0.99548827  1
  H  H23  1  0.46418926  0.88203959  0.00451173  1
  H  H24  1  0.42752873  0.28124291  0.00661276  1
  H  H25  1  0.57247127  0.71875709  0.99338724  1
  H  H26  1  0.83354469  0.82314475  0.56724179  1
  H  H27  1  0.16645531  0.17685525  0.43275821  1
  H  H28  1  0.92273716  0.87570403  0.63276734  1
  H  H29  1  0.07726284  0.12429597  0.36723266  1
  H  H30  1  0.49828555  0.76105815  0.40042246  1
  H  H31  1  0.50171445  0.23894185  0.59957754  1
  H  H32  1  0.55927113  0.77172173  0.49722172  1
  H  H33  1  0.44072887  0.22827827  0.50277828  1
  H  H34  1  0.70362479  0.92606640  0.46155068  1
  H  H35  1  0.29637521  0.07393360  0.53844932  1
  H  H36  1  0.76186568  0.82118707  0.42618005  1
  H  H37  1  0.23813432  0.17881293  0.57381995  1
  H  H38  1  0.03237534  0.38183712  0.01236356  1
  H  H39  1  0.96762466  0.61816288  0.98763644  1
  H  H40  1  0.89350402  0.40776523  0.00720400  1
  H  H41  1  0.10649598  0.59223477  0.99279600  1
  H  H42  1  0.47644052  0.96905452  0.74675228  1
  H  H43  1  0.52355948  0.03094548  0.25324772  1
  H  H44  1  0.59756462  0.95615877  0.68628895  1
  H  H45  1  0.40243538  0.04384123  0.31371105  1
  H  H46  1  0.46667193  0.29325729  0.74296309  1
  H  H47  1  0.53332807  0.70674271  0.25703691  1
  H  H48  1  0.42505477  0.16067892  0.75037386  1
  H  H49  1  0.57494523  0.83932108  0.24962614  1
  H  H50  1  0.33198892  0.59006448  0.38799812  1
  H  H51  1  0.66801108  0.40993552  0.61200188  1
  H  H52  1  0.19363372  0.61420778  0.39027382  1
  H  H53  1  0.80636628  0.38579222  0.60972618  1
  H  H54  1  0.13009877  0.50889764  0.59479833  1
  H  H55  1  0.86990123  0.49110236  0.40520167  1
  H  H56  1  0.19359349  0.51701947  0.68967778  1
  H  H57  1  0.80640651  0.48298053  0.31032222  1
  H  H58  1  0.13771464  0.69185192  0.73382278  1
  H  H59  1  0.86228536  0.30814808  0.26617722  1
  H  H60  1  0.15659303  0.82975255  0.71759167  1
  H  H61  1  0.84340697  0.17024745  0.28240833  1
  H  H62  1  0.29788533  0.88133991  0.33843459  1
  H  H63  1  0.70211467  0.11866009  0.66156541  1
  H  H64  1  0.18900802  0.92621512  0.39114368  1
  H  H65  1  0.81099198  0.07378488  0.60885632  1
  H  H66  1  0.39830907  0.93952623  0.50395602  1
  H  H67  1  0.60169093  0.06047377  0.49604398  1
  H  H68  1  0.42177132  0.92670852  0.61763571  1
  H  H69  1  0.57822868  0.07329148  0.38236429  1
  H  H70  1  0.15577252  0.15601145  0.90021590  1
  H  H71  1  0.84422748  0.84398855  0.09978410  1
  H  H72  1  0.36533997  0.65430361  0.89730393  1
  H  H73  1  0.63466003  0.34569639  0.10269607  1
  H  H74  1  0.64583126  0.40001410  0.89159654  1
  H  H75  1  0.35416874  0.59998590  0.10840346  1
  H  H76  1  0.87291842  0.90442711  0.88575692  1
  H  H77  1  0.12708158  0.09557289  0.11424308  1
  H  H78  1  0.06911248  0.78057750  0.99589848  1
  H  H79  1  0.93088752  0.21942250  0.00410152  1
  H  H80  1  0.05755489  0.65260384  0.28596070  1
  H  H81  1  0.94244511  0.34739616  0.71403930  1
  H  H82  1  0.09538708  0.52178029  0.29764941  1
  H  H83  1  0.90461292  0.47821971  0.70235059  1
  O  O84  1  0.09655024  0.86391676  0.00133715  1
  O  O85  1  0.90344976  0.13608324  0.99866285  1
  O  O86  1  0.08009337  0.74198538  0.50575787  1
  O  O87  1  0.91990663  0.25801462  0.49424213  1
  O  O88  1  0.13156549  0.93160360  0.78931601  1
  O  O89  1  0.86843451  0.06839640  0.21068399  1
  O  O90  1  0.45712761  0.14843940  0.01080976  1
  O  O91  1  0.54287239  0.85156060  0.98919024  1
  O  O92  1  0.39814483  0.36414989  0.00575895  1
  O  O93  1  0.60185517  0.63585011  0.99424105  1
  O  O94  1  0.90615038  0.80649351  0.60553699  1
  O  O95  1  0.09384962  0.19350649  0.39446301  1
  O  O96  1  0.47979344  0.75727123  0.47288646  1
  O  O97  1  0.52020656  0.24272877  0.52711354  1
  O  O98  1  0.40962972  0.41970604  0.79806410  1
  O  O99  1  0.59037028  0.58029396  0.20193590  1
  O  O100  1  0.71914511  0.84081658  0.48391235  1
  O  O101  1  0.28085489  0.15918342  0.51608765  1
  O  O102  1  0.61485731  0.68183829  0.78444580  1
  O  O103  1  0.38514269  0.31816171  0.21555420  1
  O  O104  1  0.95171564  0.34379492  0.02202951  1
  O  O105  1  0.04828436  0.65620508  0.97797049  1
  O  O106  1  0.93102324  0.19424865  0.78937722  1
  O  O107  1  0.06897676  0.80575135  0.21062278  1
  O  O108  1  0.51185124  0.93426310  0.69419170  1
  O  O109  1  0.48814876  0.06573690  0.30580830  1
  O  O110  1  0.36217210  0.02524006  0.81635290  1
  O  O111  1  0.63782790  0.97475994  0.18364710  1
  O  O112  1  0.47333465  0.22746689  0.70966247  1
  O  O113  1  0.52666535  0.77253311  0.29033753  1
  O  O114  1  0.17827797  0.51879943  0.80616962  1
  O  O115  1  0.82172203  0.48120057  0.19383038  1
  O  O116  1  0.27059103  0.63589339  0.41676278  1
  O  O117  1  0.72940897  0.36410661  0.58323722  1
  O  O118  1  0.84287800  0.56906966  0.79347542  1
  O  O119  1  0.15712200  0.43093034  0.20652458  1
  O  O120  1  0.20519773  0.53517120  0.61707412  1
  O  O121  1  0.79480227  0.46482880  0.38292588  1
  O  O122  1  0.69366807  0.04689794  0.98790675  1
  O  O123  1  0.30633193  0.95310206  0.01209325  1
  O  O124  1  0.16418848  0.76272808  0.68441333  1
  O  O125  1  0.83581152  0.23727192  0.31558667  1
  O  O126  1  0.69758736  0.09112187  0.78682071  1
  O  O127  1  0.30241264  0.90887813  0.21317929  1
  O  O128  1  0.27146890  0.89756664  0.40279764  1
  O  O129  1  0.72853110  0.10243336  0.59720236  1
  O  O130  1  0.80955579  0.54450138  0.99392323  1
  O  O131  1  0.19044421  0.45549862  0.00607677  1
  O  O132  1  0.35704148  0.92316053  0.56895927  1
  O  O133  1  0.64295852  0.07683947  0.43104073  1
  O  O134  1  0.90938963  0.98158414  0.89149766  1
  O  O135  1  0.09061037  0.01841586  0.10850234  1
  O  O136  1  0.11791175  0.07629739  0.90017734  1
  O  O137  1  0.88208825  0.92370261  0.09982266  1
  O  O138  1  0.60800157  0.47619889  0.89489443  1
  O  O139  1  0.39199843  0.52380111  0.10510557  1
  O  O140  1  0.80999682  0.77187137  0.86800184  1
  O  O141  1  0.19000318  0.22812863  0.13199816  1
  O  O142  1  0.21500453  0.28069733  0.89297145  1
  O  O143  1  0.78499547  0.71930267  0.10702855  1
  O  O144  1  0.60502122  0.50428182  0.67638489  1
  O  O145  1  0.39497878  0.49571818  0.32361511  1
  O  O146  1  0.30041192  0.78723692  0.89022061  1
  O  O147  1  0.69958808  0.21276308  0.10977939  1
  O  O148  1  0.13885625  0.17136412  0.68043743  1
  O  O149  1  0.86114375  0.82863588  0.31956257  1
  O  O150  1  0.40124898  0.57618205  0.89763060  1
  O  O151  1  0.59875102  0.42381795  0.10236940  1
  O  O152  1  0.72734726  0.28114244  0.87515210  1
  O  O153  1  0.27265274  0.71885756  0.12484790  1
  O  O154  1  0.41046095  0.65379804  0.67611170  1
  O  O155  1  0.58953905  0.34620196  0.32388830  1
  O  O156  1  0.94477310  0.01939344  0.67409717  1
  O  O157  1  0.05522690  0.98060656  0.32590283  1
  O  O158  1  0.06761536  0.57929998  0.33599471  1
  O  O159  1  0.93238464  0.42070002  0.66400529  1
