# generated using pymatgen
data_In2Sb2H16C4Se7N2
_symmetry_space_group_name_H-M   'P 1'
_cell_length_a   7.39552423
_cell_length_b   11.24881988
_cell_length_c   15.55686312
_cell_angle_alpha   82.85787356
_cell_angle_beta   76.24956184
_cell_angle_gamma   70.80862522
_symmetry_Int_Tables_number   1
_chemical_formula_structural   In2Sb2H16C4Se7N2
_chemical_formula_sum   'In4 Sb4 H32 C8 Se14 N4'
_cell_volume   1185.73016895
_cell_formula_units_Z   2
loop_
 _symmetry_equiv_pos_site_id
 _symmetry_equiv_pos_as_xyz
  1  'x, y, z'
loop_
 _atom_site_type_symbol
 _atom_site_label
 _atom_site_symmetry_multiplicity
 _atom_site_fract_x
 _atom_site_fract_y
 _atom_site_fract_z
 _atom_site_occupancy
  In  In0  1  0.26987305  0.81051101  0.10987984  1
  In  In1  1  0.19026390  0.68948899  0.39012016  1
  In  In2  1  0.73012695  0.18948899  0.89012016  1
  In  In3  1  0.80973610  0.31051101  0.60987984  1
  Sb  Sb4  1  0.23077466  0.11215151  0.95440413  1
  Sb  Sb5  1  0.29733031  0.38784849  0.54559587  1
  Sb  Sb6  1  0.76922534  0.88784849  0.04559587  1
  Sb  Sb7  1  0.70266969  0.61215151  0.45440413  1
  H  H8  1  0.14653628  0.54622080  0.91364493  1
  H  H9  1  0.60640201  0.95377920  0.58635507  1
  H  H10  1  0.85346372  0.45377920  0.08635507  1
  H  H11  1  0.39359799  0.04622080  0.41364493  1
  H  H12  1  0.29196884  0.44178231  0.83933546  1
  H  H13  1  0.57308660  0.05821769  0.66066454  1
  H  H14  1  0.70803116  0.55821769  0.16066454  1
  H  H15  1  0.42691340  0.94178231  0.33933546  1
  H  H16  1  0.99939542  0.55638778  0.78902510  1
  H  H17  1  0.34480830  0.94361222  0.71097490  1
  H  H18  1  0.00060458  0.44361222  0.21097490  1
  H  H19  1  0.65519170  0.05638778  0.28902510  1
  H  H20  1  0.04183134  0.70137237  0.80015525  1
  H  H21  1  0.54335896  0.79862763  0.69984475  1
  H  H22  1  0.95816866  0.29862763  0.19984475  1
  H  H23  1  0.45664104  0.20137237  0.30015525  1
  H  H24  1  0.20531607  0.59496059  0.71807020  1
  H  H25  1  0.51834686  0.90503941  0.78192980  1
  H  H26  1  0.79468393  0.40503941  0.28192980  1
  H  H27  1  0.48165314  0.09496059  0.21807020  1
  H  H28  1  0.47292756  0.53748944  0.90224309  1
  H  H29  1  0.91266009  0.96251056  0.59775691  1
  H  H30  1  0.52707244  0.46251056  0.09775691  1
  H  H31  1  0.08733991  0.03748944  0.40224309  1
  H  H32  1  0.50079853  0.56937231  0.78447472  1
  H  H33  1  0.85464556  0.93062769  0.71552528  1
  H  H34  1  0.49920147  0.43062769  0.21552528  1
  H  H35  1  0.14535444  0.06937231  0.28447472  1
  H  H36  1  0.33969650  0.68773316  0.85992884  1
  H  H37  1  0.88735851  0.81226684  0.64007116  1
  H  H38  1  0.66030350  0.31226684  0.14007116  1
  H  H39  1  0.11264149  0.18773316  0.35992884  1
  C  C40  1  0.11115406  0.60229152  0.78457630  1
  C  C41  1  0.49802188  0.89770848  0.71542370  1
  C  C42  1  0.88884594  0.39770848  0.21542370  1
  C  C43  1  0.50197812  0.10229152  0.28457630  1
  C  C44  1  0.39890169  0.58695781  0.84891741  1
  C  C45  1  0.83477691  0.91304219  0.65108259  1
  C  C46  1  0.60109831  0.41304219  0.15108259  1
  C  C47  1  0.16522309  0.08695781  0.34891741  1
  Se  Se48  1  0.42403344  0.75000000  0.25000000  1
  Se  Se49  1  0.57596656  0.25000000  0.75000000  1
  Se  Se50  1  0.05440712  0.04822501  0.11204033  1
  Se  Se51  1  0.21467247  0.45177499  0.38795967  1
  Se  Se52  1  0.94559288  0.95177499  0.88795967  1
  Se  Se53  1  0.78532753  0.54822501  0.61204033  1
  Se  Se54  1  0.94522639  0.31510308  0.92634835  1
  Se  Se55  1  0.18667782  0.18489692  0.57365165  1
  Se  Se56  1  0.05477361  0.68489692  0.07365165  1
  Se  Se57  1  0.81332218  0.81510308  0.42634835  1
  Se  Se58  1  0.41374942  0.23629546  0.01698747  1
  Se  Se59  1  0.66703236  0.26370454  0.48301253  1
  Se  Se60  1  0.58625058  0.76370454  0.98301253  1
  Se  Se61  1  0.33296764  0.73629546  0.51698747  1
  N  N62  1  0.23404792  0.53747139  0.85047148  1
  N  N63  1  0.62199079  0.96252861  0.64952852  1
  N  N64  1  0.76595208  0.46252861  0.14952852  1
  N  N65  1  0.37800921  0.03747139  0.35047148  1
