# generated using pymatgen
data_Cr2B3
_symmetry_space_group_name_H-M   'P 1'
_cell_length_a   2.95054632
_cell_length_b   2.93549377
_cell_length_c   9.20040006
_cell_angle_alpha   99.17966134
_cell_angle_beta   90.00000000
_cell_angle_gamma   90.00000000
_symmetry_Int_Tables_number   1
_chemical_formula_structural   Cr2B3
_chemical_formula_sum   'Cr4 B6'
_cell_volume   78.66695863
_cell_formula_units_Z   2
loop_
 _symmetry_equiv_pos_site_id
 _symmetry_equiv_pos_as_xyz
  1  'x, y, z'
loop_
 _atom_site_type_symbol
 _atom_site_label
 _atom_site_symmetry_multiplicity
 _atom_site_fract_x
 _atom_site_fract_y
 _atom_site_fract_z
 _atom_site_occupancy
  B  B0  1  0.75000000  0.02359171  0.04718342  1
  B  B1  1  0.25000000  0.97640829  0.95281658  1
  B  B2  1  0.75000000  0.11886534  0.23773068  1
  B  B3  1  0.25000000  0.88113466  0.76226932  1
  B  B4  1  0.75000000  0.82746969  0.65493938  1
  B  B5  1  0.25000000  0.17253031  0.34506062  1
  Cr  Cr6  1  0.75000000  0.42804903  0.85609806  1
  Cr  Cr7  1  0.25000000  0.57195097  0.14390194  1
  Cr  Cr8  1  0.75000000  0.70295815  0.40591631  1
  Cr  Cr9  1  0.25000000  0.29704185  0.59408369  1
