# generated using pymatgen
data_K3Bi2
_symmetry_space_group_name_H-M   'P 1'
_cell_length_a   6.85963067
_cell_length_b   6.85963067
_cell_length_c   9.55412390
_cell_angle_alpha   101.11945314
_cell_angle_beta   101.11945314
_cell_angle_gamma   92.09468333
_symmetry_Int_Tables_number   1
_chemical_formula_structural   K3Bi2
_chemical_formula_sum   'K6 Bi4'
_cell_volume   431.57262976
_cell_formula_units_Z   2
loop_
 _symmetry_equiv_pos_site_id
 _symmetry_equiv_pos_as_xyz
  1  'x, y, z'
loop_
 _atom_site_type_symbol
 _atom_site_label
 _atom_site_symmetry_multiplicity
 _atom_site_fract_x
 _atom_site_fract_y
 _atom_site_fract_z
 _atom_site_occupancy
  K  K0  1  0.65455420  0.76020732  0.97920111  1
  K  K1  1  0.34544580  0.23979268  0.02079889  1
  K  K2  1  0.23979268  0.34544580  0.52079889  1
  K  K3  1  0.76020732  0.65455420  0.47920111  1
  K  K4  1  0.83617901  0.16382099  0.75000000  1
  K  K5  1  0.16382099  0.83617901  0.25000000  1
  Bi  Bi6  1  0.31401683  0.88840158  0.65334418  1
  Bi  Bi7  1  0.68598317  0.11159842  0.34665582  1
  Bi  Bi8  1  0.11159842  0.68598317  0.84665582  1
  Bi  Bi9  1  0.88840158  0.31401683  0.15334418  1
