# generated using pymatgen
data_Tb2CoGe6
_symmetry_space_group_name_H-M   'P 1'
_cell_length_a   4.06980871
_cell_length_b   3.99567068
_cell_length_c   10.94731179
_cell_angle_alpha   100.51515055
_cell_angle_beta   90.00000000
_cell_angle_gamma   90.00000000
_symmetry_Int_Tables_number   1
_chemical_formula_structural   Tb2CoGe6
_chemical_formula_sum   'Tb2 Co1 Ge6'
_cell_volume   175.03141109
_cell_formula_units_Z   1
loop_
 _symmetry_equiv_pos_site_id
 _symmetry_equiv_pos_as_xyz
  1  'x, y, z'
loop_
 _atom_site_type_symbol
 _atom_site_label
 _atom_site_symmetry_multiplicity
 _atom_site_fract_x
 _atom_site_fract_y
 _atom_site_fract_z
 _atom_site_occupancy
  Tb  Tb0  1  0.50000000  0.22235781  0.44471561  1
  Tb  Tb1  1  0.50000000  0.88681877  0.77363755  1
  Co  Co2  1  -0.00000000  0.44520801  0.89041602  1
  Ge  Ge3  1  0.50000000  0.49986317  0.99972633  1
  Ge  Ge4  1  0.50000000  0.61605163  0.23210326  1
  Ge  Ge5  1  0.00000000  0.00084226  0.00168453  1
  Ge  Ge6  1  0.00000000  0.11786399  0.23572797  1
  Ge  Ge7  1  0.00000000  0.33885265  0.67770529  1
  Ge  Ge8  1  0.00000000  0.76514172  0.53028343  1
