# generated using pymatgen
data_Tm2(GePt3)3
_symmetry_space_group_name_H-M   'P 1'
_cell_length_a   7.80428202
_cell_length_b   7.80428202
_cell_length_c   10.06719938
_cell_angle_alpha   90.16440433
_cell_angle_beta   112.85553254
_cell_angle_gamma   119.68737600
_symmetry_Int_Tables_number   1
_chemical_formula_structural   Tm2(GePt3)3
_chemical_formula_sum   'Tm4 Ge6 Pt18'
_cell_volume   476.03445616
_cell_formula_units_Z   2
loop_
 _symmetry_equiv_pos_site_id
 _symmetry_equiv_pos_as_xyz
  1  'x, y, z'
loop_
 _atom_site_type_symbol
 _atom_site_label
 _atom_site_symmetry_multiplicity
 _atom_site_fract_x
 _atom_site_fract_y
 _atom_site_fract_z
 _atom_site_occupancy
  Tm  Tm0  1  0.66638374  0.75543256  0.25074067  1
  Tm  Tm1  1  0.33361626  0.24456744  0.74925933  1
  Tm  Tm2  1  0.00469189  0.41564307  0.24925933  1
  Tm  Tm3  1  0.99530811  0.58435693  0.75074067  1
  Ge  Ge4  1  0.50000000  -0.00000000  -0.00000000  1
  Ge  Ge5  1  0.50000000  0.50000000  0.50000000  1
  Ge  Ge6  1  0.13658470  0.81799970  0.49774728  1
  Ge  Ge7  1  0.86341530  0.18200030  0.50225272  1
  Ge  Ge8  1  0.82025242  0.63883742  0.00225272  1
  Ge  Ge9  1  0.17974758  0.36116258  0.99774728  1
  Pt  Pt10  1  0.55387681  0.08385473  0.25629442  1
  Pt  Pt11  1  0.44612319  0.91614527  0.74370558  1
  Pt  Pt12  1  0.32756031  0.29758239  0.24370558  1
  Pt  Pt13  1  0.67243969  0.70241761  0.75629442  1
  Pt  Pt14  1  0.55626016  0.36130263  0.07841207  1
  Pt  Pt15  1  0.44373984  0.63869737  0.92158793  1
  Pt  Pt16  1  0.78289057  0.47784809  0.42158793  1
  Pt  Pt17  1  0.21710943  0.52215191  0.57841207  1
  Pt  Pt18  1  0.11455537  0.86455537  0.25000000  1
  Pt  Pt19  1  0.88544463  0.13544463  0.75000000  1
  Pt  Pt20  1  0.87212824  0.02237004  0.07678341  1
  Pt  Pt21  1  0.12787176  0.97762996  0.92321659  1
  Pt  Pt22  1  0.44558662  0.79534482  0.42321659  1
  Pt  Pt23  1  0.55441338  0.20465518  0.57678341  1
  Pt  Pt24  1  0.11298191  0.13954274  0.42030995  1
  Pt  Pt25  1  0.88701809  0.86045726  0.57969005  1
  Pt  Pt26  1  0.21923279  0.69267196  0.07969005  1
  Pt  Pt27  1  0.78076721  0.30732804  0.92030995  1
