# generated using pymatgen
data_TlSn2I5
_symmetry_space_group_name_H-M   'P 1'
_cell_length_a   8.87535550
_cell_length_b   8.87535550
_cell_length_c   10.09628033
_cell_angle_alpha   116.07427405
_cell_angle_beta   116.07427405
_cell_angle_gamma   90.00000000
_symmetry_Int_Tables_number   1
_chemical_formula_structural   TlSn2I5
_chemical_formula_sum   'Tl2 Sn4 I10'
_cell_volume   622.99044251
_cell_formula_units_Z   2
loop_
 _symmetry_equiv_pos_site_id
 _symmetry_equiv_pos_as_xyz
  1  'x, y, z'
loop_
 _atom_site_type_symbol
 _atom_site_label
 _atom_site_symmetry_multiplicity
 _atom_site_fract_x
 _atom_site_fract_y
 _atom_site_fract_z
 _atom_site_occupancy
  Tl  Tl0  1  0.25000000  0.25000000  0.50000000  1
  Tl  Tl1  1  0.75000000  0.75000000  0.50000000  1
  Sn  Sn2  1  0.16680116  0.66680116  0.00000000  1
  Sn  Sn3  1  0.83319884  0.33319884  -0.00000000  1
  Sn  Sn4  1  0.33319884  0.16680116  -0.00000000  1
  Sn  Sn5  1  0.66680116  0.83319884  0.00000000  1
  I  I6  1  0.00000000  0.00000000  -0.00000000  1
  I  I7  1  0.50000000  0.50000000  0.00000000  1
  I  I8  1  0.79716059  0.29716059  0.27274158  1
  I  I9  1  0.20283941  0.70283941  0.72725842  1
  I  I10  1  0.47558099  0.97558099  0.27274158  1
  I  I11  1  0.97558099  0.79716059  0.27274158  1
  I  I12  1  0.70283941  0.52441901  0.72725842  1
  I  I13  1  0.52441901  0.02441901  0.72725842  1
  I  I14  1  0.02441901  0.20283941  0.72725842  1
  I  I15  1  0.29716059  0.47558099  0.27274158  1
