# generated using pymatgen
data_CaTa2CoO7
_symmetry_space_group_name_H-M   'P 1'
_cell_length_a   7.16717002
_cell_length_b   11.80374188
_cell_length_c   15.14305341
_cell_angle_alpha   90.00000000
_cell_angle_beta   90.00000000
_cell_angle_gamma   102.04336799
_symmetry_Int_Tables_number   1
_chemical_formula_structural   CaTa2CoO7
_chemical_formula_sum   'Ca8 Ta16 Co8 O56'
_cell_volume   1252.89667521
_cell_formula_units_Z   8
loop_
 _symmetry_equiv_pos_site_id
 _symmetry_equiv_pos_as_xyz
  1  'x, y, z'
loop_
 _atom_site_type_symbol
 _atom_site_label
 _atom_site_symmetry_multiplicity
 _atom_site_fract_x
 _atom_site_fract_y
 _atom_site_fract_z
 _atom_site_occupancy
  Ca  Ca0  1  0.06007022  0.72936756  0.51031302  1
  Ca  Ca1  1  0.31331873  0.96069376  0.87132255  1
  Ca  Ca2  1  0.68668127  0.53930624  0.37132255  1
  Ca  Ca3  1  0.68668127  0.03930624  0.12867745  1
  Ca  Ca4  1  0.31331873  0.46069376  0.62867745  1
  Ca  Ca5  1  0.06007022  0.22936756  0.98968698  1
  Ca  Ca6  1  0.93992978  0.27063244  0.48968698  1
  Ca  Ca7  1  0.93992978  0.77063244  0.01031302  1
  Ta  Ta8  1  0.83486326  0.97714230  0.87483762  1
  Ta  Ta9  1  0.42272583  0.69168289  0.01579408  1
  Ta  Ta10  1  0.42272583  0.19168289  0.48420592  1
  Ta  Ta11  1  0.57727417  0.30831711  0.98420592  1
  Ta  Ta12  1  0.50628846  0.79868760  0.71737974  1
  Ta  Ta13  1  0.49371154  0.70131240  0.21737974  1
  Ta  Ta14  1  0.49371154  0.20131240  0.28262026  1
  Ta  Ta15  1  0.50628846  0.29868760  0.78262026  1
  Ta  Ta16  1  0.57727417  0.80831711  0.51579408  1
  Ta  Ta17  1  0.87129511  0.48412786  0.14046919  1
  Ta  Ta18  1  0.12870489  0.01587214  0.64046919  1
  Ta  Ta19  1  0.12870489  0.51587214  0.85953081  1
  Ta  Ta20  1  0.16513674  0.52285770  0.37483762  1
  Ta  Ta21  1  0.83486326  0.47714230  0.62516238  1
  Ta  Ta22  1  0.16513674  0.02285770  0.12516238  1
  Ta  Ta23  1  0.87129511  0.98412786  0.35953081  1
  Co  Co24  1  0.64293854  0.07923146  0.66871318  1
  Co  Co25  1  0.35706146  0.42076854  0.16871318  1
  Co  Co26  1  0.35706146  0.92076854  0.33128682  1
  Co  Co27  1  0.64293854  0.57923146  0.83128682  1
  Co  Co28  1  0.99188715  0.24357722  0.75454418  1
  Co  Co29  1  0.00811285  0.25642278  0.25454418  1
  Co  Co30  1  0.00811285  0.75642278  0.24545582  1
  Co  Co31  1  0.99188715  0.74357722  0.74545582  1
  O  O32  1  0.76800609  0.96107533  0.99158067  1
  O  O33  1  0.23199391  0.53892467  0.49158067  1
  O  O34  1  0.23199391  0.03892467  0.00841933  1
  O  O35  1  0.76800609  0.46107533  0.50841933  1
  O  O36  1  0.99137020  0.87104738  0.85876501  1
  O  O37  1  0.00862980  0.62895262  0.35876501  1
  O  O38  1  0.00862980  0.12895262  0.14123499  1
  O  O39  1  0.99137020  0.37104738  0.64123499  1
  O  O40  1  0.98850539  0.12267601  0.85986805  1
  O  O41  1  0.01149461  0.37732399  0.35986805  1
  O  O42  1  0.01149461  0.87732399  0.14013195  1
  O  O43  1  0.98850539  0.62267601  0.64013195  1
  O  O44  1  0.67126138  0.95667499  0.27931960  1
  O  O45  1  0.32873862  0.54332501  0.77931960  1
  O  O46  1  0.32873862  0.04332501  0.72068040  1
  O  O47  1  0.67126138  0.45667499  0.22068040  1
  O  O48  1  0.97291395  0.14197406  0.36421598  1
  O  O49  1  0.02708605  0.35802594  0.86421598  1
  O  O50  1  0.02708605  0.85802594  0.63578402  1
  O  O51  1  0.97291395  0.64197406  0.13578402  1
  O  O52  1  0.06068057  0.89955880  0.33304131  1
  O  O53  1  0.37119564  0.81448452  0.44298353  1
  O  O54  1  0.93931943  0.60044120  0.83304131  1
  O  O55  1  0.06068057  0.39955880  0.16695869  1
  O  O56  1  0.72408230  0.70548310  0.47838999  1
  O  O57  1  0.27591770  0.79451690  0.97838999  1
  O  O58  1  0.27591770  0.29451690  0.52161001  1
  O  O59  1  0.72408230  0.20548310  0.02161001  1
  O  O60  1  0.76807373  0.94564601  0.47272129  1
  O  O61  1  0.23192627  0.55435399  0.97272129  1
  O  O62  1  0.23192627  0.05435399  0.52727871  1
  O  O63  1  0.76807373  0.44564601  0.02727871  1
  O  O64  1  0.43632612  0.20677285  0.88950309  1
  O  O65  1  0.56367388  0.29322715  0.38950309  1
  O  O66  1  0.56367388  0.79322715  0.11049691  1
  O  O67  1  0.43632612  0.70677285  0.61049691  1
  O  O68  1  0.69394521  0.22095569  0.74459142  1
  O  O69  1  0.30605479  0.27904431  0.24459142  1
  O  O70  1  0.30605479  0.77904431  0.25540858  1
  O  O71  1  0.69394521  0.72095569  0.75540858  1
  O  O72  1  0.61434546  0.44479350  0.70082674  1
  O  O73  1  0.38565454  0.05520650  0.20082674  1
  O  O74  1  0.38565454  0.55520650  0.29917326  1
  O  O75  1  0.61434546  0.94479350  0.79917326  1
  O  O76  1  0.27599673  0.28514079  0.72501647  1
  O  O77  1  0.72400327  0.21485921  0.22501647  1
  O  O78  1  0.72400327  0.71485921  0.27498353  1
  O  O79  1  0.27599673  0.78514079  0.77498353  1
  O  O80  1  0.58868261  0.41540058  0.87589710  1
  O  O81  1  0.41131739  0.08459942  0.37589710  1
  O  O82  1  0.41131739  0.58459942  0.12410290  1
  O  O83  1  0.58868261  0.91540058  0.62410290  1
  O  O84  1  0.37119564  0.31448452  0.05701647  1
  O  O85  1  0.62880436  0.18551548  0.55701647  1
  O  O86  1  0.62880436  0.68551548  0.94298353  1
  O  O87  1  0.93931943  0.10044120  0.66695869  1
