# generated using pymatgen
data_SrICl
_symmetry_space_group_name_H-M   'P 1'
_cell_length_a   4.53904658
_cell_length_b   8.44836492
_cell_length_c   10.34183919
_cell_angle_alpha   90.00000000
_cell_angle_beta   90.00000000
_cell_angle_gamma   90.00000000
_symmetry_Int_Tables_number   1
_chemical_formula_structural   SrICl
_chemical_formula_sum   'Sr4 I4 Cl4'
_cell_volume   396.58390479
_cell_formula_units_Z   4
loop_
 _symmetry_equiv_pos_site_id
 _symmetry_equiv_pos_as_xyz
  1  'x, y, z'
loop_
 _atom_site_type_symbol
 _atom_site_label
 _atom_site_symmetry_multiplicity
 _atom_site_fract_x
 _atom_site_fract_y
 _atom_site_fract_z
 _atom_site_occupancy
  Sr  Sr0  1  0.75000000  0.81355510  0.87042516  1
  Sr  Sr1  1  0.25000000  0.18644490  0.12957484  1
  Sr  Sr2  1  0.25000000  0.68644490  0.37042516  1
  Sr  Sr3  1  0.75000000  0.31355510  0.62957484  1
  I  I4  1  0.75000000  0.99833726  0.32424616  1
  I  I5  1  0.25000000  0.00166274  0.67575384  1
  I  I6  1  0.25000000  0.50166274  0.82424616  1
  I  I7  1  0.75000000  0.49833726  0.17575384  1
  Cl  Cl8  1  0.75000000  0.65291207  0.54991428  1
  Cl  Cl9  1  0.25000000  0.34708793  0.45008572  1
  Cl  Cl10  1  0.25000000  0.84708793  0.04991428  1
  Cl  Cl11  1  0.75000000  0.15291207  0.95008572  1
