# generated using pymatgen
data_V3ZnFe2O11
_symmetry_space_group_name_H-M   'P 1'
_cell_length_a   6.51636526
_cell_length_b   6.92577363
_cell_length_c   10.35358634
_cell_angle_alpha   96.91600762
_cell_angle_beta   103.37194788
_cell_angle_gamma   101.25651282
_symmetry_Int_Tables_number   1
_chemical_formula_structural   V3ZnFe2O11
_chemical_formula_sum   'V6 Zn2 Fe4 O22'
_cell_volume   439.09068236
_cell_formula_units_Z   2
loop_
 _symmetry_equiv_pos_site_id
 _symmetry_equiv_pos_as_xyz
  1  'x, y, z'
loop_
 _atom_site_type_symbol
 _atom_site_label
 _atom_site_symmetry_multiplicity
 _atom_site_fract_x
 _atom_site_fract_y
 _atom_site_fract_z
 _atom_site_occupancy
  V  V0  1  0.17489930  0.48972525  0.30097008  1
  V  V1  1  0.82510070  0.51027475  0.69902992  1
  V  V2  1  0.18865534  0.07337378  0.62512345  1
  V  V3  1  0.81134466  0.92662622  0.37487655  1
  V  V4  1  0.23922528  0.17341242  0.97056833  1
  V  V5  1  0.76077472  0.82658758  0.02943167  1
  Zn  Zn6  1  0.19864889  0.67251498  0.00942645  1
  Zn  Zn7  1  0.80135111  0.32748502  0.99057355  1
  Fe  Fe8  1  0.67435295  0.38031063  0.33969132  1
  Fe  Fe9  1  0.32564705  0.61968937  0.66030868  1
  Fe  Fe10  1  0.26073290  0.00607337  0.27264718  1
  Fe  Fe11  1  0.73926710  0.99392663  0.72735282  1
  O  O12  1  0.12480353  0.01370180  0.43400095  1
  O  O13  1  0.87519647  0.98629820  0.56599905  1
  O  O14  1  0.23885535  0.69833760  0.23228094  1
  O  O15  1  0.76114465  0.30166240  0.76771906  1
  O  O16  1  0.22060009  0.98208863  0.06683582  1
  O  O17  1  0.77939991  0.01791137  0.93316418  1
  O  O18  1  0.61847254  0.07391405  0.33930655  1
  O  O19  1  0.38152746  0.92608595  0.66069345  1
  O  O20  1  0.49652908  0.71884527  0.00390610  1
  O  O21  1  0.50347092  0.28115473  0.99609390  1
  O  O22  1  0.30647519  0.31947150  0.65187791  1
  O  O23  1  0.69352481  0.68052850  0.34812209  1
  O  O24  1  0.11580294  0.07201907  0.79616075  1
  O  O25  1  0.88419706  0.92798093  0.20383925  1
  O  O26  1  0.12339075  0.36853685  0.02380252  1
  O  O27  1  0.87660925  0.63146315  0.97619748  1
  O  O28  1  0.89121710  0.37895735  0.23802394  1
  O  O29  1  0.10878290  0.62104265  0.76197606  1
  O  O30  1  0.21085154  0.57085685  0.46990340  1
  O  O31  1  0.78914846  0.42914315  0.53009660  1
  O  O32  1  0.35772473  0.32725297  0.29031075  1
  O  O33  1  0.64227527  0.67274703  0.70968925  1
