# generated using pymatgen
data_Sr2Ca2Ga(CuO3)3
_symmetry_space_group_name_H-M   'P 1'
_cell_length_a   5.38827709
_cell_length_b   5.47885213
_cell_length_c   15.41222770
_cell_angle_alpha   100.23836305
_cell_angle_beta   100.06732772
_cell_angle_gamma   90.00000000
_symmetry_Int_Tables_number   1
_chemical_formula_structural   Sr2Ca2Ga(CuO3)3
_chemical_formula_sum   'Sr4 Ca4 Ga2 Cu6 O18'
_cell_volume   440.62757901
_cell_formula_units_Z   2
loop_
 _symmetry_equiv_pos_site_id
 _symmetry_equiv_pos_as_xyz
  1  'x, y, z'
loop_
 _atom_site_type_symbol
 _atom_site_label
 _atom_site_symmetry_multiplicity
 _atom_site_fract_x
 _atom_site_fract_y
 _atom_site_fract_z
 _atom_site_occupancy
  Sr  Sr0  1  0.81102353  0.31276790  0.65478305  1
  Sr  Sr1  1  0.15624048  0.68723210  0.34521695  1
  Sr  Sr2  1  0.31102353  0.84201515  0.65478305  1
  Sr  Sr3  1  0.65624048  0.15798485  0.34521695  1
  Ca  Ca4  1  0.93302126  0.44538121  0.88798079  1
  Ca  Ca5  1  0.04504047  0.55461879  0.11201921  1
  Ca  Ca6  1  0.43302126  0.94259958  0.88798079  1
  Ca  Ca7  1  0.54504047  0.05740042  0.11201921  1
  Ga  Ga8  1  0.68874488  0.67917293  0.50000000  1
  Ga  Ga9  1  0.18874488  0.32082707  0.50000000  1
  Cu  Cu10  1  0.99030698  0.00000000  0.00000000  1
  Cu  Cu11  1  0.49030698  0.50000000  0.00000000  1
  Cu  Cu12  1  0.87396821  0.88594829  0.77235559  1
  Cu  Cu13  1  0.10161262  0.11405171  0.22764441  1
  Cu  Cu14  1  0.37396821  0.38640730  0.77235559  1
  Cu  Cu15  1  0.60161262  0.61359270  0.22764441  1
  O  O16  1  0.31263551  0.26387512  0.61431311  1
  O  O17  1  0.69832240  0.73612488  0.38568689  1
  O  O18  1  0.81263551  0.85043799  0.61431311  1
  O  O19  1  0.19832240  0.14956201  0.38568689  1
  O  O20  1  0.13027671  0.14597579  0.78918567  1
  O  O21  1  0.34109104  0.85402421  0.21081433  1
  O  O22  1  0.63027671  0.14320988  0.78918567  1
  O  O23  1  0.84109104  0.85679012  0.21081433  1
  O  O24  1  0.74031284  0.74977326  0.99834578  1
  O  O25  1  0.74196706  0.25022674  0.00165422  1
  O  O26  1  0.24031284  0.74857252  0.99834578  1
  O  O27  1  0.24196706  0.25142748  0.00165422  1
  O  O28  1  0.33749572  0.63541712  0.50000000  1
  O  O29  1  0.83749572  0.36458288  0.50000000  1
  O  O30  1  0.62995889  0.63986372  0.78297751  1
  O  O31  1  0.84698138  0.36013628  0.21702249  1
  O  O32  1  0.12995889  0.64311379  0.78297751  1
  O  O33  1  0.34698138  0.35688621  0.21702249  1
