# generated using pymatgen
data_Sr2TmGaCu2O7
_symmetry_space_group_name_H-M   'P 1'
_cell_length_a   5.38519959
_cell_length_b   5.49413721
_cell_length_c   12.19093833
_cell_angle_alpha   103.02269156
_cell_angle_beta   102.76007352
_cell_angle_gamma   90.00000000
_symmetry_Int_Tables_number   1
_chemical_formula_structural   Sr2TmGaCu2O7
_chemical_formula_sum   'Sr4 Tm2 Ga2 Cu4 O14'
_cell_volume   342.26766772
_cell_formula_units_Z   2
loop_
 _symmetry_equiv_pos_site_id
 _symmetry_equiv_pos_as_xyz
  1  'x, y, z'
loop_
 _atom_site_type_symbol
 _atom_site_label
 _atom_site_symmetry_multiplicity
 _atom_site_fract_x
 _atom_site_fract_y
 _atom_site_fract_z
 _atom_site_occupancy
  Sr  Sr0  1  0.35750379  0.33353443  0.69874134  1
  Sr  Sr1  1  0.65876245  0.66646557  0.30125866  1
  Sr  Sr2  1  0.85750379  0.86520691  0.69874134  1
  Sr  Sr3  1  0.15876245  0.13479309  0.30125866  1
  Tm  Tm4  1  0.00692493  1.00000000  1.00000000  1
  Tm  Tm5  1  0.50692493  0.50000000  1.00000000  1
  Ga  Ga6  1  0.30034434  0.68211902  0.50000000  1
  Ga  Ga7  1  0.80034434  0.31788098  0.50000000  1
  Cu  Cu8  1  0.93662160  0.43028026  0.85903461  1
  Cu  Cu9  1  0.07758698  0.56971974  0.14096539  1
  Cu  Cu10  1  0.43662160  0.92875436  0.85903461  1
  Cu  Cu11  1  0.57758698  0.07124564  0.14096539  1
  O  O12  1  0.65425889  0.63457522  0.50000000  1
  O  O13  1  0.15425889  0.36542478  0.50000000  1
  O  O14  1  0.81112800  0.27911481  0.64782741  1
  O  O15  1  0.16330058  0.72088519  0.35217259  1
  O  O16  1  0.31112800  0.86871261  0.64782741  1
  O  O17  1  0.66330058  0.13128739  0.35217259  1
  O  O18  1  0.19879980  0.19147866  0.88052618  1
  O  O19  1  0.31827362  0.80852134  0.11947382  1
  O  O20  1  0.69879980  0.18904752  0.88052618  1
  O  O21  1  0.81827362  0.81095248  0.11947382  1
  O  O22  1  0.69363795  0.68668222  0.87478089  1
  O  O23  1  0.81885706  0.31331778  0.12521911  1
  O  O24  1  0.19363795  0.68809867  0.87478089  1
  O  O25  1  0.31885706  0.31190133  0.12521911  1
