# generated using pymatgen
data_Nd6Co2Sn
_symmetry_space_group_name_H-M   'P 1'
_cell_length_a   8.69196812
_cell_length_b   8.69196812
_cell_length_c   8.69196812
_cell_angle_alpha   106.63378300
_cell_angle_beta   108.55310185
_cell_angle_gamma   113.30110425
_symmetry_Int_Tables_number   1
_chemical_formula_structural   Nd6Co2Sn
_chemical_formula_sum   'Nd12 Co4 Sn2'
_cell_volume   503.67527452
_cell_formula_units_Z   2
loop_
 _symmetry_equiv_pos_site_id
 _symmetry_equiv_pos_as_xyz
  1  'x, y, z'
loop_
 _atom_site_type_symbol
 _atom_site_label
 _atom_site_symmetry_multiplicity
 _atom_site_fract_x
 _atom_site_fract_y
 _atom_site_fract_z
 _atom_site_occupancy
  Nd  Nd0  1  0.79526756  0.76909079  0.56435835  1
  Nd  Nd1  1  0.20473244  0.23090921  0.43564165  1
  Nd  Nd2  1  0.20473244  0.76909079  0.97382323  1
  Nd  Nd3  1  0.79526756  0.23090921  0.02617677  1
  Nd  Nd4  1  0.52713303  0.71145836  0.81567467  1
  Nd  Nd5  1  0.47286697  0.28854164  0.18432533  1
  Nd  Nd6  1  0.10421631  0.28854164  0.81567467  1
  Nd  Nd7  1  0.89578369  0.71145836  0.18432533  1
  Nd  Nd8  1  0.68637888  0.36341121  0.67703233  1
  Nd  Nd9  1  0.31362112  0.63658879  0.32296767  1
  Nd  Nd10  1  0.31362112  0.99065345  0.67703233  1
  Nd  Nd11  1  0.68637888  0.00934655  0.32296767  1
  Co  Co12  1  0.64913247  -0.00000000  0.64913247  1
  Co  Co13  1  0.35086753  -0.00000000  0.35086753  1
  Co  Co14  1  0.50000000  0.39110687  0.89110687  1
  Co  Co15  1  0.50000000  0.60889313  0.10889313  1
  Sn  Sn16  1  -0.00000000  0.50000000  0.50000000  1
  Sn  Sn17  1  -0.00000000  -0.00000000  0.00000000  1
