# generated using pymatgen
data_NaAl(SO4)2
_symmetry_space_group_name_H-M   'P 1'
_cell_length_a   5.03543276
_cell_length_b   13.99417755
_cell_length_c   8.18551325
_cell_angle_alpha   90.00000000
_cell_angle_beta   90.00000000
_cell_angle_gamma   90.00000000
_symmetry_Int_Tables_number   1
_chemical_formula_structural   NaAl(SO4)2
_chemical_formula_sum   'Na4 Al4 S8 O32'
_cell_volume   576.80643465
_cell_formula_units_Z   4
loop_
 _symmetry_equiv_pos_site_id
 _symmetry_equiv_pos_as_xyz
  1  'x, y, z'
loop_
 _atom_site_type_symbol
 _atom_site_label
 _atom_site_symmetry_multiplicity
 _atom_site_fract_x
 _atom_site_fract_y
 _atom_site_fract_z
 _atom_site_occupancy
  Na  Na0  1  0.75000000  0.58179976  0.92019422  1
  Na  Na1  1  0.25000000  0.41820024  0.07980578  1
  Na  Na2  1  0.25000000  0.91820024  0.42019422  1
  Na  Na3  1  0.75000000  0.08179976  0.57980578  1
  Al  Al4  1  0.75000000  0.65337361  0.49589093  1
  Al  Al5  1  0.25000000  0.34662639  0.50410907  1
  Al  Al6  1  0.25000000  0.84662639  0.99589093  1
  Al  Al7  1  0.75000000  0.15337361  0.00410907  1
  S  S8  1  0.75000000  0.83174308  0.75165023  1
  S  S9  1  0.25000000  0.16825692  0.24834977  1
  S  S10  1  0.25000000  0.66825692  0.25165023  1
  S  S11  1  0.75000000  0.33174308  0.74834977  1
  S  S12  1  0.75000000  0.94286742  0.19194937  1
  S  S13  1  0.25000000  0.05713258  0.80805063  1
  S  S14  1  0.25000000  0.55713258  0.69194937  1
  S  S15  1  0.75000000  0.44286742  0.30805063  1
  O  O16  1  0.75000000  0.93275753  0.71682436  1
  O  O17  1  0.25000000  0.06724247  0.28317564  1
  O  O18  1  0.25000000  0.56724247  0.21682436  1
  O  O19  1  0.75000000  0.43275753  0.78317564  1
  O  O20  1  0.75000000  0.96584340  0.36613873  1
  O  O21  1  0.25000000  0.03415660  0.63386127  1
  O  O22  1  0.25000000  0.53415660  0.86613873  1
  O  O23  1  0.75000000  0.46584340  0.13386127  1
  O  O24  1  0.75000000  0.52809321  0.41372941  1
  O  O25  1  0.25000000  0.47190679  0.58627059  1
  O  O26  1  0.25000000  0.97190679  0.91372941  1
  O  O27  1  0.75000000  0.02809321  0.08627059  1
  O  O28  1  0.00885086  0.61577769  0.65646553  1
  O  O29  1  0.99114914  0.38422231  0.34353447  1
  O  O30  1  0.99114914  0.88422231  0.15646553  1
  O  O31  1  0.50885086  0.38422231  0.34353447  1
  O  O32  1  0.00885086  0.11577769  0.84353447  1
  O  O33  1  0.49114914  0.61577769  0.65646553  1
  O  O34  1  0.49114914  0.11577769  0.84353447  1
  O  O35  1  0.50885086  0.88422231  0.15646553  1
  O  O36  1  0.75000000  0.77740177  0.59421301  1
  O  O37  1  0.25000000  0.22259823  0.40578699  1
  O  O38  1  0.25000000  0.72259823  0.09421301  1
  O  O39  1  0.75000000  0.27740177  0.90578699  1
  O  O40  1  0.98858355  0.80118622  0.84777892  1
  O  O41  1  0.01141645  0.19881378  0.15222108  1
  O  O42  1  0.01141645  0.69881378  0.34777892  1
  O  O43  1  0.48858355  0.19881378  0.15222108  1
  O  O44  1  0.98858355  0.30118622  0.65222108  1
  O  O45  1  0.51141645  0.80118622  0.84777892  1
  O  O46  1  0.51141645  0.30118622  0.65222108  1
  O  O47  1  0.48858355  0.69881378  0.34777892  1
