# generated using pymatgen
data_NaCaAsO4
_symmetry_space_group_name_H-M   'P 1'
_cell_length_a   5.50799750
_cell_length_b   5.50799750
_cell_length_c   7.27832869
_cell_angle_alpha   90.00000000
_cell_angle_beta   90.00000000
_cell_angle_gamma   115.20495387
_symmetry_Int_Tables_number   1
_chemical_formula_structural   NaCaAsO4
_chemical_formula_sum   'Na2 Ca2 As2 O8'
_cell_volume   199.78691424
_cell_formula_units_Z   2
loop_
 _symmetry_equiv_pos_site_id
 _symmetry_equiv_pos_as_xyz
  1  'x, y, z'
loop_
 _atom_site_type_symbol
 _atom_site_label
 _atom_site_symmetry_multiplicity
 _atom_site_fract_x
 _atom_site_fract_y
 _atom_site_fract_z
 _atom_site_occupancy
  Na  Na0  1  0.31863730  0.68136270  0.75000000  1
  Na  Na1  1  0.68136270  0.31863730  0.25000000  1
  Ca  Ca2  1  -0.00000000  0.00000000  0.00000000  1
  Ca  Ca3  1  -0.00000000  0.00000000  0.50000000  1
  As  As4  1  0.64871681  0.35128319  0.75000000  1
  As  As5  1  0.35128319  0.64871681  0.25000000  1
  O  O6  1  0.75302602  0.24697398  0.94262523  1
  O  O7  1  0.24697398  0.75302602  0.05737477  1
  O  O8  1  0.24697398  0.75302602  0.44262523  1
  O  O9  1  0.75302602  0.24697398  0.55737477  1
  O  O10  1  0.29988050  0.22674795  0.75000000  1
  O  O11  1  0.70011950  0.77325205  0.25000000  1
  O  O12  1  0.77325205  0.70011950  0.75000000  1
  O  O13  1  0.22674795  0.29988050  0.25000000  1
