# generated using pymatgen
data_Na2ZnFe2(PO4)3
_symmetry_space_group_name_H-M   'P 1'
_cell_length_a   6.58659733
_cell_length_b   8.67493554
_cell_length_c   8.67493554
_cell_angle_alpha   93.43906720
_cell_angle_beta   106.11752907
_cell_angle_gamma   106.11752907
_symmetry_Int_Tables_number   1
_chemical_formula_structural   Na2ZnFe2(PO4)3
_chemical_formula_sum   'Na4 Zn2 Fe4 P6 O24'
_cell_volume   452.39937925
_cell_formula_units_Z   2
loop_
 _symmetry_equiv_pos_site_id
 _symmetry_equiv_pos_as_xyz
  1  'x, y, z'
loop_
 _atom_site_type_symbol
 _atom_site_label
 _atom_site_symmetry_multiplicity
 _atom_site_fract_x
 _atom_site_fract_y
 _atom_site_fract_z
 _atom_site_occupancy
  Na  Na0  1  0.75000000  0.98554789  0.01445211  1
  Na  Na1  1  0.25000000  0.01445211  0.98554789  1
  Na  Na2  1  -0.00000000  0.50000000  0.50000000  1
  Na  Na3  1  0.50000000  0.50000000  0.50000000  1
  Zn  Zn4  1  0.75000000  0.26932326  0.73067674  1
  Zn  Zn5  1  0.25000000  0.73067674  0.26932326  1
  Fe  Fe6  1  0.62649289  0.38142712  0.05695339  1
  Fe  Fe7  1  0.37350711  0.61857288  0.94304661  1
  Fe  Fe8  1  0.87350711  0.94304661  0.61857288  1
  Fe  Fe9  1  0.12649289  0.05695339  0.38142712  1
  P  P10  1  0.75000000  0.71108081  0.28891919  1
  P  P11  1  0.25000000  0.28891919  0.71108081  1
  P  P12  1  0.88092315  0.65602239  0.87443230  1
  P  P13  1  0.11907685  0.34397761  0.12556770  1
  P  P14  1  0.61907685  0.12556770  0.34397761  1
  P  P15  1  0.38092315  0.87443230  0.65602239  1
  O  O16  1  0.74710613  0.53307537  0.26212210  1
  O  O17  1  0.25289387  0.46692463  0.73787790  1
  O  O18  1  0.75289387  0.73787790  0.46692463  1
  O  O19  1  0.24710613  0.26212210  0.53307537  1
  O  O20  1  0.83146904  0.52443214  0.72911283  1
  O  O21  1  0.16853096  0.47556786  0.27088717  1
  O  O22  1  0.66853096  0.27088717  0.47556786  1
  O  O23  1  0.33146904  0.72911283  0.52443214  1
  O  O24  1  0.53796547  0.74205081  0.17665826  1
  O  O25  1  0.46203453  0.25794919  0.82334174  1
  O  O26  1  0.96203453  0.82334174  0.25794919  1
  O  O27  1  0.03796547  0.17665826  0.74205081  1
  O  O28  1  0.69238971  0.60379650  0.95495423  1
  O  O29  1  0.30761029  0.39620350  0.04504577  1
  O  O30  1  0.80761029  0.04504577  0.39620350  1
  O  O31  1  0.19238971  0.95495423  0.60379650  1
  O  O32  1  0.89198554  0.82694328  0.82540515  1
  O  O33  1  0.10801446  0.17305672  0.17459485  1
  O  O34  1  0.60801446  0.17459485  0.17305672  1
  O  O35  1  0.39198554  0.82540515  0.82694328  1
  O  O36  1  0.88951889  0.32448343  0.99593119  1
  O  O37  1  0.11048111  0.67551657  0.00406881  1
  O  O38  1  0.61048111  0.00406881  0.67551657  1
  O  O39  1  0.38951889  0.99593119  0.32448343  1
