# generated using pymatgen
data_Sr3Ho2(BO3)4
_symmetry_space_group_name_H-M   'P 1'
_cell_length_a   7.38784533
_cell_length_b   8.68885740
_cell_length_c   16.33378182
_cell_angle_alpha   90.00000000
_cell_angle_beta   90.00000000
_cell_angle_gamma   90.00000000
_symmetry_Int_Tables_number   1
_chemical_formula_structural   Sr3Ho2(BO3)4
_chemical_formula_sum   'Sr12 Ho8 B16 O48'
_cell_volume   1048.49705380
_cell_formula_units_Z   4
loop_
 _symmetry_equiv_pos_site_id
 _symmetry_equiv_pos_as_xyz
  1  'x, y, z'
loop_
 _atom_site_type_symbol
 _atom_site_label
 _atom_site_symmetry_multiplicity
 _atom_site_fract_x
 _atom_site_fract_y
 _atom_site_fract_z
 _atom_site_occupancy
  Sr  Sr0  1  0.02912455  0.33080679  0.45692346  1
  Sr  Sr1  1  0.97087545  0.66919321  0.95692346  1
  Sr  Sr2  1  0.52912455  0.16919321  0.45692346  1
  Sr  Sr3  1  0.47087545  0.83080679  0.95692346  1
  Sr  Sr4  1  0.17801578  0.84777114  0.41351213  1
  Sr  Sr5  1  0.82198422  0.15222886  0.91351213  1
  Sr  Sr6  1  0.67801578  0.65222886  0.41351213  1
  Sr  Sr7  1  0.32198422  0.34777114  0.91351213  1
  Sr  Sr8  1  0.31508349  0.35323442  0.66382606  1
  Sr  Sr9  1  0.68491651  0.64676558  0.16382606  1
  Sr  Sr10  1  0.81508349  0.14676558  0.66382606  1
  Sr  Sr11  1  0.18491651  0.85323442  0.16382606  1
  Ho  Ho12  1  0.31758772  0.46583590  0.28870215  1
  Ho  Ho13  1  0.68241228  0.53416410  0.78870215  1
  Ho  Ho14  1  0.81758772  0.03416410  0.28870215  1
  Ho  Ho15  1  0.18241228  0.96583590  0.78870215  1
  Ho  Ho16  1  0.02753402  0.33013029  0.11952742  1
  Ho  Ho17  1  0.97246598  0.66986971  0.61952742  1
  Ho  Ho18  1  0.52753402  0.16986971  0.11952742  1
  Ho  Ho19  1  0.47246598  0.83013029  0.61952742  1
  B  B20  1  0.17049699  0.06410463  0.99918865  1
  B  B21  1  0.82950301  0.93589537  0.49918865  1
  B  B22  1  0.67049699  0.43589537  0.99918865  1
  B  B23  1  0.32950301  0.56410463  0.49918865  1
  B  B24  1  0.00570656  0.37461953  0.78497871  1
  B  B25  1  0.99429344  0.62538047  0.28497871  1
  B  B26  1  0.50570656  0.12538047  0.78497871  1
  B  B27  1  0.49429344  0.87461953  0.28497871  1
  B  B28  1  0.16037184  0.04439527  0.58699733  1
  B  B29  1  0.83962816  0.95560473  0.08699733  1
  B  B30  1  0.66037184  0.45560473  0.58699733  1
  B  B31  1  0.33962816  0.54439527  0.08699733  1
  B  B32  1  0.21128146  0.15200080  0.28629448  1
  B  B33  1  0.78871854  0.84799920  0.78629448  1
  B  B34  1  0.71128146  0.34799920  0.28629448  1
  B  B35  1  0.28871854  0.65200080  0.78629448  1
  O  O36  1  0.23494023  0.22748864  0.21199700  1
  O  O37  1  0.76505977  0.77251136  0.71199700  1
  O  O38  1  0.73494023  0.27251136  0.21199700  1
  O  O39  1  0.26505977  0.72748864  0.71199700  1
  O  O40  1  0.09525963  0.19277192  0.58350982  1
  O  O41  1  0.90474037  0.80722808  0.08350982  1
  O  O42  1  0.59525963  0.30722808  0.58350982  1
  O  O43  1  0.40474037  0.69277192  0.08350982  1
  O  O44  1  0.08674499  0.20782578  0.00404532  1
  O  O45  1  0.91325501  0.79217422  0.50404532  1
  O  O46  1  0.58674499  0.29217422  0.00404532  1
  O  O47  1  0.41325501  0.70782578  0.50404532  1
  O  O48  1  0.12189735  0.01388452  0.29173686  1
  O  O49  1  0.87810265  0.98611548  0.79173686  1
  O  O50  1  0.62189735  0.48611548  0.29173686  1
  O  O51  1  0.37810265  0.51388452  0.79173686  1
  O  O52  1  0.19785876  0.49759555  0.03732275  1
  O  O53  1  0.80214124  0.50240445  0.53732275  1
  O  O54  1  0.69785876  0.00240445  0.03732275  1
  O  O55  1  0.30214124  0.99759555  0.53732275  1
  O  O56  1  0.11102806  0.24220420  0.78358851  1
  O  O57  1  0.88897194  0.75779580  0.28358851  1
  O  O58  1  0.61102806  0.25779580  0.78358851  1
  O  O59  1  0.38897194  0.74220420  0.28358851  1
  O  O60  1  0.04732421  0.54759181  0.21323753  1
  O  O61  1  0.95267579  0.45240819  0.71323753  1
  O  O62  1  0.54732421  0.95240819  0.21323753  1
  O  O63  1  0.45267579  0.04759181  0.71323753  1
  O  O64  1  0.27386613  0.22864305  0.35410310  1
  O  O65  1  0.72613387  0.77135695  0.85410310  1
  O  O66  1  0.77386613  0.27135695  0.35410310  1
  O  O67  1  0.22613387  0.72864305  0.85410310  1
  O  O68  1  0.38233928  0.46541461  0.43798444  1
  O  O69  1  0.61766072  0.53458539  0.93798444  1
  O  O70  1  0.88233928  0.03458539  0.43798444  1
  O  O71  1  0.11766072  0.96541461  0.93798444  1
  O  O72  1  0.41271369  0.44180329  0.14404753  1
  O  O73  1  0.58728631  0.55819671  0.64404753  1
  O  O74  1  0.91271369  0.05819671  0.14404753  1
  O  O75  1  0.08728631  0.94180329  0.64404753  1
  O  O76  1  0.30957853  0.03195009  0.05394628  1
  O  O77  1  0.69042147  0.96804991  0.55394628  1
  O  O78  1  0.80957853  0.46804991  0.05394628  1
  O  O79  1  0.19042147  0.53195009  0.55394628  1
  O  O80  1  0.06574078  0.56934469  0.35753048  1
  O  O81  1  0.93425922  0.43065531  0.85753048  1
  O  O82  1  0.56574078  0.93065531  0.35753048  1
  O  O83  1  0.43425922  0.06934469  0.85753048  1
