# generated using pymatgen
data_NaCr(SO4)2
_symmetry_space_group_name_H-M   'P 1'
_cell_length_a   5.16413639
_cell_length_b   14.27293799
_cell_length_c   8.23770813
_cell_angle_alpha   90.00000000
_cell_angle_beta   90.00000000
_cell_angle_gamma   90.00000000
_symmetry_Int_Tables_number   1
_chemical_formula_structural   NaCr(SO4)2
_chemical_formula_sum   'Na4 Cr4 S8 O32'
_cell_volume   607.18003559
_cell_formula_units_Z   4
loop_
 _symmetry_equiv_pos_site_id
 _symmetry_equiv_pos_as_xyz
  1  'x, y, z'
loop_
 _atom_site_type_symbol
 _atom_site_label
 _atom_site_symmetry_multiplicity
 _atom_site_fract_x
 _atom_site_fract_y
 _atom_site_fract_z
 _atom_site_occupancy
  Na  Na0  1  0.75000000  0.58370365  0.92141860  1
  Na  Na1  1  0.25000000  0.41629635  0.07858140  1
  Na  Na2  1  0.25000000  0.91629635  0.42141860  1
  Na  Na3  1  0.75000000  0.08370365  0.57858140  1
  Cr  Cr4  1  0.75000000  0.65171356  0.49890589  1
  Cr  Cr5  1  0.25000000  0.34828644  0.50109411  1
  Cr  Cr6  1  0.25000000  0.84828644  0.99890589  1
  Cr  Cr7  1  0.75000000  0.15171356  0.00109411  1
  S  S8  1  0.75000000  0.83667513  0.74664038  1
  S  S9  1  0.25000000  0.16332487  0.25335962  1
  S  S10  1  0.25000000  0.66332487  0.24664038  1
  S  S11  1  0.75000000  0.33667513  0.75335962  1
  S  S12  1  0.75000000  0.94209077  0.19585528  1
  S  S13  1  0.25000000  0.05790923  0.80414472  1
  S  S14  1  0.25000000  0.55790923  0.69585528  1
  S  S15  1  0.75000000  0.44209077  0.30414472  1
  O  O16  1  0.75000000  0.93661510  0.71799516  1
  O  O17  1  0.25000000  0.06338490  0.28200484  1
  O  O18  1  0.25000000  0.56338490  0.21799516  1
  O  O19  1  0.75000000  0.43661510  0.78200484  1
  O  O20  1  0.75000000  0.97366999  0.36401079  1
  O  O21  1  0.25000000  0.02633001  0.63598921  1
  O  O22  1  0.25000000  0.52633001  0.86401079  1
  O  O23  1  0.75000000  0.47366999  0.13598921  1
  O  O24  1  0.75000000  0.51823788  0.42572141  1
  O  O25  1  0.25000000  0.48176212  0.57427859  1
  O  O26  1  0.25000000  0.98176212  0.92572141  1
  O  O27  1  0.75000000  0.01823788  0.07427859  1
  O  O28  1  0.01414055  0.61802008  0.67085734  1
  O  O29  1  0.98585945  0.38197992  0.32914266  1
  O  O30  1  0.98585945  0.88197992  0.17085734  1
  O  O31  1  0.51414055  0.38197992  0.32914266  1
  O  O32  1  0.01414055  0.11802008  0.82914266  1
  O  O33  1  0.48585945  0.61802008  0.67085734  1
  O  O34  1  0.48585945  0.11802008  0.82914266  1
  O  O35  1  0.51414055  0.88197992  0.17085734  1
  O  O36  1  0.75000000  0.78589580  0.58653714  1
  O  O37  1  0.25000000  0.21410420  0.41346286  1
  O  O38  1  0.25000000  0.71410420  0.08653714  1
  O  O39  1  0.75000000  0.28589580  0.91346286  1
  O  O40  1  0.98418502  0.80442453  0.83868440  1
  O  O41  1  0.01581498  0.19557547  0.16131560  1
  O  O42  1  0.01581498  0.69557547  0.33868440  1
  O  O43  1  0.48418502  0.19557547  0.16131560  1
  O  O44  1  0.98418502  0.30442453  0.66131560  1
  O  O45  1  0.51581498  0.80442453  0.83868440  1
  O  O46  1  0.51581498  0.30442453  0.66131560  1
  O  O47  1  0.48418502  0.69557547  0.33868440  1
