# generated using pymatgen
data_PrSCl
_symmetry_space_group_name_H-M   'P 1'
_cell_length_a   6.91340781
_cell_length_b   7.01902293
_cell_length_c   41.53519177
_cell_angle_alpha   90.00000000
_cell_angle_beta   90.00000000
_cell_angle_gamma   90.00000000
_symmetry_Int_Tables_number   1
_chemical_formula_structural   PrSCl
_chemical_formula_sum   'Pr24 S24 Cl24'
_cell_volume   2015.51046322
_cell_formula_units_Z   24
loop_
 _symmetry_equiv_pos_site_id
 _symmetry_equiv_pos_as_xyz
  1  'x, y, z'
loop_
 _atom_site_type_symbol
 _atom_site_label
 _atom_site_symmetry_multiplicity
 _atom_site_fract_x
 _atom_site_fract_y
 _atom_site_fract_z
 _atom_site_occupancy
  Pr  Pr0  1  0.19953658  0.72947730  0.16687945  1
  Pr  Pr1  1  0.80046342  0.27052270  0.83312055  1
  Pr  Pr2  1  0.80046342  0.27052270  0.66687945  1
  Pr  Pr3  1  0.80046342  0.22947730  0.33312055  1
  Pr  Pr4  1  0.19953658  0.72947730  0.33312055  1
  Pr  Pr5  1  0.19953658  0.77052270  0.66687945  1
  Pr  Pr6  1  0.19953658  0.77052270  0.83312055  1
  Pr  Pr7  1  0.80046342  0.22947730  0.16687945  1
  Pr  Pr8  1  0.78769298  0.25000000  0.00000000  1
  Pr  Pr9  1  0.21230702  0.75000000  0.00000000  1
  Pr  Pr10  1  0.21230702  0.75000000  0.50000000  1
  Pr  Pr11  1  0.78769298  0.25000000  0.50000000  1
  Pr  Pr12  1  0.19633020  0.30145257  0.08386205  1
  Pr  Pr13  1  0.80366980  0.69854743  0.91613795  1
  Pr  Pr14  1  0.80366980  0.69854743  0.58386205  1
  Pr  Pr15  1  0.80366980  0.80145257  0.41613795  1
  Pr  Pr16  1  0.19633020  0.30145257  0.41613795  1
  Pr  Pr17  1  0.19633020  0.19854743  0.58386205  1
  Pr  Pr18  1  0.19633020  0.19854743  0.91613795  1
  Pr  Pr19  1  0.80366980  0.80145257  0.08386205  1
  Pr  Pr20  1  0.19269368  0.28702907  0.25000000  1
  Pr  Pr21  1  0.80730632  0.71297093  0.75000000  1
  Pr  Pr22  1  0.80730632  0.78702907  0.25000000  1
  Pr  Pr23  1  0.19269368  0.21297093  0.75000000  1
  S  S24  1  0.03022670  0.03655128  0.04183295  1
  S  S25  1  0.96977330  0.96344872  0.95816705  1
  S  S26  1  0.96977330  0.96344872  0.54183295  1
  S  S27  1  0.96977330  0.53655128  0.45816705  1
  S  S28  1  0.03022670  0.03655128  0.45816705  1
  S  S29  1  0.03022670  0.46344872  0.54183295  1
  S  S30  1  0.03022670  0.46344872  0.95816705  1
  S  S31  1  0.96977330  0.53655128  0.04183295  1
  S  S32  1  0.04381832  0.01084300  0.12683653  1
  S  S33  1  0.95618168  0.98915700  0.87316347  1
  S  S34  1  0.95618168  0.98915700  0.62683653  1
  S  S35  1  0.95618168  0.51084300  0.37316347  1
  S  S36  1  0.04381832  0.01084300  0.37316347  1
  S  S37  1  0.04381832  0.48915700  0.62683653  1
  S  S38  1  0.04381832  0.48915700  0.87316347  1
  S  S39  1  0.95618168  0.51084300  0.12683653  1
  S  S40  1  0.03428325  0.01106011  0.20914083  1
  S  S41  1  0.96571675  0.98893989  0.79085917  1
  S  S42  1  0.96571675  0.98893989  0.70914083  1
  S  S43  1  0.96571675  0.51106011  0.29085917  1
  S  S44  1  0.03428325  0.01106011  0.29085917  1
  S  S45  1  0.03428325  0.48893989  0.70914083  1
  S  S46  1  0.03428325  0.48893989  0.79085917  1
  S  S47  1  0.96571675  0.51106011  0.20914083  1
  Cl  Cl48  1  0.55364582  0.12861479  0.11442739  1
  Cl  Cl49  1  0.44635418  0.87138521  0.88557261  1
  Cl  Cl50  1  0.44635418  0.87138521  0.61442739  1
  Cl  Cl51  1  0.44635418  0.62861479  0.38557261  1
  Cl  Cl52  1  0.55364582  0.12861479  0.38557261  1
  Cl  Cl53  1  0.55364582  0.37138521  0.61442739  1
  Cl  Cl54  1  0.55364582  0.37138521  0.88557261  1
  Cl  Cl55  1  0.44635418  0.62861479  0.11442739  1
  Cl  Cl56  1  0.45827482  0.41523327  0.20003800  1
  Cl  Cl57  1  0.54172518  0.58476673  0.79996200  1
  Cl  Cl58  1  0.54172518  0.58476673  0.70003800  1
  Cl  Cl59  1  0.54172518  0.91523327  0.29996200  1
  Cl  Cl60  1  0.45827482  0.41523327  0.29996200  1
  Cl  Cl61  1  0.45827482  0.08476673  0.70003800  1
  Cl  Cl62  1  0.45827482  0.08476673  0.79996200  1
  Cl  Cl63  1  0.54172518  0.91523327  0.20003800  1
  Cl  Cl64  1  0.46074538  0.41410899  0.03611032  1
  Cl  Cl65  1  0.53925462  0.58589101  0.96388968  1
  Cl  Cl66  1  0.53925462  0.58589101  0.53611032  1
  Cl  Cl67  1  0.53925462  0.91410899  0.46388968  1
  Cl  Cl68  1  0.46074538  0.41410899  0.46388968  1
  Cl  Cl69  1  0.46074538  0.08589101  0.53611032  1
  Cl  Cl70  1  0.46074538  0.08589101  0.96388968  1
  Cl  Cl71  1  0.53925462  0.91410899  0.03611032  1
