# generated using pymatgen
data_LiB3H8
_symmetry_space_group_name_H-M   'P 1'
_cell_length_a   5.79094438
_cell_length_b   6.42624202
_cell_length_c   6.42624202
_cell_angle_alpha   91.58413064
_cell_angle_beta   90.00000000
_cell_angle_gamma   90.00000000
_symmetry_Int_Tables_number   1
_chemical_formula_structural   LiB3H8
_chemical_formula_sum   'Li2 B6 H16'
_cell_volume   239.05483649
_cell_formula_units_Z   2
loop_
 _symmetry_equiv_pos_site_id
 _symmetry_equiv_pos_as_xyz
  1  'x, y, z'
loop_
 _atom_site_type_symbol
 _atom_site_label
 _atom_site_symmetry_multiplicity
 _atom_site_fract_x
 _atom_site_fract_y
 _atom_site_fract_z
 _atom_site_occupancy
  Li  Li0  1  0.25000000  0.56089093  0.44150111  1
  Li  Li1  1  0.75000000  0.44150111  0.56089093  1
  B  B2  1  0.25000000  0.14076472  0.85958750  1
  B  B3  1  0.75000000  0.85958750  0.14076472  1
  B  B4  1  0.09655752  0.30968910  0.69119899  1
  B  B5  1  0.90344248  0.69119899  0.30968910  1
  B  B6  1  0.59655752  0.69119899  0.30968910  1
  B  B7  1  0.40344248  0.30968910  0.69119899  1
  H  H8  1  0.25000000  0.95721058  0.81344969  1
  H  H9  1  0.75000000  0.81344969  0.95721058  1
  H  H10  1  0.02124455  0.47635957  0.75524232  1
  H  H11  1  0.97875545  0.75524232  0.47635957  1
  H  H12  1  0.52124455  0.75524232  0.47635957  1
  H  H13  1  0.47875545  0.47635957  0.75524232  1
  H  H14  1  0.25000000  0.18560908  0.04296789  1
  H  H15  1  0.75000000  0.04296789  0.18560908  1
  H  H16  1  0.52100351  0.52442495  0.24653130  1
  H  H17  1  0.47899649  0.24653130  0.52442495  1
  H  H18  1  0.02100351  0.24653130  0.52442495  1
  H  H19  1  0.97899649  0.52442495  0.24653130  1
  H  H20  1  0.01005402  0.18383555  0.81662749  1
  H  H21  1  0.98994598  0.81662749  0.18383555  1
  H  H22  1  0.51005402  0.81662749  0.18383555  1
  H  H23  1  0.48994598  0.18383555  0.81662749  1
