# generated using pymatgen
data_Lu2Mo4O15
_symmetry_space_group_name_H-M   'P 1'
_cell_length_a   6.84117084
_cell_length_b   9.58823671
_cell_length_c   10.58698603
_cell_angle_alpha   90.00000000
_cell_angle_beta   104.89593532
_cell_angle_gamma   90.00000000
_symmetry_Int_Tables_number   1
_chemical_formula_structural   Lu2Mo4O15
_chemical_formula_sum   'Lu4 Mo8 O30'
_cell_volume   671.11337004
_cell_formula_units_Z   2
loop_
 _symmetry_equiv_pos_site_id
 _symmetry_equiv_pos_as_xyz
  1  'x, y, z'
loop_
 _atom_site_type_symbol
 _atom_site_label
 _atom_site_symmetry_multiplicity
 _atom_site_fract_x
 _atom_site_fract_y
 _atom_site_fract_z
 _atom_site_occupancy
  Lu  Lu0  1  0.29033312  0.47706822  0.22459484  1
  Lu  Lu1  1  0.70966688  0.52293178  0.77540516  1
  Lu  Lu2  1  0.70966688  0.97706822  0.27540516  1
  Lu  Lu3  1  0.29033312  0.02293178  0.72459484  1
  Mo  Mo4  1  0.58077372  0.25711001  0.01055826  1
  Mo  Mo5  1  0.41922628  0.74288999  0.98944174  1
  Mo  Mo6  1  0.41922628  0.75711001  0.48944174  1
  Mo  Mo7  1  0.58077372  0.24288999  0.51055826  1
  Mo  Mo8  1  0.12218285  0.09626070  0.15735118  1
  Mo  Mo9  1  0.87781715  0.90373930  0.84264882  1
  Mo  Mo10  1  0.87781715  0.59626070  0.34264882  1
  Mo  Mo11  1  0.12218285  0.40373930  0.65735118  1
  O  O12  1  0.11539011  0.28104018  0.14858803  1
  O  O13  1  0.88460989  0.71895982  0.85141197  1
  O  O14  1  0.88460989  0.78104018  0.35141197  1
  O  O15  1  0.11539011  0.21895982  0.64858803  1
  O  O16  1  0.47403945  0.37482888  0.10447813  1
  O  O17  1  0.52596055  0.62517112  0.89552187  1
  O  O18  1  0.52596055  0.87482888  0.39552187  1
  O  O19  1  0.47403945  0.12517112  0.60447813  1
  O  O20  1  0.27880668  0.64888001  0.08303823  1
  O  O21  1  0.72119332  0.35111999  0.91696177  1
  O  O22  1  0.72119332  0.14888001  0.41696177  1
  O  O23  1  0.27880668  0.85111999  0.58303823  1
  O  O24  1  -0.00000000  -0.00000000  -0.00000000  1
  O  O25  1  -0.00000000  0.50000000  0.50000000  1
  O  O26  1  0.38285936  0.33476534  0.39707705  1
  O  O27  1  0.61714064  0.66523466  0.60292295  1
  O  O28  1  0.61714064  0.83476534  0.10292295  1
  O  O29  1  0.38285936  0.16523466  0.89707705  1
  O  O30  1  0.04854513  0.02696757  0.29396415  1
  O  O31  1  0.95145487  0.97303243  0.70603585  1
  O  O32  1  0.95145487  0.52696757  0.20603585  1
  O  O33  1  0.04854513  0.47303243  0.79396415  1
  O  O34  1  0.38269992  0.05507707  0.18482520  1
  O  O35  1  0.61730008  0.94492293  0.81517480  1
  O  O36  1  0.61730008  0.55507707  0.31517480  1
  O  O37  1  0.38269992  0.44492293  0.68482520  1
  O  O38  1  0.74373878  0.13394952  0.11954150  1
  O  O39  1  0.25626122  0.86605048  0.88045850  1
  O  O40  1  0.25626122  0.63394952  0.38045850  1
  O  O41  1  0.74373878  0.36605048  0.61954150  1
