# generated using pymatgen
data_LaTiS3
_symmetry_space_group_name_H-M   'P 1'
_cell_length_a   3.77988539
_cell_length_b   8.05837888
_cell_length_c   13.24855574
_cell_angle_alpha   90.00000000
_cell_angle_beta   90.00000000
_cell_angle_gamma   90.00000000
_symmetry_Int_Tables_number   1
_chemical_formula_structural   LaTiS3
_chemical_formula_sum   'La4 Ti4 S12'
_cell_volume   403.54767710
_cell_formula_units_Z   4
loop_
 _symmetry_equiv_pos_site_id
 _symmetry_equiv_pos_as_xyz
  1  'x, y, z'
loop_
 _atom_site_type_symbol
 _atom_site_label
 _atom_site_symmetry_multiplicity
 _atom_site_fract_x
 _atom_site_fract_y
 _atom_site_fract_z
 _atom_site_occupancy
  La  La0  1  0.75000000  0.57335601  0.32967186  1
  La  La1  1  0.25000000  0.42664399  0.67032814  1
  La  La2  1  0.25000000  0.92664399  0.82967186  1
  La  La3  1  0.75000000  0.07335601  0.17032814  1
  Ti  Ti4  1  0.75000000  0.84931293  0.55101047  1
  Ti  Ti5  1  0.25000000  0.15068707  0.44898953  1
  Ti  Ti6  1  0.25000000  0.65068707  0.05101047  1
  Ti  Ti7  1  0.75000000  0.34931293  0.94898953  1
  S  S8  1  0.75000000  0.97339014  0.38807347  1
  S  S9  1  0.25000000  0.02660986  0.61192653  1
  S  S10  1  0.25000000  0.52660986  0.88807347  1
  S  S11  1  0.75000000  0.47339014  0.11192653  1
  S  S12  1  0.75000000  0.83607057  0.99205521  1
  S  S13  1  0.25000000  0.16392943  0.00794479  1
  S  S14  1  0.25000000  0.66392943  0.49205521  1
  S  S15  1  0.75000000  0.33607057  0.50794479  1
  S  S16  1  0.75000000  0.70730149  0.71442220  1
  S  S17  1  0.25000000  0.29269851  0.28557780  1
  S  S18  1  0.25000000  0.79269851  0.21442220  1
  S  S19  1  0.75000000  0.20730149  0.78557780  1
