# generated using pymatgen
data_HoNiSn4
_symmetry_space_group_name_H-M   'P 1'
_cell_length_a   4.45131013
_cell_length_b   4.47824495
_cell_length_c   14.37727262
_cell_angle_alpha   90.00000000
_cell_angle_beta   98.90541193
_cell_angle_gamma   90.00000000
_symmetry_Int_Tables_number   1
_chemical_formula_structural   HoNiSn4
_chemical_formula_sum   'Ho2 Ni2 Sn8'
_cell_volume   283.14251316
_cell_formula_units_Z   2
loop_
 _symmetry_equiv_pos_site_id
 _symmetry_equiv_pos_as_xyz
  1  'x, y, z'
loop_
 _atom_site_type_symbol
 _atom_site_label
 _atom_site_symmetry_multiplicity
 _atom_site_fract_x
 _atom_site_fract_y
 _atom_site_fract_z
 _atom_site_occupancy
  Ho  Ho0  1  0.80713403  0.50000000  0.61426805  1
  Ho  Ho1  1  0.19286597  0.50000000  0.38573195  1
  Ni  Ni2  1  0.55080782  -0.00000000  0.10161565  1
  Ni  Ni3  1  0.44919218  -0.00000000  0.89838435  1
  Sn  Sn4  1  0.60807516  0.50000000  0.21615031  1
  Sn  Sn5  1  0.39192484  0.50000000  0.78384969  1
  Sn  Sn6  1  0.71379866  0.00000000  0.42759731  1
  Sn  Sn7  1  0.28620134  0.00000000  0.57240269  1
  Sn  Sn8  1  0.89130544  0.00000000  0.78261089  1
  Sn  Sn9  1  0.10869456  0.00000000  0.21738911  1
  Sn  Sn10  1  -0.00000000  -0.00000000  -0.00000000  1
  Sn  Sn11  1  0.50000000  0.50000000  -0.00000000  1
