# generated using pymatgen
data_KNb13O33
_symmetry_space_group_name_H-M   'P 1'
_cell_length_a   3.88473712
_cell_length_b   11.66200779
_cell_length_c   15.64544558
_cell_angle_alpha   90.95531039
_cell_angle_beta   90.00000000
_cell_angle_gamma   99.58759177
_symmetry_Int_Tables_number   1
_chemical_formula_structural   KNb13O33
_chemical_formula_sum   'K1 Nb13 O33'
_cell_volume   698.79835429
_cell_formula_units_Z   1
loop_
 _symmetry_equiv_pos_site_id
 _symmetry_equiv_pos_as_xyz
  1  'x, y, z'
loop_
 _atom_site_type_symbol
 _atom_site_label
 _atom_site_symmetry_multiplicity
 _atom_site_fract_x
 _atom_site_fract_y
 _atom_site_fract_z
 _atom_site_occupancy
  K  K0  1  0.50000000  0.00000000  0.50000000  1
  Nb  Nb1  1  0.70667051  0.41334101  0.62577085  1
  Nb  Nb2  1  0.29332949  0.58665899  0.37422915  1
  Nb  Nb3  1  0.91305077  0.82610153  0.32462535  1
  Nb  Nb4  1  0.08694923  0.17389847  0.67537465  1
  Nb  Nb5  1  0.15511930  0.31023859  0.90392922  1
  Nb  Nb6  1  0.84488070  0.68976141  0.09607078  1
  Nb  Nb7  1  0.92944187  0.85888374  0.77193958  1
  Nb  Nb8  1  0.07055813  0.14111626  0.22806042  1
  Nb  Nb9  1  0.77515382  0.55030764  0.86307370  1
  Nb  Nb10  1  0.22484618  0.44969236  0.13692630  1
  Nb  Nb11  1  0.86143917  0.72287835  0.53347777  1
  Nb  Nb12  1  0.13856083  0.27712165  0.46652223  1
  Nb  Nb13  1  0.00000000  0.00000000  0.00000000  1
  O  O14  1  0.08183120  0.16366240  0.95123576  1
  O  O15  1  0.91816880  0.83633760  0.04876424  1
  O  O16  1  0.42969923  0.85939846  0.75542595  1
  O  O17  1  0.57030077  0.14060154  0.24457405  1
  O  O18  1  0.73184171  0.46368343  0.73531929  1
  O  O19  1  0.26815829  0.53631657  0.26468071  1
  O  O20  1  0.67960329  0.35920659  0.90136312  1
  O  O21  1  0.32039671  0.64079341  0.09863688  1
  O  O22  1  0.65234683  0.30469365  0.49459911  1
  O  O23  1  0.34765317  0.69530635  0.50540089  1
  O  O24  1  0.25007701  0.50015402  0.86231967  1
  O  O25  1  0.74992299  0.49984598  0.13768033  1
  O  O26  1  0.80573880  0.61147759  0.97225878  1
  O  O27  1  0.19426120  0.38852241  0.02774122  1
  O  O28  1  0.90007908  0.80015816  0.63466169  1
  O  O29  1  0.09992092  0.19984184  0.36533831  1
  O  O30  1  0.60967064  0.21934129  0.66338500  1
  O  O31  1  0.39032936  0.78065871  0.33661500  1
  O  O32  1  0.96444207  0.92888414  0.88066342  1
  O  O33  1  0.03555793  0.07111586  0.11933658  1
  O  O34  1  0.87202848  0.74405696  0.21226939  1
  O  O35  1  0.12797152  0.25594304  0.78773061  1
  O  O36  1  0.92754110  0.85508220  0.45317400  1
  O  O37  1  0.07245890  0.14491780  0.54682600  1
  O  O38  1  0.84641238  0.69282477  0.80469318  1
  O  O39  1  0.15358762  0.30717523  0.19530682  1
  O  O40  1  0.77657341  0.55314681  0.56876748  1
  O  O41  1  0.22342659  0.44685319  0.43123252  1
  O  O42  1  0.81805295  0.63610591  0.38884498  1
  O  O43  1  0.18194705  0.36389409  0.61115502  1
  O  O44  1  0.50000000  0.00000000  0.00000000  1
  O  O45  1  0.98835074  0.97670148  0.29178740  1
  O  O46  1  0.01164926  0.02329852  0.70821260  1
