# generated using pymatgen
data_Lu(Co2Ge)2
_symmetry_space_group_name_H-M   'P 1'
_cell_length_a   3.70601969
_cell_length_b   7.18927870
_cell_length_c   7.18927870
_cell_angle_alpha   90.00000000
_cell_angle_beta   90.00000000
_cell_angle_gamma   90.00000000
_symmetry_Int_Tables_number   1
_chemical_formula_structural   Lu(Co2Ge)2
_chemical_formula_sum   'Lu2 Co8 Ge4'
_cell_volume   191.54832650
_cell_formula_units_Z   2
loop_
 _symmetry_equiv_pos_site_id
 _symmetry_equiv_pos_as_xyz
  1  'x, y, z'
loop_
 _atom_site_type_symbol
 _atom_site_label
 _atom_site_symmetry_multiplicity
 _atom_site_fract_x
 _atom_site_fract_y
 _atom_site_fract_z
 _atom_site_occupancy
  Lu  Lu0  1  0.00000000  0.00000000  0.00000000  1
  Lu  Lu1  1  0.50000000  0.50000000  0.50000000  1
  Co  Co2  1  -0.00000000  0.14674227  0.58257003  1
  Co  Co3  1  0.00000000  0.85325773  0.41742997  1
  Co  Co4  1  0.50000000  0.91742997  0.64674227  1
  Co  Co5  1  0.50000000  0.35325773  0.08257003  1
  Co  Co6  1  0.50000000  0.08257003  0.35325773  1
  Co  Co7  1  0.50000000  0.64674227  0.91742997  1
  Co  Co8  1  0.00000000  0.58257003  0.14674227  1
  Co  Co9  1  -0.00000000  0.41742997  0.85325773  1
  Ge  Ge10  1  -0.00000000  0.27864394  0.27864394  1
  Ge  Ge11  1  -0.00000000  0.72135606  0.72135606  1
  Ge  Ge12  1  0.50000000  0.22135606  0.77864394  1
  Ge  Ge13  1  0.50000000  0.77864394  0.22135606  1
