# generated using pymatgen
data_LiTi3Zn2O8
_symmetry_space_group_name_H-M   'P 1'
_cell_length_a   8.48733805
_cell_length_b   8.48733805
_cell_length_c   8.48733805
_cell_angle_alpha   90.00000000
_cell_angle_beta   90.00000000
_cell_angle_gamma   90.00000000
_symmetry_Int_Tables_number   1
_chemical_formula_structural   LiTi3Zn2O8
_chemical_formula_sum   'Li4 Ti12 Zn8 O32'
_cell_volume   611.38460859
_cell_formula_units_Z   4
loop_
 _symmetry_equiv_pos_site_id
 _symmetry_equiv_pos_as_xyz
  1  'x, y, z'
loop_
 _atom_site_type_symbol
 _atom_site_label
 _atom_site_symmetry_multiplicity
 _atom_site_fract_x
 _atom_site_fract_y
 _atom_site_fract_z
 _atom_site_occupancy
  Li  Li0  1  0.37500000  0.37500000  0.37500000  1
  Li  Li1  1  0.12500000  0.62500000  0.87500000  1
  Li  Li2  1  0.62500000  0.87500000  0.12500000  1
  Li  Li3  1  0.87500000  0.12500000  0.62500000  1
  Ti  Ti4  1  0.12500000  0.13033627  0.38033627  1
  Ti  Ti5  1  0.37500000  0.86966373  0.88033627  1
  Ti  Ti6  1  0.87500000  0.63033627  0.11966373  1
  Ti  Ti7  1  0.38033627  0.12500000  0.13033627  1
  Ti  Ti8  1  0.88033627  0.37500000  0.86966373  1
  Ti  Ti9  1  0.62500000  0.36966373  0.61966373  1
  Ti  Ti10  1  0.61966373  0.62500000  0.36966373  1
  Ti  Ti11  1  0.11966373  0.87500000  0.63033627  1
  Ti  Ti12  1  0.13033627  0.38033627  0.12500000  1
  Ti  Ti13  1  0.63033627  0.11966373  0.87500000  1
  Ti  Ti14  1  0.36966373  0.61966373  0.62500000  1
  Ti  Ti15  1  0.86966373  0.88033627  0.37500000  1
  Zn  Zn16  1  0.74923501  0.74923501  0.74923501  1
  Zn  Zn17  1  0.75076499  0.25076499  0.24923501  1
  Zn  Zn18  1  0.25076499  0.24923501  0.75076499  1
  Zn  Zn19  1  0.49923501  0.99923501  0.50076499  1
  Zn  Zn20  1  0.24923501  0.75076499  0.25076499  1
  Zn  Zn21  1  0.00076499  0.00076499  0.00076499  1
  Zn  Zn22  1  0.99923501  0.50076499  0.49923501  1
  Zn  Zn23  1  0.50076499  0.49923501  0.99923501  1
  O  O24  1  0.13658721  0.13658721  0.13658721  1
  O  O25  1  0.36341279  0.86341279  0.63658721  1
  O  O26  1  0.86341279  0.63658721  0.36341279  1
  O  O27  1  0.88658721  0.38658721  0.11341279  1
  O  O28  1  0.63658721  0.36341279  0.86341279  1
  O  O29  1  0.61341279  0.61341279  0.61341279  1
  O  O30  1  0.38658721  0.11341279  0.88658721  1
  O  O31  1  0.11341279  0.88658721  0.38658721  1
  O  O32  1  0.12347331  0.35865306  0.36094329  1
  O  O33  1  0.37652669  0.64134694  0.86094329  1
  O  O34  1  0.87652669  0.85865306  0.13905671  1
  O  O35  1  0.36094329  0.12347331  0.35865306  1
  O  O36  1  0.10865306  0.37347331  0.88905671  1
  O  O37  1  0.62347331  0.14134694  0.63905671  1
  O  O38  1  0.86094329  0.37652669  0.64134694  1
  O  O39  1  0.39134694  0.62652669  0.38905671  1
  O  O40  1  0.13905671  0.87652669  0.85865306  1
  O  O41  1  0.60865306  0.12652669  0.11094329  1
  O  O42  1  0.63905671  0.62347331  0.14134694  1
  O  O43  1  0.89134694  0.87347331  0.61094329  1
  O  O44  1  0.35865306  0.36094329  0.12347331  1
  O  O45  1  0.87347331  0.61094329  0.89134694  1
  O  O46  1  0.85865306  0.13905671  0.87652669  1
  O  O47  1  0.62652669  0.38905671  0.39134694  1
  O  O48  1  0.14134694  0.63905671  0.62347331  1
  O  O49  1  0.37347331  0.88905671  0.10865306  1
  O  O50  1  0.64134694  0.86094329  0.37652669  1
  O  O51  1  0.12652669  0.11094329  0.60865306  1
  O  O52  1  0.88905671  0.10865306  0.37347331  1
  O  O53  1  0.38905671  0.39134694  0.62652669  1
  O  O54  1  0.61094329  0.89134694  0.87347331  1
  O  O55  1  0.11094329  0.60865306  0.12652669  1
