# generated using pymatgen
data_K3PrCl6
_symmetry_space_group_name_H-M   'P 1'
_cell_length_a   7.93426155
_cell_length_b   13.42885954
_cell_length_c   12.94552113
_cell_angle_alpha   108.81587078
_cell_angle_beta   90.00000000
_cell_angle_gamma   90.00000000
_symmetry_Int_Tables_number   1
_chemical_formula_structural   K3PrCl6
_chemical_formula_sum   'K12 Pr4 Cl24'
_cell_volume   1305.60952562
_cell_formula_units_Z   4
loop_
 _symmetry_equiv_pos_site_id
 _symmetry_equiv_pos_as_xyz
  1  'x, y, z'
loop_
 _atom_site_type_symbol
 _atom_site_label
 _atom_site_symmetry_multiplicity
 _atom_site_fract_x
 _atom_site_fract_y
 _atom_site_fract_z
 _atom_site_occupancy
  K  K0  1  0.43903199  0.68639004  0.73252407  1
  K  K1  1  0.56096801  0.31360996  0.26747593  1
  K  K2  1  0.93903199  0.31360996  0.76747593  1
  K  K3  1  0.06096801  0.68639004  0.23252407  1
  K  K4  1  0.96521695  0.90063015  0.64128475  1
  K  K5  1  0.03478305  0.09936985  0.35871525  1
  K  K6  1  0.46521695  0.09936985  0.85871525  1
  K  K7  1  0.53478305  0.90063015  0.14128475  1
  K  K8  1  0.93331907  0.67891607  0.88741773  1
  K  K9  1  0.06668093  0.32108393  0.11258227  1
  K  K10  1  0.43331907  0.32108393  0.61258227  1
  K  K11  1  0.56668093  0.67891607  0.38741773  1
  Pr  Pr12  1  0.00000000  0.50000000  0.50000000  1
  Pr  Pr13  1  0.50000000  0.50000000  -0.00000000  1
  Pr  Pr14  1  0.00000000  -0.00000000  -0.00000000  1
  Pr  Pr15  1  0.50000000  -0.00000000  0.50000000  1
  Cl  Cl16  1  0.50102498  0.88400792  0.63791120  1
  Cl  Cl17  1  0.49897502  0.11599208  0.36208880  1
  Cl  Cl18  1  0.00102498  0.11599208  0.86208880  1
  Cl  Cl19  1  0.99897502  0.88400792  0.13791120  1
  Cl  Cl20  1  0.28463968  0.65982846  0.99802434  1
  Cl  Cl21  1  0.71536032  0.34017154  0.00197566  1
  Cl  Cl22  1  0.78463968  0.34017154  0.50197566  1
  Cl  Cl23  1  0.21536032  0.65982846  0.49802434  1
  Cl  Cl24  1  0.78153606  0.65983786  0.60733290  1
  Cl  Cl25  1  0.21846394  0.34016214  0.39266710  1
  Cl  Cl26  1  0.28153606  0.34016214  0.89266710  1
  Cl  Cl27  1  0.71846394  0.65983786  0.10733290  1
  Cl  Cl28  1  0.64735274  0.50117954  0.80440481  1
  Cl  Cl29  1  0.35264726  0.49882046  0.19559519  1
  Cl  Cl30  1  0.14735274  0.49882046  0.69559519  1
  Cl  Cl31  1  0.85264726  0.50117954  0.30440481  1
  Cl  Cl32  1  0.16828817  0.85188641  0.83522424  1
  Cl  Cl33  1  0.83171183  0.14811359  0.16477576  1
  Cl  Cl34  1  0.66828817  0.14811359  0.66477576  1
  Cl  Cl35  1  0.33171183  0.85188641  0.33522424  1
  Cl  Cl36  1  0.70367671  0.89418556  0.91218296  1
  Cl  Cl37  1  0.29632329  0.10581444  0.08781704  1
  Cl  Cl38  1  0.20367671  0.10581444  0.58781704  1
  Cl  Cl39  1  0.79632329  0.89418556  0.41218296  1
