# generated using pymatgen
data_K2Cr2(PO4)3
_symmetry_space_group_name_H-M   'P 1'
_cell_length_a   9.91357615
_cell_length_b   9.91357615
_cell_length_c   9.91357615
_cell_angle_alpha   90.00000000
_cell_angle_beta   90.00000000
_cell_angle_gamma   90.00000000
_symmetry_Int_Tables_number   1
_chemical_formula_structural   K2Cr2(PO4)3
_chemical_formula_sum   'K8 Cr8 P12 O48'
_cell_volume   974.29627195
_cell_formula_units_Z   4
loop_
 _symmetry_equiv_pos_site_id
 _symmetry_equiv_pos_as_xyz
  1  'x, y, z'
loop_
 _atom_site_type_symbol
 _atom_site_label
 _atom_site_symmetry_multiplicity
 _atom_site_fract_x
 _atom_site_fract_y
 _atom_site_fract_z
 _atom_site_occupancy
  K  K0  1  0.81757847  0.81757847  0.81757847  1
  K  K1  1  0.68242153  0.18242153  0.31757847  1
  K  K2  1  0.18242153  0.31757847  0.68242153  1
  K  K3  1  0.31757847  0.68242153  0.18242153  1
  K  K4  1  0.04555640  0.04555640  0.04555640  1
  K  K5  1  0.45444360  0.95444360  0.54555640  1
  K  K6  1  0.95444360  0.54555640  0.45444360  1
  K  K7  1  0.54555640  0.45444360  0.95444360  1
  Cr  Cr8  1  0.33656588  0.33656588  0.33656588  1
  Cr  Cr9  1  0.16343412  0.66343412  0.83656588  1
  Cr  Cr10  1  0.66343412  0.83656588  0.16343412  1
  Cr  Cr11  1  0.83656588  0.16343412  0.66343412  1
  Cr  Cr12  1  0.60366909  0.60366909  0.60366909  1
  Cr  Cr13  1  0.89633091  0.39633091  0.10366909  1
  Cr  Cr14  1  0.39633091  0.10366909  0.89633091  1
  Cr  Cr15  1  0.10366909  0.89633091  0.39633091  1
  P  P16  1  0.02329818  0.20916336  0.37700839  1
  P  P17  1  0.47670182  0.79083664  0.87700839  1
  P  P18  1  0.97670182  0.70916336  0.12299161  1
  P  P19  1  0.37700839  0.02329818  0.20916336  1
  P  P20  1  0.52329818  0.29083664  0.62299161  1
  P  P21  1  0.87700839  0.47670182  0.79083664  1
  P  P22  1  0.12299161  0.97670182  0.70916336  1
  P  P23  1  0.62299161  0.52329818  0.29083664  1
  P  P24  1  0.20916336  0.37700839  0.02329818  1
  P  P25  1  0.70916336  0.12299161  0.97670182  1
  P  P26  1  0.29083664  0.62299161  0.52329818  1
  P  P27  1  0.79083664  0.87700839  0.47670182  1
  O  O28  1  0.01073615  0.06096929  0.32887030  1
  O  O29  1  0.48926385  0.93903071  0.82887030  1
  O  O30  1  0.98926385  0.56096929  0.17112970  1
  O  O31  1  0.32887030  0.01073615  0.06096929  1
  O  O32  1  0.51073615  0.43903071  0.67112970  1
  O  O33  1  0.82887030  0.48926385  0.93903071  1
  O  O34  1  0.17112970  0.98926385  0.56096929  1
  O  O35  1  0.67112970  0.51073615  0.43903071  1
  O  O36  1  0.06096929  0.32887030  0.01073615  1
  O  O37  1  0.56096929  0.17112970  0.98926385  1
  O  O38  1  0.43903071  0.67112970  0.51073615  1
  O  O39  1  0.93903071  0.82887030  0.48926385  1
  O  O40  1  0.17263540  0.24472334  0.40104195  1
  O  O41  1  0.32736460  0.75527666  0.90104195  1
  O  O42  1  0.82736460  0.74472334  0.09895805  1
  O  O43  1  0.40104195  0.17263540  0.24472334  1
  O  O44  1  0.67263540  0.25527666  0.59895805  1
  O  O45  1  0.90104195  0.32736460  0.75527666  1
  O  O46  1  0.09895805  0.82736460  0.74472334  1
  O  O47  1  0.59895805  0.67263540  0.25527666  1
  O  O48  1  0.24472334  0.40104195  0.17263540  1
  O  O49  1  0.74472334  0.09895805  0.82736460  1
  O  O50  1  0.25527666  0.59895805  0.67263540  1
  O  O51  1  0.75527666  0.90104195  0.32736460  1
  O  O52  1  0.04526576  0.80175366  0.22678619  1
  O  O53  1  0.45473424  0.19824634  0.72678619  1
  O  O54  1  0.95473424  0.30175366  0.27321381  1
  O  O55  1  0.22678619  0.04526576  0.80175366  1
  O  O56  1  0.54526576  0.69824634  0.77321381  1
  O  O57  1  0.72678619  0.45473424  0.19824634  1
  O  O58  1  0.27321381  0.95473424  0.30175366  1
  O  O59  1  0.77321381  0.54526576  0.69824634  1
  O  O60  1  0.80175366  0.22678619  0.04526576  1
  O  O61  1  0.30175366  0.27321381  0.95473424  1
  O  O62  1  0.69824634  0.77321381  0.54526576  1
  O  O63  1  0.19824634  0.72678619  0.45473424  1
  O  O64  1  0.26521415  0.48839278  0.44791124  1
  O  O65  1  0.23478585  0.51160722  0.94791124  1
  O  O66  1  0.73478585  0.98839278  0.05208876  1
  O  O67  1  0.44791124  0.26521415  0.48839278  1
  O  O68  1  0.76521415  0.01160722  0.55208876  1
  O  O69  1  0.94791124  0.23478585  0.51160722  1
  O  O70  1  0.05208876  0.73478585  0.98839278  1
  O  O71  1  0.55208876  0.76521415  0.01160722  1
  O  O72  1  0.48839278  0.44791124  0.26521415  1
  O  O73  1  0.98839278  0.05208876  0.73478585  1
  O  O74  1  0.01160722  0.55208876  0.76521415  1
  O  O75  1  0.51160722  0.94791124  0.23478585  1
