# generated using pymatgen
data_Dy3Fe2Si7
_symmetry_space_group_name_H-M   'P 1'
_cell_length_a   4.07581021
_cell_length_b   4.05644921
_cell_length_c   12.38111361
_cell_angle_alpha   99.42846085
_cell_angle_beta   90.00000000
_cell_angle_gamma   90.00000000
_symmetry_Int_Tables_number   1
_chemical_formula_structural   Dy3Fe2Si7
_chemical_formula_sum   'Dy3 Fe2 Si7'
_cell_volume   201.93555484
_cell_formula_units_Z   1
loop_
 _symmetry_equiv_pos_site_id
 _symmetry_equiv_pos_as_xyz
  1  'x, y, z'
loop_
 _atom_site_type_symbol
 _atom_site_label
 _atom_site_symmetry_multiplicity
 _atom_site_fract_x
 _atom_site_fract_y
 _atom_site_fract_z
 _atom_site_occupancy
  Dy  Dy0  1  0.50000000  0.90392788  0.80785576  1
  Dy  Dy1  1  0.50000000  0.53371804  0.06743608  1
  Dy  Dy2  1  -0.00000000  0.21767143  0.43534286  1
  Fe  Fe3  1  0.00000000  0.34565408  0.69130816  1
  Fe  Fe4  1  -0.00000000  0.08988308  0.17976617  1
  Si  Si5  1  0.00000000  0.62914020  0.25828041  1
  Si  Si6  1  -0.00000000  0.43901516  0.87803031  1
  Si  Si7  1  0.50000000  0.12912550  0.25825100  1
  Si  Si8  1  -0.00000000  0.99654076  0.99308153  1
  Si  Si9  1  -0.00000000  0.80796321  0.61592642  1
  Si  Si10  1  0.50000000  0.70230591  0.40461183  1
  Si  Si11  1  0.50000000  0.30835474  0.61670948  1
