# generated using pymatgen
data_CdCoF5
_symmetry_space_group_name_H-M   'P 1'
_cell_length_a   5.63636405
_cell_length_b   5.63636405
_cell_length_c   7.91926964
_cell_angle_alpha   69.33789404
_cell_angle_beta   69.33789404
_cell_angle_gamma   72.76149016
_symmetry_Int_Tables_number   1
_chemical_formula_structural   CdCoF5
_chemical_formula_sum   'Cd2 Co2 F10'
_cell_volume   215.97544983
_cell_formula_units_Z   2
loop_
 _symmetry_equiv_pos_site_id
 _symmetry_equiv_pos_as_xyz
  1  'x, y, z'
loop_
 _atom_site_type_symbol
 _atom_site_label
 _atom_site_symmetry_multiplicity
 _atom_site_fract_x
 _atom_site_fract_y
 _atom_site_fract_z
 _atom_site_occupancy
  Cd  Cd0  1  -0.00000000  -0.00000000  0.00000000  1
  Cd  Cd1  1  -0.00000000  -0.00000000  0.50000000  1
  Co  Co2  1  0.48481393  0.51518607  0.75000000  1
  Co  Co3  1  0.51518607  0.48481393  0.25000000  1
  F  F4  1  0.33497346  0.22701428  0.34997310  1
  F  F5  1  0.66502654  0.77298572  0.65002690  1
  F  F6  1  0.77298572  0.66502654  0.15002690  1
  F  F7  1  0.22701428  0.33497346  0.84997310  1
  F  F8  1  0.15024196  0.84975804  0.75000000  1
  F  F9  1  0.84975804  0.15024196  0.25000000  1
  F  F10  1  0.66658555  0.30753112  0.93130938  1
  F  F11  1  0.33341445  0.69246888  0.06869062  1
  F  F12  1  0.69246888  0.33341445  0.56869062  1
  F  F13  1  0.30753112  0.66658555  0.43130938  1
