# generated using pymatgen
data_Dy5B3O13
_symmetry_space_group_name_H-M   'P 1'
_cell_length_a   6.74963037
_cell_length_b   8.95489445
_cell_length_c   8.95489444
_cell_angle_alpha   119.99999517
_cell_angle_beta   90.00000000
_cell_angle_gamma   90.00000000
_symmetry_Int_Tables_number   1
_chemical_formula_structural   Dy5B3O13
_chemical_formula_sum   'Dy10 B6 O26'
_cell_volume   468.73953536
_cell_formula_units_Z   2
loop_
 _symmetry_equiv_pos_site_id
 _symmetry_equiv_pos_as_xyz
  1  'x, y, z'
loop_
 _atom_site_type_symbol
 _atom_site_label
 _atom_site_symmetry_multiplicity
 _atom_site_fract_x
 _atom_site_fract_y
 _atom_site_fract_z
 _atom_site_occupancy
  Dy  Dy0  1  0.99835217  0.66666700  0.33333300  1
  Dy  Dy1  1  0.00164783  0.33333300  0.66666700  1
  Dy  Dy2  1  0.49835217  0.33333300  0.66666700  1
  Dy  Dy3  1  0.50164783  0.66666700  0.33333300  1
  Dy  Dy4  1  0.75000000  0.74906561  0.98893239  1
  Dy  Dy5  1  0.25000000  0.25093439  0.01106761  1
  Dy  Dy6  1  0.75000000  0.23986678  0.25093439  1
  Dy  Dy7  1  0.25000000  0.76013322  0.74906561  1
  Dy  Dy8  1  0.75000000  0.01106761  0.76013322  1
  Dy  Dy9  1  0.25000000  0.98893239  0.23986678  1
  B  B10  1  0.75000000  0.96960189  0.36920763  1
  B  B11  1  0.25000000  0.03039811  0.63079237  1
  B  B12  1  0.75000000  0.39960574  0.03039811  1
  B  B13  1  0.25000000  0.60039426  0.96960189  1
  B  B14  1  0.75000000  0.63079237  0.60039426  1
  B  B15  1  0.25000000  0.36920763  0.39960574  1
  O  O16  1  0.92882473  0.90985919  0.25618578  1
  O  O17  1  0.07117527  0.09014081  0.74381422  1
  O  O18  1  0.92882473  0.34632659  0.09014081  1
  O  O19  1  0.42882473  0.09014081  0.74381422  1
  O  O20  1  0.07117527  0.65367341  0.90985919  1
  O  O21  1  0.57117527  0.90985919  0.25618578  1
  O  O22  1  0.92882473  0.74381422  0.65367341  1
  O  O23  1  0.42882473  0.65367341  0.90985919  1
  O  O24  1  0.07117527  0.25618578  0.34632659  1
  O  O25  1  0.57117527  0.34632659  0.09014081  1
  O  O26  1  0.42882473  0.25618578  0.34632659  1
  O  O27  1  0.57117527  0.74381422  0.65367341  1
  O  O28  1  0.75000000  0.51781489  0.67495781  1
  O  O29  1  0.25000000  0.48218511  0.32504219  1
  O  O30  1  0.75000000  0.15714292  0.48218511  1
  O  O31  1  0.25000000  0.84285708  0.51781489  1
  O  O32  1  0.75000000  0.32504219  0.84285708  1
  O  O33  1  0.25000000  0.67495781  0.15714292  1
  O  O34  1  0.75000000  -0.00000000  -0.00000000  1
  O  O35  1  0.25000000  -0.00000000  -0.00000000  1
  O  O36  1  0.75000000  0.87455935  0.46513495  1
  O  O37  1  0.25000000  0.12544065  0.53486505  1
  O  O38  1  0.75000000  0.59057560  0.12544065  1
  O  O39  1  0.25000000  0.40942440  0.87455935  1
  O  O40  1  0.75000000  0.53486505  0.40942440  1
  O  O41  1  0.25000000  0.46513495  0.59057560  1
