# generated using pymatgen
data_Cu41Sn11
_symmetry_space_group_name_H-M   'P 1'
_cell_length_a   12.73533985
_cell_length_b   12.73533985
_cell_length_c   12.73533985
_cell_angle_alpha   60.00000000
_cell_angle_beta   60.00000000
_cell_angle_gamma   60.00000000
_symmetry_Int_Tables_number   1
_chemical_formula_structural   Cu41Sn11
_chemical_formula_sum   'Cu82 Sn22'
_cell_volume   1460.55063855
_cell_formula_units_Z   2
loop_
 _symmetry_equiv_pos_site_id
 _symmetry_equiv_pos_as_xyz
  1  'x, y, z'
loop_
 _atom_site_type_symbol
 _atom_site_label
 _atom_site_symmetry_multiplicity
 _atom_site_fract_x
 _atom_site_fract_y
 _atom_site_fract_z
 _atom_site_occupancy
  Cu  Cu0  1  0.08276082  0.08276082  0.08276082  1
  Cu  Cu1  1  0.75171754  0.08276082  0.08276082  1
  Cu  Cu2  1  0.08276082  0.75171754  0.08276082  1
  Cu  Cu3  1  0.08276082  0.08276082  0.75171754  1
  Cu  Cu4  1  0.44304474  0.44304474  0.44304474  1
  Cu  Cu5  1  0.67086577  0.44304474  0.44304474  1
  Cu  Cu6  1  0.44304474  0.67086577  0.44304474  1
  Cu  Cu7  1  0.44304474  0.44304474  0.67086577  1
  Cu  Cu8  1  0.83376273  0.83376273  0.83376273  1
  Cu  Cu9  1  0.49871181  0.83376273  0.83376273  1
  Cu  Cu10  1  0.83376273  0.49871181  0.83376273  1
  Cu  Cu11  1  0.83376273  0.83376273  0.49871181  1
  Cu  Cu12  1  0.33455045  0.33455045  0.33455045  1
  Cu  Cu13  1  0.99634865  0.33455045  0.33455045  1
  Cu  Cu14  1  0.33455045  0.99634865  0.33455045  1
  Cu  Cu15  1  0.33455045  0.33455045  0.99634865  1
  Cu  Cu16  1  0.73753663  0.97121286  0.97121286  1
  Cu  Cu17  1  0.32003766  0.97121286  0.97121286  1
  Cu  Cu18  1  0.97121286  0.32003766  0.73753663  1
  Cu  Cu19  1  0.97121286  0.97121286  0.73753663  1
  Cu  Cu20  1  0.97121286  0.73753663  0.32003766  1
  Cu  Cu21  1  0.97121286  0.97121286  0.32003766  1
  Cu  Cu22  1  0.32003766  0.73753663  0.97121286  1
  Cu  Cu23  1  0.73753663  0.32003766  0.97121286  1
  Cu  Cu24  1  0.97121286  0.73753663  0.97121286  1
  Cu  Cu25  1  0.73753663  0.97121286  0.32003766  1
  Cu  Cu26  1  0.32003766  0.97121286  0.73753663  1
  Cu  Cu27  1  0.97121286  0.32003766  0.97121286  1
  Cu  Cu28  1  0.20642738  0.48108478  0.48108478  1
  Cu  Cu29  1  0.83140307  0.48108478  0.48108478  1
  Cu  Cu30  1  0.48108478  0.83140307  0.20642738  1
  Cu  Cu31  1  0.48108478  0.48108478  0.20642738  1
  Cu  Cu32  1  0.48108478  0.20642738  0.83140307  1
  Cu  Cu33  1  0.48108478  0.48108478  0.83140307  1
  Cu  Cu34  1  0.83140307  0.20642738  0.48108478  1
  Cu  Cu35  1  0.20642738  0.83140307  0.48108478  1
  Cu  Cu36  1  0.48108478  0.20642738  0.48108478  1
  Cu  Cu37  1  0.20642738  0.48108478  0.83140307  1
  Cu  Cu38  1  0.83140307  0.48108478  0.20642738  1
  Cu  Cu39  1  0.48108478  0.83140307  0.48108478  1
  Cu  Cu40  1  0.08019108  0.73767373  0.73767373  1
  Cu  Cu41  1  0.44446145  0.73767373  0.73767373  1
  Cu  Cu42  1  0.73767373  0.44446145  0.08019108  1
  Cu  Cu43  1  0.73767373  0.73767373  0.08019108  1
  Cu  Cu44  1  0.73767373  0.08019108  0.44446145  1
  Cu  Cu45  1  0.73767373  0.73767373  0.44446145  1
  Cu  Cu46  1  0.44446145  0.08019108  0.73767373  1
  Cu  Cu47  1  0.08019108  0.44446145  0.73767373  1
  Cu  Cu48  1  0.73767373  0.08019108  0.73767373  1
  Cu  Cu49  1  0.08019108  0.73767373  0.44446145  1
  Cu  Cu50  1  0.44446145  0.73767373  0.08019108  1
  Cu  Cu51  1  0.73767373  0.44446145  0.73767373  1
  Cu  Cu52  1  0.82572936  0.82572936  0.17427064  1
  Cu  Cu53  1  0.17427064  0.17427064  0.82572936  1
  Cu  Cu54  1  0.82572936  0.17427064  0.82572936  1
  Cu  Cu55  1  0.17427064  0.82572936  0.17427064  1
  Cu  Cu56  1  0.17427064  0.82572936  0.82572936  1
  Cu  Cu57  1  0.82572936  0.17427064  0.17427064  1
  Cu  Cu58  1  0.95035717  0.95035717  0.95035717  1
  Cu  Cu59  1  0.14892849  0.95035717  0.95035717  1
  Cu  Cu60  1  0.95035717  0.14892849  0.95035717  1
  Cu  Cu61  1  0.95035717  0.95035717  0.14892849  1
  Cu  Cu62  1  0.67751231  0.67751231  0.32248769  1
  Cu  Cu63  1  0.32248769  0.32248769  0.67751231  1
  Cu  Cu64  1  0.67751231  0.32248769  0.67751231  1
  Cu  Cu65  1  0.32248769  0.67751231  0.32248769  1
  Cu  Cu66  1  0.32248769  0.67751231  0.67751231  1
  Cu  Cu67  1  0.67751231  0.32248769  0.32248769  1
  Cu  Cu68  1  0.69455330  0.69455330  0.69455330  1
  Cu  Cu69  1  0.91634009  0.69455330  0.69455330  1
  Cu  Cu70  1  0.69455330  0.91634009  0.69455330  1
  Cu  Cu71  1  0.69455330  0.69455330  0.91634009  1
  Cu  Cu72  1  0.42363903  0.42363903  0.07636097  1
  Cu  Cu73  1  0.07636097  0.07636097  0.42363903  1
  Cu  Cu74  1  0.42363903  0.07636097  0.42363903  1
  Cu  Cu75  1  0.07636097  0.42363903  0.07636097  1
  Cu  Cu76  1  0.07636097  0.42363903  0.42363903  1
  Cu  Cu77  1  0.42363903  0.07636097  0.07636097  1
  Cu  Cu78  1  0.19945832  0.19945832  0.19945832  1
  Cu  Cu79  1  0.40162503  0.19945832  0.19945832  1
  Cu  Cu80  1  0.19945832  0.40162503  0.19945832  1
  Cu  Cu81  1  0.19945832  0.19945832  0.40162503  1
  Sn  Sn82  1  0.58801035  0.58801035  0.58801035  1
  Sn  Sn83  1  0.23596896  0.58801035  0.58801035  1
  Sn  Sn84  1  0.58801035  0.23596896  0.58801035  1
  Sn  Sn85  1  0.58801035  0.58801035  0.23596896  1
  Sn  Sn86  1  0.58497409  0.23232281  0.23232281  1
  Sn  Sn87  1  0.95038030  0.23232281  0.23232281  1
  Sn  Sn88  1  0.23232281  0.95038030  0.58497409  1
  Sn  Sn89  1  0.23232281  0.23232281  0.58497409  1
  Sn  Sn90  1  0.23232281  0.58497409  0.95038030  1
  Sn  Sn91  1  0.23232281  0.23232281  0.95038030  1
  Sn  Sn92  1  0.95038030  0.58497409  0.23232281  1
  Sn  Sn93  1  0.58497409  0.95038030  0.23232281  1
  Sn  Sn94  1  0.23232281  0.58497409  0.23232281  1
  Sn  Sn95  1  0.58497409  0.23232281  0.95038030  1
  Sn  Sn96  1  0.95038030  0.23232281  0.58497409  1
  Sn  Sn97  1  0.23232281  0.95038030  0.23232281  1
  Sn  Sn98  1  0.93153970  0.93153970  0.56846030  1
  Sn  Sn99  1  0.56846030  0.56846030  0.93153970  1
  Sn  Sn100  1  0.93153970  0.56846030  0.93153970  1
  Sn  Sn101  1  0.56846030  0.93153970  0.56846030  1
  Sn  Sn102  1  0.56846030  0.93153970  0.93153970  1
  Sn  Sn103  1  0.93153970  0.56846030  0.56846030  1
