# generated using pymatgen
data_Cd2Mo3O8
_symmetry_space_group_name_H-M   'P 1'
_cell_length_a   6.40788852
_cell_length_b   6.40788852
_cell_length_c   10.34498715
_cell_angle_alpha   90.00000000
_cell_angle_beta   90.00000000
_cell_angle_gamma   119.99998859
_symmetry_Int_Tables_number   1
_chemical_formula_structural   Cd2Mo3O8
_chemical_formula_sum   'Cd4 Mo6 O16'
_cell_volume   367.86674680
_cell_formula_units_Z   2
loop_
 _symmetry_equiv_pos_site_id
 _symmetry_equiv_pos_as_xyz
  1  'x, y, z'
loop_
 _atom_site_type_symbol
 _atom_site_label
 _atom_site_symmetry_multiplicity
 _atom_site_fract_x
 _atom_site_fract_y
 _atom_site_fract_z
 _atom_site_occupancy
  Cd  Cd0  1  0.66666700  0.33333300  0.96083088  1
  Cd  Cd1  1  0.33333300  0.66666700  0.46083088  1
  Cd  Cd2  1  0.66666700  0.33333300  0.35253965  1
  Cd  Cd3  1  0.33333300  0.66666700  0.85253965  1
  Mo  Mo4  1  0.83663304  0.67326607  0.64129877  1
  Mo  Mo5  1  0.83663303  0.16336697  0.64129877  1
  Mo  Mo6  1  0.16336696  0.32673393  0.14129877  1
  Mo  Mo7  1  0.32673393  0.16336696  0.64129877  1
  Mo  Mo8  1  0.16336697  0.83663303  0.14129877  1
  Mo  Mo9  1  0.67326607  0.83663304  0.14129877  1
  O  O10  1  0.52301678  0.04603356  0.52968131  1
  O  O11  1  0.52301678  0.47698322  0.52968131  1
  O  O12  1  0.47698322  0.95396644  0.02968131  1
  O  O13  1  0.95396644  0.47698322  0.52968131  1
  O  O14  1  0.47698322  0.52301678  0.02968131  1
  O  O15  1  0.04603356  0.52301678  0.02968131  1
  O  O16  1  0.15947545  0.31895090  0.73227705  1
  O  O17  1  0.15947545  0.84052455  0.73227705  1
  O  O18  1  0.84052455  0.68104910  0.23227705  1
  O  O19  1  0.68104910  0.84052455  0.73227705  1
  O  O20  1  0.84052455  0.15947545  0.23227705  1
  O  O21  1  0.31895090  0.15947545  0.23227705  1
  O  O22  1  0.00000000  -0.00000000  0.03828362  1
  O  O23  1  0.00000000  -0.00000000  0.53828362  1
  O  O24  1  0.66666700  0.33333300  0.74717445  1
  O  O25  1  0.33333300  0.66666700  0.24717445  1
