# generated using pymatgen
data_Ho2Cu(GeO4)2
_symmetry_space_group_name_H-M   'P 1'
_cell_length_a   5.14131262
_cell_length_b   8.16775029
_cell_length_c   8.91512428
_cell_angle_alpha   116.99504337
_cell_angle_beta   106.36302685
_cell_angle_gamma   90.82872465
_symmetry_Int_Tables_number   1
_chemical_formula_structural   Ho2Cu(GeO4)2
_chemical_formula_sum   'Ho4 Cu2 Ge4 O16'
_cell_volume   315.60436307
_cell_formula_units_Z   2
loop_
 _symmetry_equiv_pos_site_id
 _symmetry_equiv_pos_as_xyz
  1  'x, y, z'
loop_
 _atom_site_type_symbol
 _atom_site_label
 _atom_site_symmetry_multiplicity
 _atom_site_fract_x
 _atom_site_fract_y
 _atom_site_fract_z
 _atom_site_occupancy
  Ho  Ho0  1  0.11454649  0.30028738  0.76001824  1
  Ho  Ho1  1  0.35452825  0.54026914  0.23998176  1
  Ho  Ho2  1  0.36562317  0.04418287  0.24128838  1
  Ho  Ho3  1  0.12433479  0.80289449  0.75871162  1
  Cu  Cu4  1  0.54794639  0.92489593  0.58578526  1
  Cu  Cu5  1  0.96216113  0.33911067  0.41421474  1
  Ge  Ge6  1  0.78757366  0.16290012  0.00000000  1
  Ge  Ge7  1  0.97087936  0.88871223  0.42119652  1
  Ge  Ge8  1  0.54968284  0.46751571  0.57880348  1
  Ge  Ge9  1  0.68765889  0.66648625  0.00000000  1
  O  O10  1  0.17136875  0.09602579  0.46850772  1
  O  O11  1  0.70286103  0.62751807  0.53149228  1
  O  O12  1  0.47917870  0.06373274  0.81228962  1
  O  O13  1  0.66688908  0.25144313  0.18771038  1
  O  O14  1  0.47921981  0.49155311  1.00000000  1
  O  O15  1  0.19623130  0.74523278  0.48258514  1
  O  O16  1  0.71364616  0.26264764  0.51741486  1
  O  O17  1  0.00409454  0.75733028  0.18421176  1
  O  O18  1  0.81988279  0.57311852  0.81578824  1
  O  O19  1  0.00125232  0.33763950  0.00000000  1
  O  O20  1  0.47901392  0.83676421  1.00000000  1
  O  O21  1  0.59537095  0.83866751  0.33911838  1
  O  O22  1  0.25625256  0.49954913  0.66088162  1
  O  O23  1  0.00946421  0.99591961  0.00000000  1
  O  O24  1  0.93413370  0.00436585  0.65872850  1
  O  O25  1  0.27540520  0.34563735  0.34127150  1
