# generated using pymatgen
data_ZrTi(PbO3)2
_symmetry_space_group_name_H-M   'P 1'
_cell_length_a   4.16560614
_cell_length_b   8.11104549
_cell_length_c   4.23040565
_cell_angle_alpha   90.80166729
_cell_angle_beta   91.25708135
_cell_angle_gamma   89.54298933
_symmetry_Int_Tables_number   1
_chemical_formula_structural   ZrTi(PbO3)2
_chemical_formula_sum   'Zr1 Ti1 Pb2 O6'
_cell_volume   142.88190273
_cell_formula_units_Z   1
loop_
 _symmetry_equiv_pos_site_id
 _symmetry_equiv_pos_as_xyz
  1  'x, y, z'
loop_
 _atom_site_type_symbol
 _atom_site_label
 _atom_site_symmetry_multiplicity
 _atom_site_fract_x
 _atom_site_fract_y
 _atom_site_fract_z
 _atom_site_occupancy
  Zr  Zr0  1  0.53604614  0.26602923  0.46099432  1
  Ti  Ti1  1  0.50963075  0.76642735  0.48446831  1
  Pb  Pb2  1  0.99178784  0.98508483  0.01611892  1
  Pb  Pb3  1  0.98783456  0.50906660  0.01803894  1
  O  O4  1  0.04736054  0.28667068  0.41347803  1
  O  O5  1  0.06670927  0.77779238  0.41850353  1
  O  O6  1  0.57066016  0.01062828  0.40842918  1
  O  O7  1  0.56863442  0.53751849  0.41290148  1
  O  O8  1  0.56584940  0.28637209  0.94054935  1
  O  O9  1  0.56288692  0.77811007  0.91391793  1
