# generated using pymatgen
data_Bi7I2
_symmetry_space_group_name_H-M   'P 1'
_cell_length_a   4.47934098
_cell_length_b   11.35474890
_cell_length_c   13.58908254
_cell_angle_alpha   93.35162846
_cell_angle_beta   90.00000000
_cell_angle_gamma   90.00000000
_symmetry_Int_Tables_number   1
_chemical_formula_structural   Bi7I2
_chemical_formula_sum   'Bi14 I4'
_cell_volume   689.98288073
_cell_formula_units_Z   2
loop_
 _symmetry_equiv_pos_site_id
 _symmetry_equiv_pos_as_xyz
  1  'x, y, z'
loop_
 _atom_site_type_symbol
 _atom_site_label
 _atom_site_symmetry_multiplicity
 _atom_site_fract_x
 _atom_site_fract_y
 _atom_site_fract_z
 _atom_site_occupancy
  Bi  Bi0  1  0.75000000  0.12491116  0.52272781  1
  Bi  Bi1  1  0.25000000  0.87508884  0.47727219  1
  Bi  Bi2  1  0.75000000  0.19693119  0.30693266  1
  Bi  Bi3  1  0.25000000  0.80306881  0.69306734  1
  Bi  Bi4  1  0.75000000  0.97778595  0.75430134  1
  Bi  Bi5  1  0.25000000  0.02221405  0.24569866  1
  Bi  Bi6  1  0.75000000  0.77007788  0.20468196  1
  Bi  Bi7  1  0.25000000  0.22992212  0.79531804  1
  Bi  Bi8  1  0.75000000  0.41028702  0.85224285  1
  Bi  Bi9  1  0.25000000  0.58971298  0.14775715  1
  Bi  Bi10  1  0.75000000  0.69858509  0.41962373  1
  Bi  Bi11  1  0.25000000  0.30141491  0.58037627  1
  Bi  Bi12  1  0.75000000  0.91254358  0.97259509  1
  Bi  Bi13  1  0.25000000  0.08745642  0.02740491  1
  I  I14  1  0.75000000  0.54435908  0.65116319  1
  I  I15  1  0.25000000  0.45564092  0.34883681  1
  I  I16  1  0.75000000  0.34553230  0.07061039  1
  I  I17  1  0.25000000  0.65446770  0.92938961  1
