# generated using pymatgen
data_BaNaPO4
_symmetry_space_group_name_H-M   'P 1'
_cell_length_a   5.53432986
_cell_length_b   7.72701846
_cell_length_c   10.26096784
_cell_angle_alpha   90.00000000
_cell_angle_beta   90.00000000
_cell_angle_gamma   90.00000000
_symmetry_Int_Tables_number   1
_chemical_formula_structural   BaNaPO4
_chemical_formula_sum   'Ba4 Na4 P4 O16'
_cell_volume   438.79868444
_cell_formula_units_Z   4
loop_
 _symmetry_equiv_pos_site_id
 _symmetry_equiv_pos_as_xyz
  1  'x, y, z'
loop_
 _atom_site_type_symbol
 _atom_site_label
 _atom_site_symmetry_multiplicity
 _atom_site_fract_x
 _atom_site_fract_y
 _atom_site_fract_z
 _atom_site_occupancy
  Ba  Ba0  1  0.75000000  0.50788745  0.30402031  1
  Ba  Ba1  1  0.25000000  0.49211255  0.69597969  1
  Ba  Ba2  1  0.25000000  0.99211255  0.80402031  1
  Ba  Ba3  1  0.75000000  0.00788745  0.19597969  1
  Na  Na4  1  0.75000000  0.83166089  0.55270498  1
  Na  Na5  1  0.25000000  0.16833911  0.44729502  1
  Na  Na6  1  0.25000000  0.66833911  0.05270498  1
  Na  Na7  1  0.75000000  0.33166089  0.94729502  1
  P  P8  1  0.75000000  0.76292051  0.92327103  1
  P  P9  1  0.25000000  0.23707949  0.07672897  1
  P  P10  1  0.25000000  0.73707949  0.42327103  1
  P  P11  1  0.75000000  0.26292051  0.57672897  1
  O  O12  1  0.98146967  0.69212329  0.85634080  1
  O  O13  1  0.01853033  0.30787671  0.14365920  1
  O  O14  1  0.01853033  0.80787671  0.35634080  1
  O  O15  1  0.48146967  0.30787671  0.14365920  1
  O  O16  1  0.98146967  0.19212329  0.64365920  1
  O  O17  1  0.51853033  0.69212329  0.85634080  1
  O  O18  1  0.51853033  0.19212329  0.64365920  1
  O  O19  1  0.48146967  0.80787671  0.35634080  1
  O  O20  1  0.75000000  0.96454202  0.91787244  1
  O  O21  1  0.25000000  0.03545798  0.08212756  1
  O  O22  1  0.25000000  0.53545798  0.41787244  1
  O  O23  1  0.75000000  0.46454202  0.58212756  1
  O  O24  1  0.75000000  0.19995197  0.43140017  1
  O  O25  1  0.25000000  0.80004803  0.56859983  1
  O  O26  1  0.25000000  0.30004803  0.93140017  1
  O  O27  1  0.75000000  0.69995197  0.06859983  1
