# generated using pymatgen
data_Ca(AlH4)2
_symmetry_space_group_name_H-M   'P 1'
_cell_length_a   5.92339199
_cell_length_b   15.87818037
_cell_length_c   15.87818037
_cell_angle_alpha   120.00000037
_cell_angle_beta   90.00000000
_cell_angle_gamma   90.00000000
_symmetry_Int_Tables_number   1
_chemical_formula_structural   Ca(AlH4)2
_chemical_formula_sum   'Ca9 Al18 H72'
_cell_volume   1293.30979221
_cell_formula_units_Z   9
loop_
 _symmetry_equiv_pos_site_id
 _symmetry_equiv_pos_as_xyz
  1  'x, y, z'
loop_
 _atom_site_type_symbol
 _atom_site_label
 _atom_site_symmetry_multiplicity
 _atom_site_fract_x
 _atom_site_fract_y
 _atom_site_fract_z
 _atom_site_occupancy
  Ca  Ca0  1  0.49051508  0.66666700  0.33333300  1
  Ca  Ca1  1  0.50948492  0.33333300  0.66666700  1
  Ca  Ca2  1  -0.00000000  0.00000000  -0.00000000  1
  Ca  Ca3  1  0.75044038  0.66559899  0.99968410  1
  Ca  Ca4  1  0.24955962  0.33440101  0.00031590  1
  Ca  Ca5  1  0.75044038  0.33408511  0.33440101  1
  Ca  Ca6  1  0.24955962  0.66591489  0.66559899  1
  Ca  Ca7  1  0.75044038  0.00031590  0.66591489  1
  Ca  Ca8  1  0.24955962  0.99968410  0.33408511  1
  Al  Al9  1  0.74627095  0.89986942  0.40070217  1
  Al  Al10  1  0.25372905  0.10013058  0.59929783  1
  Al  Al11  1  0.74627095  0.50083275  0.10013058  1
  Al  Al12  1  0.25372905  0.49916725  0.89986942  1
  Al  Al13  1  0.74627095  0.59929783  0.49916725  1
  Al  Al14  1  0.25372905  0.40070217  0.50083275  1
  Al  Al15  1  0.73779148  0.93343621  0.16994975  1
  Al  Al16  1  0.26220852  0.06656379  0.83005025  1
  Al  Al17  1  0.73779148  0.23651354  0.06656379  1
  Al  Al18  1  0.26220852  0.76348646  0.93343621  1
  Al  Al19  1  0.73779148  0.83005025  0.76348646  1
  Al  Al20  1  0.26220852  0.16994975  0.23651354  1
  Al  Al21  1  0.76599031  0.56744419  0.73347499  1
  Al  Al22  1  0.23400969  0.43255581  0.26652501  1
  Al  Al23  1  0.76599031  0.16603080  0.43255581  1
  Al  Al24  1  0.23400969  0.83396920  0.56744419  1
  Al  Al25  1  0.76599031  0.26652501  0.83396920  1
  Al  Al26  1  0.23400969  0.73347499  0.16603080  1
  H  H27  1  0.78506499  0.94851358  0.07708125  1
  H  H28  1  0.21493501  0.05148642  0.92291875  1
  H  H29  1  0.78506499  0.12856768  0.05148642  1
  H  H30  1  0.21493501  0.87143232  0.94851358  1
  H  H31  1  0.78506499  0.92291875  0.87143232  1
  H  H32  1  0.21493501  0.07708125  0.12856768  1
  H  H33  1  0.72398803  0.98286048  0.51339490  1
  H  H34  1  0.27601197  0.01713952  0.48660510  1
  H  H35  1  0.72398803  0.53053442  0.01713952  1
  H  H36  1  0.27601197  0.46946558  0.98286048  1
  H  H37  1  0.72398803  0.48660510  0.46946558  1
  H  H38  1  0.27601197  0.51339490  0.53053442  1
  H  H39  1  0.99494735  0.56108822  0.67374547  1
  H  H40  1  0.00505265  0.43891178  0.32625453  1
  H  H41  1  0.99494735  0.11265725  0.43891178  1
  H  H42  1  0.00505265  0.88734275  0.56108822  1
  H  H43  1  0.99494735  0.32625453  0.88734275  1
  H  H44  1  0.00505265  0.67374547  0.11265725  1
  H  H45  1  0.98971129  0.90309782  0.35527549  1
  H  H46  1  0.01028871  0.09690218  0.64472451  1
  H  H47  1  0.98971129  0.45217768  0.09690218  1
  H  H48  1  0.01028871  0.54782232  0.90309782  1
  H  H49  1  0.98971129  0.64472451  0.54782232  1
  H  H50  1  0.01028871  0.35527549  0.45217768  1
  H  H51  1  0.73521009  0.45960807  0.72139011  1
  H  H52  1  0.26478991  0.54039193  0.27860989  1
  H  H53  1  0.73521009  0.26178204  0.54039193  1
  H  H54  1  0.26478991  0.73821796  0.45960807  1
  H  H55  1  0.73521009  0.27860989  0.73821796  1
  H  H56  1  0.26478991  0.72139011  0.26178204  1
  H  H57  1  0.75079819  0.81942749  0.13580422  1
  H  H58  1  0.24920181  0.18057251  0.86419578  1
  H  H59  1  0.75079819  0.31637672  0.18057251  1
  H  H60  1  0.24920181  0.68362328  0.81942749  1
  H  H61  1  0.75079819  0.86419578  0.68362328  1
  H  H62  1  0.24920181  0.13580422  0.31637672  1
  H  H63  1  0.92897893  0.99651730  0.25096231  1
  H  H64  1  0.07102107  0.00348270  0.74903769  1
  H  H65  1  0.92897893  0.25444502  0.00348270  1
  H  H66  1  0.07102107  0.74555498  0.99651730  1
  H  H67  1  0.92897893  0.74903769  0.74555498  1
  H  H68  1  0.07102107  0.25096231  0.25444502  1
  H  H69  1  0.54548956  0.90646602  0.33368157  1
  H  H70  1  0.45451044  0.09353398  0.66631843  1
  H  H71  1  0.54548956  0.42721555  0.09353398  1
  H  H72  1  0.45451044  0.57278445  0.90646602  1
  H  H73  1  0.54548956  0.66631843  0.57278445  1
  H  H74  1  0.45451044  0.33368157  0.42721555  1
  H  H75  1  0.54940739  0.58320635  0.68008090  1
  H  H76  1  0.45059261  0.41679365  0.31991910  1
  H  H77  1  0.54940739  0.09687456  0.41679365  1
  H  H78  1  0.45059261  0.90312544  0.58320635  1
  H  H79  1  0.54940739  0.31991910  0.90312544  1
  H  H80  1  0.45059261  0.68008090  0.09687456  1
  H  H81  1  0.49035573  0.98079193  0.21154912  1
  H  H82  1  0.50964427  0.01920807  0.78845088  1
  H  H83  1  0.49035573  0.23075718  0.01920807  1
  H  H84  1  0.50964427  0.76924282  0.98079193  1
  H  H85  1  0.49035573  0.78845088  0.76924282  1
  H  H86  1  0.50964427  0.21154912  0.23075718  1
  H  H87  1  0.71991754  0.79219641  0.38891196  1
  H  H88  1  0.28008246  0.20780359  0.61108804  1
  H  H89  1  0.71991754  0.59671554  0.20780359  1
  H  H90  1  0.28008246  0.40328446  0.79219641  1
  H  H91  1  0.71991754  0.61108804  0.40328446  1
  H  H92  1  0.28008246  0.38891196  0.59671554  1
  H  H93  1  0.77778704  0.64856748  0.84701368  1
  H  H94  1  0.22221296  0.35143252  0.15298632  1
  H  H95  1  0.77778704  0.19844620  0.35143252  1
  H  H96  1  0.22221296  0.80155380  0.64856748  1
  H  H97  1  0.77778704  0.15298632  0.80155380  1
  H  H98  1  0.22221296  0.84701368  0.19844620  1
