# generated using pymatgen
data_ZrCrCo
_symmetry_space_group_name_H-M   'P 1'
_cell_length_a   4.96610550
_cell_length_b   5.05648652
_cell_length_c   7.88644102
_cell_angle_alpha   90.00000000
_cell_angle_beta   90.00000000
_cell_angle_gamma   119.42202726
_symmetry_Int_Tables_number   1
_chemical_formula_structural   ZrCrCo
_chemical_formula_sum   'Zr4 Cr4 Co4'
_cell_volume   172.49498980
_cell_formula_units_Z   4
loop_
 _symmetry_equiv_pos_site_id
 _symmetry_equiv_pos_as_xyz
  1  'x, y, z'
loop_
 _atom_site_type_symbol
 _atom_site_label
 _atom_site_symmetry_multiplicity
 _atom_site_fract_x
 _atom_site_fract_y
 _atom_site_fract_z
 _atom_site_occupancy
  Zr  Zr0  1  0.66573722  0.33151972  0.93429823  1
  Zr  Zr1  1  0.33422914  0.66835348  0.05722217  1
  Zr  Zr2  1  0.33422914  0.66835348  0.44277783  1
  Zr  Zr3  1  0.66573722  0.33151972  0.56570177  1
  Cr  Cr4  1  0.83175773  0.16585019  0.25000000  1
  Cr  Cr5  1  0.33409107  0.16578368  0.25000000  1
  Cr  Cr6  1  0.00253123  0.00503437  0.50056722  1
  Cr  Cr7  1  0.00253123  0.00503437  -0.00056722  1
  Co  Co8  1  0.16801757  0.33607141  0.75000000  1
  Co  Co9  1  0.16614915  0.83374637  0.75000000  1
  Co  Co10  1  0.66749246  0.83372706  0.75000000  1
  Co  Co11  1  0.82749685  0.65500615  0.25000000  1
