# generated using pymatgen
data_Sn3PO6
_symmetry_space_group_name_H-M   'P 1'
_cell_length_a   5.04042827
_cell_length_b   11.19031348
_cell_length_c   12.63173549
_cell_angle_alpha   90.00000000
_cell_angle_beta   110.52610356
_cell_angle_gamma   90.00000000
_symmetry_Int_Tables_number   1
_chemical_formula_structural   Sn3PO6
_chemical_formula_sum   'Sn12 P4 O24'
_cell_volume   667.24651148
_cell_formula_units_Z   4
loop_
 _symmetry_equiv_pos_site_id
 _symmetry_equiv_pos_as_xyz
  1  'x, y, z'
loop_
 _atom_site_type_symbol
 _atom_site_label
 _atom_site_symmetry_multiplicity
 _atom_site_fract_x
 _atom_site_fract_y
 _atom_site_fract_z
 _atom_site_occupancy
  Sn  Sn0  1  0.54470625  0.14274841  0.67940503  1
  Sn  Sn1  1  0.45529375  0.64274841  0.82059497  1
  Sn  Sn2  1  0.45529375  0.85725159  0.32059497  1
  Sn  Sn3  1  0.54470625  0.35725159  0.17940503  1
  Sn  Sn4  1  0.22985682  0.10813467  0.95534108  1
  Sn  Sn5  1  0.77014318  0.60813467  0.54465892  1
  Sn  Sn6  1  0.77014318  0.89186533  0.04465892  1
  Sn  Sn7  1  0.22985682  0.39186533  0.45534108  1
  Sn  Sn8  1  0.86852712  0.35904595  0.91712495  1
  Sn  Sn9  1  0.13147288  0.85904595  0.58287505  1
  Sn  Sn10  1  0.13147288  0.64095405  0.08287505  1
  Sn  Sn11  1  0.86852712  0.14095405  0.41712495  1
  P  P12  1  0.06437178  0.34484347  0.68740218  1
  P  P13  1  0.93562822  0.84484347  0.81259782  1
  P  P14  1  0.93562822  0.65515653  0.31259782  1
  P  P15  1  0.06437178  0.15515653  0.18740218  1
  O  O16  1  0.97443429  0.42059706  0.77119734  1
  O  O17  1  0.02556571  0.92059706  0.72880266  1
  O  O18  1  0.02556571  0.57940294  0.22880266  1
  O  O19  1  0.97443429  0.07940294  0.27119734  1
  O  O20  1  0.07436137  0.43268539  0.59194111  1
  O  O21  1  0.92563863  0.93268539  0.90805889  1
  O  O22  1  0.92563863  0.56731461  0.40805889  1
  O  O23  1  0.07436137  0.06731461  0.09194111  1
  O  O24  1  0.36443023  0.29100711  0.74503344  1
  O  O25  1  0.63556977  0.79100711  0.75496656  1
  O  O26  1  0.63556977  0.70899289  0.25496656  1
  O  O27  1  0.36443023  0.20899289  0.24503344  1
  O  O28  1  0.84883915  0.24453147  0.63087726  1
  O  O29  1  0.15116085  0.74453147  0.86912274  1
  O  O30  1  0.15116085  0.75546853  0.36912274  1
  O  O31  1  0.84883915  0.25546853  0.13087726  1
  O  O32  1  0.28426782  0.29002680  0.00768256  1
  O  O33  1  0.71573218  0.79002680  0.49231744  1
  O  O34  1  0.71573218  0.70997320  0.99231744  1
  O  O35  1  0.28426782  0.20997320  0.50768256  1
  O  O36  1  0.84332269  0.18246090  0.85660594  1
  O  O37  1  0.15667731  0.68246090  0.64339406  1
  O  O38  1  0.15667731  0.81753910  0.14339406  1
  O  O39  1  0.84332269  0.31753910  0.35660594  1
