# generated using pymatgen
data_CaFe2(PO4)3
_symmetry_space_group_name_H-M   'P 1'
_cell_length_a   6.47559794
_cell_length_b   6.53448226
_cell_length_c   20.17725606
_cell_angle_alpha   90.00000000
_cell_angle_beta   90.00000000
_cell_angle_gamma   91.72743526
_symmetry_Int_Tables_number   1
_chemical_formula_structural   CaFe2(PO4)3
_chemical_formula_sum   'Ca4 Fe8 P12 O48'
_cell_volume   853.40611556
_cell_formula_units_Z   4
loop_
 _symmetry_equiv_pos_site_id
 _symmetry_equiv_pos_as_xyz
  1  'x, y, z'
loop_
 _atom_site_type_symbol
 _atom_site_label
 _atom_site_symmetry_multiplicity
 _atom_site_fract_x
 _atom_site_fract_y
 _atom_site_fract_z
 _atom_site_occupancy
  Ca  Ca0  1  0.63953881  0.93066998  0.07636192  1
  Ca  Ca1  1  0.36046119  0.06933002  0.92363808  1
  Ca  Ca2  1  0.86046119  0.56933002  0.57636192  1
  Ca  Ca3  1  0.13953881  0.43066998  0.42363808  1
  Fe  Fe4  1  0.05906126  0.90778677  0.21141207  1
  Fe  Fe5  1  0.94093874  0.09221323  0.78858793  1
  Fe  Fe6  1  0.44093874  0.59221323  0.71141207  1
  Fe  Fe7  1  0.55906126  0.40778677  0.28858793  1
  Fe  Fe8  1  0.59805141  0.77746405  0.40446633  1
  Fe  Fe9  1  0.40194859  0.22253595  0.59553367  1
  Fe  Fe10  1  0.90194859  0.72253595  0.90446633  1
  Fe  Fe11  1  0.09805141  0.27746405  0.09553367  1
  P  P12  1  0.08259989  0.89355547  0.37991831  1
  P  P13  1  0.91740011  0.10644453  0.62008169  1
  P  P14  1  0.41740011  0.60644453  0.87991831  1
  P  P15  1  0.58259989  0.39355547  0.12008169  1
  P  P16  1  0.55551049  0.91131580  0.24702893  1
  P  P17  1  0.44448951  0.08868420  0.75297107  1
  P  P18  1  0.94448951  0.58868420  0.74702893  1
  P  P19  1  0.05551049  0.41131580  0.25297107  1
  P  P20  1  0.11743000  0.78244760  0.05208028  1
  P  P21  1  0.88257000  0.21755240  0.94791972  1
  P  P22  1  0.38257000  0.71755240  0.55208028  1
  P  P23  1  0.61743000  0.28244760  0.44791972  1
  O  O24  1  0.93586661  0.78225158  0.00097991  1
  O  O25  1  0.06413339  0.21774842  0.99902009  1
  O  O26  1  0.56413339  0.71774842  0.50097991  1
  O  O27  1  0.43586661  0.28225158  0.49902009  1
  O  O28  1  0.32013877  0.86558623  0.02251458  1
  O  O29  1  0.67986123  0.13441377  0.97748542  1
  O  O30  1  0.17986123  0.63441377  0.52251458  1
  O  O31  1  0.82013877  0.36558623  0.47748542  1
  O  O32  1  0.36532793  0.87105766  0.20211388  1
  O  O33  1  0.63467207  0.12894234  0.79788612  1
  O  O34  1  0.13467207  0.62894234  0.70211388  1
  O  O35  1  0.86532793  0.37105766  0.29788612  1
  O  O36  1  0.91459863  0.76398214  0.79956149  1
  O  O37  1  0.08540137  0.23601786  0.20043851  1
  O  O38  1  0.58540137  0.73601786  0.29956149  1
  O  O39  1  0.41459863  0.26398214  0.70043851  1
  O  O40  1  0.59609169  0.58168623  0.07564119  1
  O  O41  1  0.40390831  0.41831377  0.92435881  1
  O  O42  1  0.90390831  0.91831377  0.57564119  1
  O  O43  1  0.09609169  0.08168623  0.42435881  1
  O  O44  1  0.90470877  0.73890789  0.39990976  1
  O  O45  1  0.09529123  0.26109211  0.60009024  1
  O  O46  1  0.59529123  0.76109211  0.89990976  1
  O  O47  1  0.40470877  0.23890789  0.10009024  1
  O  O48  1  0.02798237  0.60996625  0.21435872  1
  O  O49  1  0.97201763  0.39003375  0.78564128  1
  O  O50  1  0.47201763  0.89003375  0.71435872  1
  O  O51  1  0.52798237  0.10996625  0.28564128  1
  O  O52  1  0.75557253  0.57716669  0.69975844  1
  O  O53  1  0.24442747  0.42283331  0.30024156  1
  O  O54  1  0.74442747  0.92283331  0.19975844  1
  O  O55  1  0.25557253  0.07716669  0.80024156  1
  O  O56  1  0.28479961  0.77328179  0.39147461  1
  O  O57  1  0.71520039  0.22671821  0.60852539  1
  O  O58  1  0.21520039  0.72671821  0.89147461  1
  O  O59  1  0.78479961  0.27328179  0.10852539  1
  O  O60  1  0.04548280  0.93823092  0.10803886  1
  O  O61  1  0.95451720  0.06176908  0.89196114  1
  O  O62  1  0.45451720  0.56176908  0.60803886  1
  O  O63  1  0.54548280  0.43823092  0.39196114  1
  O  O64  1  0.13400416  0.56973117  0.08276451  1
  O  O65  1  0.86599584  0.43026883  0.91723549  1
  O  O66  1  0.36599584  0.93026883  0.58276451  1
  O  O67  1  0.63400416  0.06973117  0.41723549  1
  O  O68  1  0.06071857  0.95276322  0.30666383  1
  O  O69  1  0.93928143  0.04723678  0.69333617  1
  O  O70  1  0.43928143  0.54723678  0.80666383  1
  O  O71  1  0.56071857  0.45276322  0.19333617  1
