# generated using pymatgen
data_ZrCoRe
_symmetry_space_group_name_H-M   'P 1'
_cell_length_a   5.10733615
_cell_length_b   5.12244360
_cell_length_c   8.39863869
_cell_angle_alpha   90.00000000
_cell_angle_beta   90.00000000
_cell_angle_gamma   120.09547270
_symmetry_Int_Tables_number   1
_chemical_formula_structural   ZrCoRe
_chemical_formula_sum   'Zr4 Co4 Re4'
_cell_volume   190.10456343
_cell_formula_units_Z   4
loop_
 _symmetry_equiv_pos_site_id
 _symmetry_equiv_pos_as_xyz
  1  'x, y, z'
loop_
 _atom_site_type_symbol
 _atom_site_label
 _atom_site_symmetry_multiplicity
 _atom_site_fract_x
 _atom_site_fract_y
 _atom_site_fract_z
 _atom_site_occupancy
  Zr  Zr0  1  0.66069564  0.33035346  0.57157715  1
  Zr  Zr1  1  0.32923242  0.66458917  0.44257983  1
  Zr  Zr2  1  0.32923242  0.66458917  0.05742017  1
  Zr  Zr3  1  0.66069564  0.33035346  0.92842285  1
  Co  Co4  1  0.00166153  0.00082040  0.51153897  1
  Co  Co5  1  0.00166153  0.00082040  0.98846103  1
  Co  Co6  1  0.17631450  0.34075804  0.75000000  1
  Co  Co7  1  0.17637793  0.83562923  0.75000000  1
  Re  Re8  1  0.66446367  0.83220919  0.75000000  1
  Re  Re9  1  0.83145648  0.66449138  0.25000000  1
  Re  Re10  1  0.83141191  0.16697231  0.25000000  1
  Re  Re11  1  0.33679631  0.16841379  0.25000000  1
