# generated using pymatgen
data_Sr2TiCu2O7
_symmetry_space_group_name_H-M   'P 1'
_cell_length_a   5.15452068
_cell_length_b   5.27688470
_cell_length_c   13.14119878
_cell_angle_alpha   101.57746106
_cell_angle_beta   101.10105654
_cell_angle_gamma   90.09008785
_symmetry_Int_Tables_number   1
_chemical_formula_structural   Sr2TiCu2O7
_chemical_formula_sum   'Sr4 Ti2 Cu4 O14'
_cell_volume   343.31310333
_cell_formula_units_Z   2
loop_
 _symmetry_equiv_pos_site_id
 _symmetry_equiv_pos_as_xyz
  1  'x, y, z'
loop_
 _atom_site_type_symbol
 _atom_site_label
 _atom_site_symmetry_multiplicity
 _atom_site_fract_x
 _atom_site_fract_y
 _atom_site_fract_z
 _atom_site_occupancy
  Sr  Sr0  1  0.33724410  0.34498376  0.71294003  1
  Sr  Sr1  1  0.62754765  0.65484430  0.28764778  1
  Sr  Sr2  1  0.83707520  0.86755543  0.71292867  1
  Sr  Sr3  1  0.12762916  0.13215630  0.28762052  1
  Ti  Ti4  1  0.29546161  0.67897763  0.50032226  1
  Ti  Ti5  1  0.79529724  0.32069433  0.50027350  1
  Cu  Cu6  1  0.91815691  0.44202188  0.87982437  1
  Cu  Cu7  1  0.04447714  0.55792928  0.12078997  1
  Cu  Cu8  1  0.41797058  0.93780450  0.87973494  1
  Cu  Cu9  1  0.54458188  0.06210079  0.12076356  1
  O  O10  1  0.16017860  0.34890888  0.50029119  1
  O  O11  1  0.66023476  0.65050672  0.50029378  1
  O  O12  1  0.15385443  0.17569083  0.85055594  1
  O  O13  1  0.30949419  0.82471247  0.15101326  1
  O  O14  1  0.65330449  0.17409787  0.84950202  1
  O  O15  1  0.80891450  0.82516416  0.15003026  1
  O  O16  1  0.65114576  0.67293022  0.84590442  1
  O  O17  1  0.81136231  0.32769958  0.15585944  1
  O  O18  1  0.15063741  0.67236214  0.84463243  1
  O  O19  1  0.31100210  0.32690610  0.15475219  1
  O  O20  1  0.27087583  0.85908957  0.62875598  1
  O  O21  1  0.64427651  0.14044487  0.37182676  1
  O  O22  1  0.77067057  0.26884030  0.62869324  1
  O  O23  1  0.14431006  0.73082010  0.37195151  1
