# generated using pymatgen
data_Y4Mg25
_symmetry_space_group_name_H-M   'P 1'
_cell_length_a   9.73397556
_cell_length_b   9.73397556
_cell_length_c   9.73397556
_cell_angle_alpha   70.49150700
_cell_angle_beta   70.49150700
_cell_angle_gamma   109.50849300
_symmetry_Int_Tables_number   1
_chemical_formula_structural   Y4Mg25
_chemical_formula_sum   'Y4 Mg25'
_cell_volume   709.00304099
_cell_formula_units_Z   1
loop_
 _symmetry_equiv_pos_site_id
 _symmetry_equiv_pos_as_xyz
  1  'x, y, z'
loop_
 _atom_site_type_symbol
 _atom_site_label
 _atom_site_symmetry_multiplicity
 _atom_site_fract_x
 _atom_site_fract_y
 _atom_site_fract_z
 _atom_site_occupancy
  Y  Y0  1  0.99886708  0.99886708  0.00113292  1
  Y  Y1  1  0.37264348  0.99935131  0.00064869  1
  Y  Y2  1  0.99935131  0.37264348  0.00064869  1
  Y  Y3  1  0.99935131  0.99935131  0.62735652  1
  Mg  Mg4  1  0.28385393  0.67674031  0.32325969  1
  Mg  Mg5  1  0.67674031  0.67674031  0.71614607  1
  Mg  Mg6  1  0.67674031  0.28385393  0.32325969  1
  Mg  Mg7  1  0.71196994  0.39241979  0.60758021  1
  Mg  Mg8  1  0.32425869  0.60865338  0.99924852  1
  Mg  Mg9  1  0.32425869  0.00075148  0.39134662  1
  Mg  Mg10  1  0.00075148  0.32425869  0.39134662  1
  Mg  Mg11  1  0.60865338  0.32425869  0.99924852  1
  Mg  Mg12  1  0.39241979  0.71196994  0.60758021  1
  Mg  Mg13  1  0.00075148  0.60865338  0.67574131  1
  Mg  Mg14  1  0.39241979  0.39241979  0.28803006  1
  Mg  Mg15  1  0.60865338  0.00075148  0.67574131  1
  Mg  Mg16  1  0.81964925  0.19033121  0.80966879  1
  Mg  Mg17  1  0.19033121  0.19033121  0.18035075  1
  Mg  Mg18  1  0.19033121  0.81964925  0.80966879  1
  Mg  Mg19  1  0.17938391  0.37044811  0.62955189  1
  Mg  Mg20  1  0.80971002  0.62926588  0.00050529  1
  Mg  Mg21  1  0.80971002  0.99949471  0.37073412  1
  Mg  Mg22  1  0.99949471  0.80971002  0.37073412  1
  Mg  Mg23  1  0.62926588  0.80971002  0.00050529  1
  Mg  Mg24  1  0.37044811  0.17938391  0.62955189  1
  Mg  Mg25  1  0.99949471  0.62926588  0.19028998  1
  Mg  Mg26  1  0.37044811  0.37044811  0.82061609  1
  Mg  Mg27  1  0.62926588  0.99949471  0.19028998  1
  Mg  Mg28  1  0.63078262  0.63078262  0.36921738  1
