# generated using pymatgen
data_ZnCu(MoO4)2
_symmetry_space_group_name_H-M   'P 1'
_cell_length_a   6.91873072
_cell_length_b   8.57135057
_cell_length_c   10.07935914
_cell_angle_alpha   100.68847360
_cell_angle_beta   106.45939520
_cell_angle_gamma   101.00821649
_symmetry_Int_Tables_number   1
_chemical_formula_structural   ZnCu(MoO4)2
_chemical_formula_sum   'Zn3 Cu3 Mo6 O24'
_cell_volume   544.16580469
_cell_formula_units_Z   3
loop_
 _symmetry_equiv_pos_site_id
 _symmetry_equiv_pos_as_xyz
  1  'x, y, z'
loop_
 _atom_site_type_symbol
 _atom_site_label
 _atom_site_symmetry_multiplicity
 _atom_site_fract_x
 _atom_site_fract_y
 _atom_site_fract_z
 _atom_site_occupancy
  Zn  Zn0  1  0.45945828  0.29182118  0.51670082  1
  Zn  Zn1  1  0.96364585  0.88818367  0.71867091  1
  Zn  Zn2  1  0.03435711  0.11049166  0.28143214  1
  Cu  Cu3  1  0.24178003  0.69118475  0.90635175  1
  Cu  Cu4  1  0.75760846  0.30642704  0.09468269  1
  Cu  Cu5  1  0.53876108  0.69873404  0.49055295  1
  Mo  Mo6  1  0.50368057  0.99379802  0.75424216  1
  Mo  Mo7  1  0.49356748  0.00798838  0.23820625  1
  Mo  Mo8  1  0.69883099  0.60250270  0.84429236  1
  Mo  Mo9  1  0.30440450  0.39749937  0.16091658  1
  Mo  Mo10  1  0.98723364  0.70664572  0.38116337  1
  Mo  Mo11  1  0.01516153  0.29304357  0.62230712  1
  O  O12  1  0.75446666  0.28560062  0.52657349  1
  O  O13  1  0.25061186  0.71208964  0.47495849  1
  O  O14  1  0.64838048  0.85539524  0.68077259  1
  O  O15  1  0.34667551  0.14764395  0.30921671  1
  O  O16  1  0.99022791  0.87514192  0.29894092  1
  O  O17  1  0.01196972  0.12453757  0.70500994  1
  O  O18  1  0.74782927  0.44820714  0.93092069  1
  O  O19  1  0.25668118  0.55231409  0.07541019  1
  O  O20  1  0.84967641  0.72742759  0.51423533  1
  O  O21  1  0.14250909  0.26908813  0.48500575  1
  O  O22  1  0.95573682  0.73746589  0.86109865  1
  O  O23  1  0.04307418  0.26576957  0.13831150  1
  O  O24  1  0.55057123  0.87921731  0.35118657  1
  O  O25  1  0.44849088  0.12765372  0.64311133  1
  O  O26  1  0.25965697  0.88371681  0.76165731  1
  O  O27  1  0.73967375  0.11802031  0.23089931  1
  O  O28  1  0.86562000  0.51724827  0.24872087  1
  O  O29  1  0.13603834  0.48523989  0.75296909  1
  O  O30  1  0.66566043  0.10821875  0.92774227  1
  O  O31  1  0.33300196  0.88796632  0.06490755  1
  O  O32  1  0.55650173  0.50653332  0.65819143  1
  O  O33  1  0.44619451  0.49561653  0.34874004  1
  O  O34  1  0.53889985  0.70927001  0.91929478  1
  O  O35  1  0.46336171  0.29229730  0.08260613  1
