# generated using pymatgen
data_Yb14Hg51
_symmetry_space_group_name_H-M   'P 1'
_cell_length_a   10.20507467
_cell_length_b   13.70799137
_cell_length_c   13.70802286
_cell_angle_alpha   60.00052271
_cell_angle_beta   90.00000000
_cell_angle_gamma   90.00000000
_symmetry_Int_Tables_number   1
_chemical_formula_structural   Yb14Hg51
_chemical_formula_sum   'Yb14 Hg51'
_cell_volume   1660.72509557
_cell_formula_units_Z   1
loop_
 _symmetry_equiv_pos_site_id
 _symmetry_equiv_pos_as_xyz
  1  'x, y, z'
loop_
 _atom_site_type_symbol
 _atom_site_label
 _atom_site_symmetry_multiplicity
 _atom_site_fract_x
 _atom_site_fract_y
 _atom_site_fract_z
 _atom_site_occupancy
  Yb  Yb0  1  0.50000000  0.67495432  0.86171335  1
  Yb  Yb1  1  0.50000000  0.46331824  0.67496076  1
  Yb  Yb2  1  0.50000000  0.86172051  0.46332920  1
  Yb  Yb3  1  0.50000000  0.32794116  0.13832682  1
  Yb  Yb4  1  0.50000000  0.53373949  0.32793750  1
  Yb  Yb5  1  0.50000000  0.13832848  0.53372499  1
  Yb  Yb6  1  0.00000000  0.27739665  0.60622877  1
  Yb  Yb7  1  0.00000000  0.11636973  0.27740107  1
  Yb  Yb8  1  0.00000000  0.60624089  0.11636205  1
  Yb  Yb9  1  -0.00000000  0.71481137  0.40136810  1
  Yb  Yb10  1  -0.00000000  0.88383388  0.71479848  1
  Yb  Yb11  1  0.00000000  0.40135856  0.88383651  1
  Yb  Yb12  1  0.31304792  -0.00000117  0.99999931  1
  Yb  Yb13  1  0.68695208  -0.00000117  0.99999931  1
  Hg  Hg14  1  0.14756907  0.62343540  0.88471703  1
  Hg  Hg15  1  0.14756887  0.49183698  0.62344028  1
  Hg  Hg16  1  0.14756766  0.88471205  0.49185333  1
  Hg  Hg17  1  0.14619840  0.38014191  0.11484249  1
  Hg  Hg18  1  0.14619427  0.50502293  0.38013761  1
  Hg  Hg19  1  0.14619510  0.11484679  0.50501113  1
  Hg  Hg20  1  0.85380160  0.38014191  0.11484249  1
  Hg  Hg21  1  0.85380573  0.50502293  0.38013761  1
  Hg  Hg22  1  0.85380490  0.11484679  0.50501113  1
  Hg  Hg23  1  0.85243093  0.62343540  0.88471703  1
  Hg  Hg24  1  0.85243113  0.49183698  0.62344028  1
  Hg  Hg25  1  0.85243234  0.88471205  0.49185333  1
  Hg  Hg26  1  0.34217612  0.34396765  0.55286126  1
  Hg  Hg27  1  0.34217638  0.10316506  0.34396498  1
  Hg  Hg28  1  0.34217995  0.55286923  0.10315518  1
  Hg  Hg29  1  0.34050659  0.66102777  0.44453494  1
  Hg  Hg30  1  0.34050463  0.89444647  0.66102481  1
  Hg  Hg31  1  0.34050639  0.44452519  0.89444560  1
  Hg  Hg32  1  0.65949341  0.66102777  0.44453494  1
  Hg  Hg33  1  0.65949537  0.89444647  0.66102481  1
  Hg  Hg34  1  0.65949361  0.44452519  0.89444560  1
  Hg  Hg35  1  0.65782388  0.34396765  0.55286126  1
  Hg  Hg36  1  0.65782362  0.10316506  0.34396498  1
  Hg  Hg37  1  0.65782005  0.55286923  0.10315518  1
  Hg  Hg38  1  0.50000000  0.18171591  0.76401843  1
  Hg  Hg39  1  0.50000000  0.05426297  0.18171320  1
  Hg  Hg40  1  0.50000000  0.76402997  0.05426181  1
  Hg  Hg41  1  0.50000000  0.82237590  0.23206297  1
  Hg  Hg42  1  0.50000000  0.94556833  0.82236811  1
  Hg  Hg43  1  0.50000000  0.23205196  0.94556861  1
  Hg  Hg44  1  -0.00000000  0.66664974  0.66667436  1
  Hg  Hg45  1  0.00000000  0.33334020  0.33332797  1
  Hg  Hg46  1  0.22625715  0.08387565  0.72774927  1
  Hg  Hg47  1  0.22625619  0.18836531  0.08387996  1
  Hg  Hg48  1  0.22625856  0.72776318  0.18836569  1
  Hg  Hg49  1  0.21688675  0.92465744  0.26313492  1
  Hg  Hg50  1  0.21688028  0.81221437  0.92467424  1
  Hg  Hg51  1  0.21688787  0.26310924  0.81222094  1
  Hg  Hg52  1  0.78311325  0.92465744  0.26313492  1
  Hg  Hg53  1  0.78311972  0.81221437  0.92467424  1
  Hg  Hg54  1  0.78311213  0.26310924  0.81222094  1
  Hg  Hg55  1  0.77374285  0.08387565  0.72774927  1
  Hg  Hg56  1  0.77374381  0.18836531  0.08387996  1
  Hg  Hg57  1  0.77374144  0.72776318  0.18836569  1
  Hg  Hg58  1  0.33213782  0.66666490  0.66666952  1
  Hg  Hg59  1  0.32895234  0.33333762  0.33332692  1
  Hg  Hg60  1  0.67104766  0.33333762  0.33332692  1
  Hg  Hg61  1  0.66786218  0.66666490  0.66666952  1
  Hg  Hg62  1  -0.00000000  0.98238929  0.88487296  1
  Hg  Hg63  1  0.00000000  0.13274311  0.98238291  1
  Hg  Hg64  1  -0.00000000  0.88489140  0.13274224  1
