# generated using pymatgen
data_Zr3Ti(PbO3)4
_symmetry_space_group_name_H-M   'P 1'
_cell_length_a   4.25015102
_cell_length_b   5.93701373
_cell_length_c   11.72818830
_cell_angle_alpha   89.99999929
_cell_angle_beta   89.99999891
_cell_angle_gamma   91.18540662
_symmetry_Int_Tables_number   1
_chemical_formula_structural   Zr3Ti(PbO3)4
_chemical_formula_sum   'Zr3 Ti1 Pb4 O12'
_cell_volume   295.87644328
_cell_formula_units_Z   1
loop_
 _symmetry_equiv_pos_site_id
 _symmetry_equiv_pos_as_xyz
  1  'x, y, z'
loop_
 _atom_site_type_symbol
 _atom_site_label
 _atom_site_symmetry_multiplicity
 _atom_site_fract_x
 _atom_site_fract_y
 _atom_site_fract_z
 _atom_site_occupancy
  Zr  Zr0  1  0.96878363  0.52719944  0.24566509  1
  Zr  Zr1  1  0.96913769  0.02920995  0.50000000  1
  Zr  Zr2  1  0.96878363  0.52719944  0.75433491  1
  Ti  Ti3  1  0.94628062  0.03092193  1.00000000  1
  Pb  Pb4  1  0.41691084  0.57833495  0.50000000  1
  Pb  Pb5  1  0.41304863  0.07186432  0.75971318  1
  Pb  Pb6  1  0.41929087  0.58635193  0.00000000  1
  Pb  Pb7  1  0.41304863  0.07186432  0.24028682  1
  O  O8  1  0.01286520  0.74533750  0.62051298  1
  O  O9  1  0.01266280  0.23920574  0.87820659  1
  O  O10  1  0.02082059  0.76465618  0.11571222  1
  O  O11  1  0.01463785  0.24873496  0.36522844  1
  O  O12  1  0.01286520  0.74533750  0.37948702  1
  O  O13  1  0.01463785  0.24873596  0.63477156  1
  O  O14  1  0.02082059  0.76465618  0.88428778  1
  O  O15  1  0.01266280  0.23920574  0.12179341  1
  O  O16  1  0.48847865  0.98422637  0.50000000  1
  O  O17  1  0.48777348  0.48740727  0.75829173  1
  O  O18  1  0.52079697  0.00006006  0.00000000  1
  O  O19  1  0.48777348  0.48740727  0.24170827  1
