# generated using pymatgen
data_ZnCdSe2
_symmetry_space_group_name_H-M   'P 1'
_cell_length_a   4.22495319
_cell_length_b   4.22495319
_cell_length_c   7.33435019
_cell_angle_alpha   73.26024435
_cell_angle_beta   90.00000000
_cell_angle_gamma   120.00000000
_symmetry_Int_Tables_number   1
_chemical_formula_structural   ZnCdSe2
_chemical_formula_sum   'Zn1 Cd1 Se2'
_cell_volume   106.92564894
_cell_formula_units_Z   1
loop_
 _symmetry_equiv_pos_site_id
 _symmetry_equiv_pos_as_xyz
  1  'x, y, z'
loop_
 _atom_site_type_symbol
 _atom_site_label
 _atom_site_symmetry_multiplicity
 _atom_site_fract_x
 _atom_site_fract_y
 _atom_site_fract_z
 _atom_site_occupancy
  Zn  Zn0  1  0.50019623  0.00039246  0.49941131  1
  Cd  Cd1  1  0.99917214  0.99834428  0.00248358  1
  Se  Se2  1  0.86965351  0.73930703  0.39103946  1
  Se  Se3  1  0.38097812  0.76195623  0.85706565  1
