# generated using pymatgen
data_Zr2(SeS)3
_symmetry_space_group_name_H-M   'P 1'
_cell_length_a   3.73122456
_cell_length_b   5.42199403
_cell_length_c   9.60828696
_cell_angle_alpha   83.78711886
_cell_angle_beta   90.00000000
_cell_angle_gamma   90.00000000
_symmetry_Int_Tables_number   1
_chemical_formula_structural   Zr2(SeS)3
_chemical_formula_sum   'Zr2 Se3 S3'
_cell_volume   193.24048007
_cell_formula_units_Z   1
loop_
 _symmetry_equiv_pos_site_id
 _symmetry_equiv_pos_as_xyz
  1  'x, y, z'
loop_
 _atom_site_type_symbol
 _atom_site_label
 _atom_site_symmetry_multiplicity
 _atom_site_fract_x
 _atom_site_fract_y
 _atom_site_fract_z
 _atom_site_occupancy
  Zr  Zr0  1  0.75000000  0.27742564  0.34427938  1
  Zr  Zr1  1  0.25000000  0.72052033  0.65832490  1
  Se  Se2  1  0.25000000  0.52219295  0.16818358  1
  Se  Se3  1  0.75000000  0.75888921  0.44597047  1
  Se  Se4  1  0.25000000  0.23901452  0.55713465  1
  S  S5  1  0.75000000  0.87802114  0.82173072  1
  S  S6  1  0.25000000  0.10843122  0.18708354  1
  S  S7  1  0.75000000  0.49550499  0.81729276  1
