# generated using pymatgen
data_Tm(CrFe5)2
_symmetry_space_group_name_H-M   'P 1'
_cell_length_a   4.69011522
_cell_length_b   6.38667619
_cell_length_c   6.38667619
_cell_angle_alpha   97.38451457
_cell_angle_beta   111.54178460
_cell_angle_gamma   68.45821540
_symmetry_Int_Tables_number   1
_chemical_formula_structural   Tm(CrFe5)2
_chemical_formula_sum   'Tm1 Cr2 Fe10'
_cell_volume   165.51137019
_cell_formula_units_Z   1
loop_
 _symmetry_equiv_pos_site_id
 _symmetry_equiv_pos_as_xyz
  1  'x, y, z'
loop_
 _atom_site_type_symbol
 _atom_site_label
 _atom_site_symmetry_multiplicity
 _atom_site_fract_x
 _atom_site_fract_y
 _atom_site_fract_z
 _atom_site_occupancy
  Tm  Tm0  1  0.00000000  -0.00000000  0.00000000  1
  Cr  Cr1  1  0.00000000  0.36726933  0.36726933  1
  Cr  Cr2  1  -0.00000000  0.63273067  0.63273067  1
  Fe  Fe3  1  0.72431167  0.77568833  0.22431167  1
  Fe  Fe4  1  0.27568833  0.22431167  0.77568833  1
  Fe  Fe5  1  0.50000000  0.77355441  0.77355441  1
  Fe  Fe6  1  0.50000000  0.22644559  0.22644559  1
  Fe  Fe7  1  0.50000000  -0.00000000  0.50000000  1
  Fe  Fe8  1  0.00000000  -0.00000000  0.50000000  1
  Fe  Fe9  1  0.50000000  0.50000000  0.00000000  1
  Fe  Fe10  1  0.00000000  0.50000000  0.00000000  1
  Fe  Fe11  1  0.64109279  0.35890721  0.64109279  1
  Fe  Fe12  1  0.35890721  0.64109279  0.35890721  1
