# generated using pymatgen
data_Y4Cu19Pb
_symmetry_space_group_name_H-M   'P 1'
_cell_length_a   5.05902651
_cell_length_b   5.05902651
_cell_length_c   16.51264181
_cell_angle_alpha   90.00000000
_cell_angle_beta   81.18836761
_cell_angle_gamma   120.00000000
_symmetry_Int_Tables_number   1
_chemical_formula_structural   Y4Cu19Pb
_chemical_formula_sum   'Y4 Cu19 Pb1'
_cell_volume   360.22878544
_cell_formula_units_Z   1
loop_
 _symmetry_equiv_pos_site_id
 _symmetry_equiv_pos_as_xyz
  1  'x, y, z'
loop_
 _atom_site_type_symbol
 _atom_site_label
 _atom_site_symmetry_multiplicity
 _atom_site_fract_x
 _atom_site_fract_y
 _atom_site_fract_z
 _atom_site_occupancy
  Y  Y0  1  0.00082613  0.50041306  0.49876081  1
  Y  Y1  1  0.50785403  0.75392701  0.73821896  1
  Y  Y2  1  0.99166511  0.99583256  0.01250233  1
  Y  Y3  1  0.49693854  0.24846927  0.25459219  1
  Cu  Cu4  1  0.87346802  0.93673401  0.18979797  1
  Cu  Cu5  1  0.37413303  0.18706651  0.43880046  1
  Cu  Cu6  1  0.87444424  0.43722212  0.68833363  1
  Cu  Cu7  1  0.43260628  0.46567388  0.10171984  1
  Cu  Cu8  1  0.93447193  0.72032582  0.34520225  1
  Cu  Cu9  1  0.43735459  0.97322581  0.58941960  1
  Cu  Cu10  1  0.93993243  0.22216832  0.83789925  1
  Cu  Cu11  1  0.43260628  0.96693240  0.10171984  1
  Cu  Cu12  1  0.93447193  0.21414611  0.34520225  1
  Cu  Cu13  1  0.43735459  0.46412878  0.58941960  1
  Cu  Cu14  1  0.93993243  0.71776411  0.83789925  1
  Cu  Cu15  1  0.18562564  0.59281282  0.22156154  1
  Cu  Cu16  1  0.68914261  0.84457131  0.46628608  1
  Cu  Cu17  1  0.19139569  0.09569785  0.71290646  1
  Cu  Cu18  1  0.68651178  0.34325589  0.97023234  1
  Cu  Cu19  1  0.93134775  0.46567388  0.10171984  1
  Cu  Cu20  1  0.44065163  0.72032582  0.34520225  1
  Cu  Cu21  1  0.94645162  0.97322581  0.58941960  1
  Cu  Cu22  1  0.44433665  0.22216832  0.83789925  1
  Pb  Pb23  1  0.37647707  0.68823853  0.93528440  1
