# generated using pymatgen
data_V(CrTe2)2
_symmetry_space_group_name_H-M   'P 1'
_cell_length_a   4.00233214
_cell_length_b   6.95162287
_cell_length_c   7.28670122
_cell_angle_alpha   116.79827575
_cell_angle_beta   74.05987209
_cell_angle_gamma   90.00000000
_symmetry_Int_Tables_number   1
_chemical_formula_structural   V(CrTe2)2
_chemical_formula_sum   'V1 Cr2 Te4'
_cell_volume   172.18345943
_cell_formula_units_Z   1
loop_
 _symmetry_equiv_pos_site_id
 _symmetry_equiv_pos_as_xyz
  1  'x, y, z'
loop_
 _atom_site_type_symbol
 _atom_site_label
 _atom_site_symmetry_multiplicity
 _atom_site_fract_x
 _atom_site_fract_y
 _atom_site_fract_z
 _atom_site_occupancy
  V  V0  1  0.26017051  0.71567313  0.47965898  1
  Cr  Cr1  1  0.73896919  0.28367274  0.52206163  1
  Cr  Cr2  1  0.00105091  0.00010170  0.99789818  1
  Te  Te3  1  0.11676570  0.54947846  0.76646860  1
  Te  Te4  1  0.88222862  0.45078508  0.23554277  1
  Te  Te5  1  0.36563000  0.97665165  0.26873999  1
  Te  Te6  1  0.63518507  0.02363725  0.72962985  1
