# generated using pymatgen
data_TlV6PSe7
_symmetry_space_group_name_H-M   'P 1'
_cell_length_a   3.38056735
_cell_length_b   9.59082016
_cell_length_c   9.61427945
_cell_angle_alpha   119.98597575
_cell_angle_beta   89.99614292
_cell_angle_gamma   90.01189428
_symmetry_Int_Tables_number   1
_chemical_formula_structural   TlV6PSe7
_chemical_formula_sum   'Tl1 V6 P1 Se7'
_cell_volume   269.99396666
_cell_formula_units_Z   1
loop_
 _symmetry_equiv_pos_site_id
 _symmetry_equiv_pos_as_xyz
  1  'x, y, z'
loop_
 _atom_site_type_symbol
 _atom_site_label
 _atom_site_symmetry_multiplicity
 _atom_site_fract_x
 _atom_site_fract_y
 _atom_site_fract_z
 _atom_site_occupancy
  Tl  Tl0  1  0.50019633  0.99997674  0.99995225  1
  V  V1  1  0.74864442  0.37007793  0.86657669  1
  V  V2  1  0.74859447  0.13261220  0.50336688  1
  V  V3  1  0.74856730  0.49655755  0.63023608  1
  V  V4  1  0.25148317  0.62739725  0.12023552  1
  V  V5  1  0.25160499  0.88008796  0.50723617  1
  V  V6  1  0.25139967  0.49319552  0.37237408  1
  P  P7  1  0.24927775  0.33318743  0.66678657  1
  Se  Se8  1  0.75490089  0.05188329  0.70723205  1
  Se  Se9  1  0.75475299  0.29261899  0.34527539  1
  Se  Se10  1  0.75483619  0.65545760  0.94784466  1
  Se  Se11  1  0.24511139  0.95426895  0.29803196  1
  Se  Se12  1  0.24503855  0.70229725  0.65595488  1
  Se  Se13  1  0.24480441  0.34329128  0.04551512  1
  Se  Se14  1  0.75078749  0.66709006  0.33338170  1
