# generated using pymatgen
data_U2Si3Ru
_symmetry_space_group_name_H-M   'P 1'
_cell_length_a   3.78167075
_cell_length_b   8.19766047
_cell_length_c   8.19766102
_cell_angle_alpha   60.07025407
_cell_angle_beta   89.97155776
_cell_angle_gamma   89.97155774
_symmetry_Int_Tables_number   1
_chemical_formula_structural   U2Si3Ru
_chemical_formula_sum   'U4 Si6 Ru2'
_cell_volume   220.24252199
_cell_formula_units_Z   2
loop_
 _symmetry_equiv_pos_site_id
 _symmetry_equiv_pos_as_xyz
  1  'x, y, z'
loop_
 _atom_site_type_symbol
 _atom_site_label
 _atom_site_symmetry_multiplicity
 _atom_site_fract_x
 _atom_site_fract_y
 _atom_site_fract_z
 _atom_site_occupancy
  U  U0  1  0.00000000  0.99998981  0.00001019  1
  U  U1  1  0.00000000  0.49999297  0.50000703  1
  U  U2  1  -0.00000406  0.49998924  0.00000991  1
  U  U3  1  0.00000406  0.99999009  0.50001076  1
  Si  Si4  1  0.49047616  0.16384234  0.16385324  1
  Si  Si5  1  0.49046906  0.16380140  0.67236495  1
  Si  Si6  1  0.49046023  0.67234466  0.16381610  1
  Si  Si7  1  0.50952384  0.83614676  0.83615766  1
  Si  Si8  1  0.50953977  0.83618390  0.32765534  1
  Si  Si9  1  0.50953094  0.32763505  0.83619860  1
  Ru  Ru10  1  0.52732457  0.33336552  0.33338175  1
  Ru  Ru11  1  0.47267543  0.66661825  0.66663448  1
