# generated using pymatgen
data_Ti4FeCoS8
_symmetry_space_group_name_H-M   'P 1'
_cell_length_a   5.79692376
_cell_length_b   6.74825463
_cell_length_c   6.49289470
_cell_angle_alpha   105.03465020
_cell_angle_beta   63.34947629
_cell_angle_gamma   89.98653557
_symmetry_Int_Tables_number   1
_chemical_formula_structural   Ti4FeCoS8
_chemical_formula_sum   'Ti4 Fe1 Co1 S8'
_cell_volume   217.23152549
_cell_formula_units_Z   1
loop_
 _symmetry_equiv_pos_site_id
 _symmetry_equiv_pos_as_xyz
  1  'x, y, z'
loop_
 _atom_site_type_symbol
 _atom_site_label
 _atom_site_symmetry_multiplicity
 _atom_site_fract_x
 _atom_site_fract_y
 _atom_site_fract_z
 _atom_site_occupancy
  Ti  Ti0  1  0.50323185  0.75213619  0.00981240  1
  Ti  Ti1  1  0.99676815  0.49786381  0.99018760  1
  Ti  Ti2  1  0.50237102  0.25405865  0.01103340  1
  Ti  Ti3  1  0.99762898  0.99594135  0.98896660  1
  Fe  Fe4  1  0.75000000  0.12500000  0.50000000  1
  Co  Co5  1  0.75000000  0.62500000  0.50000000  1
  S  S6  1  0.03115280  0.81914926  0.26428501  1
  S  S7  1  0.53606842  0.06720015  0.27100440  1
  S  S8  1  0.02858442  0.31408126  0.26665943  1
  S  S9  1  0.53578676  0.56695904  0.26916639  1
  S  S10  1  0.47141558  0.93591874  0.73334057  1
  S  S11  1  0.96393158  0.18279985  0.72899560  1
  S  S12  1  0.46884720  0.43085074  0.73571499  1
  S  S13  1  0.96421324  0.68304096  0.73083361  1
