# generated using pymatgen
data_Tl2Cu2SnTe4
_symmetry_space_group_name_H-M   'P 1'
_cell_length_a   7.12799616
_cell_length_b   6.98291613
_cell_length_c   6.98291613
_cell_angle_alpha   62.01551209
_cell_angle_beta   74.93099114
_cell_angle_gamma   105.06900886
_symmetry_Int_Tables_number   1
_chemical_formula_structural   Tl2Cu2SnTe4
_chemical_formula_sum   'Tl2 Cu2 Sn1 Te4'
_cell_volume   264.97616345
_cell_formula_units_Z   1
loop_
 _symmetry_equiv_pos_site_id
 _symmetry_equiv_pos_as_xyz
  1  'x, y, z'
loop_
 _atom_site_type_symbol
 _atom_site_label
 _atom_site_symmetry_multiplicity
 _atom_site_fract_x
 _atom_site_fract_y
 _atom_site_fract_z
 _atom_site_occupancy
  Tl  Tl0  1  0.50000000  0.50083305  0.99916695  1
  Tl  Tl1  1  0.50000000  0.00083305  0.49916695  1
  Cu  Cu2  1  -0.00000000  0.48507819  0.28738285  1
  Cu  Cu3  1  0.00000000  0.71261715  0.51492181  1
  Sn  Sn4  1  0.00000000  0.00622739  0.99377261  1
  Te  Te5  1  -0.00000000  0.07158747  0.56229594  1
  Te  Te6  1  -0.00000000  0.43770406  0.92841253  1
  Te  Te7  1  0.65900392  0.57006178  0.42993822  1
  Te  Te8  1  0.34099608  0.91105786  0.08894214  1
