# generated using pymatgen
data_ThMn3Al2
_symmetry_space_group_name_H-M   'P 1'
_cell_length_a   4.19511595
_cell_length_b   5.45984030
_cell_length_c   5.14216121
_cell_angle_alpha   122.06557596
_cell_angle_beta   90.00000000
_cell_angle_gamma   90.00000000
_symmetry_Int_Tables_number   1
_chemical_formula_structural   ThMn3Al2
_chemical_formula_sum   'Th1 Mn3 Al2'
_cell_volume   99.81115668
_cell_formula_units_Z   1
loop_
 _symmetry_equiv_pos_site_id
 _symmetry_equiv_pos_as_xyz
  1  'x, y, z'
loop_
 _atom_site_type_symbol
 _atom_site_label
 _atom_site_symmetry_multiplicity
 _atom_site_fract_x
 _atom_site_fract_y
 _atom_site_fract_z
 _atom_site_occupancy
  Th  Th0  1  -0.00000000  0.99998623  1.00000000  1
  Mn  Mn1  1  0.00000000  0.34657365  0.69318351  1
  Mn  Mn2  1  -0.00000000  0.65339015  0.30681649  1
  Mn  Mn3  1  0.50000000  0.49997627  -0.00000000  1
  Al  Al4  1  0.50000000  0.49998517  0.49999663  1
  Al  Al5  1  0.50000000  0.99998854  0.50000337  1
