# generated using pymatgen
data_ThV2PbO8
_symmetry_space_group_name_H-M   'P 1'
_cell_length_a   5.26466019
_cell_length_b   5.26466019
_cell_length_c   7.04286416
_cell_angle_alpha   68.05239635
_cell_angle_beta   68.05239644
_cell_angle_gamma   90.00000000
_symmetry_Int_Tables_number   1
_chemical_formula_structural   ThV2PbO8
_chemical_formula_sum   'Th1 V2 Pb1 O8'
_cell_volume   165.70662663
_cell_formula_units_Z   1
loop_
 _symmetry_equiv_pos_site_id
 _symmetry_equiv_pos_as_xyz
  1  'x, y, z'
loop_
 _atom_site_type_symbol
 _atom_site_label
 _atom_site_symmetry_multiplicity
 _atom_site_fract_x
 _atom_site_fract_y
 _atom_site_fract_z
 _atom_site_occupancy
  Th  Th0  1  0.62500000  0.37500000  0.75000000  1
  V  V1  1  0.87500000  0.12500000  0.25000000  1
  V  V2  1  0.12500000  0.87500000  0.75000000  1
  Pb  Pb3  1  0.37500000  0.62500000  0.25000000  1
  O  O4  1  0.67358387  0.28856927  0.41772910  1
  O  O5  1  0.90868703  0.79370163  0.41772910  1
  O  O6  1  0.30542016  0.94641600  0.89368407  1
  O  O7  1  0.80089577  0.65989993  0.89368407  1
  O  O8  1  0.34010007  0.69457984  0.60631593  1
  O  O9  1  0.05358400  0.19910423  0.60631593  1
  O  O10  1  0.71143073  0.09131297  0.08227090  1
  O  O11  1  0.20629837  0.32641613  0.08227090  1
