# generated using pymatgen
data_ThFeCo4
_symmetry_space_group_name_H-M   'P 1'
_cell_length_a   3.99556315
_cell_length_b   5.00875064
_cell_length_c   5.00820025
_cell_angle_alpha   60.01886840
_cell_angle_beta   90.00000000
_cell_angle_gamma   90.00000000
_symmetry_Int_Tables_number   1
_chemical_formula_structural   ThFeCo4
_chemical_formula_sum   'Th1 Fe1 Co4'
_cell_volume   86.81649901
_cell_formula_units_Z   1
loop_
 _symmetry_equiv_pos_site_id
 _symmetry_equiv_pos_as_xyz
  1  'x, y, z'
loop_
 _atom_site_type_symbol
 _atom_site_label
 _atom_site_symmetry_multiplicity
 _atom_site_fract_x
 _atom_site_fract_y
 _atom_site_fract_z
 _atom_site_occupancy
  Th  Th0  1  -0.00000000  0.99997331  0.00002159  1
  Fe  Fe1  1  0.00000000  0.33333493  0.33338273  1
  Co  Co2  1  0.00000000  0.66657254  0.66669535  1
  Co  Co3  1  0.50000000  0.50106440  0.50102735  1
  Co  Co4  1  0.50000000  0.50105762  0.99792114  1
  Co  Co5  1  0.50000000  0.99789720  0.50105184  1
