# generated using pymatgen
data_SrPr3CrNiO8
_symmetry_space_group_name_H-M   'P 1'
_cell_length_a   5.50751673
_cell_length_b   5.50407324
_cell_length_c   6.80372116
_cell_angle_alpha   90.00000000
_cell_angle_beta   66.12497822
_cell_angle_gamma   90.00000000
_symmetry_Int_Tables_number   1
_chemical_formula_structural   SrPr3CrNiO8
_chemical_formula_sum   'Sr1 Pr3 Cr1 Ni1 O8'
_cell_volume   188.59806582
_cell_formula_units_Z   1
loop_
 _symmetry_equiv_pos_site_id
 _symmetry_equiv_pos_as_xyz
  1  'x, y, z'
loop_
 _atom_site_type_symbol
 _atom_site_label
 _atom_site_symmetry_multiplicity
 _atom_site_fract_x
 _atom_site_fract_y
 _atom_site_fract_z
 _atom_site_occupancy
  Sr  Sr0  1  0.85720822  0.50000000  0.28558356  1
  Pr  Pr1  1  0.36358302  0.00000000  0.27283397  1
  Pr  Pr2  1  0.63868362  0.00000000  0.72263275  1
  Pr  Pr3  1  0.13568358  0.50000000  0.72863284  1
  Cr  Cr4  1  0.49928051  0.50000000  0.00143899  1
  Ni  Ni5  1  0.99693884  0.00000000  0.00612233  1
  O  O6  1  0.25856812  0.75239281  0.99208040  1
  O  O7  1  0.74935148  0.24760719  0.99208040  1
  O  O8  1  0.25856812  0.24760719  0.99208040  1
  O  O9  1  0.74935148  0.75239281  0.99208040  1
  O  O10  1  0.17821197  -0.00000000  0.64357606  1
  O  O11  1  0.66335314  0.50000000  0.67329372  1
  O  O12  1  0.82376180  -0.00000000  0.35247639  1
  O  O13  1  0.32745611  0.50000000  0.34508778  1
