# generated using pymatgen
data_ThU4O10
_symmetry_space_group_name_H-M   'P 1'
_cell_length_a   3.86305058
_cell_length_b   3.86305058
_cell_length_c   13.94785502
_cell_angle_alpha   97.96000913
_cell_angle_beta   82.03999087
_cell_angle_gamma   90.00000000
_symmetry_Int_Tables_number   1
_chemical_formula_structural   ThU4O10
_chemical_formula_sum   'Th1 U4 O10'
_cell_volume   204.11537659
_cell_formula_units_Z   1
loop_
 _symmetry_equiv_pos_site_id
 _symmetry_equiv_pos_as_xyz
  1  'x, y, z'
loop_
 _atom_site_type_symbol
 _atom_site_label
 _atom_site_symmetry_multiplicity
 _atom_site_fract_x
 _atom_site_fract_y
 _atom_site_fract_z
 _atom_site_occupancy
  Th  Th0  1  0.00000000  0.00000000  -0.00000000  1
  U  U1  1  0.39767796  0.60232204  0.20464409  1
  U  U2  1  0.79922471  0.20077529  0.40155059  1
  U  U3  1  0.20077529  0.79922471  0.59844941  1
  U  U4  1  0.60232204  0.39767796  0.79535591  1
  O  O5  1  0.55213680  0.94786320  0.89572640  1
  O  O6  1  0.75000000  0.75000000  0.50000000  1
  O  O7  1  0.15087838  0.34912162  0.69824324  1
  O  O8  1  0.94786320  0.55213680  0.10427360  1
  O  O9  1  0.34912162  0.15087838  0.30175676  1
  O  O10  1  0.44786320  0.05213680  0.10427360  1
  O  O11  1  0.65087838  0.84912162  0.69824324  1
  O  O12  1  0.05213680  0.44786320  0.89572640  1
  O  O13  1  0.84912162  0.65087838  0.30175676  1
  O  O14  1  0.25000000  0.25000000  0.50000000  1
