# generated using pymatgen
data_Tb12FeCoBi4
_symmetry_space_group_name_H-M   'P 1'
_cell_length_a   4.15851523
_cell_length_b   8.38195837
_cell_length_c   14.66204508
_cell_angle_alpha   89.62221930
_cell_angle_beta   90.00000000
_cell_angle_gamma   90.00000000
_symmetry_Int_Tables_number   1
_chemical_formula_structural   Tb12FeCoBi4
_chemical_formula_sum   'Tb12 Fe1 Co1 Bi4'
_cell_volume   511.05648766
_cell_formula_units_Z   1
loop_
 _symmetry_equiv_pos_site_id
 _symmetry_equiv_pos_as_xyz
  1  'x, y, z'
loop_
 _atom_site_type_symbol
 _atom_site_label
 _atom_site_symmetry_multiplicity
 _atom_site_fract_x
 _atom_site_fract_y
 _atom_site_fract_z
 _atom_site_occupancy
  Tb  Tb0  1  0.50000000  0.19074020  0.19510917  1
  Tb  Tb1  1  0.50000000  0.68948070  0.69376052  1
  Tb  Tb2  1  -0.00000000  0.87883626  0.10977726  1
  Tb  Tb3  1  -0.00000000  0.37634849  0.60938116  1
  Tb  Tb4  1  -0.00000000  0.71870851  0.49458151  1
  Tb  Tb5  1  -0.00000000  0.21983840  0.99477007  1
  Tb  Tb6  1  -0.00000000  0.37147197  0.37632751  1
  Tb  Tb7  1  0.00000000  0.87640559  0.87812616  1
  Tb  Tb8  1  0.50000000  0.69059899  0.29685050  1
  Tb  Tb9  1  0.50000000  0.19084219  0.79509785  1
  Tb  Tb10  1  0.50000000  0.59818205  0.99587845  1
  Tb  Tb11  1  0.50000000  0.09635940  0.49702849  1
  Fe  Fe12  1  0.50000000  0.48064403  0.48903300  1
  Co  Co13  1  0.50000000  0.97625430  0.98869184  1
  Bi  Bi14  1  -0.00000000  0.99056090  0.32987654  1
  Bi  Bi15  1  -0.00000000  0.49316547  0.82957893  1
  Bi  Bi16  1  -0.00000000  0.49066994  0.16225738  1
  Bi  Bi17  1  -0.00000000  0.98846262  0.66224369  1
