# generated using pymatgen
data_Tb(VFe5)2
_symmetry_space_group_name_H-M   'P 1'
_cell_length_a   4.67769443
_cell_length_b   6.42359031
_cell_length_c   6.42359031
_cell_angle_alpha   97.32977434
_cell_angle_beta   111.35237792
_cell_angle_gamma   68.64762208
_symmetry_Int_Tables_number   1
_chemical_formula_structural   Tb(VFe5)2
_chemical_formula_sum   'Tb1 V2 Fe10'
_cell_volume   167.42270018
_cell_formula_units_Z   1
loop_
 _symmetry_equiv_pos_site_id
 _symmetry_equiv_pos_as_xyz
  1  'x, y, z'
loop_
 _atom_site_type_symbol
 _atom_site_label
 _atom_site_symmetry_multiplicity
 _atom_site_fract_x
 _atom_site_fract_y
 _atom_site_fract_z
 _atom_site_occupancy
  Tb  Tb0  1  -0.00000000  -0.00000000  -0.00000000  1
  V  V1  1  -0.00000000  0.35912201  0.35912201  1
  V  V2  1  0.00000000  0.64087799  0.64087799  1
  Fe  Fe3  1  0.72499127  0.77500873  0.22499127  1
  Fe  Fe4  1  0.27500873  0.22499127  0.77500873  1
  Fe  Fe5  1  0.50000000  0.77148329  0.77148329  1
  Fe  Fe6  1  0.50000000  0.22851671  0.22851671  1
  Fe  Fe7  1  0.50000000  -0.00000000  0.50000000  1
  Fe  Fe8  1  -0.00000000  -0.00000000  0.50000000  1
  Fe  Fe9  1  0.50000000  0.50000000  -0.00000000  1
  Fe  Fe10  1  -0.00000000  0.50000000  -0.00000000  1
  Fe  Fe11  1  0.64130077  0.35869923  0.64130077  1
  Fe  Fe12  1  0.35869923  0.64130077  0.35869923  1
