# generated using pymatgen
data_SrSmAlO4
_symmetry_space_group_name_H-M   'P 1'
_cell_length_a   3.75453805
_cell_length_b   3.75453805
_cell_length_c   6.72386284
_cell_angle_alpha   73.78783756
_cell_angle_beta   73.78783756
_cell_angle_gamma   90.00000000
_symmetry_Int_Tables_number   1
_chemical_formula_structural   SrSmAlO4
_chemical_formula_sum   'Sr1 Sm1 Al1 O4'
_cell_volume   87.08210320
_cell_formula_units_Z   1
loop_
 _symmetry_equiv_pos_site_id
 _symmetry_equiv_pos_as_xyz
  1  'x, y, z'
loop_
 _atom_site_type_symbol
 _atom_site_label
 _atom_site_symmetry_multiplicity
 _atom_site_fract_x
 _atom_site_fract_y
 _atom_site_fract_z
 _atom_site_occupancy
  Sr  Sr0  1  0.35544317  0.35544317  0.28911366  1
  Sm  Sm1  1  0.63972003  0.63972003  0.72055993  1
  Al  Al2  1  0.99748317  0.99748317  0.00503366  1
  O  O3  1  0.16081279  0.16081279  0.67837442  1
  O  O4  1  0.83214040  0.83214040  0.33571919  1
  O  O5  1  0.50720022  0.00720022  0.98559957  1
  O  O6  1  0.00720022  0.50720022  0.98559957  1
