# generated using pymatgen
data_SrLaCoO4
_symmetry_space_group_name_H-M   'P 1'
_cell_length_a   5.43343787
_cell_length_b   5.45027404
_cell_length_c   6.86259119
_cell_angle_alpha   90.00000000
_cell_angle_beta   66.67952211
_cell_angle_gamma   90.00000000
_symmetry_Int_Tables_number   1
_chemical_formula_structural   SrLaCoO4
_chemical_formula_sum   'Sr2 La2 Co2 O8'
_cell_volume   186.62425999
_cell_formula_units_Z   2
loop_
 _symmetry_equiv_pos_site_id
 _symmetry_equiv_pos_as_xyz
  1  'x, y, z'
loop_
 _atom_site_type_symbol
 _atom_site_label
 _atom_site_symmetry_multiplicity
 _atom_site_fract_x
 _atom_site_fract_y
 _atom_site_fract_z
 _atom_site_occupancy
  Sr  Sr0  1  0.85597712  0.50000000  0.28804575  1
  Sr  Sr1  1  0.64402288  0.00000000  0.71195425  1
  La  La2  1  0.36187277  -0.00000000  0.27625446  1
  La  La3  1  0.13812723  0.50000000  0.72374554  1
  Co  Co4  1  0.50102134  0.50000000  0.99795733  1
  Co  Co5  1  0.99897866  -0.00000000  0.00204267  1
  O  O6  1  0.17488817  0.00000000  0.65022366  1
  O  O7  1  0.66189903  0.50000000  0.67620195  1
  O  O8  1  0.32511183  0.50000000  0.34977634  1
  O  O9  1  0.83810097  -0.00000000  0.32379805  1
  O  O10  1  0.25000000  0.25000000  -0.00000000  1
  O  O11  1  0.75000000  0.75000000  -0.00000000  1
  O  O12  1  0.25000000  0.75000000  -0.00000000  1
  O  O13  1  0.75000000  0.25000000  -0.00000000  1
