# generated using pymatgen
data_Sr3CaMn2O8
_symmetry_space_group_name_H-M   'P 1'
_cell_length_a   3.83247807
_cell_length_b   3.83247807
_cell_length_c   12.38400964
_cell_angle_alpha   90.00000000
_cell_angle_beta   90.00000000
_cell_angle_gamma   90.00000000
_symmetry_Int_Tables_number   1
_chemical_formula_structural   Sr3CaMn2O8
_chemical_formula_sum   'Sr3 Ca1 Mn2 O8'
_cell_volume   181.89494853
_cell_formula_units_Z   1
loop_
 _symmetry_equiv_pos_site_id
 _symmetry_equiv_pos_as_xyz
  1  'x, y, z'
loop_
 _atom_site_type_symbol
 _atom_site_label
 _atom_site_symmetry_multiplicity
 _atom_site_fract_x
 _atom_site_fract_y
 _atom_site_fract_z
 _atom_site_occupancy
  Sr  Sr0  1  0.00000000  0.00000000  0.64372886  1
  Sr  Sr1  1  -0.00000000  -0.00000000  0.35239843  1
  Sr  Sr2  1  0.50000000  0.50000000  0.85719195  1
  Ca  Ca3  1  0.50000000  0.50000000  0.14168676  1
  Mn  Mn4  1  0.00000000  0.00000000  0.00304461  1
  Mn  Mn5  1  0.50000000  0.50000000  0.49755279  1
  O  O6  1  0.50000000  0.50000000  0.33660917  1
  O  O7  1  -0.00000000  0.00000000  0.84432642  1
  O  O8  1  0.00000000  0.00000000  0.15789226  1
  O  O9  1  0.50000000  0.50000000  0.65674265  1
  O  O10  1  0.50000000  0.00000000  0.00556412  1
  O  O11  1  0.00000000  0.50000000  0.49884894  1
  O  O12  1  -0.00000000  0.50000000  0.00556412  1
  O  O13  1  0.50000000  -0.00000000  0.49884894  1
