# generated using pymatgen
data_SrLa3Cr4O12
_symmetry_space_group_name_H-M   'P 1'
_cell_length_a   5.54052667
_cell_length_b   7.80374520
_cell_length_c   5.60191787
_cell_angle_alpha   90.00000043
_cell_angle_beta   89.99999440
_cell_angle_gamma   90.95950806
_symmetry_Int_Tables_number   1
_chemical_formula_structural   SrLa3Cr4O12
_chemical_formula_sum   'Sr1 La3 Cr4 O12'
_cell_volume   242.17536733
_cell_formula_units_Z   1
loop_
 _symmetry_equiv_pos_site_id
 _symmetry_equiv_pos_as_xyz
  1  'x, y, z'
loop_
 _atom_site_type_symbol
 _atom_site_label
 _atom_site_symmetry_multiplicity
 _atom_site_fract_x
 _atom_site_fract_y
 _atom_site_fract_z
 _atom_site_occupancy
  Sr  Sr0  1  0.50000000  0.25000000  0.00334908  1
  La  La1  1  1.00000000  0.75000000  0.49699425  1
  La  La2  1  0.50000000  0.75000000  0.99896767  1
  La  La3  1  0.00000000  0.25000000  0.49857697  1
  Cr  Cr4  1  -0.00019271  0.49897624  0.99999907  1
  Cr  Cr5  1  0.50054032  0.00155801  0.49991413  1
  Cr  Cr6  1  0.00019271  0.00102376  0.99999907  1
  Cr  Cr7  1  0.49945968  0.49844199  0.49991413  1
  O  O8  1  0.21925233  0.53340292  0.71764226  1
  O  O9  1  0.72403685  0.02283604  0.22457079  1
  O  O10  1  0.27596315  0.47716396  0.22457079  1
  O  O11  1  0.78074767  0.96659708  0.71764226  1
  O  O12  1  0.00000000  0.75000000  0.06054430  1
  O  O13  1  0.50000000  0.25000000  0.55361673  1
  O  O14  1  0.72085492  0.53819379  0.77791033  1
  O  O15  1  0.21298125  0.02629473  0.28896590  1
  O  O16  1  1.00000000  0.25000000  0.93220164  1
  O  O17  1  0.50000000  0.75000000  0.43774441  1
  O  O18  1  0.78701875  0.47370527  0.28896590  1
  O  O19  1  0.27914508  0.96180621  0.77791033  1
