# generated using pymatgen
data_SrLa2Mn2O7
_symmetry_space_group_name_H-M   'P 1'
_cell_length_a   3.94460637
_cell_length_b   3.94460637
_cell_length_c   10.62726707
_cell_angle_alpha   79.30452946
_cell_angle_beta   79.30452946
_cell_angle_gamma   90.00000000
_symmetry_Int_Tables_number   1
_chemical_formula_structural   SrLa2Mn2O7
_chemical_formula_sum   'Sr1 La2 Mn2 O7'
_cell_volume   159.56228554
_cell_formula_units_Z   1
loop_
 _symmetry_equiv_pos_site_id
 _symmetry_equiv_pos_as_xyz
  1  'x, y, z'
loop_
 _atom_site_type_symbol
 _atom_site_label
 _atom_site_symmetry_multiplicity
 _atom_site_fract_x
 _atom_site_fract_y
 _atom_site_fract_z
 _atom_site_occupancy
  Sr  Sr0  1  0.31694813  0.31694813  0.36610373  1
  La  La1  1  0.49590282  0.49590282  0.00819437  1
  La  La2  1  0.68226848  0.68226848  0.63546304  1
  Mn  Mn3  1  0.09788431  0.09788431  0.80423138  1
  Mn  Mn4  1  0.90125317  0.90125317  0.19749365  1
  O  O5  1  0.59767237  0.09767237  0.80465527  1
  O  O6  1  0.09767237  0.59767237  0.80465527  1
  O  O7  1  0.40830663  0.90830663  0.18338673  1
  O  O8  1  0.90830663  0.40830663  0.18338673  1
  O  O9  1  0.19704258  0.19704258  0.60591485  1
  O  O10  1  0.79326224  0.79326224  0.41347552  1
  O  O11  1  0.00348027  0.00348027  0.99303946  1
