# generated using pymatgen
data_SrCaTiMnO6
_symmetry_space_group_name_H-M   'P 1'
_cell_length_a   5.46072874
_cell_length_b   5.47945325
_cell_length_c   7.72599504
_cell_angle_alpha   90.01280770
_cell_angle_beta   90.00000000
_cell_angle_gamma   90.00000000
_symmetry_Int_Tables_number   1
_chemical_formula_structural   SrCaTiMnO6
_chemical_formula_sum   'Sr2 Ca2 Ti2 Mn2 O12'
_cell_volume   231.17573332
_cell_formula_units_Z   2
loop_
 _symmetry_equiv_pos_site_id
 _symmetry_equiv_pos_as_xyz
  1  'x, y, z'
loop_
 _atom_site_type_symbol
 _atom_site_label
 _atom_site_symmetry_multiplicity
 _atom_site_fract_x
 _atom_site_fract_y
 _atom_site_fract_z
 _atom_site_occupancy
  Sr  Sr0  1  0.99389599  0.50175841  0.74973587  1
  Sr  Sr1  1  0.49389599  0.99824159  0.75026413  1
  Ca  Ca2  1  0.00110245  0.50065864  0.25018964  1
  Ca  Ca3  1  0.50110245  0.99934136  0.24981036  1
  Ti  Ti4  1  0.49906434  0.50157996  0.00465501  1
  Ti  Ti5  1  0.99906434  0.99842004  0.49534499  1
  Mn  Mn6  1  0.49975785  0.50056653  0.49670905  1
  Mn  Mn7  1  0.99975785  0.99943347  0.00329095  1
  O  O8  1  0.50120811  0.46448992  0.74745565  1
  O  O9  1  0.00120811  0.03551008  0.75254435  1
  O  O10  1  0.49947011  0.55024114  0.25284976  1
  O  O11  1  0.99947011  0.94975886  0.24715024  1
  O  O12  1  0.23291248  0.73696824  0.98455947  1
  O  O13  1  0.73291248  0.76303176  0.51544053  1
  O  O14  1  0.76491252  0.26948843  0.47207007  1
  O  O15  1  0.26491252  0.23051157  0.02792993  1
  O  O16  1  0.76981596  0.26309264  0.02848411  1
  O  O17  1  0.26981596  0.23690736  0.47151589  1
  O  O18  1  0.23786020  0.73208152  0.51497654  1
  O  O19  1  0.73786020  0.76791848  0.98502346  1
