# generated using pymatgen
data_SrSm2BeO5
_symmetry_space_group_name_H-M   'P 1'
_cell_length_a   6.55801966
_cell_length_b   7.20248718
_cell_length_c   9.55502995
_cell_angle_alpha   90.00000000
_cell_angle_beta   90.00000000
_cell_angle_gamma   90.00000000
_symmetry_Int_Tables_number   1
_chemical_formula_structural   SrSm2BeO5
_chemical_formula_sum   'Sr4 Sm8 Be4 O20'
_cell_volume   451.32278656
_cell_formula_units_Z   4
loop_
 _symmetry_equiv_pos_site_id
 _symmetry_equiv_pos_as_xyz
  1  'x, y, z'
loop_
 _atom_site_type_symbol
 _atom_site_label
 _atom_site_symmetry_multiplicity
 _atom_site_fract_x
 _atom_site_fract_y
 _atom_site_fract_z
 _atom_site_occupancy
  Sr  Sr0  1  0.58337043  0.98148845  0.67504033  1
  Sr  Sr1  1  0.41662957  0.48148845  0.32495967  1
  Sr  Sr2  1  0.08337043  0.48148845  0.82495967  1
  Sr  Sr3  1  0.91662957  0.98148845  0.17504033  1
  Sm  Sm4  1  0.09500738  0.74628686  0.52193492  1
  Sm  Sm5  1  0.40499262  0.74628686  0.02193492  1
  Sm  Sm6  1  0.90499262  0.24628686  0.47806508  1
  Sm  Sm7  1  0.59500738  0.24628686  0.97806508  1
  Sm  Sm8  1  0.92720468  0.52647440  0.17327757  1
  Sm  Sm9  1  0.07279532  0.02647440  0.82672243  1
  Sm  Sm10  1  0.42720468  0.02647440  0.32672243  1
  Sm  Sm11  1  0.57279532  0.52647440  0.67327757  1
  Be  Be12  1  0.69274664  0.74909431  0.39896986  1
  Be  Be13  1  0.80725336  0.74909431  0.89896986  1
  Be  Be14  1  0.30725336  0.24909431  0.60103014  1
  Be  Be15  1  0.19274664  0.24909431  0.10103014  1
  O  O16  1  0.02053974  0.75007508  0.99024029  1
  O  O17  1  0.47946026  0.75007508  0.49024029  1
  O  O18  1  0.97946026  0.25007508  0.00975971  1
  O  O19  1  0.52053974  0.25007508  0.50975971  1
  O  O20  1  0.16204771  0.74682805  0.27899685  1
  O  O21  1  0.33795229  0.74682805  0.77899685  1
  O  O22  1  0.83795229  0.24682805  0.72100315  1
  O  O23  1  0.66204771  0.24682805  0.22100315  1
  O  O24  1  0.63403047  0.75004579  0.22486166  1
  O  O25  1  0.86596953  0.75004579  0.72486166  1
  O  O26  1  0.36596953  0.25004579  0.77513834  1
  O  O27  1  0.13403047  0.25004579  0.27513834  1
  O  O28  1  0.31637143  0.05691852  0.07088320  1
  O  O29  1  0.19474544  0.44278853  0.56742001  1
  O  O30  1  0.68362857  0.55691852  0.92911680  1
  O  O31  1  0.80525456  0.94278853  0.43257999  1
  O  O32  1  0.69474544  0.94278853  0.93257999  1
  O  O33  1  0.81637143  0.55691852  0.42911680  1
  O  O34  1  0.30525456  0.44278853  0.06742001  1
  O  O35  1  0.18362857  0.05691852  0.57088320  1
