# generated using pymatgen
data_SrHoMn2O6
_symmetry_space_group_name_H-M   'P 1'
_cell_length_a   5.44771797
_cell_length_b   5.57790886
_cell_length_c   7.66150242
_cell_angle_alpha   90.00000000
_cell_angle_beta   90.00000000
_cell_angle_gamma   90.00000000
_symmetry_Int_Tables_number   1
_chemical_formula_structural   SrHoMn2O6
_chemical_formula_sum   'Sr2 Ho2 Mn4 O12'
_cell_volume   232.80911123
_cell_formula_units_Z   2
loop_
 _symmetry_equiv_pos_site_id
 _symmetry_equiv_pos_as_xyz
  1  'x, y, z'
loop_
 _atom_site_type_symbol
 _atom_site_label
 _atom_site_symmetry_multiplicity
 _atom_site_fract_x
 _atom_site_fract_y
 _atom_site_fract_z
 _atom_site_occupancy
  Sr  Sr0  1  0.50355764  0.52767011  0.25000000  1
  Sr  Sr1  1  0.00355764  0.97232989  0.75000000  1
  Ho  Ho2  1  0.98316413  0.06157817  0.25000000  1
  Ho  Ho3  1  0.48316413  0.43842183  0.75000000  1
  Mn  Mn4  1  0.99959577  0.50633401  0.99906866  1
  Mn  Mn5  1  0.49959577  0.99366599  0.49906866  1
  Mn  Mn6  1  0.99959577  0.50633401  0.50093134  1
  Mn  Mn7  1  0.49959577  0.99366599  0.00093134  1
  O  O8  1  0.22588612  0.22788082  0.96371677  1
  O  O9  1  0.30348040  0.69936493  0.54935581  1
  O  O10  1  0.80348040  0.80063507  0.45064419  1
  O  O11  1  0.72588612  0.27211918  0.03628323  1
  O  O12  1  0.80348040  0.80063507  0.04935581  1
  O  O13  1  0.72588612  0.27211918  0.46371677  1
  O  O14  1  0.22588612  0.22788082  0.53628323  1
  O  O15  1  0.30348040  0.69936493  0.95064419  1
  O  O16  1  0.05735787  0.46793213  0.25000000  1
  O  O17  1  0.39799579  0.98638944  0.25000000  1
  O  O18  1  0.89799579  0.51361056  0.75000000  1
  O  O19  1  0.55735787  0.03206787  0.75000000  1
