# generated using pymatgen
data_SrBi3Cl3O4
_symmetry_space_group_name_H-M   'P 1'
_cell_length_a   3.97740826
_cell_length_b   3.97740826
_cell_length_c   14.11529749
_cell_angle_alpha   81.90065058
_cell_angle_beta   81.90065058
_cell_angle_gamma   90.00000000
_symmetry_Int_Tables_number   1
_chemical_formula_structural   SrBi3Cl3O4
_chemical_formula_sum   'Sr1 Bi3 Cl3 O4'
_cell_volume   218.82344332
_cell_formula_units_Z   1
loop_
 _symmetry_equiv_pos_site_id
 _symmetry_equiv_pos_as_xyz
  1  'x, y, z'
loop_
 _atom_site_type_symbol
 _atom_site_label
 _atom_site_symmetry_multiplicity
 _atom_site_fract_x
 _atom_site_fract_y
 _atom_site_fract_z
 _atom_site_occupancy
  Sr  Sr0  1  0.33372484  0.33372484  0.33255032  1
  Bi  Bi1  1  0.07069686  0.07069686  0.85860628  1
  Bi  Bi2  1  0.92460178  0.92460178  0.15079644  1
  Bi  Bi3  1  0.66177645  0.66177645  0.67644710  1
  Cl  Cl4  1  0.51554343  0.51554343  0.96891314  1
  Cl  Cl5  1  0.20498995  0.20498995  0.59002011  1
  Cl  Cl6  1  0.78302103  0.78302103  0.43395793  1
  O  O7  1  0.61408334  0.11408334  0.77183333  1
  O  O8  1  0.11408334  0.61408334  0.77183333  1
  O  O9  1  0.38873949  0.88873949  0.22252101  1
  O  O10  1  0.88873949  0.38873949  0.22252101  1
