# generated using pymatgen
data_Sr3DyMn2O8
_symmetry_space_group_name_H-M   'P 1'
_cell_length_a   5.49862840
_cell_length_b   5.52577812
_cell_length_c   6.71531715
_cell_angle_alpha   90.00000000
_cell_angle_beta   65.83226461
_cell_angle_gamma   90.00000000
_symmetry_Int_Tables_number   1
_chemical_formula_structural   Sr3DyMn2O8
_chemical_formula_sum   'Sr3 Dy1 Mn2 O8'
_cell_volume   186.15564194
_cell_formula_units_Z   1
loop_
 _symmetry_equiv_pos_site_id
 _symmetry_equiv_pos_as_xyz
  1  'x, y, z'
loop_
 _atom_site_type_symbol
 _atom_site_label
 _atom_site_symmetry_multiplicity
 _atom_site_fract_x
 _atom_site_fract_y
 _atom_site_fract_z
 _atom_site_occupancy
  Sr  Sr0  1  0.35525483  0.00000000  0.28949035  1
  Sr  Sr1  1  0.64355635  0.00000000  0.71288730  1
  Sr  Sr2  1  0.14576373  0.50000000  0.70847253  1
  Dy  Dy3  1  0.86631000  0.50000000  0.26738001  1
  Mn  Mn4  1  0.49993117  0.50000000  0.00013765  1
  Mn  Mn5  1  0.99967729  0.00000000  0.00064543  1
  O  O6  1  0.23749616  0.26119136  0.01261161  1
  O  O7  1  0.74989223  0.73880864  0.01261161  1
  O  O8  1  0.74989223  0.26119136  0.01261161  1
  O  O9  1  0.23749616  0.73880864  0.01261161  1
  O  O10  1  0.15711774  0.00000000  0.68576452  1
  O  O11  1  0.67789616  0.50000000  0.64420768  1
  O  O12  1  0.34071129  0.50000000  0.31857743  1
  O  O13  1  0.83900468  0.00000000  0.32199065  1
