# generated using pymatgen
data_Cr3N2
_symmetry_space_group_name_H-M   'P 1'
_cell_length_a   7.92175220
_cell_length_b   7.92175220
_cell_length_c   7.92175220
_cell_angle_alpha   109.47122093
_cell_angle_beta   109.47122049
_cell_angle_gamma   109.47122049
_symmetry_Int_Tables_number   1
_chemical_formula_structural   Cr3N2
_chemical_formula_sum   'Cr24 N16'
_cell_volume   382.68537839
_cell_formula_units_Z   8
loop_
 _symmetry_equiv_pos_site_id
 _symmetry_equiv_pos_as_xyz
  1  'x, y, z'
loop_
 _atom_site_type_symbol
 _atom_site_label
 _atom_site_symmetry_multiplicity
 _atom_site_fract_x
 _atom_site_fract_y
 _atom_site_fract_z
 _atom_site_occupancy
  Cr  Cr0  1  0.77596640  0.72343478  0.73123001  1
  Cr  Cr1  1  0.50779523  0.77656522  0.05253162  1
  Cr  Cr2  1  0.72403360  0.95526361  0.44746838  1
  Cr  Cr3  1  0.99220477  0.54473639  0.76876999  1
  Cr  Cr4  1  0.95526361  0.94746838  0.22403360  1
  Cr  Cr5  1  0.54473639  0.26876999  0.49220477  1
  Cr  Cr6  1  0.72343478  0.23123001  0.27596640  1
  Cr  Cr7  1  0.77656522  0.55253162  0.00779523  1
  Cr  Cr8  1  0.26876999  0.99220477  0.04473639  1
  Cr  Cr9  1  0.94746838  0.72403360  0.45526361  1
  Cr  Cr10  1  0.55253162  0.50779523  0.27656522  1
  Cr  Cr11  1  0.23123001  0.77596640  0.22343478  1
  Cr  Cr12  1  0.22403360  0.27656522  0.26876999  1
  Cr  Cr13  1  0.49220477  0.22343478  0.94746838  1
  Cr  Cr14  1  0.27596640  0.04473639  0.55253162  1
  Cr  Cr15  1  0.00779523  0.45526361  0.23123001  1
  Cr  Cr16  1  0.04473639  0.05253162  0.77596640  1
  Cr  Cr17  1  0.45526361  0.73123001  0.50779523  1
  Cr  Cr18  1  0.27656522  0.76876999  0.72403360  1
  Cr  Cr19  1  0.22343478  0.44746838  0.99220477  1
  Cr  Cr20  1  0.73123001  0.00779523  0.95526361  1
  Cr  Cr21  1  0.05253162  0.27596640  0.54473639  1
  Cr  Cr22  1  0.44746838  0.49220477  0.72343478  1
  Cr  Cr23  1  0.76876999  0.22403360  0.77656522  1
  N  N24  1  0.50000000  0.50000000  0.50000000  1
  N  N25  1  0.50000000  0.00000000  -0.00000000  1
  N  N26  1  0.00000000  0.00000000  0.50000000  1
  N  N27  1  0.00000000  0.50000000  -0.00000000  1
  N  N28  1  0.20630345  0.75000000  0.45630345  1
  N  N29  1  0.29369655  0.25000000  0.04369655  1
  N  N30  1  0.25000000  0.54369655  0.79369655  1
  N  N31  1  0.75000000  0.95630345  0.70630345  1
  N  N32  1  0.54369655  0.29369655  0.75000000  1
  N  N33  1  0.95630345  0.20630345  0.25000000  1
  N  N34  1  0.79369655  0.25000000  0.54369655  1
  N  N35  1  0.70630345  0.75000000  0.95630345  1
  N  N36  1  0.75000000  0.45630345  0.20630345  1
  N  N37  1  0.25000000  0.04369655  0.29369655  1
  N  N38  1  0.45630345  0.70630345  0.25000000  1
  N  N39  1  0.04369655  0.79369655  0.75000000  1
