# generated using pymatgen
data_Sr3Cu3Pb3ClO8
_symmetry_space_group_name_H-M   'P 1'
_cell_length_a   3.90928708
_cell_length_b   3.87042672
_cell_length_c   19.93454346
_cell_angle_alpha   90.01486175
_cell_angle_beta   89.11718594
_cell_angle_gamma   90.03015972
_symmetry_Int_Tables_number   1
_chemical_formula_structural   Sr3Cu3Pb3ClO8
_chemical_formula_sum   'Sr3 Cu3 Pb3 Cl1 O8'
_cell_volume   301.58593186
_cell_formula_units_Z   1
loop_
 _symmetry_equiv_pos_site_id
 _symmetry_equiv_pos_as_xyz
  1  'x, y, z'
loop_
 _atom_site_type_symbol
 _atom_site_label
 _atom_site_symmetry_multiplicity
 _atom_site_fract_x
 _atom_site_fract_y
 _atom_site_fract_z
 _atom_site_occupancy
  Sr  Sr0  1  0.51745078  0.49972975  0.71895923  1
  Sr  Sr1  1  0.48424310  0.50031449  0.27384608  1
  Sr  Sr2  1  0.50185375  0.50002326  0.09751544  1
  Cu  Cu3  1  0.00458945  -0.00006840  0.81292146  1
  Cu  Cu4  1  0.99512140  0.00011607  0.18515254  1
  Cu  Cu5  1  0.49777580  0.49996234  0.50009813  1
  Pb  Pb6  1  0.00090910  0.99937591  0.58651520  1
  Pb  Pb7  1  0.99780704  0.00045213  0.40952412  1
  Pb  Pb8  1  0.49573009  0.50011619  0.89669658  1
  Cl  Cl9  1  0.00437522  0.00000075  0.01765829  1
  O  O10  1  0.00275087  0.49997482  0.82653423  1
  O  O11  1  0.49569143  0.00008902  0.17650276  1
  O  O12  1  0.99659451  0.50010550  0.17516548  1
  O  O13  1  0.50382678  0.00001392  0.82459303  1
  O  O14  1  0.02456221  0.99955420  0.69692687  1
  O  O15  1  0.98046077  0.00038430  0.30076282  1
  O  O16  1  0.60070410  0.49884870  0.59156113  1
  O  O17  1  0.39555361  0.50100704  0.40906662  1
