# generated using pymatgen
data_Sr3La(CuO2)4
_symmetry_space_group_name_H-M   'P 1'
_cell_length_a   3.66665202
_cell_length_b   11.05781456
_cell_length_c   11.14437166
_cell_angle_alpha   90.00000000
_cell_angle_beta   90.00000000
_cell_angle_gamma   90.00000000
_symmetry_Int_Tables_number   1
_chemical_formula_structural   Sr3La(CuO2)4
_chemical_formula_sum   'Sr6 La2 Cu8 O16'
_cell_volume   451.85031080
_cell_formula_units_Z   2
loop_
 _symmetry_equiv_pos_site_id
 _symmetry_equiv_pos_as_xyz
  1  'x, y, z'
loop_
 _atom_site_type_symbol
 _atom_site_label
 _atom_site_symmetry_multiplicity
 _atom_site_fract_x
 _atom_site_fract_y
 _atom_site_fract_z
 _atom_site_occupancy
  Sr  Sr0  1  0.50000000  0.46827949  0.25931989  1
  Sr  Sr1  1  0.50000000  0.03172051  0.75931989  1
  Sr  Sr2  1  0.50000000  0.73847226  0.46772104  1
  Sr  Sr3  1  0.50000000  0.25628672  0.53085026  1
  Sr  Sr4  1  0.50000000  0.24371328  0.03085026  1
  Sr  Sr5  1  0.50000000  0.76152774  0.96772104  1
  La  La6  1  0.50000000  0.53199969  0.73887700  1
  La  La7  1  0.50000000  0.96800031  0.23887700  1
  Cu  Cu8  1  -0.00000000  0.28465699  0.78699469  1
  Cu  Cu9  1  -0.00000000  0.71187388  0.21642630  1
  Cu  Cu10  1  0.00000000  0.21534301  0.28699469  1
  Cu  Cu11  1  -0.00000000  0.78812612  0.71642630  1
  Cu  Cu12  1  -0.00000000  0.49777282  0.49848133  1
  Cu  Cu13  1  0.00000000  0.00222718  0.99848133  1
  Cu  Cu14  1  0.00000000  0.00271545  0.49810884  1
  Cu  Cu15  1  -0.00000000  0.49728455  0.99810884  1
  O  O16  1  0.00000000  0.11517436  0.61630863  1
  O  O17  1  0.00000000  0.89263328  0.37476528  1
  O  O18  1  0.00000000  0.38482564  0.11630863  1
  O  O19  1  -0.00000000  0.60736672  0.87476528  1
  O  O20  1  0.50000000  0.31425065  0.80111329  1
  O  O21  1  0.50000000  0.70568828  0.19853253  1
  O  O22  1  0.50000000  0.18574935  0.30111329  1
  O  O23  1  0.50000000  0.79431172  0.69853253  1
  O  O24  1  0.00000000  0.63504740  0.60714313  1
  O  O25  1  0.00000000  0.35759772  0.39830106  1
  O  O26  1  0.00000000  0.86495260  0.10714313  1
  O  O27  1  -0.00000000  0.14240228  0.89830106  1
  O  O28  1  0.00000000  0.60507386  0.36179004  1
  O  O29  1  0.00000000  0.40325086  0.64526668  1
  O  O30  1  0.00000000  0.09674914  0.14526668  1
  O  O31  1  0.00000000  0.89492614  0.86179004  1
