# generated using pymatgen
data_Sr6Ce2Y4Fe3(CuO8)3
_symmetry_space_group_name_H-M   'P 1'
_cell_length_a   5.46253481
_cell_length_b   8.63788507
_cell_length_c   13.21954209
_cell_angle_alpha   97.48488415
_cell_angle_beta   78.07633510
_cell_angle_gamma   71.56695080
_symmetry_Int_Tables_number   1
_chemical_formula_structural   Sr6Ce2Y4Fe3(CuO8)3
_chemical_formula_sum   'Sr6 Ce2 Y4 Fe3 Cu3 O24'
_cell_volume   565.98992878
_cell_formula_units_Z   1
loop_
 _symmetry_equiv_pos_site_id
 _symmetry_equiv_pos_as_xyz
  1  'x, y, z'
loop_
 _atom_site_type_symbol
 _atom_site_label
 _atom_site_symmetry_multiplicity
 _atom_site_fract_x
 _atom_site_fract_y
 _atom_site_fract_z
 _atom_site_occupancy
  Sr  Sr0  1  0.73086463  0.64589763  0.39237210  1
  Sr  Sr1  1  0.41271252  0.28236067  0.39221429  1
  Sr  Sr2  1  0.07382389  0.96307088  0.38928235  1
  Sr  Sr3  1  0.10194332  0.68645966  0.60965371  1
  Sr  Sr4  1  0.75204645  0.38605839  0.60984970  1
  Sr  Sr5  1  0.42739501  0.03670436  0.60850463  1
  Ce  Ce6  1  0.56578742  0.46491435  0.90350981  1
  Ce  Ce7  1  0.89642574  0.80354046  0.90360905  1
  Y  Y8  1  0.26553996  0.86891771  0.10000238  1
  Y  Y9  1  0.60205178  0.19748128  0.09841415  1
  Y  Y10  1  0.93386862  0.53289002  0.09937375  1
  Y  Y11  1  0.23159792  0.13458946  0.90221469  1
  Fe  Fe12  1  0.99348185  0.25352633  0.25950997  1
  Fe  Fe13  1  0.32735601  0.58614971  0.25913728  1
  Fe  Fe14  1  0.84176078  0.07872384  0.73775360  1
  Cu  Cu15  1  0.66727367  0.91624448  0.24920919  1
  Cu  Cu16  1  0.16630876  0.41597608  0.75140741  1
  Cu  Cu17  1  0.49817395  0.75217220  0.75147989  1
  O  O18  1  0.22587153  0.63908272  0.40917421  1
  O  O19  1  0.89492194  0.30062386  0.40953325  1
  O  O20  1  0.55693583  0.97139602  0.41473132  1
  O  O21  1  0.61208046  0.69325790  0.58258018  1
  O  O22  1  0.27781402  0.36203996  0.58233200  1
  O  O23  1  0.94078911  0.02972293  0.58869984  1
  O  O24  1  0.83049383  0.33493796  0.99961460  1
  O  O25  1  0.50345807  0.99798081  0.99920785  1
  O  O26  1  0.16732999  0.66649201  0.99936858  1
  O  O27  1  0.66681042  0.66649201  0.99936858  1
  O  O28  1  0.33495261  0.33493796  0.99961460  1
  O  O29  1  0.99935327  0.99798081  0.99920785  1
  O  O30  1  0.68449846  0.40789140  0.22351809  1
  O  O31  1  0.34554356  0.07723889  0.22524349  1
  O  O32  1  0.02074334  0.73923244  0.22498330  1
  O  O33  1  0.14638173  0.92761796  0.77544350  1
  O  O34  1  0.81667201  0.59165621  0.77453027  1
  O  O35  1  0.48642914  0.25605188  0.77581594  1
  O  O36  1  0.31714151  0.59165621  0.77453027  1
  O  O37  1  0.98170404  0.25605188  0.77581594  1
  O  O38  1  0.65055581  0.92761796  0.77544350  1
  O  O39  1  0.51503992  0.73923244  0.22498330  1
  O  O40  1  0.18409205  0.40789140  0.22351809  1
  O  O41  1  0.85197506  0.07723889  0.22524349  1
