# generated using pymatgen
data_SrCa2Sc6O12
_symmetry_space_group_name_H-M   'P 1'
_cell_length_a   3.19223439
_cell_length_b   9.70903292
_cell_length_c   9.70897863
_cell_angle_alpha   120.00052227
_cell_angle_beta   90.00017600
_cell_angle_gamma   89.99978616
_symmetry_Int_Tables_number   1
_chemical_formula_structural   SrCa2Sc6O12
_chemical_formula_sum   'Sr1 Ca2 Sc6 O12'
_cell_volume   260.59893511
_cell_formula_units_Z   1
loop_
 _symmetry_equiv_pos_site_id
 _symmetry_equiv_pos_as_xyz
  1  'x, y, z'
loop_
 _atom_site_type_symbol
 _atom_site_label
 _atom_site_symmetry_multiplicity
 _atom_site_fract_x
 _atom_site_fract_y
 _atom_site_fract_z
 _atom_site_occupancy
  Sr  Sr0  1  0.50000000  -0.00000000  -0.00000000  1
  Ca  Ca1  1  0.74903157  0.66665599  0.33331988  1
  Ca  Ca2  1  0.25096843  0.33334401  0.66668012  1
  Sc  Sc3  1  0.75524320  0.35019632  0.00181114  1
  Sc  Sc4  1  0.75526295  0.99819337  0.34839597  1
  Sc  Sc5  1  0.75525703  0.65161036  0.64979870  1
  Sc  Sc6  1  0.24475680  0.64980368  0.99818886  1
  Sc  Sc7  1  0.24473705  0.00180663  0.65160403  1
  Sc  Sc8  1  0.24474297  0.34838964  0.35020130  1
  O  O9  1  0.75005528  0.12774009  0.60223015  1
  O  O10  1  0.75005739  0.39777541  0.52550873  1
  O  O11  1  0.75005619  0.47448797  0.87226171  1
  O  O12  1  0.24994472  0.87225991  0.39776985  1
  O  O13  1  0.24994261  0.60222459  0.47449127  1
  O  O14  1  0.24994381  0.52551203  0.12773829  1
  O  O15  1  0.74644793  0.89272751  0.70167314  1
  O  O16  1  0.74645637  0.29831202  0.19104186  1
  O  O17  1  0.74645912  0.80894849  0.10726573  1
  O  O18  1  0.25355207  0.10727249  0.29832686  1
  O  O19  1  0.25354363  0.70168798  0.80895814  1
  O  O20  1  0.25354088  0.19105151  0.89273427  1
