# generated using pymatgen
data_Sr8Ca3NdTl2Cu8(PbO14)2
_symmetry_space_group_name_H-M   'P 1'
_cell_length_a   7.61895522
_cell_length_b   7.61895522
_cell_length_c   13.39861189
_cell_angle_alpha   73.47816057
_cell_angle_beta   73.47816057
_cell_angle_gamma   89.98751172
_symmetry_Int_Tables_number   1
_chemical_formula_structural   Sr8Ca3NdTl2Cu8(PbO14)2
_chemical_formula_sum   'Sr8 Ca3 Nd1 Tl2 Cu8 Pb2 O28'
_cell_volume   712.11130017
_cell_formula_units_Z   1
loop_
 _symmetry_equiv_pos_site_id
 _symmetry_equiv_pos_as_xyz
  1  'x, y, z'
loop_
 _atom_site_type_symbol
 _atom_site_label
 _atom_site_symmetry_multiplicity
 _atom_site_fract_x
 _atom_site_fract_y
 _atom_site_fract_z
 _atom_site_occupancy
  Sr  Sr0  1  0.89267753  0.89267753  0.71464494  1
  Sr  Sr1  1  0.39266732  0.89266732  0.71466535  1
  Sr  Sr2  1  0.89266732  0.39266732  0.71466535  1
  Sr  Sr3  1  0.39468975  0.39468975  0.71062051  1
  Sr  Sr4  1  0.10531025  0.10531025  0.28937949  1
  Sr  Sr5  1  0.60733268  0.10733268  0.28533465  1
  Sr  Sr6  1  0.10733268  0.60733268  0.28533465  1
  Sr  Sr7  1  0.60732247  0.60732247  0.28535506  1
  Ca  Ca8  1  0.25000000  0.75000000  0.00000000  1
  Ca  Ca9  1  0.75000000  0.25000000  0.00000000  1
  Ca  Ca10  1  0.75000000  0.75000000  0.00000000  1
  Nd  Nd11  1  0.25000000  0.25000000  0.00000000  1
  Tl  Tl12  1  0.75000000  0.75000000  0.50000000  1
  Tl  Tl13  1  0.25000000  0.25000000  0.50000000  1
  Cu  Cu14  1  0.57097038  0.06770120  0.86132842  1
  Cu  Cu15  1  0.06716498  0.06716498  0.86234281  1
  Cu  Cu16  1  0.57049222  0.57049222  0.86234281  1
  Cu  Cu17  1  0.06770120  0.57097038  0.86132842  1
  Cu  Cu18  1  0.92902962  0.43229880  0.13867158  1
  Cu  Cu19  1  0.43283502  0.43283502  0.13765719  1
  Cu  Cu20  1  0.92950778  0.92950778  0.13765719  1
  Cu  Cu21  1  0.43229880  0.92902962  0.13867158  1
  Pb  Pb22  1  0.25000000  0.75000000  0.50000000  1
  Pb  Pb23  1  0.75000000  0.25000000  0.50000000  1
  O  O24  1  0.66209051  0.16314406  0.67476543  1
  O  O25  1  0.16541244  0.16541244  0.67084875  1
  O  O26  1  0.66373881  0.66373881  0.67084875  1
  O  O27  1  0.16314406  0.66209051  0.67476543  1
  O  O28  1  0.83790949  0.33685594  0.32523457  1
  O  O29  1  0.33458756  0.33458756  0.32915125  1
  O  O30  1  0.83626119  0.83626119  0.32915125  1
  O  O31  1  0.33685594  0.83790949  0.32523457  1
  O  O32  1  0.99977623  0.99977623  0.50044755  1
  O  O33  1  0.50000000  -0.00000000  0.50000000  1
  O  O34  1  -0.00000000  0.50000000  0.50000000  1
  O  O35  1  0.50022377  0.50022377  0.49955245  1
  O  O36  1  0.81437654  0.06558959  0.87133700  1
  O  O37  1  0.31351166  0.06466457  0.87281901  1
  O  O38  1  0.81428646  0.56307341  0.87133700  1
  O  O39  1  0.31366933  0.56251643  0.87281901  1
  O  O40  1  0.56307341  0.81428646  0.87133700  1
  O  O41  1  0.06558959  0.81437654  0.87133700  1
  O  O42  1  0.56251643  0.31366933  0.87281901  1
  O  O43  1  0.06466457  0.31351166  0.87281901  1
  O  O44  1  0.18648834  0.43533543  0.12718099  1
  O  O45  1  0.68562346  0.43441041  0.12866300  1
  O  O46  1  0.18633067  0.93748357  0.12718099  1
  O  O47  1  0.68571354  0.93692659  0.12866300  1
  O  O48  1  0.93748357  0.18633067  0.12718099  1
  O  O49  1  0.43533543  0.18648834  0.12718099  1
  O  O50  1  0.93692659  0.68571354  0.12866300  1
  O  O51  1  0.43441041  0.68562346  0.12866300  1
