# generated using pymatgen
data_Sr2YCu3(PbO4)2
_symmetry_space_group_name_H-M   'P 1'
_cell_length_a   3.83424806
_cell_length_b   3.86303638
_cell_length_c   15.97075843
_cell_angle_alpha   91.33129775
_cell_angle_beta   89.76851619
_cell_angle_gamma   90.09059980
_symmetry_Int_Tables_number   1
_chemical_formula_structural   Sr2YCu3(PbO4)2
_chemical_formula_sum   'Sr2 Y1 Cu3 Pb2 O8'
_cell_volume   236.49026822
_cell_formula_units_Z   1
loop_
 _symmetry_equiv_pos_site_id
 _symmetry_equiv_pos_as_xyz
  1  'x, y, z'
loop_
 _atom_site_type_symbol
 _atom_site_label
 _atom_site_symmetry_multiplicity
 _atom_site_fract_x
 _atom_site_fract_y
 _atom_site_fract_z
 _atom_site_occupancy
  Sr  Sr0  1  0.00199025  0.99048854  0.77870505  1
  Sr  Sr1  1  0.99800975  0.00951146  0.22129495  1
  Y  Y2  1  -0.00000000  0.00000000  0.00000000  1
  Cu  Cu3  1  0.50030836  0.49841023  0.89559411  1
  Cu  Cu4  1  0.49969164  0.50158977  0.10440589  1
  Cu  Cu5  1  -0.00000000  0.00000000  0.50000000  1
  Pb  Pb6  1  0.50431648  0.49597221  0.61105981  1
  Pb  Pb7  1  0.49568352  0.50402779  0.38894019  1
  O  O8  1  0.50222365  0.48837934  0.74850773  1
  O  O9  1  0.49777635  0.51162066  0.25149227  1
  O  O10  1  0.00008115  0.49734765  0.90832995  1
  O  O11  1  0.49953804  0.00018238  0.09228835  1
  O  O12  1  -0.00008115  0.50265235  0.09167005  1
  O  O13  1  0.50046196  -0.00018238  0.90771165  1
  O  O14  1  0.01287931  0.89955989  0.61437707  1
  O  O15  1  0.98712069  0.10044011  0.38562293  1
