# generated using pymatgen
data_Sr4NdMn5O15
_symmetry_space_group_name_H-M   'P 1'
_cell_length_a   5.48473664
_cell_length_b   6.71408804
_cell_length_c   8.68600604
_cell_angle_alpha   105.09865530
_cell_angle_beta   108.36206735
_cell_angle_gamma   89.87558743
_symmetry_Int_Tables_number   1
_chemical_formula_structural   Sr4NdMn5O15
_chemical_formula_sum   'Sr4 Nd1 Mn5 O15'
_cell_volume   291.98055293
_cell_formula_units_Z   1
loop_
 _symmetry_equiv_pos_site_id
 _symmetry_equiv_pos_as_xyz
  1  'x, y, z'
loop_
 _atom_site_type_symbol
 _atom_site_label
 _atom_site_symmetry_multiplicity
 _atom_site_fract_x
 _atom_site_fract_y
 _atom_site_fract_z
 _atom_site_occupancy
  Sr  Sr0  1  0.00054135  0.49962533  0.00109174  1
  Sr  Sr1  1  0.59971252  0.89946111  0.19955181  1
  Sr  Sr2  1  0.20028748  0.30053889  0.40044819  1
  Sr  Sr3  1  0.79945865  0.70037467  0.59890826  1
  Nd  Nd4  1  0.40000000  0.10000000  0.80000000  1
  Mn  Mn5  1  0.40000000  0.60000000  0.80000000  1
  Mn  Mn6  1  0.19935805  0.79906064  0.39924823  1
  Mn  Mn7  1  0.79938066  0.19973631  0.59878907  1
  Mn  Mn8  1  0.00061934  0.00026369  0.00121093  1
  Mn  Mn9  1  0.60064195  0.40093936  0.20075177  1
  O  O10  1  0.69255072  0.80737392  0.89715089  1
  O  O11  1  0.49926943  0.00188298  0.51133443  1
  O  O12  1  0.10744928  0.39262608  0.70284911  1
  O  O13  1  0.30073057  0.19811702  0.08866557  1
  O  O14  1  0.90000000  0.60000000  0.30000000  1
  O  O15  1  0.69875022  0.29549436  0.39791104  1
  O  O16  1  0.49735854  0.49178376  0.99485104  1
  O  O17  1  0.10124978  0.90450564  0.20208896  1
  O  O18  1  0.30264146  0.70821624  0.60514896  1
  O  O19  1  0.90000000  0.10000000  0.80000000  1
  O  O20  1  0.59569471  0.39254865  0.70316284  1
  O  O21  1  0.40000000  0.60000000  0.30000000  1
  O  O22  1  0.01228154  0.00179597  0.51139969  1
  O  O23  1  0.20430529  0.80745135  0.89683716  1
  O  O24  1  0.78771846  0.19820403  0.08860031  1
