# generated using pymatgen
data_Sr2LaMnCoO7
_symmetry_space_group_name_H-M   'P 1'
_cell_length_a   3.88935492
_cell_length_b   3.88935492
_cell_length_c   10.45478305
_cell_angle_alpha   79.28007290
_cell_angle_beta   79.28007290
_cell_angle_gamma   90.00000000
_symmetry_Int_Tables_number   1
_chemical_formula_structural   Sr2LaMnCoO7
_chemical_formula_sum   'Sr2 La1 Mn1 Co1 O7'
_cell_volume   152.58041136
_cell_formula_units_Z   1
loop_
 _symmetry_equiv_pos_site_id
 _symmetry_equiv_pos_as_xyz
  1  'x, y, z'
loop_
 _atom_site_type_symbol
 _atom_site_label
 _atom_site_symmetry_multiplicity
 _atom_site_fract_x
 _atom_site_fract_y
 _atom_site_fract_z
 _atom_site_occupancy
  Sr  Sr0  1  0.49831318  0.49831318  0.00337363  1
  Sr  Sr1  1  0.31839080  0.31839080  0.36321840  1
  La  La2  1  0.68199772  0.68199772  0.63600456  1
  Mn  Mn3  1  0.90306769  0.90306769  0.19386462  1
  Co  Co4  1  0.09613314  0.09613314  0.80773372  1
  O  O5  1  0.60166881  0.10166881  0.79666237  1
  O  O6  1  0.10166881  0.60166881  0.79666237  1
  O  O7  1  0.40196111  0.90196111  0.19607777  1
  O  O8  1  0.90196111  0.40196111  0.19607777  1
  O  O9  1  0.19550053  0.19550053  0.60899894  1
  O  O10  1  0.80025268  0.80025268  0.39949463  1
  O  O11  1  0.99908440  0.99908440  0.00183119  1
