# generated using pymatgen
data_Sr8Fe4Co4O23
_symmetry_space_group_name_H-M   'P 1'
_cell_length_a   7.75993501
_cell_length_b   8.73249217
_cell_length_c   8.73249217
_cell_angle_alpha   101.38582937
_cell_angle_beta   116.37945404
_cell_angle_gamma   63.62054596
_symmetry_Int_Tables_number   1
_chemical_formula_structural   Sr8Fe4Co4O23
_chemical_formula_sum   'Sr8 Fe4 Co4 O23'
_cell_volume   474.92561346
_cell_formula_units_Z   1
loop_
 _symmetry_equiv_pos_site_id
 _symmetry_equiv_pos_as_xyz
  1  'x, y, z'
loop_
 _atom_site_type_symbol
 _atom_site_label
 _atom_site_symmetry_multiplicity
 _atom_site_fract_x
 _atom_site_fract_y
 _atom_site_fract_z
 _atom_site_occupancy
  Sr  Sr0  1  -0.00000000  0.25766876  0.25766876  1
  Sr  Sr1  1  0.00000000  0.74233124  0.74233124  1
  Sr  Sr2  1  0.74233124  0.25766876  0.74233124  1
  Sr  Sr3  1  0.25766876  0.74233124  0.25766876  1
  Sr  Sr4  1  0.50000000  0.25376551  0.25376551  1
  Sr  Sr5  1  0.50000000  0.74623449  0.74623449  1
  Sr  Sr6  1  0.24623449  0.25376551  0.74623449  1
  Sr  Sr7  1  0.75376551  0.74623449  0.25376551  1
  Fe  Fe8  1  0.50000000  0.00000000  0.50000000  1
  Fe  Fe9  1  -0.00000000  0.00000000  0.50000000  1
  Fe  Fe10  1  -0.00000000  0.50000000  -0.00000000  1
  Fe  Fe11  1  0.50000000  0.50000000  -0.00000000  1
  Co  Co12  1  0.25896095  0.00000000  1.00000000  1
  Co  Co13  1  0.74103905  1.00000000  0.00000000  1
  Co  Co14  1  0.25000000  0.50000000  0.50000000  1
  Co  Co15  1  0.75000000  0.50000000  0.50000000  1
  O  O16  1  0.34023587  1.00000000  0.23537353  1
  O  O17  1  0.10486234  1.00000000  0.76462647  1
  O  O18  1  0.10486234  0.23537353  0.00000000  1
  O  O19  1  0.34023587  0.76462647  0.00000000  1
  O  O20  1  0.65976413  0.00000000  0.76462647  1
  O  O21  1  0.89513766  0.00000000  0.23537353  1
  O  O22  1  0.89513766  0.76462647  1.00000000  1
  O  O23  1  0.65976413  0.23537353  1.00000000  1
  O  O24  1  0.73812816  0.00000000  0.47625632  1
  O  O25  1  0.26187184  -0.00000000  0.52374368  1
  O  O26  1  0.26187184  0.47625632  -0.00000000  1
  O  O27  1  0.73812816  0.52374368  0.00000000  1
  O  O28  1  0.87356442  0.50000000  0.74712884  1
  O  O29  1  0.62643558  0.50000000  0.25287116  1
  O  O30  1  0.62643558  0.74712884  0.50000000  1
  O  O31  1  0.87356442  0.25287116  0.50000000  1
  O  O32  1  0.12643558  0.74712884  0.50000000  1
  O  O33  1  0.37356442  0.25287116  0.50000000  1
  O  O34  1  0.37356442  0.50000000  0.74712884  1
  O  O35  1  0.12643558  0.50000000  0.25287116  1
  O  O36  1  0.50000000  0.00000000  -0.00000000  1
  O  O37  1  -0.00000000  0.50000000  0.50000000  1
  O  O38  1  0.50000000  0.50000000  0.50000000  1
