# generated using pymatgen
data_Sr2La3Fe4CoO15
_symmetry_space_group_name_H-M   'P 1'
_cell_length_a   5.51178587
_cell_length_b   11.69780948
_cell_length_c   5.51178577
_cell_angle_alpha   76.37356464
_cell_angle_beta   120.00000069
_cell_angle_gamma   90.00000000
_symmetry_Int_Tables_number   1
_chemical_formula_structural   Sr2La3Fe4CoO15
_chemical_formula_sum   'Sr2 La3 Fe4 Co1 O15'
_cell_volume   296.15865216
_cell_formula_units_Z   1
loop_
 _symmetry_equiv_pos_site_id
 _symmetry_equiv_pos_as_xyz
  1  'x, y, z'
loop_
 _atom_site_type_symbol
 _atom_site_label
 _atom_site_symmetry_multiplicity
 _atom_site_fract_x
 _atom_site_fract_y
 _atom_site_fract_z
 _atom_site_occupancy
  Sr  Sr0  1  0.29789538  0.10631387  0.59579075  1
  Sr  Sr1  1  0.50170039  0.49489884  0.00340077  1
  La  La2  1  0.89839362  0.30481913  0.79678725  1
  La  La3  1  0.10301846  0.69094461  0.20603693  1
  La  La4  1  0.69922599  0.90232204  0.39845198  1
  Fe  Fe5  1  0.80210551  0.59368348  0.60421101  1
  Fe  Fe6  1  0.40026827  0.79919518  0.80053654  1
  Fe  Fe7  1  0.99913322  0.00260034  0.99826644  1
  Fe  Fe8  1  0.59804732  0.20585804  0.19609464  1
  Co  Co9  1  0.20013490  0.39959530  0.40026980  1
  O  O10  1  0.19837441  0.89646536  0.39674882  1
  O  O11  1  0.00345780  0.49917336  0.00691560  1
  O  O12  1  0.60146640  0.70450600  0.20293281  1
  O  O13  1  0.80012686  0.09813524  0.60025373  1
  O  O14  1  0.39669511  0.30164310  0.79339022  1
  O  O15  1  0.70678582  0.89646536  0.90516023  1
  O  O16  1  0.49391104  0.49917336  0.49736884  1
  O  O17  1  0.09256120  0.70450600  0.69402760  1
  O  O18  1  0.30161104  0.09813524  0.10173790  1
  O  O19  1  0.90496668  0.30164310  0.30166179  1
  O  O20  1  0.19837441  0.89646536  0.90516023  1
  O  O21  1  0.00345780  0.49917336  0.49736884  1
  O  O22  1  0.60146640  0.70450600  0.69402760  1
  O  O23  1  0.80012686  0.09813524  0.10173790  1
  O  O24  1  0.39669511  0.30164310  0.30166179  1
