# generated using pymatgen
data_Si60Te13P32Se3
_symmetry_space_group_name_H-M   'P 1'
_cell_length_a   10.01818187
_cell_length_b   10.01845146
_cell_length_c   20.03646953
_cell_angle_alpha   90.00000000
_cell_angle_beta   90.00000000
_cell_angle_gamma   90.00000000
_symmetry_Int_Tables_number   1
_chemical_formula_structural   Si60Te13P32Se3
_chemical_formula_sum   'Si60 Te13 P32 Se3'
_cell_volume   2010.99370088
_cell_formula_units_Z   1
loop_
 _symmetry_equiv_pos_site_id
 _symmetry_equiv_pos_as_xyz
  1  'x, y, z'
loop_
 _atom_site_type_symbol
 _atom_site_label
 _atom_site_symmetry_multiplicity
 _atom_site_fract_x
 _atom_site_fract_y
 _atom_site_fract_z
 _atom_site_occupancy
  Si  Si0  1  0.50000000  0.75020056  0.99989873  1
  Si  Si1  1  0.50000000  0.75020104  0.50010165  1
  Si  Si2  1  0.24962024  0.00000000  0.24999947  1
  Si  Si3  1  0.24998210  0.00000000  0.75000040  1
  Si  Si4  1  -0.00000000  0.50000000  0.12480309  1
  Si  Si5  1  -0.00000000  0.50000000  0.62498643  1
  Si  Si6  1  0.50000000  0.24979944  0.99989873  1
  Si  Si7  1  0.50000000  0.24979896  0.50010165  1
  Si  Si8  1  0.75037976  0.00000000  0.24999947  1
  Si  Si9  1  0.75001790  0.00000000  0.75000040  1
  Si  Si10  1  -0.00000000  0.50000000  0.37519729  1
  Si  Si11  1  -0.00000000  0.50000000  0.87501415  1
  Si  Si12  1  0.50000000  0.61687792  0.09552218  1
  Si  Si13  1  0.50000000  0.61678249  0.59585719  1
  Si  Si14  1  0.38310150  0.80892809  0.24999975  1
  Si  Si15  1  0.38323601  0.80832192  0.75000009  1
  Si  Si16  1  0.19106570  0.50000000  0.19153990  1
  Si  Si17  1  0.19166544  0.50000000  0.69161903  1
  Si  Si18  1  0.50000000  0.38312114  0.40447758  1
  Si  Si19  1  0.50000000  0.38321661  0.90414288  1
  Si  Si20  1  0.61689850  0.19107191  0.24999975  1
  Si  Si21  1  0.61676399  0.19167808  0.75000009  1
  Si  Si22  1  0.80893453  0.50000000  0.30846005  1
  Si  Si23  1  0.80833413  0.50000000  0.80838112  1
  Si  Si24  1  0.38310150  0.19107191  0.24999975  1
  Si  Si25  1  0.38323601  0.19167808  0.75000009  1
  Si  Si26  1  0.19106547  0.50000000  0.30846005  1
  Si  Si27  1  0.19166587  0.50000000  0.80838112  1
  Si  Si28  1  0.61689850  0.80892809  0.24999975  1
  Si  Si29  1  0.61676399  0.80832192  0.75000009  1
  Si  Si30  1  0.80893430  0.50000000  0.19153990  1
  Si  Si31  1  0.80833456  0.50000000  0.69161903  1
  Si  Si32  1  0.50000000  0.38312208  0.09552218  1
  Si  Si33  1  0.50000000  0.38321751  0.59585719  1
  Si  Si34  1  0.50000000  0.61687886  0.40447758  1
  Si  Si35  1  0.50000000  0.61678339  0.90414288  1
  Si  Si36  1  -0.00000000  0.69178398  0.05835873  1
  Si  Si37  1  -0.00000000  0.69171987  0.55838538  1
  Si  Si38  1  0.88327851  0.00000000  0.15407325  1
  Si  Si39  1  0.88324467  0.00000000  0.65416346  1
  Si  Si40  1  0.69175207  0.88325077  -0.00001761  1
  Si  Si41  1  0.69175157  0.88325088  0.50001802  1
  Si  Si42  1  -0.00000000  0.30821572  0.44164192  1
  Si  Si43  1  -0.00000000  0.30828067  0.94161377  1
  Si  Si44  1  0.11672091  0.00000000  0.34592644  1
  Si  Si45  1  0.11675492  0.00000000  0.84583703  1
  Si  Si46  1  0.30824793  0.11674923  -0.00001761  1
  Si  Si47  1  0.30824843  0.11674912  0.50001802  1
  Si  Si48  1  0.88327909  0.00000000  0.34592644  1
  Si  Si49  1  0.88324508  0.00000000  0.84583703  1
  Si  Si50  1  0.69175207  0.11674923  -0.00001761  1
  Si  Si51  1  0.69175157  0.11674912  0.50001802  1
  Si  Si52  1  0.11672149  0.00000000  0.15407325  1
  Si  Si53  1  0.11675533  0.00000000  0.65416346  1
  Si  Si54  1  0.30824793  0.88325077  -0.00001761  1
  Si  Si55  1  0.30824843  0.88325088  0.50001802  1
  Si  Si56  1  -0.00000000  0.69178428  0.44164192  1
  Si  Si57  1  -0.00000000  0.69171933  0.94161377  1
  Si  Si58  1  -0.00000000  0.30821602  0.05835873  1
  Si  Si59  1  -0.00000000  0.30828013  0.55838538  1
  Te  Te60  1  -0.00000000  0.74997491  0.25000027  1
  Te  Te61  1  -0.00000000  0.75000732  0.74999988  1
  Te  Te62  1  0.25001794  0.50000000  0.00001673  1
  Te  Te63  1  0.25001725  0.50000000  0.49998328  1
  Te  Te64  1  0.50000000  0.00000000  0.12501034  1
  Te  Te65  1  0.50000000  0.00000000  0.62497011  1
  Te  Te66  1  -0.00000000  0.25002509  0.25000027  1
  Te  Te67  1  -0.00000000  0.24999268  0.74999988  1
  Te  Te68  1  0.74998206  0.50000000  0.00001673  1
  Te  Te69  1  0.74998275  0.50000000  0.49998328  1
  Te  Te70  1  0.50000000  0.00000000  0.37498906  1
  Te  Te71  1  0.50000000  0.00000000  0.87502931  1
  Te  Te72  1  0.50000000  0.50000000  0.24999907  1
  P  P73  1  0.31560575  0.68438181  0.15780922  1
  P  P74  1  0.31593944  0.68407020  0.65797513  1
  P  P75  1  0.68439290  0.31561666  0.34219100  1
  P  P76  1  0.68406201  0.31592945  0.84202522  1
  P  P77  1  0.31560710  0.31561666  0.34219100  1
  P  P78  1  0.31593799  0.31592945  0.84202522  1
  P  P79  1  0.68439425  0.68438181  0.15780922  1
  P  P80  1  0.68406056  0.68407020  0.65797513  1
  P  P81  1  0.68439425  0.31561819  0.15780922  1
  P  P82  1  0.68406056  0.31592980  0.65797513  1
  P  P83  1  0.31560710  0.68438334  0.34219100  1
  P  P84  1  0.31593799  0.68407055  0.84202522  1
  P  P85  1  0.68439290  0.68438334  0.34219100  1
  P  P86  1  0.68406201  0.68407055  0.84202522  1
  P  P87  1  0.31560575  0.31561819  0.15780922  1
  P  P88  1  0.31593944  0.31592980  0.65797513  1
  P  P89  1  0.81623807  0.81621794  0.09186618  1
  P  P90  1  0.81595812  0.81598017  0.59202995  1
  P  P91  1  0.18376161  0.18378436  0.40813397  1
  P  P92  1  0.18404082  0.18401914  0.90796920  1
  P  P93  1  0.81623839  0.18378436  0.40813397  1
  P  P94  1  0.81595918  0.18401914  0.90796920  1
  P  P95  1  0.18376193  0.81621794  0.09186618  1
  P  P96  1  0.18404188  0.81598017  0.59202995  1
  P  P97  1  0.18376161  0.81621564  0.40813397  1
  P  P98  1  0.18404082  0.81598086  0.90796920  1
  P  P99  1  0.81623807  0.18378206  0.09186618  1
  P  P100  1  0.81595812  0.18401983  0.59202995  1
  P  P101  1  0.18376193  0.18378206  0.09186618  1
  P  P102  1  0.18404188  0.18401983  0.59202995  1
  P  P103  1  0.81623839  0.81621564  0.40813397  1
  P  P104  1  0.81595918  0.81598086  0.90796920  1
  Se  Se105  1  0.50000000  0.50000000  0.75000056  1
  Se  Se106  1  -0.00000000  0.00000000  0.99993939  1
  Se  Se107  1  -0.00000000  0.00000000  0.50006012  1
