# generated using pymatgen
data_Sc2FeB2Ru2Rh3
_symmetry_space_group_name_H-M   'P 1'
_cell_length_a   3.04492425
_cell_length_b   9.40152614
_cell_length_c   9.34083681
_cell_angle_alpha   90.00000000
_cell_angle_beta   90.00000000
_cell_angle_gamma   90.00000000
_symmetry_Int_Tables_number   1
_chemical_formula_structural   Sc2FeB2Ru2Rh3
_chemical_formula_sum   'Sc4 Fe2 B4 Ru4 Rh6'
_cell_volume   267.39952756
_cell_formula_units_Z   2
loop_
 _symmetry_equiv_pos_site_id
 _symmetry_equiv_pos_as_xyz
  1  'x, y, z'
loop_
 _atom_site_type_symbol
 _atom_site_label
 _atom_site_symmetry_multiplicity
 _atom_site_fract_x
 _atom_site_fract_y
 _atom_site_fract_z
 _atom_site_occupancy
  Sc  Sc0  1  0.00000000  0.17682049  0.67502367  1
  Sc  Sc1  1  -0.00000000  0.82317951  0.32497633  1
  Sc  Sc2  1  0.00000000  0.32317951  0.17502367  1
  Sc  Sc3  1  -0.00000000  0.67682049  0.82497633  1
  Fe  Fe4  1  -0.00000000  0.50000000  0.50000000  1
  Fe  Fe5  1  -0.00000000  0.00000000  -0.00000000  1
  B  B6  1  -0.00000000  0.63022952  0.12154252  1
  B  B7  1  -0.00000000  0.36977048  0.87845748  1
  B  B8  1  -0.00000000  0.86977048  0.62154252  1
  B  B9  1  -0.00000000  0.13022952  0.37845748  1
  Ru  Ru10  1  0.50000000  0.71440348  0.56969865  1
  Ru  Ru11  1  0.50000000  0.28559652  0.43030135  1
  Ru  Ru12  1  0.50000000  0.78559652  0.06969865  1
  Ru  Ru13  1  0.50000000  0.21440348  0.93030135  1
  Rh  Rh14  1  0.50000000  0.56946690  0.28426492  1
  Rh  Rh15  1  0.50000000  0.43053310  0.71573508  1
  Rh  Rh16  1  0.50000000  0.06946690  0.21573508  1
  Rh  Rh17  1  0.50000000  0.93053310  0.78426492  1
  Rh  Rh18  1  0.50000000  0.00000000  0.50000000  1
  Rh  Rh19  1  0.50000000  0.50000000  -0.00000000  1
