# generated using pymatgen
data_SmFeCo
_symmetry_space_group_name_H-M   'P 1'
_cell_length_a   5.19518458
_cell_length_b   5.19518458
_cell_length_c   5.19518458
_cell_angle_alpha   87.94756108
_cell_angle_beta   62.67543108
_cell_angle_gamma   120.34166106
_symmetry_Int_Tables_number   1
_chemical_formula_structural   SmFeCo
_chemical_formula_sum   'Sm2 Fe2 Co2'
_cell_volume   100.74399180
_cell_formula_units_Z   2
loop_
 _symmetry_equiv_pos_site_id
 _symmetry_equiv_pos_as_xyz
  1  'x, y, z'
loop_
 _atom_site_type_symbol
 _atom_site_label
 _atom_site_symmetry_multiplicity
 _atom_site_fract_x
 _atom_site_fract_y
 _atom_site_fract_z
 _atom_site_occupancy
  Sm  Sm0  1  0.50000000  0.74931827  0.75068173  1
  Sm  Sm1  1  -0.00000000  0.00068173  0.99931827  1
  Fe  Fe2  1  0.25000000  0.87500000  0.37500000  1
  Fe  Fe3  1  0.75000000  0.37500000  0.37500000  1
  Co  Co4  1  0.75000000  0.37500000  0.87500000  1
  Co  Co5  1  0.25000000  0.37500000  0.37500000  1
