# generated using pymatgen
data_Sb6O13
_symmetry_space_group_name_H-M   'P 1'
_cell_length_a   7.38433278
_cell_length_b   7.33345494
_cell_length_c   7.31676198
_cell_angle_alpha   90.00000000
_cell_angle_beta   60.30223936
_cell_angle_gamma   119.77234206
_symmetry_Int_Tables_number   1
_chemical_formula_structural   Sb6O13
_chemical_formula_sum   'Sb6 O13'
_cell_volume   282.40040441
_cell_formula_units_Z   1
loop_
 _symmetry_equiv_pos_site_id
 _symmetry_equiv_pos_as_xyz
  1  'x, y, z'
loop_
 _atom_site_type_symbol
 _atom_site_label
 _atom_site_symmetry_multiplicity
 _atom_site_fract_x
 _atom_site_fract_y
 _atom_site_fract_z
 _atom_site_occupancy
  Sb  Sb0  1  0.50155611  0.00214220  0.49922194  1
  Sb  Sb1  1  0.50155611  0.49941391  0.49922194  1
  Sb  Sb2  1  0.00443786  0.50221893  0.99825736  1
  Sb  Sb3  1  0.00443786  0.50221893  0.49730479  1
  Sb  Sb4  1  0.00246416  0.00123208  0.48545912  1
  Sb  Sb5  1  0.00246416  0.00123208  0.01207673  1
  O  O6  1  0.64359134  0.82179567  0.42820433  1
  O  O7  1  0.86954981  0.43477490  0.81522510  1
  O  O8  1  0.24290835  0.83337939  0.82481471  1
  O  O9  1  0.24290835  0.40952896  0.43227694  1
  O  O10  1  0.24290835  0.40952896  0.82481471  1
  O  O11  1  0.24290835  0.83337939  0.43227694  1
  O  O12  1  0.36414650  0.18207325  0.56792675  1
  O  O13  1  0.14151198  0.57075599  0.17924401  1
  O  O14  1  0.76650506  0.17118270  0.17345756  1
  O  O15  1  0.76650506  0.59532235  0.56003739  1
  O  O16  1  0.76650506  0.59532235  0.17345756  1
  O  O17  1  0.76650506  0.17118270  0.56003739  1
  O  O18  1  0.17663051  0.08831525  0.16168475  1
