# generated using pymatgen
data_Sm4ZrFe33
_symmetry_space_group_name_H-M   'P 1'
_cell_length_a   6.46962383
_cell_length_b   6.46962383
_cell_length_c   13.02040238
_cell_angle_alpha   83.06525834
_cell_angle_beta   83.06525834
_cell_angle_gamma   82.86948386
_symmetry_Int_Tables_number   1
_chemical_formula_structural   Sm4ZrFe33
_chemical_formula_sum   'Sm4 Zr1 Fe33'
_cell_volume   533.70866521
_cell_formula_units_Z   1
loop_
 _symmetry_equiv_pos_site_id
 _symmetry_equiv_pos_as_xyz
  1  'x, y, z'
loop_
 _atom_site_type_symbol
 _atom_site_label
 _atom_site_symmetry_multiplicity
 _atom_site_fract_x
 _atom_site_fract_y
 _atom_site_fract_z
 _atom_site_occupancy
  Sm  Sm0  1  0.65079681  0.65079681  0.32107518  1
  Sm  Sm1  1  0.65844154  0.65844154  0.83061009  1
  Sm  Sm2  1  0.34140178  0.34140178  0.16778722  1
  Sm  Sm3  1  0.34101797  0.34101797  0.67504457  1
  Zr  Zr4  1  0.90614411  0.90614411  0.45191498  1
  Fe  Fe5  1  0.84559374  0.34282463  0.16802569  1
  Fe  Fe6  1  0.84527295  0.33892616  0.67255823  1
  Fe  Fe7  1  0.33978807  0.33978807  0.42103892  1
  Fe  Fe8  1  0.34183210  0.34183210  0.92198361  1
  Fe  Fe9  1  0.34282463  0.84559374  0.16802569  1
  Fe  Fe10  1  0.33892616  0.84527295  0.67255823  1
  Fe  Fe11  1  0.16436665  0.65323988  0.32564129  1
  Fe  Fe12  1  0.15466691  0.65790055  0.83063323  1
  Fe  Fe13  1  0.65883065  0.65883065  0.07683619  1
  Fe  Fe14  1  0.65556704  0.65556704  0.58399534  1
  Fe  Fe15  1  0.65323988  0.16436665  0.32564129  1
  Fe  Fe16  1  0.65790055  0.15466691  0.83063323  1
  Fe  Fe17  1  0.00531603  0.00531603  0.24432165  1
  Fe  Fe18  1  0.99720629  0.99720629  0.75198204  1
  Fe  Fe19  1  0.00356164  0.48791867  0.50239748  1
  Fe  Fe20  1  0.00059131  0.50018832  0.99957109  1
  Fe  Fe21  1  0.50018832  0.00059131  0.99957109  1
  Fe  Fe22  1  0.48791867  0.00356164  0.50239748  1
  Fe  Fe23  1  0.30842847  0.69287137  0.50089302  1
  Fe  Fe24  1  0.29285128  0.70714279  0.00013481  1
  Fe  Fe25  1  0.70987353  0.00172930  0.14398319  1
  Fe  Fe26  1  0.70215933  0.00259325  0.64885478  1
  Fe  Fe27  1  -0.00092065  0.30202051  0.35055970  1
  Fe  Fe28  1  0.99717998  0.28976206  0.85630530  1
  Fe  Fe29  1  0.30202051  -0.00092065  0.35055970  1
  Fe  Fe30  1  0.28976206  0.99717998  0.85630530  1
  Fe  Fe31  1  0.00172930  0.70987353  0.14398319  1
  Fe  Fe32  1  0.00259325  0.70215933  0.64885478  1
  Fe  Fe33  1  0.70714279  0.29285128  0.00013481  1
  Fe  Fe34  1  0.69287137  0.30842847  0.50089302  1
  Fe  Fe35  1  0.90389597  0.90389597  0.95093750  1
  Fe  Fe36  1  0.09687907  0.09687907  0.04636377  1
  Fe  Fe37  1  0.10213993  0.10213993  0.55699334  1
