# generated using pymatgen
data_Cr3N4
_symmetry_space_group_name_H-M   'P 1'
_cell_length_a   3.11874027
_cell_length_b   8.07549143
_cell_length_c   8.06908127
_cell_angle_alpha   119.94067529
_cell_angle_beta   90.00000000
_cell_angle_gamma   90.00000000
_symmetry_Int_Tables_number   1
_chemical_formula_structural   Cr3N4
_chemical_formula_sum   'Cr6 N8'
_cell_volume   176.10115268
_cell_formula_units_Z   2
loop_
 _symmetry_equiv_pos_site_id
 _symmetry_equiv_pos_as_xyz
  1  'x, y, z'
loop_
 _atom_site_type_symbol
 _atom_site_label
 _atom_site_symmetry_multiplicity
 _atom_site_fract_x
 _atom_site_fract_y
 _atom_site_fract_z
 _atom_site_occupancy
  Cr  Cr0  1  0.75000000  0.40444957  0.22357685  1
  Cr  Cr1  1  0.75000000  0.77721376  0.18037085  1
  Cr  Cr2  1  0.75000000  0.81927254  0.59629131  1
  Cr  Cr3  1  0.25000000  0.59555043  0.77642315  1
  Cr  Cr4  1  0.25000000  0.22278624  0.81962915  1
  Cr  Cr5  1  0.25000000  0.18072746  0.40370869  1
  N  N6  1  0.75000000  0.66719692  0.33332929  1
  N  N7  1  0.25000000  0.33280308  0.66667071  1
  N  N8  1  0.75000000  0.29421768  0.96362410  1
  N  N9  1  0.75000000  0.03675409  0.33058336  1
  N  N10  1  0.75000000  0.66802642  0.70493342  1
  N  N11  1  0.25000000  0.70578232  0.03637590  1
  N  N12  1  0.25000000  0.96324591  0.66941664  1
  N  N13  1  0.25000000  0.33197358  0.29506658  1
