# generated using pymatgen
data_RbLa2TaTi2O10
_symmetry_space_group_name_H-M   'P 1'
_cell_length_a   3.87766036
_cell_length_b   3.87766036
_cell_length_c   15.49236408
_cell_angle_alpha   89.61323672
_cell_angle_beta   90.38676328
_cell_angle_gamma   89.93774404
_symmetry_Int_Tables_number   1
_chemical_formula_structural   RbLa2TaTi2O10
_chemical_formula_sum   'Rb1 La2 Ta1 Ti2 O10'
_cell_volume   232.93629419
_cell_formula_units_Z   1
loop_
 _symmetry_equiv_pos_site_id
 _symmetry_equiv_pos_as_xyz
  1  'x, y, z'
loop_
 _atom_site_type_symbol
 _atom_site_label
 _atom_site_symmetry_multiplicity
 _atom_site_fract_x
 _atom_site_fract_y
 _atom_site_fract_z
 _atom_site_occupancy
  Rb  Rb0  1  0.50001963  0.49998037  0.50755020  1
  La  La1  1  0.50675539  0.49324461  0.84251017  1
  La  La2  1  0.50057793  0.49942207  0.13062028  1
  Ta  Ta3  1  -0.00030617  0.00030617  0.28430384  1
  Ti  Ti4  1  0.98469957  0.01530043  0.99799334  1
  Ti  Ti5  1  0.00030768  0.99969232  0.70929791  1
  O  O6  1  0.98983691  0.01016309  0.87758204  1
  O  O7  1  0.98814360  0.01185640  0.13157079  1
  O  O8  1  0.49932972  0.99975260  0.74683991  1
  O  O9  1  0.00024740  0.50067028  0.74683991  1
  O  O10  1  0.49771751  0.00315923  0.25391778  1
  O  O11  1  0.99684077  0.50228249  0.25391778  1
  O  O12  1  0.99900238  0.00099762  0.59979516  1
  O  O13  1  0.00191533  0.99808467  0.40025919  1
  O  O14  1  0.47357886  0.05166649  0.00850085  1
  O  O15  1  0.94833351  0.52642114  0.00850085  1
