# generated using pymatgen
data_Sc2Se3
_symmetry_space_group_name_H-M   'P 1'
_cell_length_a   3.83450904
_cell_length_b   5.42228747
_cell_length_c   6.81589163
_cell_angle_alpha   113.43871564
_cell_angle_beta   73.66267385
_cell_angle_gamma   90.00000000
_symmetry_Int_Tables_number   1
_chemical_formula_structural   Sc2Se3
_chemical_formula_sum   'Sc2 Se3'
_cell_volume   123.75968328
_cell_formula_units_Z   1
loop_
 _symmetry_equiv_pos_site_id
 _symmetry_equiv_pos_as_xyz
  1  'x, y, z'
loop_
 _atom_site_type_symbol
 _atom_site_label
 _atom_site_symmetry_multiplicity
 _atom_site_fract_x
 _atom_site_fract_y
 _atom_site_fract_z
 _atom_site_occupancy
  Sc  Sc0  1  0.33801143  0.66198857  0.32397614  1
  Sc  Sc1  1  0.66198857  0.33801143  0.67602386  1
  Se  Se2  1  -0.00000000  0.50000000  -0.00000000  1
  Se  Se3  1  0.32134222  0.17865778  0.35731457  1
  Se  Se4  1  0.67865778  0.82134222  0.64268543  1
