# generated using pymatgen
data_SmGaCo
_symmetry_space_group_name_H-M   'P 1'
_cell_length_a   4.15721160
_cell_length_b   5.44891556
_cell_length_c   5.85328904
_cell_angle_alpha   92.48325093
_cell_angle_beta   110.80065034
_cell_angle_gamma   67.57514161
_symmetry_Int_Tables_number   1
_chemical_formula_structural   SmGaCo
_chemical_formula_sum   'Sm2 Ga2 Co2'
_cell_volume   113.92231474
_cell_formula_units_Z   2
loop_
 _symmetry_equiv_pos_site_id
 _symmetry_equiv_pos_as_xyz
  1  'x, y, z'
loop_
 _atom_site_type_symbol
 _atom_site_label
 _atom_site_symmetry_multiplicity
 _atom_site_fract_x
 _atom_site_fract_y
 _atom_site_fract_z
 _atom_site_occupancy
  Sm  Sm0  1  0.75160727  0.68630725  0.18952179  1
  Sm  Sm1  1  0.24839273  0.31369275  0.81047821  1
  Ga  Ga2  1  0.58815582  0.22601149  0.40232314  1
  Ga  Ga3  1  0.41184418  0.77398851  0.59767686  1
  Co  Co4  1  0.05006421  0.08870148  0.18882990  1
  Co  Co5  1  0.94993579  0.91129852  0.81117010  1
