# generated using pymatgen
data_NdEr3Fe34
_symmetry_space_group_name_H-M   'P 1'
_cell_length_a   8.24254431
_cell_length_b   8.49786598
_cell_length_c   8.49786598
_cell_angle_alpha   119.99256755
_cell_angle_beta   90.00000000
_cell_angle_gamma   90.00000000
_symmetry_Int_Tables_number   1
_chemical_formula_structural   NdEr3Fe34
_chemical_formula_sum   'Nd1 Er3 Fe34'
_cell_volume   515.51843238
_cell_formula_units_Z   1
loop_
 _symmetry_equiv_pos_site_id
 _symmetry_equiv_pos_as_xyz
  1  'x, y, z'
loop_
 _atom_site_type_symbol
 _atom_site_label
 _atom_site_symmetry_multiplicity
 _atom_site_fract_x
 _atom_site_fract_y
 _atom_site_fract_z
 _atom_site_occupancy
  Nd  Nd0  1  0.25000000  0.66663429  0.33336571  1
  Er  Er1  1  0.75000000  0.33326325  0.66673675  1
  Er  Er2  1  0.75000000  0.00004735  0.99995265  1
  Er  Er3  1  0.25000000  0.00001212  -0.00001212  1
  Fe  Fe4  1  0.48468791  0.83496048  0.66996998  1
  Fe  Fe5  1  0.48462970  0.83499774  0.16500226  1
  Fe  Fe6  1  0.48468791  0.33003002  0.16503952  1
  Fe  Fe7  1  0.51725138  0.16596330  0.33184389  1
  Fe  Fe8  1  0.51725886  0.16590768  0.83409232  1
  Fe  Fe9  1  0.51725138  0.66815611  0.83403670  1
  Fe  Fe10  1  0.98274862  0.16596330  0.33184389  1
  Fe  Fe11  1  0.98274114  0.16590768  0.83409232  1
  Fe  Fe12  1  0.98274862  0.66815611  0.83403670  1
  Fe  Fe13  1  0.01531209  0.83496048  0.66996998  1
  Fe  Fe14  1  0.01537030  0.83499774  0.16500226  1
  Fe  Fe15  1  0.01531209  0.33003002  0.16503952  1
  Fe  Fe16  1  0.75000000  0.67126626  0.04017761  1
  Fe  Fe17  1  0.75000000  0.36896564  0.32877357  1
  Fe  Fe18  1  0.75000000  0.95974897  0.63106690  1
  Fe  Fe19  1  0.75000000  0.36893310  0.04025103  1
  Fe  Fe20  1  0.75000000  0.95982239  0.32873374  1
  Fe  Fe21  1  0.75000000  0.67122643  0.63103436  1
  Fe  Fe22  1  0.25000000  0.32751042  0.95792134  1
  Fe  Fe23  1  0.25000000  0.63037687  0.67244687  1
  Fe  Fe24  1  0.25000000  0.04213771  0.36960428  1
  Fe  Fe25  1  0.25000000  0.63039572  0.95786229  1
  Fe  Fe26  1  0.25000000  0.04207866  0.67248958  1
  Fe  Fe27  1  0.25000000  0.32755313  0.36962313  1
  Fe  Fe28  1  0.60737522  0.66666580  0.33333420  1
  Fe  Fe29  1  0.39409211  0.33333851  0.66666149  1
  Fe  Fe30  1  0.10590789  0.33333851  0.66666149  1
  Fe  Fe31  1  0.89262478  0.66666580  0.33333420  1
  Fe  Fe32  1  0.50118528  0.49921553  0.99843995  1
  Fe  Fe33  1  0.50120373  0.49921861  0.50078139  1
  Fe  Fe34  1  0.50118528  0.00156005  0.50078447  1
  Fe  Fe35  1  0.99881472  0.49921553  0.99843995  1
  Fe  Fe36  1  0.99879627  0.49921861  0.50078139  1
  Fe  Fe37  1  0.99881472  0.00156005  0.50078447  1
