# generated using pymatgen
data_Rb2SbN2(O2F)3
_symmetry_space_group_name_H-M   'P 1'
_cell_length_a   7.82316120
_cell_length_b   11.33453136
_cell_length_c   11.71643768
_cell_angle_alpha   103.89448299
_cell_angle_beta   90.00000000
_cell_angle_gamma   90.00000000
_symmetry_Int_Tables_number   1
_chemical_formula_structural   Rb2SbN2(O2F)3
_chemical_formula_sum   'Rb8 Sb4 N8 O24 F12'
_cell_volume   1008.51923243
_cell_formula_units_Z   4
loop_
 _symmetry_equiv_pos_site_id
 _symmetry_equiv_pos_as_xyz
  1  'x, y, z'
loop_
 _atom_site_type_symbol
 _atom_site_label
 _atom_site_symmetry_multiplicity
 _atom_site_fract_x
 _atom_site_fract_y
 _atom_site_fract_z
 _atom_site_occupancy
  Rb  Rb0  1  0.25570861  0.42902044  0.86600033  1
  Rb  Rb1  1  0.75570861  0.57097956  0.13399967  1
  Rb  Rb2  1  0.99327677  0.85863785  0.51324967  1
  Rb  Rb3  1  0.49327677  0.14136215  0.48675033  1
  Rb  Rb4  1  0.74375910  0.54572142  0.64535146  1
  Rb  Rb5  1  0.24375910  0.45427858  0.35464854  1
  Rb  Rb6  1  0.96686868  0.86849940  0.92791186  1
  Rb  Rb7  1  0.46686868  0.13150060  0.07208814  1
  Sb  Sb8  1  0.75611720  0.28297999  0.82838400  1
  Sb  Sb9  1  0.25611720  0.71702001  0.17161600  1
  Sb  Sb10  1  0.55053043  0.88699783  0.70549950  1
  Sb  Sb11  1  0.05053043  0.11300217  0.29450050  1
  N  N12  1  0.19327871  0.61295382  0.65882770  1
  N  N13  1  0.69327871  0.38704618  0.34117230  1
  N  N14  1  0.46013188  0.75413524  0.93777671  1
  N  N15  1  0.96013188  0.24586476  0.06222329  1
  N  N16  1  0.99060444  0.25462375  0.56706253  1
  N  N17  1  0.49060444  0.74537625  0.43293747  1
  N  N18  1  0.21182747  0.07990623  0.77183302  1
  N  N19  1  0.71182747  0.92009377  0.22816698  1
  O  O20  1  0.34660917  0.57629404  0.64572104  1
  O  O21  1  0.84660917  0.42370596  0.35427896  1
  O  O22  1  0.98300720  0.33180363  0.66599049  1
  O  O23  1  0.48300720  0.66819637  0.33400951  1
  O  O24  1  0.12253955  0.63346156  0.75922690  1
  O  O25  1  0.62253955  0.36653844  0.24077310  1
  O  O26  1  0.36077052  0.84310544  0.96184951  1
  O  O27  1  0.86077052  0.15689456  0.03815049  1
  O  O28  1  0.94481406  0.33310730  0.00993287  1
  O  O29  1  0.44481406  0.66689270  0.99006713  1
  O  O30  1  0.57806303  0.74656333  0.86203206  1
  O  O31  1  0.07806303  0.25343667  0.13796794  1
  O  O32  1  0.10842900  0.62774565  0.57026555  1
  O  O33  1  0.60842900  0.37225435  0.42973445  1
  O  O34  1  0.10772995  0.26692087  0.49450404  1
  O  O35  1  0.60772995  0.73307913  0.50549596  1
  O  O36  1  0.88591213  0.16867753  0.54055813  1
  O  O37  1  0.38591213  0.83132247  0.45944187  1
  O  O38  1  0.30260454  0.10706447  0.69198143  1
  O  O39  1  0.80260454  0.89293553  0.30801857  1
  O  O40  1  0.14885936  0.97345273  0.75519269  1
  O  O41  1  0.64885936  0.02654727  0.24480731  1
  O  O42  1  0.18639856  0.15735050  0.86790200  1
  O  O43  1  0.68639856  0.84264950  0.13209800  1
  F  F44  1  0.58561036  0.32644019  0.71766169  1
  F  F45  1  0.08561036  0.67355981  0.28233831  1
  F  F46  1  0.57008456  0.32090981  0.94639918  1
  F  F47  1  0.07008456  0.67909019  0.05360082  1
  F  F48  1  0.80987424  0.45791572  0.86722474  1
  F  F49  1  0.30987424  0.54208428  0.13277526  1
  F  F50  1  0.66088204  0.99392460  0.61716450  1
  F  F51  1  0.16088204  0.00607540  0.38283550  1
  F  F52  1  0.61333382  0.01501550  0.84806719  1
  F  F53  1  0.11333382  0.98498450  0.15193281  1
  F  F54  1  0.78247463  0.81703607  0.70885039  1
  F  F55  1  0.28247463  0.18296393  0.29114961  1
