# generated using pymatgen
data_Pr2Y
_symmetry_space_group_name_H-M   'P 1'
_cell_length_a   3.66768293
_cell_length_b   3.66768293
_cell_length_c   9.29596493
_cell_angle_alpha   78.62247277
_cell_angle_beta   78.62247277
_cell_angle_gamma   60.00002254
_symmetry_Int_Tables_number   1
_chemical_formula_structural   Pr2Y
_chemical_formula_sum   'Pr2 Y1'
_cell_volume   105.44801743
_cell_formula_units_Z   1
loop_
 _symmetry_equiv_pos_site_id
 _symmetry_equiv_pos_as_xyz
  1  'x, y, z'
loop_
 _atom_site_type_symbol
 _atom_site_label
 _atom_site_symmetry_multiplicity
 _atom_site_fract_x
 _atom_site_fract_y
 _atom_site_fract_z
 _atom_site_occupancy
  Pr  Pr0  1  0.22492174  0.22492174  0.32523477  1
  Pr  Pr1  1  0.77507826  0.77507826  0.67476523  1
  Y  Y2  1  -0.00000000  -0.00000000  0.00000000  1
