# generated using pymatgen
data_Mg3Zr
_symmetry_space_group_name_H-M   'P 1'
_cell_length_a   6.58275638
_cell_length_b   3.03262506
_cell_length_c   5.11197764
_cell_angle_alpha   90.00000000
_cell_angle_beta   90.00000000
_cell_angle_gamma   117.43178847
_symmetry_Int_Tables_number   1
_chemical_formula_structural   Mg3Zr
_chemical_formula_sum   'Mg3 Zr1'
_cell_volume   90.57599890
_cell_formula_units_Z   1
loop_
 _symmetry_equiv_pos_site_id
 _symmetry_equiv_pos_as_xyz
  1  'x, y, z'
loop_
 _atom_site_type_symbol
 _atom_site_label
 _atom_site_symmetry_multiplicity
 _atom_site_fract_x
 _atom_site_fract_y
 _atom_site_fract_z
 _atom_site_occupancy
  Mg  Mg0  1  0.65595241  0.65595241  0.25000000  1
  Mg  Mg1  1  0.33659056  0.33659056  0.75000000  1
  Mg  Mg2  1  0.84946471  0.34946471  0.75000000  1
  Zr  Zr3  1  0.15799232  0.65799232  0.25000000  1
