# generated using pymatgen
data_NdU2S5
_symmetry_space_group_name_H-M   'P 1'
_cell_length_a   7.43387333
_cell_length_b   8.00929948
_cell_length_c   11.78607814
_cell_angle_alpha   90.00000000
_cell_angle_beta   90.00000000
_cell_angle_gamma   90.00000000
_symmetry_Int_Tables_number   1
_chemical_formula_structural   NdU2S5
_chemical_formula_sum   'Nd4 U8 S20'
_cell_volume   701.74448081
_cell_formula_units_Z   4
loop_
 _symmetry_equiv_pos_site_id
 _symmetry_equiv_pos_as_xyz
  1  'x, y, z'
loop_
 _atom_site_type_symbol
 _atom_site_label
 _atom_site_symmetry_multiplicity
 _atom_site_fract_x
 _atom_site_fract_y
 _atom_site_fract_z
 _atom_site_occupancy
  Nd  Nd0  1  0.97599833  0.99979896  0.17758569  1
  Nd  Nd1  1  0.02400167  0.49979896  0.82241431  1
  Nd  Nd2  1  0.47599833  0.49979896  0.32241431  1
  Nd  Nd3  1  0.52400167  0.99979896  0.67758569  1
  U  U4  1  0.42509003  0.74958875  0.00784915  1
  U  U5  1  0.07490997  0.74958875  0.50784915  1
  U  U6  1  0.57490997  0.24958875  0.99215085  1
  U  U7  1  0.92509003  0.24958875  0.49215085  1
  U  U8  1  0.52006598  0.50145571  0.68001542  1
  U  U9  1  0.47993402  0.00145571  0.31998458  1
  U  U10  1  0.02006598  0.00145571  0.81998458  1
  U  U11  1  0.97993402  0.50145571  0.18001542  1
  S  S12  1  0.65705211  0.54244817  0.90069865  1
  S  S13  1  0.83001129  0.95457383  0.40521177  1
  S  S14  1  0.34294789  0.04244817  0.09930135  1
  S  S15  1  0.16998871  0.45457383  0.59478823  1
  S  S16  1  0.33001129  0.45457383  0.09478823  1
  S  S17  1  0.15705211  0.04244817  0.59930135  1
  S  S18  1  0.66998871  0.95457383  0.90521177  1
  S  S19  1  0.84294789  0.54244817  0.40069865  1
  S  S20  1  0.30031893  0.75094400  0.78409478  1
  S  S21  1  0.19968107  0.75094400  0.28409478  1
  S  S22  1  0.69968107  0.25094400  0.21590522  1
  S  S23  1  0.80031893  0.25094400  0.71590522  1
  S  S24  1  0.67033989  0.74971112  0.18720237  1
  S  S25  1  0.82966011  0.74971112  0.68720237  1
  S  S26  1  0.32966011  0.24971112  0.81279763  1
  S  S27  1  0.17033989  0.24971112  0.31279763  1
  S  S28  1  0.04056406  0.75147946  0.00105173  1
  S  S29  1  0.45943594  0.75147946  0.50105173  1
  S  S30  1  0.95943594  0.25147946  0.99894827  1
  S  S31  1  0.54056406  0.25147946  0.49894827  1
