# generated using pymatgen
data_Ni4As3S5
_symmetry_space_group_name_H-M   'P 1'
_cell_length_a   5.68053503
_cell_length_b   5.68053503
_cell_length_c   5.68053503
_cell_angle_alpha   89.31496683
_cell_angle_beta   90.68503317
_cell_angle_gamma   89.31496683
_symmetry_Int_Tables_number   1
_chemical_formula_structural   Ni4As3S5
_chemical_formula_sum   'Ni4 As3 S5'
_cell_volume   183.26260092
_cell_formula_units_Z   1
loop_
 _symmetry_equiv_pos_site_id
 _symmetry_equiv_pos_as_xyz
  1  'x, y, z'
loop_
 _atom_site_type_symbol
 _atom_site_label
 _atom_site_symmetry_multiplicity
 _atom_site_fract_x
 _atom_site_fract_y
 _atom_site_fract_z
 _atom_site_occupancy
  Ni  Ni0  1  0.00649680  0.49350320  0.50649680  1
  Ni  Ni1  1  0.49102595  0.50098124  0.00379921  1
  Ni  Ni2  1  0.50379921  0.00897405  0.49901876  1
  Ni  Ni3  1  0.99901876  0.99620079  0.99102595  1
  As  As4  1  0.11737600  0.87990042  0.38162612  1
  As  As5  1  0.88162612  0.38262400  0.12009958  1
  As  As6  1  0.62009958  0.61837388  0.61737600  1
  S  S7  1  0.60503841  0.89496159  0.10503841  1
  S  S8  1  0.88550211  0.11678714  0.61575594  1
  S  S9  1  0.11575594  0.61449789  0.88321286  1
  S  S10  1  0.38321286  0.38424406  0.38550211  1
  S  S11  1  0.39104826  0.10895174  0.89104826  1
