# generated using pymatgen
data_NdMn5(CuO6)2
_symmetry_space_group_name_H-M   'P 1'
_cell_length_a   6.50002461
_cell_length_b   6.50002461
_cell_length_c   6.50002461
_cell_angle_alpha   71.54517671
_cell_angle_beta   70.65331667
_cell_angle_gamma   110.61948175
_symmetry_Int_Tables_number   1
_chemical_formula_structural   NdMn5(CuO6)2
_chemical_formula_sum   'Nd1 Mn5 Cu2 O12'
_cell_volume   211.33246153
_cell_formula_units_Z   1
loop_
 _symmetry_equiv_pos_site_id
 _symmetry_equiv_pos_as_xyz
  1  'x, y, z'
loop_
 _atom_site_type_symbol
 _atom_site_label
 _atom_site_symmetry_multiplicity
 _atom_site_fract_x
 _atom_site_fract_y
 _atom_site_fract_z
 _atom_site_occupancy
  Nd  Nd0  1  -0.00000000  -0.00000000  0.00000000  1
  Mn  Mn1  1  -0.00000000  0.50000000  0.00000000  1
  Mn  Mn2  1  0.50000000  0.50000000  0.50000000  1
  Mn  Mn3  1  0.50000000  -0.00000000  0.00000000  1
  Mn  Mn4  1  -0.00000000  -0.00000000  0.50000000  1
  Mn  Mn5  1  -0.00000000  0.50000000  0.50000000  1
  Cu  Cu6  1  0.50000000  -0.00000000  0.50000000  1
  Cu  Cu7  1  0.50000000  0.50000000  0.00000000  1
  O  O8  1  0.13624003  0.82389132  0.68765129  1
  O  O9  1  0.48845738  0.17610868  0.68765129  1
  O  O10  1  0.51154262  0.82389132  0.31234871  1
  O  O11  1  0.86375997  0.17610868  0.31234871  1
  O  O12  1  0.69521149  0.86388789  0.83132360  1
  O  O13  1  0.69521149  0.52653509  0.16867640  1
  O  O14  1  0.30478851  0.47346491  0.83132360  1
  O  O15  1  0.30478851  0.13611211  0.16867640  1
  O  O16  1  0.17161776  0.30210177  0.52628048  1
  O  O17  1  0.82838224  0.30210177  0.86951599  1
  O  O18  1  0.17161776  0.69789823  0.13048401  1
  O  O19  1  0.82838224  0.69789823  0.47371952  1
