# generated using pymatgen
data_NiH8(ClO2)2
_symmetry_space_group_name_H-M   'P 1'
_cell_length_a   5.99565527
_cell_length_b   9.40458281
_cell_length_c   10.91854490
_cell_angle_alpha   90.00000000
_cell_angle_beta   99.80880571
_cell_angle_gamma   90.00000000
_symmetry_Int_Tables_number   1
_chemical_formula_structural   NiH8(ClO2)2
_chemical_formula_sum   'Ni4 H32 Cl8 O16'
_cell_volume   606.66013623
_cell_formula_units_Z   4
loop_
 _symmetry_equiv_pos_site_id
 _symmetry_equiv_pos_as_xyz
  1  'x, y, z'
loop_
 _atom_site_type_symbol
 _atom_site_label
 _atom_site_symmetry_multiplicity
 _atom_site_fract_x
 _atom_site_fract_y
 _atom_site_fract_z
 _atom_site_occupancy
  Ni  Ni0  1  0.48331859  0.66686043  0.23269918  1
  Ni  Ni1  1  0.98331859  0.83313957  0.73269918  1
  Ni  Ni2  1  0.51606392  0.32823917  0.76467589  1
  Ni  Ni3  1  0.01606392  0.17176083  0.26467589  1
  H  H4  1  0.31107727  0.43597876  0.11698592  1
  H  H5  1  0.81107727  0.06402124  0.61698592  1
  H  H6  1  0.67563954  0.56943040  0.88159979  1
  H  H7  1  0.17563954  0.93056960  0.38159979  1
  H  H8  1  0.03270027  0.68667580  0.20605420  1
  H  H9  1  0.53270027  0.81332420  0.70605420  1
  H  H10  1  0.96679228  0.31009511  0.79413795  1
  H  H11  1  0.46679228  0.18990489  0.29413795  1
  H  H12  1  0.84805018  0.51290436  0.31044236  1
  H  H13  1  0.34805018  0.98709564  0.81044236  1
  H  H14  1  0.14742090  0.48585743  0.68471735  1
  H  H15  1  0.64742090  0.01414257  0.18471735  1
  H  H16  1  0.30767180  0.57599340  0.43470594  1
  H  H17  1  0.80767180  0.92400660  0.93470594  1
  H  H18  1  0.69180564  0.42281125  0.56501823  1
  H  H19  1  0.19180564  0.07718875  0.06501823  1
  H  H20  1  0.87512894  0.65287904  0.38783327  1
  H  H21  1  0.37512894  0.84712096  0.88783327  1
  H  H22  1  0.12373390  0.34159464  0.61364862  1
  H  H23  1  0.62373390  0.15840536  0.11364862  1
  H  H24  1  0.10586690  0.69919529  0.07352013  1
  H  H25  1  0.60586690  0.80080471  0.57352013  1
  H  H26  1  0.89564098  0.30096927  0.92795330  1
  H  H27  1  0.39564098  0.19903073  0.42795330  1
  H  H28  1  0.35022891  0.43680454  0.35586173  1
  H  H29  1  0.85022891  0.06319546  0.85586173  1
  H  H30  1  0.65099500  0.56289646  0.64321709  1
  H  H31  1  0.15099500  0.93710354  0.14321709  1
  H  H32  1  0.52184324  0.47899085  0.05297363  1
  H  H33  1  0.02184324  0.02100915  0.55297363  1
  H  H34  1  0.40441434  0.57252887  0.87404132  1
  H  H35  1  0.90441434  0.92747113  0.37404132  1
  Cl  Cl36  1  0.59223083  0.81186666  0.06818110  1
  Cl  Cl37  1  0.09223083  0.68813334  0.56818110  1
  Cl  Cl38  1  0.40820219  0.18578631  0.93037401  1
  Cl  Cl39  1  0.90820219  0.31421369  0.43037401  1
  Cl  Cl40  1  0.52857763  0.86069424  0.37923689  1
  Cl  Cl41  1  0.02857763  0.63930576  0.87923689  1
  Cl  Cl42  1  0.48466842  0.13951340  0.61823238  1
  Cl  Cl43  1  0.98466842  0.36048660  0.11823238  1
  O  O44  1  0.14793679  0.72961209  0.16177395  1
  O  O45  1  0.64793679  0.77038791  0.66177395  1
  O  O46  1  0.84956830  0.27198741  0.83935398  1
  O  O47  1  0.34956830  0.22801259  0.33935398  1
  O  O48  1  0.46218763  0.48298296  0.13134938  1
  O  O49  1  0.96218763  0.01701704  0.63134938  1
  O  O50  1  0.53907767  0.51031416  0.88217268  1
  O  O51  1  0.03907767  0.98968584  0.38217268  1
  O  O52  1  0.38036979  0.53940052  0.36705502  1
  O  O53  1  0.88036979  0.96059948  0.86705502  1
  O  O54  1  0.61988754  0.46031631  0.63270165  1
  O  O55  1  0.11988754  0.03968369  0.13270165  1
  O  O56  1  0.82841248  0.61739614  0.30143544  1
  O  O57  1  0.32841248  0.88260386  0.80143544  1
  O  O58  1  0.17248816  0.38228782  0.69804763  1
  O  O59  1  0.67248816  0.11771218  0.19804763  1
