# generated using pymatgen
data_Rb3Cu3Bi8Se15
_symmetry_space_group_name_H-M   'P 1'
_cell_length_a   9.64902553
_cell_length_b   9.64902553
_cell_length_c   19.12641775
_cell_angle_alpha   98.64401855
_cell_angle_beta   98.64401855
_cell_angle_gamma   96.97971886
_symmetry_Int_Tables_number   1
_chemical_formula_structural   Rb3Cu3Bi8Se15
_chemical_formula_sum   'Rb6 Cu6 Bi16 Se30'
_cell_volume   1721.49446871
_cell_formula_units_Z   2
loop_
 _symmetry_equiv_pos_site_id
 _symmetry_equiv_pos_as_xyz
  1  'x, y, z'
loop_
 _atom_site_type_symbol
 _atom_site_label
 _atom_site_symmetry_multiplicity
 _atom_site_fract_x
 _atom_site_fract_y
 _atom_site_fract_z
 _atom_site_occupancy
  Rb  Rb0  1  0.22056353  0.28009716  0.24744843  1
  Rb  Rb1  1  0.88656984  0.94610347  0.25255157  1
  Rb  Rb2  1  0.55655911  0.61010689  0.25000000  1
  Rb  Rb3  1  0.78009716  0.72056353  0.74744843  1
  Rb  Rb4  1  0.44610347  0.38656984  0.75255157  1
  Rb  Rb5  1  0.11010689  0.05655911  0.75000000  1
  Cu  Cu6  1  0.95601576  0.54862517  0.26012117  1
  Cu  Cu7  1  0.61804183  0.21065124  0.23987883  1
  Cu  Cu8  1  0.29377219  0.87289381  0.25000000  1
  Cu  Cu9  1  0.04862517  0.45601576  0.76012117  1
  Cu  Cu10  1  0.71065124  0.11804183  0.73987883  1
  Cu  Cu11  1  0.37289381  0.79377219  0.75000000  1
  Bi  Bi12  1  0.15482200  0.16045259  0.50023280  1
  Bi  Bi13  1  0.51184500  0.50621441  0.49976720  1
  Bi  Bi14  1  0.00621441  0.01184500  0.99976720  1
  Bi  Bi15  1  0.66045259  0.65482200  0.00023280  1
  Bi  Bi16  1  0.57374862  0.02784523  0.90074284  1
  Bi  Bi17  1  0.91441807  0.36103184  0.90263855  1
  Bi  Bi18  1  0.24588150  0.68355464  0.90541355  1
  Bi  Bi19  1  0.09291738  0.63882077  0.09925716  1
  Bi  Bi20  1  0.42078550  0.98311236  0.09458645  1
  Bi  Bi21  1  0.75224893  0.30563516  0.09736145  1
  Bi  Bi22  1  0.48311236  0.92078550  0.59458645  1
  Bi  Bi23  1  0.80563516  0.25224893  0.59736145  1
  Bi  Bi24  1  0.13882077  0.59291738  0.59925716  1
  Bi  Bi25  1  0.18355464  0.74588150  0.40541355  1
  Bi  Bi26  1  0.52784523  0.07374862  0.40074284  1
  Bi  Bi27  1  0.86103184  0.41441807  0.40263855  1
  Se  Se28  1  0.88456902  0.69061434  0.36280688  1
  Se  Se29  1  0.55209775  0.34993728  0.36123309  1
  Se  Se30  1  0.22472518  0.02099957  0.36011465  1
  Se  Se31  1  0.11456925  0.31672972  0.63876691  1
  Se  Se32  1  0.78209698  0.97605166  0.63719312  1
  Se  Se33  1  0.44194182  0.64566743  0.63988535  1
  Se  Se34  1  0.81672972  0.61456925  0.13876691  1
  Se  Se35  1  0.47605166  0.28209698  0.13719312  1
  Se  Se36  1  0.14566743  0.94194182  0.13988535  1
  Se  Se37  1  0.19061434  0.38456902  0.86280688  1
  Se  Se38  1  0.84993728  0.05209775  0.86123309  1
  Se  Se39  1  0.52099957  0.72472518  0.86011465  1
  Se  Se40  1  0.87222485  0.29444115  0.25000000  1
  Se  Se41  1  0.53985486  0.96386771  0.25374896  1
  Se  Se42  1  0.20279929  0.62681214  0.24625104  1
  Se  Se43  1  0.12681214  0.70279929  0.74625104  1
  Se  Se44  1  0.79444115  0.37222485  0.75000000  1
  Se  Se45  1  0.46386771  0.03985486  0.75374896  1
  Se  Se46  1  0.18478879  0.44819784  0.45206048  1
  Se  Se47  1  0.85478578  0.12841611  0.45281340  1
  Se  Se48  1  0.50738991  0.78105405  0.45390878  1
  Se  Se49  1  0.81188122  0.53825089  0.54718660  1
  Se  Se50  1  0.48187821  0.21846916  0.54793952  1
  Se  Se51  1  0.15927609  0.88561195  0.54609122  1
  Se  Se52  1  0.03825089  0.31188122  0.04718660  1
  Se  Se53  1  0.71846916  0.98187821  0.04793952  1
  Se  Se54  1  0.38561195  0.65927609  0.04609122  1
  Se  Se55  1  0.94819784  0.68478879  0.95206048  1
  Se  Se56  1  0.62841611  0.35478578  0.95281340  1
  Se  Se57  1  0.28105405  0.00738991  0.95390878  1
