# generated using pymatgen
data_NdGa7Fe5
_symmetry_space_group_name_H-M   'P 1'
_cell_length_a   5.07764791
_cell_length_b   6.68039853
_cell_length_c   6.68039853
_cell_angle_alpha   98.15447372
_cell_angle_beta   112.33620954
_cell_angle_gamma   67.66379046
_symmetry_Int_Tables_number   1
_chemical_formula_structural   NdGa7Fe5
_chemical_formula_sum   'Nd1 Ga7 Fe5'
_cell_volume   193.87435978
_cell_formula_units_Z   1
loop_
 _symmetry_equiv_pos_site_id
 _symmetry_equiv_pos_as_xyz
  1  'x, y, z'
loop_
 _atom_site_type_symbol
 _atom_site_label
 _atom_site_symmetry_multiplicity
 _atom_site_fract_x
 _atom_site_fract_y
 _atom_site_fract_z
 _atom_site_occupancy
  Nd  Nd0  1  0.00000000  0.00290082  0.00290082  1
  Ga  Ga1  1  0.00000000  0.66288504  0.66288504  1
  Ga  Ga2  1  -0.00000000  0.33143048  0.33143048  1
  Ga  Ga3  1  0.65545081  0.33587511  0.64677672  1
  Ga  Ga4  1  0.34454919  0.64677672  0.33587511  1
  Ga  Ga5  1  0.71492961  0.79073885  0.22059807  1
  Ga  Ga6  1  0.28507039  0.22059807  0.79073885  1
  Ga  Ga7  1  0.50000000  0.77487343  0.77487343  1
  Fe  Fe8  1  0.49747389  0.99805863  0.49913451  1
  Fe  Fe9  1  0.50252611  0.49913451  0.99805863  1
  Fe  Fe10  1  0.99639801  0.49913451  0.99805863  1
  Fe  Fe11  1  0.00360199  0.99805863  0.49913451  1
  Fe  Fe12  1  0.50000000  0.23953520  0.23953520  1
