# generated using pymatgen
data_Nb2CuSe4
_symmetry_space_group_name_H-M   'P 1'
_cell_length_a   3.53913523
_cell_length_b   3.53913523
_cell_length_c   13.90929132
_cell_angle_alpha   90.00170412
_cell_angle_beta   89.99829588
_cell_angle_gamma   119.99888381
_symmetry_Int_Tables_number   1
_chemical_formula_structural   Nb2CuSe4
_chemical_formula_sum   'Nb2 Cu1 Se4'
_cell_volume   150.88109738
_cell_formula_units_Z   1
loop_
 _symmetry_equiv_pos_site_id
 _symmetry_equiv_pos_as_xyz
  1  'x, y, z'
loop_
 _atom_site_type_symbol
 _atom_site_label
 _atom_site_symmetry_multiplicity
 _atom_site_fract_x
 _atom_site_fract_y
 _atom_site_fract_z
 _atom_site_occupancy
  Nb  Nb0  1  0.66666175  0.33333825  0.25372099  1
  Nb  Nb1  1  0.33334581  0.66665419  0.74894010  1
  Cu  Cu2  1  0.66668550  0.33331450  0.03658378  1
  Se  Se3  1  0.66667243  0.33332757  0.63212518  1
  Se  Se4  1  0.33333122  0.66666878  0.37167772  1
  Se  Se5  1  0.33333096  0.66666904  0.13231768  1
  Se  Se6  1  0.66667234  0.33332766  0.86863456  1
