# generated using pymatgen
data_Nb3AlCr8
_symmetry_space_group_name_H-M   'P 1'
_cell_length_a   4.87326638
_cell_length_b   4.87326638
_cell_length_c   8.00431919
_cell_angle_alpha   90.01495311
_cell_angle_beta   89.98504689
_cell_angle_gamma   120.03963658
_symmetry_Int_Tables_number   1
_chemical_formula_structural   Nb3AlCr8
_chemical_formula_sum   'Nb3 Al1 Cr8'
_cell_volume   164.55902862
_cell_formula_units_Z   1
loop_
 _symmetry_equiv_pos_site_id
 _symmetry_equiv_pos_as_xyz
  1  'x, y, z'
loop_
 _atom_site_type_symbol
 _atom_site_label
 _atom_site_symmetry_multiplicity
 _atom_site_fract_x
 _atom_site_fract_y
 _atom_site_fract_z
 _atom_site_occupancy
  Nb  Nb0  1  0.33334838  0.66665162  0.44292782  1
  Nb  Nb1  1  0.33337938  0.66662062  0.06039993  1
  Nb  Nb2  1  0.66661845  0.33338155  0.93611427  1
  Al  Al3  1  0.66667078  0.33332922  0.56345736  1
  Cr  Cr4  1  0.00005418  0.99994582  0.49914219  1
  Cr  Cr5  1  0.00002465  0.99997535  0.99887103  1
  Cr  Cr6  1  0.16870123  0.33749423  0.74791524  1
  Cr  Cr7  1  0.16876255  0.83123745  0.74792189  1
  Cr  Cr8  1  0.66250577  0.83129877  0.74791524  1
  Cr  Cr9  1  0.82946726  0.65904972  0.25178021  1
  Cr  Cr10  1  0.82951710  0.17048290  0.25177461  1
  Cr  Cr11  1  0.34095028  0.17053274  0.25178021  1
