# generated using pymatgen
data_NdEr3Fe34
_symmetry_space_group_name_H-M   'P 1'
_cell_length_a   6.40735099
_cell_length_b   6.40735099
_cell_length_c   12.79611182
_cell_angle_alpha   82.86974025
_cell_angle_beta   82.86974025
_cell_angle_gamma   82.81196281
_symmetry_Int_Tables_number   1
_chemical_formula_structural   NdEr3Fe34
_chemical_formula_sum   'Nd1 Er3 Fe34'
_cell_volume   514.01800130
_cell_formula_units_Z   1
loop_
 _symmetry_equiv_pos_site_id
 _symmetry_equiv_pos_as_xyz
  1  'x, y, z'
loop_
 _atom_site_type_symbol
 _atom_site_label
 _atom_site_symmetry_multiplicity
 _atom_site_fract_x
 _atom_site_fract_y
 _atom_site_fract_z
 _atom_site_occupancy
  Nd  Nd0  1  0.65842617  0.65842617  0.32878425  1
  Er  Er1  1  0.65928340  0.65928340  0.82953649  1
  Er  Er2  1  0.34002968  0.34002968  0.17043040  1
  Er  Er3  1  0.34074203  0.34074203  0.67048752  1
  Fe  Fe4  1  0.29513412  0.70517794  0.99945067  1
  Fe  Fe5  1  0.29147725  0.70699348  0.50127526  1
  Fe  Fe6  1  0.70626169  0.00245897  0.14573409  1
  Fe  Fe7  1  0.70463795  0.00012577  0.64812860  1
  Fe  Fe8  1  0.00080442  0.29256920  0.35315313  1
  Fe  Fe9  1  0.99953535  0.29539938  0.85227253  1
  Fe  Fe10  1  0.29256920  0.00080442  0.35315313  1
  Fe  Fe11  1  0.29539938  0.99953535  0.85227253  1
  Fe  Fe12  1  0.00245897  0.70626169  0.14573409  1
  Fe  Fe13  1  0.00012577  0.70463795  0.64812860  1
  Fe  Fe14  1  0.70699348  0.29147725  0.50127526  1
  Fe  Fe15  1  0.70517794  0.29513412  0.99945067  1
  Fe  Fe16  1  0.00097275  0.00097275  0.24936900  1
  Fe  Fe17  1  0.00010511  0.00010511  0.75012151  1
  Fe  Fe18  1  0.00009644  0.49999941  0.99953171  1
  Fe  Fe19  1  0.00091248  0.49918494  0.50099624  1
  Fe  Fe20  1  0.49999941  0.00009644  0.99953171  1
  Fe  Fe21  1  0.49918494  0.00091248  0.50099624  1
  Fe  Fe22  1  0.90409413  0.90409413  0.45195266  1
  Fe  Fe23  1  0.90306656  0.90306656  0.95093584  1
  Fe  Fe24  1  0.09733209  0.09733209  0.04823356  1
  Fe  Fe25  1  0.09704197  0.09704197  0.54968787  1
  Fe  Fe26  1  0.84521775  0.34183128  0.17049536  1
  Fe  Fe27  1  0.84369584  0.34358101  0.67221659  1
  Fe  Fe28  1  0.34201881  0.34201881  0.42291906  1
  Fe  Fe29  1  0.34415853  0.34415853  0.92216776  1
  Fe  Fe30  1  0.34183128  0.84521775  0.17049536  1
  Fe  Fe31  1  0.34358101  0.84369584  0.67221659  1
  Fe  Fe32  1  0.15632621  0.65647102  0.32832366  1
  Fe  Fe33  1  0.15633196  0.65631422  0.82815118  1
  Fe  Fe34  1  0.65603304  0.65603304  0.07644093  1
  Fe  Fe35  1  0.65615766  0.65615766  0.57947507  1
  Fe  Fe36  1  0.65647102  0.15632621  0.32832366  1
  Fe  Fe37  1  0.65631422  0.15633196  0.82815118  1
