# generated using pymatgen
data_Na6Ca3U2O12
_symmetry_space_group_name_H-M   'P 1'
_cell_length_a   5.93526464
_cell_length_b   5.91323952
_cell_length_c   10.77698808
_cell_angle_alpha   79.71831971
_cell_angle_beta   79.63809202
_cell_angle_gamma   110.37172344
_symmetry_Int_Tables_number   1
_chemical_formula_structural   Na6Ca3U2O12
_chemical_formula_sum   'Na6 Ca3 U2 O12'
_cell_volume   336.66396326
_cell_formula_units_Z   1
loop_
 _symmetry_equiv_pos_site_id
 _symmetry_equiv_pos_as_xyz
  1  'x, y, z'
loop_
 _atom_site_type_symbol
 _atom_site_label
 _atom_site_symmetry_multiplicity
 _atom_site_fract_x
 _atom_site_fract_y
 _atom_site_fract_z
 _atom_site_occupancy
  Na  Na0  1  0.12374016  0.87374016  0.25251968  1
  Na  Na1  1  0.86953131  0.11953131  0.76093739  1
  Na  Na2  1  0.95696841  0.70696841  0.58606318  1
  Na  Na3  1  0.28810980  0.03810980  0.92378040  1
  Na  Na4  1  0.03662221  0.28662221  0.42675558  1
  Na  Na5  1  0.71958074  0.96958074  0.06083853  1
  Ca  Ca6  1  0.45771043  0.20771043  0.58457914  1
  Ca  Ca7  1  0.20944859  0.45944859  0.08110282  1
  Ca  Ca8  1  0.54357323  0.79357323  0.41285354  1
  U  U9  1  0.62726288  0.37726288  0.24547424  1
  U  U10  1  0.37357690  0.62357690  0.75284619  1
  O  O11  1  0.93121453  0.66399957  0.11468353  1
  O  O12  1  0.75891215  0.52365591  0.40003472  1
  O  O13  1  0.34105313  0.07630937  0.40003472  1
  O  O14  1  0.45410194  0.22131690  0.11468353  1
  O  O15  1  0.09977140  0.32137151  0.90285967  1
  O  O16  1  0.23481458  0.47553022  0.59503661  1
  O  O17  1  0.67014881  0.92943317  0.59503661  1
  O  O18  1  0.49736893  0.77576882  0.90285967  1
  O  O19  1  0.84387348  0.15552759  0.24904206  1
  O  O20  1  0.40708446  0.59543034  0.24904206  1
  O  O21  1  0.18299686  0.85253633  0.73724806  1
  O  O22  1  0.57975508  0.41021561  0.73724806  1
