# generated using pymatgen
data_Nb6CdSe8
_symmetry_space_group_name_H-M   'P 1'
_cell_length_a   3.46962290
_cell_length_b   10.22456387
_cell_length_c   10.22374991
_cell_angle_alpha   59.98614468
_cell_angle_beta   90.00142500
_cell_angle_gamma   90.00053673
_symmetry_Int_Tables_number   1
_chemical_formula_structural   Nb6CdSe8
_chemical_formula_sum   'Nb6 Cd1 Se8'
_cell_volume   314.05612357
_cell_formula_units_Z   1
loop_
 _symmetry_equiv_pos_site_id
 _symmetry_equiv_pos_as_xyz
  1  'x, y, z'
loop_
 _atom_site_type_symbol
 _atom_site_label
 _atom_site_symmetry_multiplicity
 _atom_site_fract_x
 _atom_site_fract_y
 _atom_site_fract_z
 _atom_site_occupancy
  Nb  Nb0  1  0.74981016  0.37988577  0.51299453  1
  Nb  Nb1  1  0.74984167  0.10709083  0.37990388  1
  Nb  Nb2  1  0.74981813  0.51303038  0.10710856  1
  Nb  Nb3  1  0.25018984  0.62011423  0.48700547  1
  Nb  Nb4  1  0.25015833  0.89290917  0.62009612  1
  Nb  Nb5  1  0.25018187  0.48696962  0.89289144  1
  Cd  Cd6  1  0.50000000  -0.00000000  0.00000000  1
  Se  Se7  1  0.75026247  0.06240174  0.65716708  1
  Se  Se8  1  0.75027393  0.28055858  0.06236001  1
  Se  Se9  1  0.75024063  0.65720404  0.28049050  1
  Se  Se10  1  0.24973753  0.93759826  0.34283292  1
  Se  Se11  1  0.24972607  0.71944142  0.93763999  1
  Se  Se12  1  0.24975937  0.34279596  0.71950950  1
  Se  Se13  1  0.75041397  0.66667794  0.66672471  1
  Se  Se14  1  0.24958603  0.33332206  0.33327529  1
