# generated using pymatgen
data_Nb4Cr7Si8
_symmetry_space_group_name_H-M   'P 1'
_cell_length_a   4.85997212
_cell_length_b   13.23112663
_cell_length_c   15.91697176
_cell_angle_alpha   90.00000000
_cell_angle_beta   90.00000000
_cell_angle_gamma   90.00000000
_symmetry_Int_Tables_number   1
_chemical_formula_structural   Nb4Cr7Si8
_chemical_formula_sum   'Nb16 Cr28 Si32'
_cell_volume   1023.50754745
_cell_formula_units_Z   4
loop_
 _symmetry_equiv_pos_site_id
 _symmetry_equiv_pos_as_xyz
  1  'x, y, z'
loop_
 _atom_site_type_symbol
 _atom_site_label
 _atom_site_symmetry_multiplicity
 _atom_site_fract_x
 _atom_site_fract_y
 _atom_site_fract_z
 _atom_site_occupancy
  Nb  Nb0  1  0.25000000  0.86678872  0.45763390  1
  Nb  Nb1  1  0.25000000  0.36678872  0.04236610  1
  Nb  Nb2  1  0.75000000  0.13321128  0.54236610  1
  Nb  Nb3  1  0.75000000  0.63321128  0.95763390  1
  Nb  Nb4  1  0.25000000  0.75069345  0.02670221  1
  Nb  Nb5  1  0.25000000  0.25069345  0.47329779  1
  Nb  Nb6  1  0.75000000  0.24930655  0.97329779  1
  Nb  Nb7  1  0.75000000  0.74930655  0.52670221  1
  Nb  Nb8  1  0.25000000  0.56790192  0.30158925  1
  Nb  Nb9  1  0.25000000  0.06790192  0.19841075  1
  Nb  Nb10  1  0.75000000  0.43209808  0.69841075  1
  Nb  Nb11  1  0.75000000  0.93209808  0.80158925  1
  Nb  Nb12  1  0.25000000  0.95811666  0.90790453  1
  Nb  Nb13  1  0.25000000  0.45811666  0.59209547  1
  Nb  Nb14  1  0.75000000  0.04188334  0.09209547  1
  Nb  Nb15  1  0.75000000  0.54188334  0.40790453  1
  Cr  Cr16  1  0.00771675  0.56129486  0.12121856  1
  Cr  Cr17  1  0.49228325  0.06129486  0.37878144  1
  Cr  Cr18  1  0.50771675  0.43870514  0.87878144  1
  Cr  Cr19  1  0.99228325  0.93870514  0.62121856  1
  Cr  Cr20  1  0.99228325  0.43870514  0.87878144  1
  Cr  Cr21  1  0.50771675  0.93870514  0.62121856  1
  Cr  Cr22  1  0.49228325  0.56129486  0.12121856  1
  Cr  Cr23  1  0.00771675  0.06129486  0.37878144  1
  Cr  Cr24  1  0.25000000  0.81098739  0.75050544  1
  Cr  Cr25  1  0.25000000  0.31098739  0.74949456  1
  Cr  Cr26  1  0.75000000  0.18901261  0.24949456  1
  Cr  Cr27  1  0.75000000  0.68901261  0.25050544  1
  Cr  Cr28  1  0.99141525  0.86341305  0.17639447  1
  Cr  Cr29  1  0.50858475  0.36341305  0.32360553  1
  Cr  Cr30  1  0.49141525  0.13658695  0.82360553  1
  Cr  Cr31  1  0.00858475  0.63658695  0.67639447  1
  Cr  Cr32  1  0.00858475  0.13658695  0.82360553  1
  Cr  Cr33  1  0.49141525  0.63658695  0.67639447  1
  Cr  Cr34  1  0.50858475  0.86341305  0.17639447  1
  Cr  Cr35  1  0.99141525  0.36341305  0.32360553  1
  Cr  Cr36  1  0.25000000  0.63580692  0.84463034  1
  Cr  Cr37  1  0.25000000  0.13580692  0.65536966  1
  Cr  Cr38  1  0.75000000  0.36419308  0.15536966  1
  Cr  Cr39  1  0.75000000  0.86419308  0.34463034  1
  Cr  Cr40  1  0.25000000  0.62667859  0.50379077  1
  Cr  Cr41  1  0.25000000  0.12667859  0.99620923  1
  Cr  Cr42  1  0.75000000  0.37332141  0.49620923  1
  Cr  Cr43  1  0.75000000  0.87332141  0.00379077  1
  Si  Si44  1  0.25000000  0.91320410  0.30200358  1
  Si  Si45  1  0.25000000  0.41320410  0.19799642  1
  Si  Si46  1  0.75000000  0.08679590  0.69799642  1
  Si  Si47  1  0.75000000  0.58679590  0.80200358  1
  Si  Si48  1  0.25000000  0.94902955  0.06657391  1
  Si  Si49  1  0.25000000  0.44902955  0.43342609  1
  Si  Si50  1  0.75000000  0.05097045  0.93342609  1
  Si  Si51  1  0.75000000  0.55097045  0.56657391  1
  Si  Si52  1  0.25000000  0.55019747  0.98193018  1
  Si  Si53  1  0.25000000  0.05019747  0.51806982  1
  Si  Si54  1  0.75000000  0.44980253  0.01806982  1
  Si  Si55  1  0.75000000  0.94980253  0.48193018  1
  Si  Si56  1  0.00215124  0.71582466  0.38084328  1
  Si  Si57  1  0.49784876  0.21582466  0.11915672  1
  Si  Si58  1  0.50215124  0.28417534  0.61915672  1
  Si  Si59  1  0.99784876  0.78417534  0.88084328  1
  Si  Si60  1  0.99784876  0.28417534  0.61915672  1
  Si  Si61  1  0.50215124  0.78417534  0.88084328  1
  Si  Si62  1  0.49784876  0.71582466  0.38084328  1
  Si  Si63  1  0.00215124  0.21582466  0.11915672  1
  Si  Si64  1  0.25000000  0.99690813  0.74782612  1
  Si  Si65  1  0.25000000  0.49690813  0.75217388  1
  Si  Si66  1  0.75000000  0.00309187  0.25217388  1
  Si  Si67  1  0.75000000  0.50309187  0.24782612  1
  Si  Si68  1  0.25000000  0.70892924  0.19286993  1
  Si  Si69  1  0.25000000  0.20892924  0.30713007  1
  Si  Si70  1  0.75000000  0.29107076  0.80713007  1
  Si  Si71  1  0.75000000  0.79107076  0.69286993  1
  Si  Si72  1  0.25000000  0.77375336  0.60261621  1
  Si  Si73  1  0.25000000  0.27375336  0.89738379  1
  Si  Si74  1  0.75000000  0.22624664  0.39738379  1
  Si  Si75  1  0.75000000  0.72624664  0.10261621  1
