# generated using pymatgen
data_Nd2Mn17C2
_symmetry_space_group_name_H-M   'P 1'
_cell_length_a   6.46768661
_cell_length_b   6.46768661
_cell_length_c   6.45884253
_cell_angle_alpha   83.60742579
_cell_angle_beta   83.60742579
_cell_angle_gamma   83.87377459
_symmetry_Int_Tables_number   1
_chemical_formula_structural   Nd2Mn17C2
_chemical_formula_sum   'Nd2 Mn17 C2'
_cell_volume   265.61059878
_cell_formula_units_Z   1
loop_
 _symmetry_equiv_pos_site_id
 _symmetry_equiv_pos_as_xyz
  1  'x, y, z'
loop_
 _atom_site_type_symbol
 _atom_site_label
 _atom_site_symmetry_multiplicity
 _atom_site_fract_x
 _atom_site_fract_y
 _atom_site_fract_z
 _atom_site_occupancy
  Nd  Nd0  1  0.64535618  0.64535618  0.66155548  1
  Nd  Nd1  1  0.35464382  0.35464382  0.33844452  1
  Mn  Mn2  1  0.90848907  0.90848907  0.90745787  1
  Mn  Mn3  1  0.09151093  0.09151093  0.09254213  1
  Mn  Mn4  1  0.26824754  0.73175246  -0.00000000  1
  Mn  Mn5  1  0.72044262  0.99658646  0.28218307  1
  Mn  Mn6  1  0.00341354  0.27955738  0.71781693  1
  Mn  Mn7  1  0.27955738  0.00341354  0.71781693  1
  Mn  Mn8  1  0.99658646  0.72044262  0.28218307  1
  Mn  Mn9  1  0.73175246  0.26824754  -0.00000000  1
  Mn  Mn10  1  -0.00000000  0.00000000  0.50000000  1
  Mn  Mn11  1  -0.00000000  0.50000000  -0.00000000  1
  Mn  Mn12  1  0.50000000  0.00000000  -0.00000000  1
  Mn  Mn13  1  0.86931489  0.33382093  0.33582748  1
  Mn  Mn14  1  0.34375430  0.34375430  0.86534932  1
  Mn  Mn15  1  0.33382093  0.86931489  0.33582748  1
  Mn  Mn16  1  0.13068511  0.66617907  0.66417252  1
  Mn  Mn17  1  0.65624570  0.65624570  0.13465068  1
  Mn  Mn18  1  0.66617907  0.13068511  0.66417252  1
  C  C19  1  0.50000000  0.00000000  0.50000000  1
  C  C20  1  -0.00000000  0.50000000  0.50000000  1
