# generated using pymatgen
data_Mn5(FeO3)4
_symmetry_space_group_name_H-M   'P 1'
_cell_length_a   6.07726020
_cell_length_b   6.17112065
_cell_length_c   15.04875347
_cell_angle_alpha   88.59927423
_cell_angle_beta   90.35130160
_cell_angle_gamma   60.99878272
_symmetry_Int_Tables_number   1
_chemical_formula_structural   Mn5(FeO3)4
_chemical_formula_sum   'Mn10 Fe8 O24'
_cell_volume   493.36106238
_cell_formula_units_Z   2
loop_
 _symmetry_equiv_pos_site_id
 _symmetry_equiv_pos_as_xyz
  1  'x, y, z'
loop_
 _atom_site_type_symbol
 _atom_site_label
 _atom_site_symmetry_multiplicity
 _atom_site_fract_x
 _atom_site_fract_y
 _atom_site_fract_z
 _atom_site_occupancy
  Mn  Mn0  1  0.83572781  0.33532066  0.95980157  1
  Mn  Mn1  1  0.16734964  0.67177056  0.29214598  1
  Mn  Mn2  1  0.50147373  0.00357344  0.62392639  1
  Mn  Mn3  1  0.16519327  0.66309356  0.04274061  1
  Mn  Mn4  1  0.49931736  0.99489644  0.37452102  1
  Mn  Mn5  1  0.83093819  0.33134534  0.70686443  1
  Mn  Mn6  1  0.16669744  0.16682579  0.16719960  1
  Mn  Mn7  1  0.49996956  0.49984121  0.49946740  1
  Mn  Mn8  1  0.83333300  0.83333300  0.83333300  1
  Mn  Mn9  1  0.33333300  0.33333300  0.83333300  1
  Fe  Fe10  1  0.66653373  0.66683689  0.16768448  1
  Fe  Fe11  1  0.00013327  0.99983011  0.49898252  1
  Fe  Fe12  1  0.50151036  0.99678402  0.00075671  1
  Fe  Fe13  1  0.83333300  0.33333300  0.33333300  1
  Fe  Fe14  1  0.16515664  0.66988298  0.66591029  1
  Fe  Fe15  1  0.66559190  0.16735843  0.16729847  1
  Fe  Fe16  1  0.00107510  0.49930857  0.49936853  1
  Fe  Fe17  1  0.33333300  0.83333300  0.83333300  1
  O  O18  1  0.04112538  0.49039744  0.75070883  1
  O  O19  1  0.36528775  0.83280400  0.08467483  1
  O  O20  1  0.69825547  0.16580920  0.41620883  1
  O  O21  1  0.83682325  0.33687231  0.09859913  1
  O  O22  1  0.17069316  0.66986854  0.43061975  1
  O  O23  1  0.52058506  0.97426916  0.76170840  1
  O  O24  1  0.65403167  0.70708593  0.91396347  1
  O  O25  1  0.98754570  0.04160016  0.24534319  1
  O  O26  1  0.32133574  0.37484967  0.57779135  1
  O  O27  1  0.46424207  0.52001926  0.75672878  1
  O  O28  1  0.79856982  0.85856877  0.09077099  1
  O  O29  1  0.13336836  0.19059273  0.42247484  1
  O  O30  1  0.96841053  0.50085680  0.25045717  1
  O  O31  1  0.30137925  0.83386300  0.58199217  1
  O  O32  1  0.62554162  0.17626956  0.91595817  1
  O  O33  1  0.14608194  0.69239784  0.90495860  1
  O  O34  1  0.49597384  0.99679846  0.23604725  1
  O  O35  1  0.82984275  0.32979369  0.56806687  1
  O  O36  1  0.34533126  0.29181733  0.08887565  1
  O  O37  1  0.67912030  0.62506584  0.42132281  1
  O  O38  1  0.01263533  0.95958107  0.75270353  1
  O  O39  1  0.53329764  0.47607327  0.24419116  1
  O  O40  1  0.86809718  0.80809823  0.57589601  1
  O  O41  1  0.20242493  0.14664774  0.90993822  1
