# generated using pymatgen
data_Na3LiGa4(SiO3)8
_symmetry_space_group_name_H-M   'P 1'
_cell_length_a   5.34190278
_cell_length_b   9.48719244
_cell_length_c   8.78189864
_cell_angle_alpha   90.00000000
_cell_angle_beta   90.00000000
_cell_angle_gamma   103.83721983
_symmetry_Int_Tables_number   1
_chemical_formula_structural   Na3LiGa4(SiO3)8
_chemical_formula_sum   'Na3 Li1 Ga4 Si8 O24'
_cell_volume   432.14749703
_cell_formula_units_Z   1
loop_
 _symmetry_equiv_pos_site_id
 _symmetry_equiv_pos_as_xyz
  1  'x, y, z'
loop_
 _atom_site_type_symbol
 _atom_site_label
 _atom_site_symmetry_multiplicity
 _atom_site_fract_x
 _atom_site_fract_y
 _atom_site_fract_z
 _atom_site_occupancy
  Na  Na0  1  0.75000000  -0.00000000  0.29793455  1
  Na  Na1  1  0.75000000  0.50000000  0.20223815  1
  Na  Na2  1  0.25000000  -0.00000000  0.70268272  1
  Li  Li3  1  0.25000000  0.50000000  0.78059001  1
  Ga  Ga4  1  0.25000000  0.50000000  0.40050353  1
  Ga  Ga5  1  0.75000000  -0.00000000  0.90149384  1
  Ga  Ga6  1  0.75000000  0.50000000  0.60186680  1
  Ga  Ga7  1  0.25000000  -0.00000000  0.09891588  1
  Si  Si8  1  0.44544334  0.70752288  0.08944327  1
  Si  Si9  1  0.94435773  0.20929404  0.59244299  1
  Si  Si10  1  0.05455666  0.29247712  0.08944327  1
  Si  Si11  1  0.55564227  0.79070596  0.59244299  1
  Si  Si12  1  0.55225998  0.29325662  0.90901919  1
  Si  Si13  1  0.05696466  0.79051642  0.40930091  1
  Si  Si14  1  0.94774002  0.70674338  0.90901919  1
  Si  Si15  1  0.44303534  0.20948358  0.40930091  1
  O  O16  1  0.44468648  0.64100374  0.25856474  1
  O  O17  1  0.94340832  0.13976749  0.75906224  1
  O  O18  1  0.05531352  0.35899626  0.25856474  1
  O  O19  1  0.55659168  0.86023251  0.75906224  1
  O  O20  1  0.54473898  0.36369223  0.74239524  1
  O  O21  1  0.05600961  0.85895940  0.24187152  1
  O  O22  1  0.95526102  0.63630777  0.74239524  1
  O  O23  1  0.44399039  0.14104060  0.24187152  1
  O  O24  1  0.52171559  0.88704591  0.07810347  1
  O  O25  1  0.02572771  0.38886609  0.58517369  1
  O  O26  1  0.97828441  0.11295409  0.07810347  1
  O  O27  1  0.47427229  0.61113391  0.58517369  1
  O  O28  1  0.47691564  0.11388825  0.92091162  1
  O  O29  1  0.97812176  0.61132136  0.42179077  1
  O  O30  1  0.02308436  0.88611175  0.92091162  1
  O  O31  1  0.52187824  0.38867864  0.42179077  1
  O  O32  1  0.16521463  0.64458227  0.00573654  1
  O  O33  1  0.66202631  0.14990282  0.50840166  1
  O  O34  1  0.33478537  0.35541773  0.00573654  1
  O  O35  1  0.83797369  0.85009718  0.50840166  1
  O  O36  1  0.83496577  0.35283880  0.99205936  1
  O  O37  1  0.33929796  0.85178242  0.49261004  1
  O  O38  1  0.66503423  0.64716120  0.99205936  1
  O  O39  1  0.16070204  0.14821758  0.49261004  1
