# generated using pymatgen
data_Mn3CdTe4
_symmetry_space_group_name_H-M   'P 1'
_cell_length_a   4.56771568
_cell_length_b   4.56771568
_cell_length_c   15.03175753
_cell_angle_alpha   90.00000000
_cell_angle_beta   81.26089076
_cell_angle_gamma   120.00000000
_symmetry_Int_Tables_number   1
_chemical_formula_structural   Mn3CdTe4
_chemical_formula_sum   'Mn3 Cd1 Te4'
_cell_volume   267.39290651
_cell_formula_units_Z   1
loop_
 _symmetry_equiv_pos_site_id
 _symmetry_equiv_pos_as_xyz
  1  'x, y, z'
loop_
 _atom_site_type_symbol
 _atom_site_label
 _atom_site_symmetry_multiplicity
 _atom_site_fract_x
 _atom_site_fract_y
 _atom_site_fract_z
 _atom_site_occupancy
  Mn  Mn0  1  0.49939138  0.24969569  0.25091293  1
  Mn  Mn1  1  0.00003861  0.50001931  0.49994208  1
  Mn  Mn2  1  0.50215957  0.75107979  0.74676064  1
  Cd  Cd3  1  0.99908787  0.99954393  0.00136820  1
  Te  Te4  1  0.87061280  0.93530640  0.19408080  1
  Te  Te5  1  0.37461904  0.18730952  0.43807144  1
  Te  Te6  1  0.87483431  0.43741715  0.68774854  1
  Te  Te7  1  0.37925643  0.68962821  0.93111536  1
