# generated using pymatgen
data_Mg3Te2Pb6WO18
_symmetry_space_group_name_H-M   'P 1'
_cell_length_a   5.71493013
_cell_length_b   5.71493013
_cell_length_c   13.98936289
_cell_angle_alpha   90.00000000
_cell_angle_beta   90.00000000
_cell_angle_gamma   120.00000000
_symmetry_Int_Tables_number   1
_chemical_formula_structural   Mg3Te2Pb6WO18
_chemical_formula_sum   'Mg3 Te2 Pb6 W1 O18'
_cell_volume   395.68575744
_cell_formula_units_Z   1
loop_
 _symmetry_equiv_pos_site_id
 _symmetry_equiv_pos_as_xyz
  1  'x, y, z'
loop_
 _atom_site_type_symbol
 _atom_site_label
 _atom_site_symmetry_multiplicity
 _atom_site_fract_x
 _atom_site_fract_y
 _atom_site_fract_z
 _atom_site_occupancy
  Mg  Mg0  1  0.33333300  0.66666700  0.66666700  1
  Mg  Mg1  1  0.00000000  0.00000000  0.00057629  1
  Mg  Mg2  1  0.66666700  0.33333300  0.33275671  1
  Te  Te3  1  0.00000000  -0.00000000  0.50015533  1
  Te  Te4  1  0.66666700  0.33333300  0.83317767  1
  Pb  Pb5  1  0.00000000  -0.00000000  0.75010060  1
  Pb  Pb6  1  0.66666700  0.33333300  0.08297715  1
  Pb  Pb7  1  0.33333300  0.66666700  0.41703071  1
  Pb  Pb8  1  0.33333300  0.66666700  0.91630329  1
  Pb  Pb9  1  -0.00000000  0.00000000  0.25035585  1
  Pb  Pb10  1  0.66666700  0.33333300  0.58323240  1
  W  W11  1  0.33333300  0.66666700  0.16666700  1
  O  O12  1  0.50588197  0.01176295  0.75299965  1
  O  O13  1  0.17187828  0.34375757  0.08589004  1
  O  O14  1  0.83957164  0.67914329  0.41969133  1
  O  O15  1  0.82709536  0.17290464  0.91364167  1
  O  O16  1  0.49478772  0.50521228  0.24744396  1
  O  O17  1  0.16078503  0.83921497  0.58033335  1
  O  O18  1  0.98823705  0.49411803  0.75299965  1
  O  O19  1  0.65624243  0.82812172  0.08589004  1
  O  O20  1  0.32085671  0.16042836  0.41969133  1
  O  O21  1  0.82709536  0.65418971  0.91364167  1
  O  O22  1  0.49478772  0.98957643  0.24744396  1
  O  O23  1  0.16078503  0.32157005  0.58033335  1
  O  O24  1  0.50588197  0.49411803  0.75299965  1
  O  O25  1  0.17187828  0.82812172  0.08589004  1
  O  O26  1  0.83957164  0.16042836  0.41969133  1
  O  O27  1  0.34581029  0.17290464  0.91364167  1
  O  O28  1  0.01042357  0.50521228  0.24744396  1
  O  O29  1  0.67842995  0.83921497  0.58033335  1
