# generated using pymatgen
data_Lu(MnAl)6
_symmetry_space_group_name_H-M   'P 1'
_cell_length_a   4.92547897
_cell_length_b   6.60846532
_cell_length_c   6.60846532
_cell_angle_alpha   99.25112566
_cell_angle_beta   111.88002456
_cell_angle_gamma   68.11997544
_symmetry_Int_Tables_number   1
_chemical_formula_structural   Lu(MnAl)6
_chemical_formula_sum   'Lu1 Mn6 Al6'
_cell_volume   185.17134001
_cell_formula_units_Z   1
loop_
 _symmetry_equiv_pos_site_id
 _symmetry_equiv_pos_as_xyz
  1  'x, y, z'
loop_
 _atom_site_type_symbol
 _atom_site_label
 _atom_site_symmetry_multiplicity
 _atom_site_fract_x
 _atom_site_fract_y
 _atom_site_fract_z
 _atom_site_occupancy
  Lu  Lu0  1  -0.00000000  0.00000000  -0.00000000  1
  Mn  Mn1  1  0.50000000  0.00000000  0.50000000  1
  Mn  Mn2  1  -0.00000000  0.00000000  0.50000000  1
  Mn  Mn3  1  0.50000000  0.50000000  -0.00000000  1
  Mn  Mn4  1  -0.00000000  0.50000000  -0.00000000  1
  Mn  Mn5  1  0.50000000  0.76535614  0.76535614  1
  Mn  Mn6  1  0.50000000  0.23464386  0.23464386  1
  Al  Al7  1  0.65361296  0.34638704  0.65361296  1
  Al  Al8  1  0.34638704  0.65361296  0.34638704  1
  Al  Al9  1  -0.00000000  0.33676337  0.33676337  1
  Al  Al10  1  -0.00000000  0.66323663  0.66323663  1
  Al  Al11  1  0.69390106  0.80609894  0.19390106  1
  Al  Al12  1  0.30609894  0.19390106  0.80609894  1
