# generated using pymatgen
data_Lu2Mn3Sb3O14
_symmetry_space_group_name_H-M   'P 1'
_cell_length_a   7.28544789
_cell_length_b   7.20227040
_cell_length_c   7.28544789
_cell_angle_alpha   59.85435269
_cell_angle_beta   119.80333998
_cell_angle_gamma   120.14564731
_symmetry_Int_Tables_number   1
_chemical_formula_structural   Lu2Mn3Sb3O14
_chemical_formula_sum   'Lu2 Mn3 Sb3 O14'
_cell_volume   270.11318756
_cell_formula_units_Z   1
loop_
 _symmetry_equiv_pos_site_id
 _symmetry_equiv_pos_as_xyz
  1  'x, y, z'
loop_
 _atom_site_type_symbol
 _atom_site_label
 _atom_site_symmetry_multiplicity
 _atom_site_fract_x
 _atom_site_fract_y
 _atom_site_fract_z
 _atom_site_occupancy
  Lu  Lu0  1  0.50000000  0.50000000  0.00000000  1
  Lu  Lu1  1  0.50000000  0.00000000  0.00000000  1
  Mn  Mn2  1  0.50000000  0.00000000  0.50000000  1
  Mn  Mn3  1  -0.00000000  0.00000000  0.00000000  1
  Mn  Mn4  1  0.00000000  0.00000000  0.50000000  1
  Sb  Sb5  1  0.00000000  0.50000000  0.50000000  1
  Sb  Sb6  1  0.00000000  0.50000000  0.00000000  1
  Sb  Sb7  1  0.50000000  0.50000000  0.50000000  1
  O  O8  1  0.37648050  0.12829744  0.12351950  1
  O  O9  1  0.62351950  0.87170256  0.87648050  1
  O  O10  1  0.07675839  0.83021750  0.42324161  1
  O  O11  1  0.66708127  0.42707899  0.83291873  1
  O  O12  1  0.09505641  0.82870688  0.84359346  1
  O  O13  1  0.66908421  0.42427044  0.41134704  1
  O  O14  1  0.08865296  0.42427044  0.83091579  1
  O  O15  1  0.65640654  0.82870688  0.40494359  1
  O  O16  1  0.92324161  0.16978250  0.57675839  1
  O  O17  1  0.33291873  0.57292101  0.16708127  1
  O  O18  1  0.90494359  0.17129312  0.15640654  1
  O  O19  1  0.33091579  0.57572956  0.58865296  1
  O  O20  1  0.91134704  0.57572956  0.16908421  1
  O  O21  1  0.34359346  0.17129312  0.59505641  1
