# generated using pymatgen
data_Na2(WO3)3
_symmetry_space_group_name_H-M   'P 1'
_cell_length_a   5.55859947
_cell_length_b   5.55859947
_cell_length_c   6.80549036
_cell_angle_alpha   90.00000000
_cell_angle_beta   90.00000000
_cell_angle_gamma   120.00000000
_symmetry_Int_Tables_number   1
_chemical_formula_structural   Na2(WO3)3
_chemical_formula_sum   'Na2 W3 O9'
_cell_volume   182.10455888
_cell_formula_units_Z   1
loop_
 _symmetry_equiv_pos_site_id
 _symmetry_equiv_pos_as_xyz
  1  'x, y, z'
loop_
 _atom_site_type_symbol
 _atom_site_label
 _atom_site_symmetry_multiplicity
 _atom_site_fract_x
 _atom_site_fract_y
 _atom_site_fract_z
 _atom_site_occupancy
  Na  Na0  1  0.66666700  0.33333300  0.33222535  1
  Na  Na1  1  0.33333300  0.66666700  0.66777465  1
  W  W2  1  0.00000000  0.00000000  0.50000000  1
  W  W3  1  0.66666700  0.33333300  0.83835865  1
  W  W4  1  0.33333300  0.66666700  0.16164135  1
  O  O5  1  0.83259051  0.16740949  0.66215656  1
  O  O6  1  0.50000000  0.50000000  -0.00000000  1
  O  O7  1  0.16740949  0.83259051  0.33784344  1
  O  O8  1  0.66518203  0.83259051  0.33784344  1
  O  O9  1  0.33481797  0.16740949  0.66215656  1
  O  O10  1  0.00000000  0.50000000  -0.00000000  1
  O  O11  1  0.83259051  0.66518203  0.66215656  1
  O  O12  1  0.50000000  0.00000000  -0.00000000  1
  O  O13  1  0.16740949  0.33481797  0.33784344  1
