# generated using pymatgen
data_La2YC6
_symmetry_space_group_name_H-M   'P 1'
_cell_length_a   3.82934753
_cell_length_b   4.22672588
_cell_length_c   10.11130317
_cell_angle_alpha   82.49266881
_cell_angle_beta   90.00000000
_cell_angle_gamma   63.06417835
_symmetry_Int_Tables_number   1
_chemical_formula_structural   La2YC6
_chemical_formula_sum   'La2 Y1 C6'
_cell_volume   144.32774551
_cell_formula_units_Z   1
loop_
 _symmetry_equiv_pos_site_id
 _symmetry_equiv_pos_as_xyz
  1  'x, y, z'
loop_
 _atom_site_type_symbol
 _atom_site_label
 _atom_site_symmetry_multiplicity
 _atom_site_fract_x
 _atom_site_fract_y
 _atom_site_fract_z
 _atom_site_occupancy
  La  La0  1  0.33456211  0.33087477  0.32961876  1
  La  La1  1  0.66543789  0.66912523  0.67038124  1
  Y  Y2  1  0.00000000  -0.00000000  -0.00000000  1
  C  C3  1  0.73625644  0.52748711  0.11894435  1
  C  C4  1  0.06639287  0.86721326  0.46541660  1
  C  C5  1  0.40042404  0.19915293  0.81685743  1
  C  C6  1  0.26374356  0.47251289  0.88105565  1
  C  C7  1  0.59957596  0.80084707  0.18314257  1
  C  C8  1  0.93360713  0.13278674  0.53458340  1
