# generated using pymatgen
data_Lu5Sc5(Si5Ir2)4
_symmetry_space_group_name_H-M   'P 1'
_cell_length_a   4.15266363
_cell_length_b   12.47505995
_cell_length_c   12.47505995
_cell_angle_alpha   89.98128084
_cell_angle_beta   90.00000000
_cell_angle_gamma   90.00000000
_symmetry_Int_Tables_number   1
_chemical_formula_structural   Lu5Sc5(Si5Ir2)4
_chemical_formula_sum   'Lu5 Sc5 Si20 Ir8'
_cell_volume   646.26704935
_cell_formula_units_Z   1
loop_
 _symmetry_equiv_pos_site_id
 _symmetry_equiv_pos_as_xyz
  1  'x, y, z'
loop_
 _atom_site_type_symbol
 _atom_site_label
 _atom_site_symmetry_multiplicity
 _atom_site_fract_x
 _atom_site_fract_y
 _atom_site_fract_z
 _atom_site_occupancy
  Lu  Lu0  1  0.50000000  0.17494522  0.67494522  1
  Lu  Lu1  1  0.50000000  0.82443783  0.32443783  1
  Lu  Lu2  1  0.50000000  0.32408410  0.17644730  1
  Lu  Lu3  1  0.50000000  0.67644730  0.82408410  1
  Lu  Lu4  1  0.50000000  0.38308525  0.88308525  1
  Sc  Sc5  1  0.50000000  0.61763682  0.11763682  1
  Sc  Sc6  1  0.50000000  0.11826162  0.38163022  1
  Sc  Sc7  1  0.50000000  0.88163022  0.61826162  1
  Sc  Sc8  1  -0.00000000  0.50002927  0.49985502  1
  Sc  Sc9  1  -0.00000000  0.99985502  0.00002927  1
  Si  Si10  1  0.00000000  0.06487573  0.56487573  1
  Si  Si11  1  0.00000000  0.93489523  0.43489523  1
  Si  Si12  1  0.00000000  0.43525103  0.06604714  1
  Si  Si13  1  -0.00000000  0.56604714  0.93525103  1
  Si  Si14  1  0.00000000  0.70172924  0.66275730  1
  Si  Si15  1  -0.00000000  0.29846654  0.33714735  1
  Si  Si16  1  0.00000000  0.79857119  0.16316165  1
  Si  Si17  1  0.00000000  0.20042593  0.83630459  1
  Si  Si18  1  0.00000000  0.66316165  0.29857119  1
  Si  Si19  1  0.00000000  0.33630459  0.70042593  1
  Si  Si20  1  -0.00000000  0.16275730  0.20172924  1
  Si  Si21  1  0.00000000  0.83714735  0.79846654  1
  Si  Si22  1  0.50000000  0.50399922  0.65051691  1
  Si  Si23  1  0.50000000  0.49693753  0.34869352  1
  Si  Si24  1  0.50000000  0.99796738  0.15185658  1
  Si  Si25  1  0.50000000  0.00214848  0.84817676  1
  Si  Si26  1  0.50000000  0.65185658  0.49796738  1
  Si  Si27  1  0.50000000  0.34817676  0.50214848  1
  Si  Si28  1  0.50000000  0.15051691  0.00399922  1
  Si  Si29  1  0.50000000  0.84869352  0.99693753  1
  Ir  Ir30  1  -0.00000000  0.52111597  0.74574763  1
  Ir  Ir31  1  0.00000000  0.47904161  0.25431745  1
  Ir  Ir32  1  0.00000000  0.97851085  0.24619864  1
  Ir  Ir33  1  0.00000000  0.02109333  0.75363258  1
  Ir  Ir34  1  -0.00000000  0.74619864  0.47851085  1
  Ir  Ir35  1  -0.00000000  0.25363258  0.52109333  1
  Ir  Ir36  1  0.00000000  0.24574763  0.02111597  1
  Ir  Ir37  1  -0.00000000  0.75431745  0.97904161  1
