# generated using pymatgen
data_HfMg7
_symmetry_space_group_name_H-M   'P 1'
_cell_length_a   6.40817223
_cell_length_b   6.40817170
_cell_length_c   5.06530590
_cell_angle_alpha   90.00000000
_cell_angle_beta   90.00000000
_cell_angle_gamma   120.00000270
_symmetry_Int_Tables_number   1
_chemical_formula_structural   HfMg7
_chemical_formula_sum   'Hf1 Mg7'
_cell_volume   180.13769984
_cell_formula_units_Z   1
loop_
 _symmetry_equiv_pos_site_id
 _symmetry_equiv_pos_as_xyz
  1  'x, y, z'
loop_
 _atom_site_type_symbol
 _atom_site_label
 _atom_site_symmetry_multiplicity
 _atom_site_fract_x
 _atom_site_fract_y
 _atom_site_fract_z
 _atom_site_occupancy
  Hf  Hf0  1  0.16666700  0.33333300  0.25000000  1
  Mg  Mg1  1  0.16885717  0.83442809  0.25000000  1
  Mg  Mg2  1  0.66557191  0.33114283  0.25000000  1
  Mg  Mg3  1  0.66557191  0.83442809  0.25000000  1
  Mg  Mg4  1  0.33027069  0.16972931  0.75000000  1
  Mg  Mg5  1  0.33027069  0.66054237  0.75000000  1
  Mg  Mg6  1  0.83945763  0.16972931  0.75000000  1
  Mg  Mg7  1  0.83333300  0.66666700  0.75000000  1
