# generated using pymatgen
data_LaTh3Ru8
_symmetry_space_group_name_H-M   'P 1'
_cell_length_a   5.45968396
_cell_length_b   5.45968396
_cell_length_c   9.39327350
_cell_angle_alpha   73.10511655
_cell_angle_beta   90.00000000
_cell_angle_gamma   120.00000000
_symmetry_Int_Tables_number   1
_chemical_formula_structural   LaTh3Ru8
_chemical_formula_sum   'La1 Th3 Ru8'
_cell_volume   228.42291947
_cell_formula_units_Z   1
loop_
 _symmetry_equiv_pos_site_id
 _symmetry_equiv_pos_as_xyz
  1  'x, y, z'
loop_
 _atom_site_type_symbol
 _atom_site_label
 _atom_site_symmetry_multiplicity
 _atom_site_fract_x
 _atom_site_fract_y
 _atom_site_fract_z
 _atom_site_occupancy
  La  La0  1  0.87519847  0.75039693  0.37440460  1
  Th  Th1  1  0.37505198  0.75010395  0.87484407  1
  Th  Th2  1  0.99862333  0.99724666  0.00413001  1
  Th  Th3  1  0.50112863  0.00225725  0.49661412  1
  Ru  Ru4  1  0.43771178  0.37718257  0.18510565  1
  Ru  Ru5  1  0.93743920  0.37272069  0.68984011  1
  Ru  Ru6  1  0.43771178  0.87542356  0.18510565  1
  Ru  Ru7  1  0.93743920  0.87487840  0.68984011  1
  Ru  Ru8  1  0.18745149  0.37490298  0.43764553  1
  Ru  Ru9  1  0.68749187  0.37498374  0.93752439  1
  Ru  Ru10  1  0.93947079  0.37718257  0.18510565  1
  Ru  Ru11  1  0.43528149  0.37272069  0.68984011  1
