# generated using pymatgen
data_Li3(WO3)8
_symmetry_space_group_name_H-M   'P 1'
_cell_length_a   7.55470209
_cell_length_b   7.59538776
_cell_length_c   7.55916506
_cell_angle_alpha   90.00000000
_cell_angle_beta   90.00000000
_cell_angle_gamma   90.00000000
_symmetry_Int_Tables_number   1
_chemical_formula_structural   Li3(WO3)8
_chemical_formula_sum   'Li3 W8 O24'
_cell_volume   433.75163229
_cell_formula_units_Z   1
loop_
 _symmetry_equiv_pos_site_id
 _symmetry_equiv_pos_as_xyz
  1  'x, y, z'
loop_
 _atom_site_type_symbol
 _atom_site_label
 _atom_site_symmetry_multiplicity
 _atom_site_fract_x
 _atom_site_fract_y
 _atom_site_fract_z
 _atom_site_occupancy
  Li  Li0  1  -0.00000000  0.50000000  0.50000000  1
  Li  Li1  1  0.50000000  0.00000000  0.00000000  1
  Li  Li2  1  -0.00000000  0.50000000  0.00000000  1
  W  W3  1  0.25062663  0.24900933  0.25099850  1
  W  W4  1  0.74937337  0.75099067  0.74900150  1
  W  W5  1  0.25062663  0.75099067  0.74900150  1
  W  W6  1  0.74937337  0.24900933  0.25099850  1
  W  W7  1  0.25062663  0.75099067  0.25099850  1
  W  W8  1  0.74937337  0.24900933  0.74900150  1
  W  W9  1  0.25062663  0.24900933  0.74900150  1
  W  W10  1  0.74937337  0.75099067  0.25099850  1
  O  O11  1  0.50000000  0.29297257  0.20763465  1
  O  O12  1  -0.00000000  0.79377623  0.70835952  1
  O  O13  1  -0.00000000  0.20622377  0.29164048  1
  O  O14  1  0.50000000  0.70702743  0.79236535  1
  O  O15  1  0.50000000  0.29297257  0.79236535  1
  O  O16  1  -0.00000000  0.79377623  0.29164048  1
  O  O17  1  -0.00000000  0.20622377  0.70835952  1
  O  O18  1  0.50000000  0.70702743  0.20763465  1
  O  O19  1  0.79766443  0.50000000  0.70075699  1
  O  O20  1  0.29537865  0.00000000  0.19709935  1
  O  O21  1  0.70462135  0.00000000  0.80290065  1
  O  O22  1  0.20233557  0.50000000  0.29924301  1
  O  O23  1  0.20233557  0.50000000  0.70075699  1
  O  O24  1  0.70462135  0.00000000  0.19709935  1
  O  O25  1  0.29537865  0.00000000  0.80290065  1
  O  O26  1  0.79766443  0.50000000  0.29924301  1
  O  O27  1  0.29489999  0.78743516  0.50000000  1
  O  O28  1  0.80134635  0.29496991  0.00000000  1
  O  O29  1  0.19865365  0.70503009  -0.00000000  1
  O  O30  1  0.70510001  0.21256484  0.50000000  1
  O  O31  1  0.29489999  0.21256484  0.50000000  1
  O  O32  1  0.80134635  0.70503009  0.00000000  1
  O  O33  1  0.19865365  0.29496991  -0.00000000  1
  O  O34  1  0.70510001  0.78743516  0.50000000  1
