# generated using pymatgen
data_LaY3Sc4O12
_symmetry_space_group_name_H-M   'P 1'
_cell_length_a   5.52989592
_cell_length_b   5.79023431
_cell_length_c   8.02972132
_cell_angle_alpha   90.00000000
_cell_angle_beta   90.00000000
_cell_angle_gamma   90.01740721
_symmetry_Int_Tables_number   1
_chemical_formula_structural   LaY3Sc4O12
_chemical_formula_sum   'La1 Y3 Sc4 O12'
_cell_volume   257.10679103
_cell_formula_units_Z   1
loop_
 _symmetry_equiv_pos_site_id
 _symmetry_equiv_pos_as_xyz
  1  'x, y, z'
loop_
 _atom_site_type_symbol
 _atom_site_label
 _atom_site_symmetry_multiplicity
 _atom_site_fract_x
 _atom_site_fract_y
 _atom_site_fract_z
 _atom_site_occupancy
  La  La0  1  0.48551316  0.44687432  0.25000000  1
  Y  Y1  1  0.02104618  0.94013418  0.25000000  1
  Y  Y2  1  0.51862958  0.56294937  0.75000000  1
  Y  Y3  1  0.98445734  0.05928183  0.75000000  1
  Sc  Sc4  1  0.49922150  0.00111286  0.99656793  1
  Sc  Sc5  1  0.00064920  0.50090659  0.50422674  1
  Sc  Sc6  1  0.49922150  0.00111286  0.50343207  1
  Sc  Sc7  1  0.00064920  0.50090659  0.99577326  1
  O  O8  1  0.62745258  0.03876370  0.25000000  1
  O  O9  1  0.89694388  0.55415183  0.25000000  1
  O  O10  1  0.37148729  0.94425734  0.75000000  1
  O  O11  1  0.13117814  0.44100172  0.75000000  1
  O  O12  1  0.80321429  0.80337786  0.93002793  1
  O  O13  1  0.69101707  0.30769206  0.56809172  1
  O  O14  1  0.18680545  0.19055104  0.43831866  1
  O  O15  1  0.30073843  0.70265245  0.05770183  1
  O  O16  1  0.18680545  0.19055104  0.06168134  1
  O  O17  1  0.30073843  0.70265245  0.44229817  1
  O  O18  1  0.80321429  0.80337786  0.56997207  1
  O  O19  1  0.69101707  0.30769206  0.93190828  1
