# generated using pymatgen
data_La2(ErGe)3
_symmetry_space_group_name_H-M   'P 1'
_cell_length_a   6.53921420
_cell_length_b   8.71494937
_cell_length_c   8.71494889
_cell_angle_alpha   59.99486858
_cell_angle_beta   89.99818187
_cell_angle_gamma   90.00181815
_symmetry_Int_Tables_number   1
_chemical_formula_structural   La2(ErGe)3
_chemical_formula_sum   'La4 Er6 Ge6'
_cell_volume   430.09406409
_cell_formula_units_Z   2
loop_
 _symmetry_equiv_pos_site_id
 _symmetry_equiv_pos_as_xyz
  1  'x, y, z'
loop_
 _atom_site_type_symbol
 _atom_site_label
 _atom_site_symmetry_multiplicity
 _atom_site_fract_x
 _atom_site_fract_y
 _atom_site_fract_z
 _atom_site_occupancy
  La  La0  1  0.49994077  0.33326543  0.33329111  1
  La  La1  1  0.49994077  0.66670889  0.66673457  1
  La  La2  1  0.00001576  0.66669154  0.66672811  1
  La  La3  1  0.00001576  0.33327189  0.33330846  1
  Er  Er4  1  0.75002702  0.23772975  0.76227025  1
  Er  Er5  1  0.75002730  0.76238384  0.00003161  1
  Er  Er6  1  0.75002730  -0.00003161  0.23761616  1
  Er  Er7  1  0.24999517  0.76230397  0.23769603  1
  Er  Er8  1  0.24997717  0.23759262  -0.00003620  1
  Er  Er9  1  0.24997717  0.00003620  0.76240738  1
  Ge  Ge10  1  0.75000407  0.61640556  0.38359444  1
  Ge  Ge11  1  0.75002955  0.38339969  0.00005192  1
  Ge  Ge12  1  0.75002955  0.99994808  0.61660031  1
  Ge  Ge13  1  0.24998935  0.38362234  0.61637766  1
  Ge  Ge14  1  0.25000163  0.61660477  0.99993294  1
  Ge  Ge15  1  0.25000163  0.00006706  0.38339523  1
