# generated using pymatgen
data_LaFe5Bi4O15
_symmetry_space_group_name_H-M   'P 1'
_cell_length_a   5.63425962
_cell_length_b   5.70684293
_cell_length_c   23.25722081
_cell_angle_alpha   96.54604717
_cell_angle_beta   90.05191942
_cell_angle_gamma   119.59715181
_symmetry_Int_Tables_number   1
_chemical_formula_structural   LaFe5Bi4O15
_chemical_formula_sum   'La2 Fe10 Bi8 O30'
_cell_volume   644.57689420
_cell_formula_units_Z   2
loop_
 _symmetry_equiv_pos_site_id
 _symmetry_equiv_pos_as_xyz
  1  'x, y, z'
loop_
 _atom_site_type_symbol
 _atom_site_label
 _atom_site_symmetry_multiplicity
 _atom_site_fract_x
 _atom_site_fract_y
 _atom_site_fract_z
 _atom_site_occupancy
  La  La0  1  0.18974145  0.37957497  0.59960091  1
  La  La1  1  0.58932392  0.17788604  0.79848997  1
  Fe  Fe2  1  0.02236081  0.04445602  0.14578558  1
  Fe  Fe3  1  0.42214105  0.84416925  0.34571894  1
  Fe  Fe4  1  0.82207479  0.64587433  0.54658753  1
  Fe  Fe5  1  0.22464698  0.44963570  0.74678941  1
  Fe  Fe6  1  0.62522474  0.24837538  0.94574306  1
  Fe  Fe7  1  0.12273502  0.24453692  0.44522522  1
  Fe  Fe8  1  0.51585915  0.03161648  0.64524547  1
  Fe  Fe9  1  0.91523307  0.83158532  0.84627678  1
  Fe  Fe10  1  0.32203664  0.64456519  0.04595069  1
  Fe  Fe11  1  0.72206863  0.44452203  0.24579818  1
  Bi  Bi12  1  0.11148657  0.22451241  0.30110495  1
  Bi  Bi13  1  0.51290262  0.02073653  0.50149677  1
  Bi  Bi14  1  0.91027350  0.81957154  0.70231186  1
  Bi  Bi15  1  0.30864164  0.62341494  0.90197400  1
  Bi  Bi16  1  0.71174020  0.42452406  0.10127284  1
  Bi  Bi17  1  0.01239620  0.02439219  0.00108487  1
  Bi  Bi18  1  0.41287734  0.82480966  0.20125642  1
  Bi  Bi19  1  0.81237898  0.62558408  0.40164003  1
  O  O20  1  0.62507180  0.09931323  0.28916506  1
  O  O21  1  0.02691633  0.90391039  0.48984330  1
  O  O22  1  0.43187324  0.71312832  0.69175776  1
  O  O23  1  0.82960073  0.50658866  0.89070825  1
  O  O24  1  0.22482891  0.29857534  0.08909779  1
  O  O25  1  0.31481042  0.17909810  0.20960619  1
  O  O26  1  0.71512368  0.97839542  0.40931113  1
  O  O27  1  0.11672307  0.79651001  0.60880280  1
  O  O28  1  0.51668933  0.59702744  0.80951102  1
  O  O29  1  0.91518241  0.37896576  0.01002216  1
  O  O30  1  0.20242730  0.00730337  0.37936794  1
  O  O31  1  0.62072351  0.82788362  0.57885575  1
  O  O32  1  0.01957002  0.62740823  0.77914920  1
  O  O33  1  0.40196219  0.40742947  0.97966375  1
  O  O34  1  0.80294005  0.20796498  0.17950342  1
  O  O35  1  0.10537448  0.60800635  0.27937492  1
  O  O36  1  0.50199290  0.40970295  0.48039130  1
  O  O37  1  0.90562014  0.21280028  0.67965289  1
  O  O38  1  0.30829309  0.01040447  0.87880317  1
  O  O39  1  0.70524130  0.80795412  0.07947357  1
  O  O40  1  0.56505775  0.57866706  0.30978335  1
  O  O41  1  0.96430475  0.37627259  0.50987199  1
  O  O42  1  0.36485856  0.18276694  0.70894015  1
  O  O43  1  0.76496882  0.98464767  0.90885564  1
  O  O44  1  0.16440080  0.77895505  0.10965215  1
  O  O45  1  0.17409044  0.49955125  0.38890242  1
  O  O46  1  0.57621939  0.30144788  0.58900618  1
  O  O47  1  0.97762411  0.10157962  0.78913864  1
  O  O48  1  0.37500458  0.90000783  0.98922622  1
  O  O49  1  0.77436260  0.69939054  0.18920839  1
