# generated using pymatgen
data_La3GaCuSe7
_symmetry_space_group_name_H-M   'P 1'
_cell_length_a   6.37597665
_cell_length_b   10.62701861
_cell_length_c   10.62830501
_cell_angle_alpha   120.00096220
_cell_angle_beta   90.00000000
_cell_angle_gamma   90.00000000
_symmetry_Int_Tables_number   1
_chemical_formula_structural   La3GaCuSe7
_chemical_formula_sum   'La6 Ga2 Cu2 Se14'
_cell_volume   623.66100374
_cell_formula_units_Z   2
loop_
 _symmetry_equiv_pos_site_id
 _symmetry_equiv_pos_as_xyz
  1  'x, y, z'
loop_
 _atom_site_type_symbol
 _atom_site_label
 _atom_site_symmetry_multiplicity
 _atom_site_fract_x
 _atom_site_fract_y
 _atom_site_fract_z
 _atom_site_occupancy
  La  La0  1  0.07361969  0.63094693  0.85251788  1
  La  La1  1  0.07365884  0.14747901  0.77841377  1
  La  La2  1  0.07367429  0.22151950  0.36902034  1
  La  La3  1  0.57361969  0.36905307  0.14748212  1
  La  La4  1  0.57365884  0.85252099  0.22158623  1
  La  La5  1  0.57367429  0.77848050  0.63097966  1
  Ga  Ga6  1  0.48800197  0.33336631  0.66669987  1
  Ga  Ga7  1  0.98800197  0.66663369  0.33330013  1
  Cu  Cu8  1  0.13600237  0.99997811  -0.00000689  1
  Cu  Cu9  1  0.63600237  0.00002189  0.00000689  1
  Se  Se10  1  0.11163804  0.84877212  0.74516613  1
  Se  Se11  1  0.11164245  0.25483399  0.10362160  1
  Se  Se12  1  0.11164932  0.89639058  0.15123955  1
  Se  Se13  1  0.61163804  0.15122788  0.25483387  1
  Se  Se14  1  0.61164245  0.74516601  0.89637840  1
  Se  Se15  1  0.61164932  0.10360942  0.84876045  1
  Se  Se16  1  0.86374748  0.33335006  0.66667379  1
  Se  Se17  1  0.36374748  0.66664994  0.33332621  1
  Se  Se18  1  0.34124419  0.48002582  0.57016389  1
  Se  Se19  1  0.34125948  0.42982941  0.90986210  1
  Se  Se20  1  0.34126189  0.09016534  0.51998190  1
  Se  Se21  1  0.84124419  0.51997418  0.42983611  1
  Se  Se22  1  0.84125948  0.57017059  0.09013790  1
  Se  Se23  1  0.84126189  0.90983466  0.48001810  1
