# generated using pymatgen
data_LaTbC4
_symmetry_space_group_name_H-M   'P 1'
_cell_length_a   3.78766583
_cell_length_b   4.20498559
_cell_length_c   6.81614003
_cell_angle_alpha   99.27672660
_cell_angle_beta   106.13165132
_cell_angle_gamma   63.23206273
_symmetry_Int_Tables_number   1
_chemical_formula_structural   LaTbC4
_chemical_formula_sum   'La1 Tb1 C4'
_cell_volume   93.02876246
_cell_formula_units_Z   1
loop_
 _symmetry_equiv_pos_site_id
 _symmetry_equiv_pos_as_xyz
  1  'x, y, z'
loop_
 _atom_site_type_symbol
 _atom_site_label
 _atom_site_symmetry_multiplicity
 _atom_site_fract_x
 _atom_site_fract_y
 _atom_site_fract_z
 _atom_site_occupancy
  La  La0  1  -0.00000000  -0.00000000  -0.00000000  1
  Tb  Tb1  1  0.50000000  0.50000000  0.50000000  1
  C  C2  1  0.80775746  0.60238871  0.21790363  1
  C  C3  1  0.29653364  0.08965609  0.68272336  1
  C  C4  1  0.19224254  0.39761129  0.78209637  1
  C  C5  1  0.70346636  0.91034391  0.31727664  1
