# generated using pymatgen
data_Mg(BiO2)4
_symmetry_space_group_name_H-M   'P 1'
_cell_length_a   3.39421600
_cell_length_b   8.76066642
_cell_length_c   9.05947540
_cell_angle_alpha   69.56559161
_cell_angle_beta   78.72175561
_cell_angle_gamma   78.37317364
_symmetry_Int_Tables_number   1
_chemical_formula_structural   Mg(BiO2)4
_chemical_formula_sum   'Mg1 Bi4 O8'
_cell_volume   244.94564824
_cell_formula_units_Z   1
loop_
 _symmetry_equiv_pos_site_id
 _symmetry_equiv_pos_as_xyz
  1  'x, y, z'
loop_
 _atom_site_type_symbol
 _atom_site_label
 _atom_site_symmetry_multiplicity
 _atom_site_fract_x
 _atom_site_fract_y
 _atom_site_fract_z
 _atom_site_occupancy
  Mg  Mg0  1  0.30129395  0.18212421  0.22443581  1
  Bi  Bi1  1  0.64142333  0.15500818  0.56345728  1
  Bi  Bi2  1  0.13273644  0.55994758  0.19960725  1
  Bi  Bi3  1  0.85757015  0.44611126  0.85321696  1
  Bi  Bi4  1  0.35697618  0.80463666  0.49531652  1
  O  O5  1  0.87638265  0.64152031  0.62153034  1
  O  O6  1  0.45971892  0.32325941  0.78043562  1
  O  O7  1  0.53258755  0.68298559  0.27184874  1
  O  O8  1  0.15324513  0.31141445  0.38300050  1
  O  O9  1  0.19503910  0.96989975  0.64349855  1
  O  O10  1  0.80878477  0.29604014  0.09611108  1
  O  O11  1  0.80683440  0.03726358  0.36284652  1
  O  O12  1  0.25556944  0.58042688  0.91348783  1
