# generated using pymatgen
data_In3GaTe4
_symmetry_space_group_name_H-M   'P 1'
_cell_length_a   7.02996278
_cell_length_b   7.02996278
_cell_length_c   7.02996278
_cell_angle_alpha   59.90713595
_cell_angle_beta   75.56399455
_cell_angle_gamma   104.43600545
_symmetry_Int_Tables_number   1
_chemical_formula_structural   In3GaTe4
_chemical_formula_sum   'In3 Ga1 Te4'
_cell_volume   260.44510055
_cell_formula_units_Z   1
loop_
 _symmetry_equiv_pos_site_id
 _symmetry_equiv_pos_as_xyz
  1  'x, y, z'
loop_
 _atom_site_type_symbol
 _atom_site_label
 _atom_site_symmetry_multiplicity
 _atom_site_fract_x
 _atom_site_fract_y
 _atom_site_fract_z
 _atom_site_occupancy
  In  In0  1  -0.00000000  0.25000000  0.75000000  1
  In  In1  1  -0.00000000  0.75000000  0.25000000  1
  In  In2  1  0.50000000  0.75000000  0.75000000  1
  Ga  Ga3  1  0.50000000  0.25000000  0.25000000  1
  Te  Te4  1  0.50000000  0.30709911  0.84130869  1
  Te  Te5  1  0.50000000  0.65869131  0.19290089  1
  Te  Te6  1  0.14840781  0.84130869  0.65869131  1
  Te  Te7  1  0.85159219  0.19290089  0.30709911  1
