# generated using pymatgen
data_KMg2AlFe(SiO4)3
_symmetry_space_group_name_H-M   'P 1'
_cell_length_a   5.37051795
_cell_length_b   5.34388378
_cell_length_c   10.35115280
_cell_angle_alpha   93.81689289
_cell_angle_beta   94.69606539
_cell_angle_gamma   120.49711992
_symmetry_Int_Tables_number   1
_chemical_formula_structural   KMg2AlFe(SiO4)3
_chemical_formula_sum   'K1 Mg2 Al1 Fe1 Si3 O12'
_cell_volume   253.08437316
_cell_formula_units_Z   1
loop_
 _symmetry_equiv_pos_site_id
 _symmetry_equiv_pos_as_xyz
  1  'x, y, z'
loop_
 _atom_site_type_symbol
 _atom_site_label
 _atom_site_symmetry_multiplicity
 _atom_site_fract_x
 _atom_site_fract_y
 _atom_site_fract_z
 _atom_site_occupancy
  K  K0  1  0.50659109  0.50710447  0.02428998  1
  Mg  Mg1  1  0.66024790  0.33654347  0.49599780  1
  Mg  Mg2  1  0.33855364  0.65893052  0.49683781  1
  Al  Al3  1  0.90141085  0.23161296  0.22577319  1
  Fe  Fe4  1  0.00609392  0.00735024  0.49581791  1
  Si  Si5  1  0.23370797  0.90199873  0.22102405  1
  Si  Si6  1  0.09536656  0.76498519  0.77156317  1
  Si  Si7  1  0.76023576  0.09416196  0.77163644  1
  O  O8  1  0.00717905  0.99522799  0.16318669  1
  O  O9  1  0.95879314  0.95951567  0.82929591  1
  O  O10  1  0.10998216  0.56355184  0.16645335  1
  O  O11  1  0.54001289  0.09974711  0.16542911  1
  O  O12  1  0.92936583  0.44513853  0.82871441  1
  O  O13  1  0.44470679  0.92999320  0.83070513  1
  O  O14  1  0.96297403  0.29229517  0.40005048  1
  O  O15  1  0.29137209  0.95879090  0.38626628  1
  O  O16  1  0.04244645  0.71128484  0.61185006  1
  O  O17  1  0.70104510  0.03768185  0.61269466  1
  O  O18  1  0.68183296  0.68334858  0.41131534  1
  O  O19  1  0.32808180  0.32073678  0.59109824  1
