# generated using pymatgen
data_In2AgSe3Br
_symmetry_space_group_name_H-M   'P 1'
_cell_length_a   8.24751679
_cell_length_b   8.24751679
_cell_length_c   8.14477676
_cell_angle_alpha   90.00000000
_cell_angle_beta   59.58184018
_cell_angle_gamma   120.00000000
_symmetry_Int_Tables_number   1
_chemical_formula_structural   In2AgSe3Br
_chemical_formula_sum   'In4 Ag2 Se6 Br2'
_cell_volume   389.25709789
_cell_formula_units_Z   2
loop_
 _symmetry_equiv_pos_site_id
 _symmetry_equiv_pos_as_xyz
  1  'x, y, z'
loop_
 _atom_site_type_symbol
 _atom_site_label
 _atom_site_symmetry_multiplicity
 _atom_site_fract_x
 _atom_site_fract_y
 _atom_site_fract_z
 _atom_site_occupancy
  In  In0  1  0.75000000  0.37500000  0.87500000  1
  In  In1  1  0.25000000  0.37500000  0.37500000  1
  In  In2  1  0.25000000  0.87500000  0.37500000  1
  In  In3  1  0.75000000  0.37500000  0.37500000  1
  Ag  Ag4  1  0.56652048  0.78326024  0.65021928  1
  Ag  Ag5  1  0.93347952  0.96673976  0.09978072  1
  Se  Se6  1  0.72130498  0.13362049  0.14507453  1
  Se  Se7  1  0.72130498  0.58768450  0.14507453  1
  Se  Se8  1  0.26724097  0.13362049  0.14507453  1
  Se  Se9  1  0.77869502  0.61637951  0.60492547  1
  Se  Se10  1  0.77869502  0.16231550  0.60492547  1
  Se  Se11  1  0.23275903  0.61637951  0.60492547  1
  Br  Br12  1  0.23856977  0.11928489  0.64214534  1
  Br  Br13  1  0.26143023  0.63071511  0.10785466  1
