# generated using pymatgen
data_La5Ti4GaO17
_symmetry_space_group_name_H-M   'P 1'
_cell_length_a   3.95392421
_cell_length_b   5.55499336
_cell_length_c   31.43220044
_cell_angle_alpha   90.00000000
_cell_angle_beta   90.00000000
_cell_angle_gamma   90.00000000
_symmetry_Int_Tables_number   1
_chemical_formula_structural   La5Ti4GaO17
_chemical_formula_sum   'La10 Ti8 Ga2 O34'
_cell_volume   690.37756500
_cell_formula_units_Z   2
loop_
 _symmetry_equiv_pos_site_id
 _symmetry_equiv_pos_as_xyz
  1  'x, y, z'
loop_
 _atom_site_type_symbol
 _atom_site_label
 _atom_site_symmetry_multiplicity
 _atom_site_fract_x
 _atom_site_fract_y
 _atom_site_fract_z
 _atom_site_occupancy
  La  La0  1  0.00000000  0.42971815  0.71347591  1
  La  La1  1  0.00000000  0.57028185  0.28652409  1
  La  La2  1  0.50000000  0.92971815  0.78652409  1
  La  La3  1  0.50000000  0.07028185  0.21347591  1
  La  La4  1  -0.00000000  0.50000000  0.50000000  1
  La  La5  1  0.50000000  -0.00000000  -0.00000000  1
  La  La6  1  0.00000000  0.00546272  0.58890060  1
  La  La7  1  -0.00000000  0.99453728  0.41109940  1
  La  La8  1  0.50000000  0.50546272  0.91109940  1
  La  La9  1  0.50000000  0.49453728  0.08890060  1
  Ti  Ti10  1  0.50000000  0.96593084  0.67728691  1
  Ti  Ti11  1  0.50000000  0.03406916  0.32271309  1
  Ti  Ti12  1  -0.00000000  0.46593084  0.82271309  1
  Ti  Ti13  1  0.00000000  0.53406916  0.17728691  1
  Ti  Ti14  1  0.50000000  0.49547332  0.59162257  1
  Ti  Ti15  1  0.50000000  0.50452668  0.40837743  1
  Ti  Ti16  1  0.00000000  0.99547332  0.90837743  1
  Ti  Ti17  1  -0.00000000  0.00452668  0.09162257  1
  Ga  Ga18  1  0.50000000  -0.00000000  0.50000000  1
  Ga  Ga19  1  -0.00000000  0.50000000  0.00000000  1
  O  O20  1  0.50000000  0.70266632  0.71266553  1
  O  O21  1  0.50000000  0.29733368  0.28733447  1
  O  O22  1  -0.00000000  0.20266632  0.78733447  1
  O  O23  1  -0.00000000  0.79733368  0.21266553  1
  O  O24  1  0.50000000  0.28962532  0.46358719  1
  O  O25  1  0.50000000  0.71037468  0.53641281  1
  O  O26  1  0.00000000  0.78962532  0.03641281  1
  O  O27  1  0.00000000  0.21037468  0.96358719  1
  O  O28  1  0.00000000  0.50530562  0.58435127  1
  O  O29  1  -0.00000000  0.49469438  0.41564873  1
  O  O30  1  0.50000000  0.00530562  0.91564873  1
  O  O31  1  0.50000000  0.99469438  0.08435127  1
  O  O32  1  0.00000000  0.99628461  0.67101414  1
  O  O33  1  -0.00000000  0.00371539  0.32898586  1
  O  O34  1  0.50000000  0.49628461  0.82898586  1
  O  O35  1  0.50000000  0.50371539  0.17101414  1
  O  O36  1  0.50000000  0.80383085  0.62089121  1
  O  O37  1  0.50000000  0.19616915  0.37910879  1
  O  O38  1  -0.00000000  0.30383085  0.87910879  1
  O  O39  1  -0.00000000  0.69616915  0.12089121  1
  O  O40  1  0.50000000  0.21786370  0.55115492  1
  O  O41  1  0.50000000  0.78213630  0.44884508  1
  O  O42  1  0.00000000  0.71786370  0.94884508  1
  O  O43  1  -0.00000000  0.28213630  0.05115492  1
  O  O44  1  0.50000000  0.18748351  0.72368315  1
  O  O45  1  0.50000000  0.81251649  0.27631685  1
  O  O46  1  -0.00000000  0.68748351  0.77631685  1
  O  O47  1  0.00000000  0.31251649  0.22368315  1
  O  O48  1  0.50000000  0.28449955  0.63651769  1
  O  O49  1  0.50000000  0.71550045  0.36348231  1
  O  O50  1  -0.00000000  0.78449955  0.86348231  1
  O  O51  1  0.00000000  0.21550045  0.13651769  1
  O  O52  1  -0.00000000  -0.00000000  0.50000000  1
  O  O53  1  0.50000000  0.50000000  0.00000000  1
