# generated using pymatgen
data_InGaAg2(TeSe)2
_symmetry_space_group_name_H-M   'P 1'
_cell_length_a   6.30548360
_cell_length_b   6.35333673
_cell_length_c   7.54030153
_cell_angle_alpha   65.05294414
_cell_angle_beta   65.25306487
_cell_angle_gamma   89.93304543
_symmetry_Int_Tables_number   1
_chemical_formula_structural   InGaAg2(TeSe)2
_chemical_formula_sum   'In1 Ga1 Ag2 Te2 Se2'
_cell_volume   243.02676688
_cell_formula_units_Z   1
loop_
 _symmetry_equiv_pos_site_id
 _symmetry_equiv_pos_as_xyz
  1  'x, y, z'
loop_
 _atom_site_type_symbol
 _atom_site_label
 _atom_site_symmetry_multiplicity
 _atom_site_fract_x
 _atom_site_fract_y
 _atom_site_fract_z
 _atom_site_occupancy
  In  In0  1  0.50917832  0.50917832  0.98164337  1
  Ga  Ga1  1  0.24063438  0.74063438  0.51873125  1
  Ag  Ag2  1  0.74573614  0.24573614  0.50852773  1
  Ag  Ag3  1  0.00494072  0.00494072  0.99011856  1
  Te  Te4  1  0.12586408  0.10731612  0.26156516  1
  Te  Te5  1  0.61257076  0.63111872  0.26156516  1
  Se  Se6  1  0.36720170  0.86191166  0.73892439  1
  Se  Se7  1  0.89387391  0.39916396  0.73892439  1
