# generated using pymatgen
data_KNa4Cl5
_symmetry_space_group_name_H-M   'P 1'
_cell_length_a   4.16686934
_cell_length_b   14.80925572
_cell_length_c   4.16686934
_cell_angle_alpha   81.91253520
_cell_angle_beta   90.00000000
_cell_angle_gamma   81.91253520
_symmetry_Int_Tables_number   1
_chemical_formula_structural   KNa4Cl5
_chemical_formula_sum   'K1 Na4 Cl5'
_cell_volume   251.98959995
_cell_formula_units_Z   1
loop_
 _symmetry_equiv_pos_site_id
 _symmetry_equiv_pos_as_xyz
  1  'x, y, z'
loop_
 _atom_site_type_symbol
 _atom_site_label
 _atom_site_symmetry_multiplicity
 _atom_site_fract_x
 _atom_site_fract_y
 _atom_site_fract_z
 _atom_site_occupancy
  K  K0  1  0.00000000  -0.00000000  0.00000000  1
  Na  Na1  1  0.39689660  0.20620679  0.39689660  1
  Na  Na2  1  0.79829757  0.40340485  0.79829757  1
  Na  Na3  1  0.20170243  0.59659515  0.20170243  1
  Na  Na4  1  0.60310340  0.79379321  0.60310340  1
  Cl  Cl5  1  0.10541869  0.78916262  0.10541869  1
  Cl  Cl6  1  0.50000000  -0.00000000  0.50000000  1
  Cl  Cl7  1  0.89458131  0.21083738  0.89458131  1
  Cl  Cl8  1  0.29932670  0.40134661  0.29932670  1
  Cl  Cl9  1  0.70067330  0.59865339  0.70067330  1
