# generated using pymatgen
data_KNiSbO4
_symmetry_space_group_name_H-M   'P 1'
_cell_length_a   3.14853874
_cell_length_b   5.28110700
_cell_length_c   6.50725440
_cell_angle_alpha   84.94876405
_cell_angle_beta   76.00203934
_cell_angle_gamma   90.00022561
_symmetry_Int_Tables_number   1
_chemical_formula_structural   KNiSbO4
_chemical_formula_sum   'K1 Ni1 Sb1 O4'
_cell_volume   104.55488867
_cell_formula_units_Z   1
loop_
 _symmetry_equiv_pos_site_id
 _symmetry_equiv_pos_as_xyz
  1  'x, y, z'
loop_
 _atom_site_type_symbol
 _atom_site_label
 _atom_site_symmetry_multiplicity
 _atom_site_fract_x
 _atom_site_fract_y
 _atom_site_fract_z
 _atom_site_occupancy
  K  K0  1  0.74762159  0.58172902  0.50437868  1
  Ni  Ni1  1  0.49711143  0.49773303  0.00578560  1
  Sb  Sb2  1  0.00114876  0.00283033  0.99780035  1
  O  O3  1  0.08077057  0.69914168  0.83835290  1
  O  O4  1  0.58632602  0.17674556  0.82737889  1
  O  O5  1  0.41364564  0.82354740  0.17285486  1
  O  O6  1  0.91922599  0.30022298  0.16174871  1
