# generated using pymatgen
data_KNaCaCo5(SiO3)8
_symmetry_space_group_name_H-M   'P 1'
_cell_length_a   5.29174884
_cell_length_b   10.20958141
_cell_length_c   10.47761914
_cell_angle_alpha   60.81128854
_cell_angle_beta   82.69110892
_cell_angle_gamma   74.85778721
_symmetry_Int_Tables_number   1
_chemical_formula_structural   KNaCaCo5(SiO3)8
_chemical_formula_sum   'K1 Na1 Ca1 Co5 Si8 O24'
_cell_volume   477.03094487
_cell_formula_units_Z   1
loop_
 _symmetry_equiv_pos_site_id
 _symmetry_equiv_pos_as_xyz
  1  'x, y, z'
loop_
 _atom_site_type_symbol
 _atom_site_label
 _atom_site_symmetry_multiplicity
 _atom_site_fract_x
 _atom_site_fract_y
 _atom_site_fract_z
 _atom_site_occupancy
  K  K0  1  0.97854290  0.50915620  0.00386994  1
  Na  Na1  1  0.50039787  0.27396781  0.45148944  1
  Ca  Ca2  1  0.50041463  0.72517525  0.54906786  1
  Co  Co3  1  0.50029992  0.08335767  0.83359072  1
  Co  Co4  1  0.50007705  0.91595165  0.16901361  1
  Co  Co5  1  0.99975795  0.00188071  0.99718360  1
  Co  Co6  1  0.00049862  0.18359435  0.63319500  1
  Co  Co7  1  0.00014707  0.82090935  0.35881847  1
  Si  Si8  1  0.19568047  0.45231425  0.66121391  1
  Si  Si9  1  0.19651239  0.11479153  0.34133885  1
  Si  Si10  1  0.80408664  0.54413708  0.34181970  1
  Si  Si11  1  0.80471197  0.88744270  0.66063029  1
  Si  Si12  1  0.69712614  0.35902099  0.83188489  1
  Si  Si13  1  0.70094231  0.19018252  0.16972861  1
  Si  Si14  1  0.29957265  0.64084767  0.16996956  1
  Si  Si15  1  0.30325448  0.81016465  0.83153830  1
  O  O16  1  0.40242084  0.45908495  0.76755951  1
  O  O17  1  0.40361085  0.22213293  0.22932498  1
  O  O18  1  0.59717851  0.54906150  0.22933600  1
  O  O19  1  0.59832152  0.77394770  0.76773538  1
  O  O20  1  0.70107735  0.32939393  -0.00004017  1
  O  O21  1  0.30209747  0.67155339  0.00000863  1
  O  O22  1  0.77590828  0.19978031  0.82251724  1
  O  O23  1  0.78867489  0.02338156  0.17360172  1
  O  O24  1  0.21152484  0.80345125  0.17411601  1
  O  O25  1  0.22390660  0.97879631  0.82182103  1
  O  O26  1  0.27938202  0.28406784  0.66738057  1
  O  O27  1  0.28017034  0.94606524  0.34510900  1
  O  O28  1  0.72014688  0.70907495  0.34531798  1
  O  O29  1  0.72069081  0.04934887  0.66690989  1
  O  O30  1  0.26737500  0.09706699  0.99016033  1
  O  O31  1  0.73315150  0.91230607  0.98998632  1
  O  O32  1  0.89881754  0.47231495  0.73816084  1
  O  O33  1  0.90440940  0.21211292  0.25920888  1
  O  O34  1  0.09541100  0.52966484  0.25867207  1
  O  O35  1  0.10076616  0.78990829  0.73886696  1
  O  O36  1  0.20554561  0.60735792  0.51061715  1
  O  O37  1  0.20463970  0.11145208  0.49431719  1
  O  O38  1  0.79586192  0.39403102  0.49420186  1
  O  O39  1  0.79488789  0.88194981  0.51075790  1
