# generated using pymatgen
data_In14Sn5S26
_symmetry_space_group_name_H-M   'P 1'
_cell_length_a   3.90154454
_cell_length_b   13.88224059
_cell_length_c   19.25931554
_cell_angle_alpha   90.92803002
_cell_angle_beta   84.18655212
_cell_angle_gamma   90.00000000
_symmetry_Int_Tables_number   1
_chemical_formula_structural   In14Sn5S26
_chemical_formula_sum   'In14 Sn5 S26'
_cell_volume   1037.62414024
_cell_formula_units_Z   1
loop_
 _symmetry_equiv_pos_site_id
 _symmetry_equiv_pos_as_xyz
  1  'x, y, z'
loop_
 _atom_site_type_symbol
 _atom_site_label
 _atom_site_symmetry_multiplicity
 _atom_site_fract_x
 _atom_site_fract_y
 _atom_site_fract_z
 _atom_site_occupancy
  In  In0  1  0.89457782  0.96016891  0.21084437  1
  In  In1  1  0.10364956  0.03552226  0.79270087  1
  In  In2  1  0.75468872  0.63167387  0.49062257  1
  In  In3  1  0.24848504  0.37822974  0.50302992  1
  In  In4  1  0.45765110  0.79190396  0.08469780  1
  In  In5  1  0.54068131  0.20797789  0.91863738  1
  In  In6  1  0.99875552  0.99927231  0.00248896  1
  In  In7  1  0.83496910  0.43192266  0.33006180  1
  In  In8  1  0.16733355  0.56721600  0.66533289  1
  In  In9  1  0.28205648  0.90229292  0.43588703  1
  In  In10  1  0.71926264  0.08656799  0.56147471  1
  In  In11  1  0.99893139  0.49994387  0.00213721  1
  In  In12  1  0.41114216  0.49837156  0.17771568  1
  In  In13  1  0.58568186  0.50877509  0.82863628  1
  Sn  Sn14  1  0.42970449  0.23005555  0.14059103  1
  Sn  Sn15  1  0.56766844  0.77670100  0.86466313  1
  Sn  Sn16  1  0.33137240  0.14307990  0.33725520  1
  Sn  Sn17  1  0.66920761  0.85523120  0.66158478  1
  Sn  Sn18  1  0.65145813  0.28208522  0.69708374  1
  S  S19  1  0.78437138  0.04946954  0.43125724  1
  S  S20  1  0.21558610  0.95239656  0.56882779  1
  S  S21  1  0.70753676  0.45881693  0.58492648  1
  S  S22  1  0.28764110  0.53297644  0.42471780  1
  S  S23  1  0.46842710  0.60096264  0.06314580  1
  S  S24  1  0.53284713  0.39801006  0.93430575  1
  S  S25  1  0.35086884  0.95508960  0.29826232  1
  S  S26  1  0.64855716  0.05135402  0.70288568  1
  S  S27  1  0.91364112  0.78733093  0.17271776  1
  S  S28  1  0.08898202  0.21338416  0.82203597  1
  S  S29  1  0.87460484  0.57391414  0.25079032  1
  S  S30  1  0.12662066  0.42295011  0.74675869  1
  S  S31  1  0.79119084  0.78580010  0.41761832  1
  S  S32  1  0.20705694  0.21932344  0.58588611  1
  S  S33  1  0.45128428  0.99042629  0.09743144  1
  S  S34  1  0.55112926  0.01273240  0.89774148  1
  S  S35  1  0.94527050  0.39234954  0.10945901  1
  S  S36  1  0.05469889  0.60598546  0.89060221  1
  S  S37  1  0.78610125  0.30944491  0.42779750  1
  S  S38  1  0.21363967  0.69165574  0.57272066  1
  S  S39  1  0.88733468  0.14331081  0.22533065  1
  S  S40  1  0.11381956  0.85404045  0.77236088  1
  S  S41  1  0.99569290  0.18206549  0.00861419  1
  S  S42  1  0.00692172  0.81813696  0.98615655  1
  S  S43  1  0.36793874  0.34778025  0.26412252  1
  S  S44  1  0.63191926  0.64480114  0.73616148  1
