# generated using pymatgen
data_HfAlCr
_symmetry_space_group_name_H-M   'P 1'
_cell_length_a   5.12631450
_cell_length_b   5.12526356
_cell_length_c   8.48619153
_cell_angle_alpha   90.00000000
_cell_angle_beta   90.00000000
_cell_angle_gamma   60.10026336
_symmetry_Int_Tables_number   1
_chemical_formula_structural   HfAlCr
_chemical_formula_sum   'Hf4 Al4 Cr4'
_cell_volume   193.28706958
_cell_formula_units_Z   4
loop_
 _symmetry_equiv_pos_site_id
 _symmetry_equiv_pos_as_xyz
  1  'x, y, z'
loop_
 _atom_site_type_symbol
 _atom_site_label
 _atom_site_symmetry_multiplicity
 _atom_site_fract_x
 _atom_site_fract_y
 _atom_site_fract_z
 _atom_site_occupancy
  Hf  Hf0  1  0.33428463  0.33442842  0.55893750  1
  Hf  Hf1  1  0.67114751  0.67111105  0.42836370  1
  Hf  Hf2  1  0.67114751  0.67111105  0.07163630  1
  Hf  Hf3  1  0.33428463  0.33442842  0.94106250  1
  Al  Al4  1  0.99448409  0.99419868  0.48977679  1
  Al  Al5  1  0.99448409  0.99419868  0.01022321  1
  Al  Al6  1  0.83226204  0.34172252  0.75000000  1
  Al  Al7  1  0.34178028  0.83222969  0.75000000  1
  Cr  Cr8  1  0.83208025  0.83189371  0.75000000  1
  Cr  Cr9  1  0.17945450  0.63784646  0.25000000  1
  Cr  Cr10  1  0.63760093  0.17966148  0.25000000  1
  Cr  Cr11  1  0.17698955  0.17716984  0.25000000  1
