# generated using pymatgen
data_Ho12Si5S28
_symmetry_space_group_name_H-M   'P 1'
_cell_length_a   9.76773568
_cell_length_b   11.31127094
_cell_length_c   11.30735878
_cell_angle_alpha   60.72668157
_cell_angle_beta   64.40640486
_cell_angle_gamma   64.41862371
_symmetry_Int_Tables_number   1
_chemical_formula_structural   Ho12Si5S28
_chemical_formula_sum   'Ho12 Si5 S28'
_cell_volume   943.41682225
_cell_formula_units_Z   1
loop_
 _symmetry_equiv_pos_site_id
 _symmetry_equiv_pos_as_xyz
  1  'x, y, z'
loop_
 _atom_site_type_symbol
 _atom_site_label
 _atom_site_symmetry_multiplicity
 _atom_site_fract_x
 _atom_site_fract_y
 _atom_site_fract_z
 _atom_site_occupancy
  Ho  Ho0  1  0.86323820  0.79524188  0.57098879  1
  Ho  Ho1  1  0.86857087  0.30636574  0.04161435  1
  Ho  Ho2  1  0.78199528  0.06663994  0.80224929  1
  Ho  Ho3  1  0.77285555  0.54423170  0.31835612  1
  Ho  Ho4  1  0.34802660  0.02454308  0.75995771  1
  Ho  Ho5  1  0.36545239  0.49690198  0.27164615  1
  Ho  Ho6  1  0.12839640  0.19155043  0.46235224  1
  Ho  Ho7  1  0.14140618  0.69535530  0.93610265  1
  Ho  Ho8  1  0.22846982  0.94904437  0.19020130  1
  Ho  Ho9  1  0.21696748  0.42957045  0.69973773  1
  Ho  Ho10  1  0.63320604  0.99273449  0.23463412  1
  Ho  Ho11  1  0.65295062  0.47391889  0.74334077  1
  Si  Si12  1  0.66942260  0.24500220  0.41993410  1
  Si  Si13  1  0.66368978  0.74759046  0.92134093  1
  Si  Si14  1  0.33275572  0.83242190  0.50185602  1
  Si  Si15  1  0.33371231  0.33256632  0.00008022  1
  Si  Si16  1  0.00028929  0.72588915  0.27430355  1
  S  S17  1  0.52096412  0.43554717  0.46047946  1
  S  S18  1  0.52368824  0.93811157  0.96051151  1
  S  S19  1  0.59182978  0.24493974  0.26887768  1
  S  S20  1  0.56997604  0.75435090  0.77690823  1
  S  S21  1  0.90021320  0.27452883  0.29635845  1
  S  S22  1  0.89300077  0.78359969  0.80790085  1
  S  S23  1  0.47786182  0.79199191  0.31095220  1
  S  S24  1  0.47572616  0.29206542  0.81080139  1
  S  S25  1  0.42124774  0.97773993  0.49801954  1
  S  S26  1  0.41962434  0.47992406  0.99774269  1
  S  S27  1  0.10261871  0.94974361  0.46905111  1
  S  S28  1  0.10297548  0.45160754  0.97012868  1
  S  S29  1  0.66729787  0.06127980  0.60408213  1
  S  S30  1  0.66572110  0.56281518  0.10524688  1
  S  S31  1  0.32720924  0.15390435  0.19098584  1
  S  S32  1  0.33893706  0.64230462  0.68002886  1
  S  S33  1  0.14909417  0.65776477  0.43026619  1
  S  S34  1  0.15798411  0.15256378  0.94674999  1
  S  S35  1  0.76269391  0.68803450  0.46124560  1
  S  S36  1  0.74244899  0.18226576  0.97557951  1
  S  S37  1  0.09914936  0.97433660  0.76805680  1
  S  S38  1  0.08862303  0.49486220  0.26769647  1
  S  S39  1  0.83925508  0.30974376  0.59224262  1
  S  S40  1  0.86148789  0.78934396  0.12023560  1
  S  S41  1  0.25737174  0.27791134  0.56127780  1
  S  S42  1  0.23012776  0.76490809  0.09521127  1
  S  S43  1  0.91032039  0.94882027  0.28037843  1
  S  S44  1  0.90114679  0.48922241  0.77048816  1
