# generated using pymatgen
data_K2(FeSe)5
_symmetry_space_group_name_H-M   'P 1'
_cell_length_a   8.31034820
_cell_length_b   9.62517774
_cell_length_c   8.31034820
_cell_angle_alpha   115.57539328
_cell_angle_beta   90.00000000
_cell_angle_gamma   64.42461015
_symmetry_Int_Tables_number   1
_chemical_formula_structural   K2(FeSe)5
_chemical_formula_sum   'K4 Fe10 Se10'
_cell_volume   526.47227755
_cell_formula_units_Z   2
loop_
 _symmetry_equiv_pos_site_id
 _symmetry_equiv_pos_as_xyz
  1  'x, y, z'
loop_
 _atom_site_type_symbol
 _atom_site_label
 _atom_site_symmetry_multiplicity
 _atom_site_fract_x
 _atom_site_fract_y
 _atom_site_fract_z
 _atom_site_occupancy
  K  K0  1  0.19304634  1.00000000  0.62038358  1
  K  K1  1  0.37961642  1.00000000  0.19304634  1
  K  K2  1  0.62038358  0.00000000  0.80695366  1
  K  K3  1  0.80695366  0.00000000  0.37961642  1
  Fe  Fe4  1  0.84890341  0.50143165  0.05237730  1
  Fe  Fe5  1  0.05237730  0.49856835  0.64966494  1
  Fe  Fe6  1  0.25000000  0.50000000  0.25000000  1
  Fe  Fe7  1  0.44905435  0.49856835  0.84890341  1
  Fe  Fe8  1  0.64966494  0.50143165  0.44905435  1
  Fe  Fe9  1  0.94762270  0.50143165  0.35033506  1
  Fe  Fe10  1  0.15109659  0.49856835  0.94762270  1
  Fe  Fe11  1  0.35033506  0.49856835  0.55094565  1
  Fe  Fe12  1  0.55094565  0.50143165  0.15109659  1
  Fe  Fe13  1  0.75000000  0.50000000  0.75000000  1
  Se  Se14  1  0.15725365  0.28728783  0.04456605  1
  Se  Se15  1  0.36016809  0.27966381  0.63983191  1
  Se  Se16  1  0.55545852  0.28728783  0.24272178  1
  Se  Se17  1  0.75727822  0.28728783  0.84274635  1
  Se  Se18  1  0.95543395  0.28728783  0.44454148  1
  Se  Se19  1  0.63983191  0.72033619  0.36016809  1
  Se  Se20  1  0.84274635  0.71271217  0.95543395  1
  Se  Se21  1  0.04456605  0.71271217  0.55545852  1
  Se  Se22  1  0.24272178  0.71271217  0.15725365  1
  Se  Se23  1  0.44454148  0.71271217  0.75727822  1
