# generated using pymatgen
data_K2SrCl4
_symmetry_space_group_name_H-M   'P 1'
_cell_length_a   8.05476845
_cell_length_b   7.90442195
_cell_length_c   8.05476797
_cell_angle_alpha   109.41302102
_cell_angle_beta   107.48883832
_cell_angle_gamma   109.41301636
_symmetry_Int_Tables_number   1
_chemical_formula_structural   K2SrCl4
_chemical_formula_sum   'K4 Sr2 Cl8'
_cell_volume   404.56725925
_cell_formula_units_Z   2
loop_
 _symmetry_equiv_pos_site_id
 _symmetry_equiv_pos_as_xyz
  1  'x, y, z'
loop_
 _atom_site_type_symbol
 _atom_site_label
 _atom_site_symmetry_multiplicity
 _atom_site_fract_x
 _atom_site_fract_y
 _atom_site_fract_z
 _atom_site_occupancy
  K  K0  1  0.25358720  0.60922171  0.35289891  1
  K  K1  1  0.63692837  0.38267567  0.24967996  1
  K  K2  1  0.85289891  0.10922171  0.75358720  1
  K  K3  1  0.74967996  0.88267567  0.13692837  1
  Sr  Sr4  1  0.35915506  0.24241081  0.61887593  1
  Sr  Sr5  1  0.11887593  0.74241081  0.85915506  1
  Cl  Cl6  1  0.01272719  0.86669346  0.51910760  1
  Cl  Cl7  1  0.87280211  0.51518899  0.99603075  1
  Cl  Cl8  1  0.47799306  0.00408311  0.85315473  1
  Cl  Cl9  1  0.49603075  0.01518899  0.37280211  1
  Cl  Cl10  1  0.01910760  0.36669346  0.51272719  1
  Cl  Cl11  1  0.35315473  0.50408311  0.97799306  1
  Cl  Cl12  1  0.63124297  0.61542625  0.63721617  1
  Cl  Cl13  1  0.13721617  0.11542625  0.13124297  1
