# generated using pymatgen
data_Ga3Cu3(Te2Se)2
_symmetry_space_group_name_H-M   'P 1'
_cell_length_a   7.25331280
_cell_length_b   8.48718003
_cell_length_c   11.10251619
_cell_angle_alpha   67.52881408
_cell_angle_beta   90.50714176
_cell_angle_gamma   90.00000000
_symmetry_Int_Tables_number   1
_chemical_formula_structural   Ga3Cu3(Te2Se)2
_chemical_formula_sum   'Ga6 Cu6 Te8 Se4'
_cell_volume   631.54901459
_cell_formula_units_Z   2
loop_
 _symmetry_equiv_pos_site_id
 _symmetry_equiv_pos_as_xyz
  1  'x, y, z'
loop_
 _atom_site_type_symbol
 _atom_site_label
 _atom_site_symmetry_multiplicity
 _atom_site_fract_x
 _atom_site_fract_y
 _atom_site_fract_z
 _atom_site_occupancy
  Ga  Ga0  1  0.35105124  0.52709125  0.67746728  1
  Ga  Ga1  1  0.85105124  0.79544146  0.67746728  1
  Ga  Ga2  1  0.16242265  0.45688598  0.33065775  1
  Ga  Ga3  1  0.66242265  0.21245627  0.33065775  1
  Ga  Ga4  1  0.49579037  0.11064355  0.99750109  1
  Ga  Ga5  1  0.99579037  0.89185536  0.99750109  1
  Cu  Cu6  1  0.01913119  0.36222137  0.00573580  1
  Cu  Cu7  1  0.51913119  0.63204283  0.00573580  1
  Cu  Cu8  1  0.82474683  0.27021945  0.67431440  1
  Cu  Cu9  1  0.32474683  0.05546615  0.67431440  1
  Cu  Cu10  1  0.66763083  0.72330209  0.32179976  1
  Cu  Cu11  1  0.16763083  0.95489815  0.32179976  1
  Te  Te12  1  0.82245163  0.42447334  0.42192573  1
  Te  Te13  1  0.32245163  0.15360093  0.42192573  1
  Te  Te14  1  0.34101492  0.66713909  0.41604841  1
  Te  Te15  1  0.84101492  0.91681249  0.41604841  1
  Te  Te16  1  0.00150169  0.48250888  0.75550965  1
  Te  Te17  1  0.50150169  0.76198147  0.75550965  1
  Te  Te18  1  0.67493615  0.33538943  0.07329410  1
  Te  Te19  1  0.17493615  0.59131647  0.07329410  1
  Se  Se20  1  0.50579361  0.23864575  0.75405057  1
  Se  Se21  1  0.00579361  0.00730368  0.75405057  1
  Se  Se22  1  0.17252889  0.08080797  0.08369545  1
  Se  Se23  1  0.67252889  0.83549659  0.08369545  1
