# generated using pymatgen
data_Cu2SiS3
_symmetry_space_group_name_H-M   'P 1'
_cell_length_a   6.40799253
_cell_length_b   6.39625001
_cell_length_c   7.15548829
_cell_angle_alpha   63.45207680
_cell_angle_beta   89.20082626
_cell_angle_gamma   119.94023540
_symmetry_Int_Tables_number   1
_chemical_formula_structural   Cu2SiS3
_chemical_formula_sum   'Cu4 Si2 S6'
_cell_volume   216.45879993
_cell_formula_units_Z   2
loop_
 _symmetry_equiv_pos_site_id
 _symmetry_equiv_pos_as_xyz
  1  'x, y, z'
loop_
 _atom_site_type_symbol
 _atom_site_label
 _atom_site_symmetry_multiplicity
 _atom_site_fract_x
 _atom_site_fract_y
 _atom_site_fract_z
 _atom_site_occupancy
  Cu  Cu0  1  0.82764718  0.33527499  0.49805876  1
  Cu  Cu1  1  0.50026430  0.66774285  0.49214875  1
  Cu  Cu2  1  0.32758519  0.99429167  0.99809734  1
  Cu  Cu3  1  0.00022620  0.34031575  0.99213446  1
  Si  Si4  1  0.17731720  0.99713106  0.51242601  1
  Si  Si5  1  0.67732569  0.66775668  0.01237878  1
  S  S6  1  0.94318410  0.57728792  0.12578079  1
  S  S7  1  0.62848856  0.91157142  0.11211470  1
  S  S8  1  0.29805586  0.25516092  0.13448876  1
  S  S9  1  0.44323321  0.24009248  0.62579421  1
  S  S10  1  0.12853772  0.60482850  0.61211501  1
  S  S11  1  0.79813479  0.90854576  0.63446244  1
