# generated using pymatgen
data_Dy5(Sn3Rh)6
_symmetry_space_group_name_H-M   'P 1'
_cell_length_a   9.91785819
_cell_length_b   9.91785819
_cell_length_c   9.91785819
_cell_angle_alpha   90.00000000
_cell_angle_beta   60.00000000
_cell_angle_gamma   120.00000000
_symmetry_Int_Tables_number   1
_chemical_formula_structural   Dy5(Sn3Rh)6
_chemical_formula_sum   'Dy5 Sn18 Rh6'
_cell_volume   689.82461109
_cell_formula_units_Z   1
loop_
 _symmetry_equiv_pos_site_id
 _symmetry_equiv_pos_as_xyz
  1  'x, y, z'
loop_
 _atom_site_type_symbol
 _atom_site_label
 _atom_site_symmetry_multiplicity
 _atom_site_fract_x
 _atom_site_fract_y
 _atom_site_fract_z
 _atom_site_occupancy
  Dy  Dy0  1  -0.00000000  -0.00000000  0.00000000  1
  Dy  Dy1  1  0.26021730  0.63010865  0.10967405  1
  Dy  Dy2  1  0.73978270  0.63010865  0.63010865  1
  Dy  Dy3  1  0.73978270  0.10967405  0.63010865  1
  Dy  Dy4  1  0.26021730  0.63010865  0.63010865  1
  Sn  Sn5  1  0.82394190  0.41197095  0.76408715  1
  Sn  Sn6  1  0.17605810  0.41197095  0.41197095  1
  Sn  Sn7  1  0.17605810  0.76408715  0.41197095  1
  Sn  Sn8  1  0.82394190  0.41197095  0.41197095  1
  Sn  Sn9  1  0.50000000  0.25000000  0.25000000  1
  Sn  Sn10  1  0.65022636  0.00794388  0.34182976  1
  Sn  Sn11  1  0.01588777  0.00794388  0.34182976  1
  Sn  Sn12  1  0.65022636  0.64228247  0.34182976  1
  Sn  Sn13  1  0.34977364  0.00794388  0.64228247  1
  Sn  Sn14  1  0.98411223  0.64228247  0.00794388  1
  Sn  Sn15  1  0.34977364  0.00794388  0.00794388  1
  Sn  Sn16  1  0.34977364  0.34182976  0.00794388  1
  Sn  Sn17  1  0.98411223  0.34182976  0.00794388  1
  Sn  Sn18  1  0.34977364  0.34182976  0.64228247  1
  Sn  Sn19  1  0.65022636  0.64228247  0.00794388  1
  Sn  Sn20  1  0.01588777  0.00794388  0.64228247  1
  Sn  Sn21  1  0.65022636  0.00794388  0.00794388  1
  Sn  Sn22  1  0.50000000  0.75000000  0.75000000  1
  Rh  Rh23  1  0.49229344  0.74614672  0.25385328  1
  Rh  Rh24  1  -0.00000000  0.25385328  0.25385328  1
  Rh  Rh25  1  -0.00000000  0.74614672  0.25385328  1
  Rh  Rh26  1  0.50770656  0.25385328  0.74614672  1
  Rh  Rh27  1  -0.00000000  0.74614672  0.74614672  1
  Rh  Rh28  1  -0.00000000  0.25385328  0.74614672  1
