# generated using pymatgen
data_Fe9B4Rh3
_symmetry_space_group_name_H-M   'P 1'
_cell_length_a   4.49565410
_cell_length_b   5.45922798
_cell_length_c   6.87804977
_cell_angle_alpha   90.00000000
_cell_angle_beta   90.00000000
_cell_angle_gamma   90.23197027
_symmetry_Int_Tables_number   1
_chemical_formula_structural   Fe9B4Rh3
_chemical_formula_sum   'Fe9 B4 Rh3'
_cell_volume   168.80522086
_cell_formula_units_Z   1
loop_
 _symmetry_equiv_pos_site_id
 _symmetry_equiv_pos_as_xyz
  1  'x, y, z'
loop_
 _atom_site_type_symbol
 _atom_site_label
 _atom_site_symmetry_multiplicity
 _atom_site_fract_x
 _atom_site_fract_y
 _atom_site_fract_z
 _atom_site_occupancy
  Fe  Fe0  1  0.35354277  0.67316281  0.06440972  1
  Fe  Fe1  1  0.13930831  0.18021566  0.43791873  1
  Fe  Fe2  1  0.64246478  0.32667710  0.55775128  1
  Fe  Fe3  1  0.85733732  0.82150692  0.94336452  1
  Fe  Fe4  1  0.64246478  0.32667710  0.94224872  1
  Fe  Fe5  1  0.85733732  0.82150692  0.55663548  1
  Fe  Fe6  1  0.35354277  0.67316281  0.43559028  1
  Fe  Fe7  1  0.13930831  0.18021566  0.06208127  1
  Fe  Fe8  1  0.87597059  0.52610207  0.25000000  1
  B  B9  1  0.07948416  0.87981711  0.25000000  1
  B  B10  1  0.42709268  0.37740996  0.25000000  1
  B  B11  1  0.91945592  0.11829547  0.75000000  1
  B  B12  1  0.57917815  0.62205553  0.75000000  1
  Rh  Rh13  1  0.63376332  0.02692303  0.25000000  1
  Rh  Rh14  1  0.12996028  0.47339637  0.75000000  1
  Rh  Rh15  1  0.36978853  0.97287549  0.75000000  1
