# generated using pymatgen
data_Dy3CuSe6
_symmetry_space_group_name_H-M   'P 1'
_cell_length_a   7.09055948
_cell_length_b   7.74864202
_cell_length_c   17.08118709
_cell_angle_alpha   90.00000000
_cell_angle_beta   90.00000000
_cell_angle_gamma   90.00000000
_symmetry_Int_Tables_number   1
_chemical_formula_structural   Dy3CuSe6
_chemical_formula_sum   'Dy12 Cu4 Se24'
_cell_volume   938.47811916
_cell_formula_units_Z   4
loop_
 _symmetry_equiv_pos_site_id
 _symmetry_equiv_pos_as_xyz
  1  'x, y, z'
loop_
 _atom_site_type_symbol
 _atom_site_label
 _atom_site_symmetry_multiplicity
 _atom_site_fract_x
 _atom_site_fract_y
 _atom_site_fract_z
 _atom_site_occupancy
  Dy  Dy0  1  0.26510962  0.94084188  0.75285375  1
  Dy  Dy1  1  0.73489038  0.05915812  0.25285375  1
  Dy  Dy2  1  0.26510962  0.55915812  0.25285375  1
  Dy  Dy3  1  0.73489038  0.44084188  0.75285375  1
  Dy  Dy4  1  0.22748860  0.55510400  0.58806191  1
  Dy  Dy5  1  0.77251140  0.44489600  0.08806191  1
  Dy  Dy6  1  0.24469330  0.93917040  0.40854160  1
  Dy  Dy7  1  0.75530670  0.06082960  0.90854160  1
  Dy  Dy8  1  0.75530670  0.43917040  0.40854160  1
  Dy  Dy9  1  0.24469330  0.56082960  0.90854160  1
  Dy  Dy10  1  0.77251140  0.05510400  0.58806191  1
  Dy  Dy11  1  0.22748860  0.94489600  0.08806191  1
  Cu  Cu12  1  0.39657787  0.20711584  0.52362328  1
  Cu  Cu13  1  0.60342213  0.79288416  0.02362328  1
  Cu  Cu14  1  0.60342213  0.70711584  0.52362328  1
  Cu  Cu15  1  0.39657787  0.29288416  0.02362328  1
  Se  Se16  1  0.38721613  0.90853410  0.58404613  1
  Se  Se17  1  0.61278387  0.09146590  0.08404613  1
  Se  Se18  1  0.38351862  0.59342675  0.41956281  1
  Se  Se19  1  0.61648138  0.40657325  0.91956281  1
  Se  Se20  1  0.61648138  0.09342675  0.41956281  1
  Se  Se21  1  0.38351862  0.90657325  0.91956281  1
  Se  Se22  1  0.61278387  0.40853410  0.58404613  1
  Se  Se23  1  0.38721613  0.59146590  0.08404613  1
  Se  Se24  1  0.07623842  0.25012278  0.67944338  1
  Se  Se25  1  0.92376158  0.74987722  0.17944338  1
  Se  Se26  1  0.07468339  0.24696603  0.32320118  1
  Se  Se27  1  0.92531661  0.75303397  0.82320118  1
  Se  Se28  1  0.92531661  0.74696603  0.32320118  1
  Se  Se29  1  0.07468339  0.25303397  0.82320118  1
  Se  Se30  1  0.92376158  0.75012278  0.67944338  1
  Se  Se31  1  0.07623842  0.24987722  0.17944338  1
  Se  Se32  1  0.06394199  0.24960951  0.49915262  1
  Se  Se33  1  0.93605801  0.75039049  0.99915262  1
  Se  Se34  1  0.93605801  0.74960951  0.49915262  1
  Se  Se35  1  0.06394199  0.25039049  0.99915262  1
  Se  Se36  1  0.38174274  0.59862640  0.74851331  1
  Se  Se37  1  0.61825726  0.40137360  0.24851331  1
  Se  Se38  1  0.38174274  0.90137360  0.24851331  1
  Se  Se39  1  0.61825726  0.09862640  0.74851331  1
