# generated using pymatgen
data_SrMg6Cd
_symmetry_space_group_name_H-M   'P 1'
_cell_length_a   6.79547017
_cell_length_b   6.79546954
_cell_length_c   5.22378907
_cell_angle_alpha   90.00000000
_cell_angle_beta   90.00000000
_cell_angle_gamma   119.83949453
_symmetry_Int_Tables_number   1
_chemical_formula_structural   SrMg6Cd
_chemical_formula_sum   'Sr1 Mg6 Cd1'
_cell_volume   209.24514264
_cell_formula_units_Z   1
loop_
 _symmetry_equiv_pos_site_id
 _symmetry_equiv_pos_as_xyz
  1  'x, y, z'
loop_
 _atom_site_type_symbol
 _atom_site_label
 _atom_site_symmetry_multiplicity
 _atom_site_fract_x
 _atom_site_fract_y
 _atom_site_fract_z
 _atom_site_occupancy
  Sr  Sr0  1  0.16965655  0.33034345  0.25000000  1
  Mg  Mg1  1  0.17513746  0.83588010  0.25000000  1
  Mg  Mg2  1  0.66411990  0.32486254  0.25000000  1
  Mg  Mg3  1  0.66176750  0.83823250  0.25000000  1
  Mg  Mg4  1  0.34296466  0.68930463  0.75000000  1
  Mg  Mg5  1  0.81069537  0.15703534  0.75000000  1
  Mg  Mg6  1  0.83286908  0.66713092  0.75000000  1
  Cd  Cd7  1  0.34278948  0.15721052  0.75000000  1
