# generated using pymatgen
data_DyMn2(Cr2Ge3)2
_symmetry_space_group_name_H-M   'P 1'
_cell_length_a   5.14035481
_cell_length_b   5.14124368
_cell_length_c   8.28242991
_cell_angle_alpha   89.99947558
_cell_angle_beta   89.99932468
_cell_angle_gamma   59.96864820
_symmetry_Int_Tables_number   1
_chemical_formula_structural   DyMn2(Cr2Ge3)2
_chemical_formula_sum   'Dy1 Mn2 Cr4 Ge6'
_cell_volume   189.50138881
_cell_formula_units_Z   1
loop_
 _symmetry_equiv_pos_site_id
 _symmetry_equiv_pos_as_xyz
  1  'x, y, z'
loop_
 _atom_site_type_symbol
 _atom_site_label
 _atom_site_symmetry_multiplicity
 _atom_site_fract_x
 _atom_site_fract_y
 _atom_site_fract_z
 _atom_site_occupancy
  Dy  Dy0  1  0.99998283  0.00000865  0.99971361  1
  Mn  Mn1  1  0.49999953  0.00000401  0.25058923  1
  Mn  Mn2  1  0.99999384  0.50000695  0.25061422  1
  Cr  Cr3  1  0.49998604  0.49999415  0.24942360  1
  Cr  Cr4  1  0.49999892  0.99999017  0.74933627  1
  Cr  Cr5  1  0.99998135  0.50000567  0.74933071  1
  Cr  Cr6  1  0.49999332  0.49999012  0.74995135  1
  Ge  Ge7  1  0.66566809  0.66567270  0.49883211  1
  Ge  Ge8  1  0.33427444  0.33433349  0.49882756  1
  Ge  Ge9  1  0.66623804  0.66622405  0.00197515  1
  Ge  Ge10  1  0.33370151  0.33376889  0.00196902  1
  Ge  Ge11  1  0.99999478  0.00000422  0.34572888  1
  Ge  Ge12  1  0.99998732  0.99999693  0.65370830  1
