# generated using pymatgen
data_Cr12BP3
_symmetry_space_group_name_H-M   'P 1'
_cell_length_a   4.46244640
_cell_length_b   6.74908564
_cell_length_c   6.68693655
_cell_angle_alpha   94.56545481
_cell_angle_beta   108.90029276
_cell_angle_gamma   71.05046080
_symmetry_Int_Tables_number   1
_chemical_formula_structural   Cr12BP3
_chemical_formula_sum   'Cr12 B1 P3'
_cell_volume   180.13520967
_cell_formula_units_Z   1
loop_
 _symmetry_equiv_pos_site_id
 _symmetry_equiv_pos_as_xyz
  1  'x, y, z'
loop_
 _atom_site_type_symbol
 _atom_site_label
 _atom_site_symmetry_multiplicity
 _atom_site_fract_x
 _atom_site_fract_y
 _atom_site_fract_z
 _atom_site_occupancy
  Cr  Cr0  1  0.06349509  0.39662946  0.02992638  1
  Cr  Cr1  1  0.39696495  0.60329944  0.94795944  1
  Cr  Cr2  1  0.98529409  0.94338416  0.38483916  1
  Cr  Cr3  1  0.54757946  0.06091264  0.61806717  1
  Cr  Cr4  1  0.67283903  0.18330335  0.01499580  1
  Cr  Cr5  1  0.83337755  0.82856356  0.97652166  1
  Cr  Cr6  1  0.33485722  0.97840684  0.17396603  1
  Cr  Cr7  1  0.14227509  0.03830593  0.81553341  1
  Cr  Cr8  1  0.65249966  0.37998124  0.67660693  1
  Cr  Cr9  1  0.35493180  0.61470096  0.33294316  1
  Cr  Cr10  1  0.03352676  0.32241199  0.40408070  1
  Cr  Cr11  1  0.97948286  0.65586603  0.62837199  1
  B  B12  1  0.22068063  0.33251950  0.75070206  1
  P  P13  1  0.78854370  0.65932188  0.24878817  1
  P  P14  1  0.53717410  0.24932336  0.32979762  1
  P  P15  1  0.45647799  0.75306967  0.66690033  1
