# generated using pymatgen
data_Cr2(NiB2)3
_symmetry_space_group_name_H-M   'P 1'
_cell_length_a   2.95860434
_cell_length_b   2.94205700
_cell_length_c   10.17262422
_cell_angle_alpha   90.00000000
_cell_angle_beta   81.63840602
_cell_angle_gamma   90.00000000
_symmetry_Int_Tables_number   1
_chemical_formula_structural   Cr2(NiB2)3
_chemical_formula_sum   'Cr2 Ni3 B6'
_cell_volume   87.60516776
_cell_formula_units_Z   1
loop_
 _symmetry_equiv_pos_site_id
 _symmetry_equiv_pos_as_xyz
  1  'x, y, z'
loop_
 _atom_site_type_symbol
 _atom_site_label
 _atom_site_symmetry_multiplicity
 _atom_site_fract_x
 _atom_site_fract_y
 _atom_site_fract_z
 _atom_site_occupancy
  Cr  Cr0  1  0.99947368  -0.00000000  0.00105263  1
  Cr  Cr1  1  0.61588702  0.00000000  0.76822597  1
  Ni  Ni2  1  0.38190769  0.00000000  0.23618462  1
  Ni  Ni3  1  0.80542907  0.50000000  0.38914185  1
  Ni  Ni4  1  0.19816429  0.50000000  0.60367141  1
  B  B5  1  0.54209078  0.50000000  0.91581845  1
  B  B6  1  0.45628544  0.50000000  0.08742912  1
  B  B7  1  0.72468523  -0.00000000  0.55062953  1
  B  B8  1  0.27531004  0.00000000  0.44937991  1
  B  B9  1  0.91090059  0.50000000  0.17819882  1
  B  B10  1  0.08986616  0.50000000  0.82026768  1
