# generated using pymatgen
data_Cr4CdCuO8
_symmetry_space_group_name_H-M   'P 1'
_cell_length_a   6.10383550
_cell_length_b   6.10383550
_cell_length_c   6.10383550
_cell_angle_alpha   90.00000000
_cell_angle_beta   60.00000000
_cell_angle_gamma   120.00000000
_symmetry_Int_Tables_number   1
_chemical_formula_structural   Cr4CdCuO8
_chemical_formula_sum   'Cr4 Cd1 Cu1 O8'
_cell_volume   160.80274696
_cell_formula_units_Z   1
loop_
 _symmetry_equiv_pos_site_id
 _symmetry_equiv_pos_as_xyz
  1  'x, y, z'
loop_
 _atom_site_type_symbol
 _atom_site_label
 _atom_site_symmetry_multiplicity
 _atom_site_fract_x
 _atom_site_fract_y
 _atom_site_fract_z
 _atom_site_occupancy
  Cr  Cr0  1  0.49957879  0.99936818  0.50021061  1
  Cr  Cr1  1  0.49957879  0.50021061  0.50021061  1
  Cr  Cr2  1  0.00042121  0.50021061  0.99936818  1
  Cr  Cr3  1  0.00042121  0.50021061  0.50021061  1
  Cd  Cd4  1  0.25000000  0.12500000  0.12500000  1
  Cu  Cu5  1  0.75000000  0.87500000  0.87500000  1
  O  O6  1  0.96314611  0.69471916  0.26842695  1
  O  O7  1  0.96314611  0.26842695  0.26842695  1
  O  O8  1  0.53685389  0.26842695  0.69471916  1
  O  O9  1  0.53685389  0.26842695  0.26842695  1
  O  O10  1  0.02606778  0.28910167  0.73696611  1
  O  O11  1  0.02606778  0.73696611  0.73696611  1
  O  O12  1  0.47393222  0.73696611  0.28910167  1
  O  O13  1  0.47393222  0.73696611  0.73696611  1
