# generated using pymatgen
data_HfMg6Cd
_symmetry_space_group_name_H-M   'P 1'
_cell_length_a   6.40939770
_cell_length_b   6.25881362
_cell_length_c   5.05102774
_cell_angle_alpha   90.00000000
_cell_angle_beta   90.00000000
_cell_angle_gamma   119.22581751
_symmetry_Int_Tables_number   1
_chemical_formula_structural   HfMg6Cd
_chemical_formula_sum   'Hf1 Mg6 Cd1'
_cell_volume   176.82963203
_cell_formula_units_Z   1
loop_
 _symmetry_equiv_pos_site_id
 _symmetry_equiv_pos_as_xyz
  1  'x, y, z'
loop_
 _atom_site_type_symbol
 _atom_site_label
 _atom_site_symmetry_multiplicity
 _atom_site_fract_x
 _atom_site_fract_y
 _atom_site_fract_z
 _atom_site_occupancy
  Hf  Hf0  1  0.16078221  0.83039061  0.25000000  1
  Mg  Mg1  1  0.66272314  0.33370280  0.25000000  1
  Mg  Mg2  1  0.66272314  0.82901934  0.25000000  1
  Mg  Mg3  1  0.33250387  0.16077472  0.75000000  1
  Mg  Mg4  1  0.33250387  0.67173015  0.75000000  1
  Mg  Mg5  1  0.83665921  0.16833011  0.75000000  1
  Mg  Mg6  1  0.84224516  0.67112308  0.75000000  1
  Cd  Cd7  1  0.16985939  0.33492919  0.25000000  1
