# generated using pymatgen
data_Cr5NiS8
_symmetry_space_group_name_H-M   'P 1'
_cell_length_a   3.44224465
_cell_length_b   5.99103336
_cell_length_c   10.90594926
_cell_angle_alpha   88.88867658
_cell_angle_beta   90.00000000
_cell_angle_gamma   90.00000000
_symmetry_Int_Tables_number   1
_chemical_formula_structural   Cr5NiS8
_chemical_formula_sum   'Cr5 Ni1 S8'
_cell_volume   224.86675115
_cell_formula_units_Z   1
loop_
 _symmetry_equiv_pos_site_id
 _symmetry_equiv_pos_as_xyz
  1  'x, y, z'
loop_
 _atom_site_type_symbol
 _atom_site_label
 _atom_site_symmetry_multiplicity
 _atom_site_fract_x
 _atom_site_fract_y
 _atom_site_fract_z
 _atom_site_occupancy
  Cr  Cr0  1  0.50000000  0.48523753  0.24267474  1
  Cr  Cr1  1  -0.00000000  0.98532842  0.73121744  1
  Cr  Cr2  1  -0.00000000  0.01467158  0.26878256  1
  Cr  Cr3  1  0.50000000  0.51476247  0.75732526  1
  Cr  Cr4  1  0.00000000  0.00000000  -0.00000000  1
  Ni  Ni5  1  0.50000000  0.50000000  0.50000000  1
  S  S6  1  0.00000000  0.32397646  0.12442443  1
  S  S7  1  0.50000000  0.82483660  0.61961651  1
  S  S8  1  0.50000000  0.17516340  0.38038349  1
  S  S9  1  -0.00000000  0.67602354  0.87557557  1
  S  S10  1  0.50000000  0.84490975  0.13143196  1
  S  S11  1  0.00000000  0.34508898  0.63306551  1
  S  S12  1  0.00000000  0.65491102  0.36693449  1
  S  S13  1  0.50000000  0.15509025  0.86856804  1
