# generated using pymatgen
data_CsBa2Co2F9
_symmetry_space_group_name_H-M   'P 1'
_cell_length_a   6.00639185
_cell_length_b   6.00639138
_cell_length_c   7.96310108
_cell_angle_alpha   90.00000000
_cell_angle_beta   67.84342649
_cell_angle_gamma   120.00000343
_symmetry_Int_Tables_number   1
_chemical_formula_structural   CsBa2Co2F9
_chemical_formula_sum   'Cs1 Ba2 Co2 F9'
_cell_volume   223.96377621
_cell_formula_units_Z   1
loop_
 _symmetry_equiv_pos_site_id
 _symmetry_equiv_pos_as_xyz
  1  'x, y, z'
loop_
 _atom_site_type_symbol
 _atom_site_label
 _atom_site_symmetry_multiplicity
 _atom_site_fract_x
 _atom_site_fract_y
 _atom_site_fract_z
 _atom_site_occupancy
  Cs  Cs0  1  0.42898087  0.21449044  0.35652869  1
  Ba  Ba1  1  0.99830515  0.99915258  0.00254227  1
  Ba  Ba2  1  0.58605147  0.79302574  0.62092279  1
  Co  Co3  1  0.77888628  0.38944314  0.83167059  1
  Co  Co4  1  0.21084320  0.60542160  0.18373520  1
  F  F5  1  0.03734347  0.26562583  0.69703070  1
  F  F6  1  0.53125165  0.26562583  0.69703070  1
  F  F7  1  0.03734347  0.77171764  0.69703070  1
  F  F8  1  0.95238691  0.73448633  0.31312676  1
  F  F9  1  0.46897267  0.73448633  0.31312676  1
  F  F10  1  0.95238691  0.21790057  0.31312676  1
  F  F11  1  0.02100929  0.51050464  0.99137602  1
  F  F12  1  0.49811933  0.98761469  0.99137602  1
  F  F13  1  0.49811933  0.51050464  0.99137602  1
