# generated using pymatgen
data_CsLa2Ti2NbO10
_symmetry_space_group_name_H-M   'P 1'
_cell_length_a   3.90175167
_cell_length_b   3.90175167
_cell_length_c   15.69065950
_cell_angle_alpha   89.60688736
_cell_angle_beta   90.39311264
_cell_angle_gamma   89.95129640
_symmetry_Int_Tables_number   1
_chemical_formula_structural   CsLa2Ti2NbO10
_chemical_formula_sum   'Cs1 La2 Ti2 Nb1 O10'
_cell_volume   238.85802081
_cell_formula_units_Z   1
loop_
 _symmetry_equiv_pos_site_id
 _symmetry_equiv_pos_as_xyz
  1  'x, y, z'
loop_
 _atom_site_type_symbol
 _atom_site_label
 _atom_site_symmetry_multiplicity
 _atom_site_fract_x
 _atom_site_fract_y
 _atom_site_fract_z
 _atom_site_occupancy
  Cs  Cs0  1  0.50003892  0.49996108  0.50945863  1
  La  La1  1  0.50747300  0.49252700  0.84621714  1
  La  La2  1  0.50356335  0.49643665  0.12793610  1
  Ti  Ti3  1  0.98522189  0.01477811  0.99769510  1
  Ti  Ti4  1  0.00066670  0.99933330  0.71596587  1
  Nb  Nb5  1  0.00094921  0.99905079  0.28023502  1
  O  O6  1  0.99060439  0.00939561  0.87881673  1
  O  O7  1  0.98836285  0.01163715  0.12734191  1
  O  O8  1  0.49940053  0.99955904  0.75155614  1
  O  O9  1  0.00044096  0.50059947  0.75155614  1
  O  O10  1  0.49815765  0.00350747  0.24846143  1
  O  O11  1  0.99649253  0.50184235  0.24846143  1
  O  O12  1  0.99930820  0.00069180  0.60772163  1
  O  O13  1  0.00135637  0.99864363  0.39431855  1
  O  O14  1  0.47465634  0.05169288  0.00712909  1
  O  O15  1  0.94830712  0.52534366  0.00712909  1
