# generated using pymatgen
data_Ce4ZrO10
_symmetry_space_group_name_H-M   'P 1'
_cell_length_a   3.83508557
_cell_length_b   3.83508557
_cell_length_c   15.68822447
_cell_angle_alpha   90.00000000
_cell_angle_beta   97.02071340
_cell_angle_gamma   120.00000000
_symmetry_Int_Tables_number   1
_chemical_formula_structural   Ce4ZrO10
_chemical_formula_sum   'Ce4 Zr1 O10'
_cell_volume   197.82691925
_cell_formula_units_Z   1
loop_
 _symmetry_equiv_pos_site_id
 _symmetry_equiv_pos_as_xyz
  1  'x, y, z'
loop_
 _atom_site_type_symbol
 _atom_site_label
 _atom_site_symmetry_multiplicity
 _atom_site_fract_x
 _atom_site_fract_y
 _atom_site_fract_z
 _atom_site_occupancy
  Ce  Ce0  1  0.79444987  0.39722493  0.19167480  1
  Ce  Ce1  1  0.59837768  0.79918884  0.39756652  1
  Ce  Ce2  1  0.40162232  0.20081116  0.60243348  1
  Ce  Ce3  1  0.20555013  0.60277507  0.80832520  1
  Zr  Zr4  1  0.00000000  0.00000000  -0.00000000  1
  O  O5  1  0.90704647  0.95352323  0.86056970  1
  O  O6  1  0.10239596  0.55119798  0.65359394  1
  O  O7  1  0.29953274  0.14976637  0.44929911  1
  O  O8  1  0.69426437  0.34713219  0.04139656  1
  O  O9  1  0.49518177  0.74759089  0.24277266  1
  O  O10  1  0.30573563  0.65286781  0.95860344  1
  O  O11  1  0.50481823  0.25240911  0.75722734  1
  O  O12  1  0.70046726  0.85023363  0.55070089  1
  O  O13  1  0.09295353  0.04647677  0.13943030  1
  O  O14  1  0.89760404  0.44880202  0.34640606  1
