# generated using pymatgen
data_Cr3B12Rh25
_symmetry_space_group_name_H-M   'P 1'
_cell_length_a   4.82351982
_cell_length_b   7.52212317
_cell_length_c   12.98472620
_cell_angle_alpha   89.94998283
_cell_angle_beta   89.90773289
_cell_angle_gamma   90.00541433
_symmetry_Int_Tables_number   1
_chemical_formula_structural   Cr3B12Rh25
_chemical_formula_sum   'Cr3 B12 Rh25'
_cell_volume   471.12545885
_cell_formula_units_Z   1
loop_
 _symmetry_equiv_pos_site_id
 _symmetry_equiv_pos_as_xyz
  1  'x, y, z'
loop_
 _atom_site_type_symbol
 _atom_site_label
 _atom_site_symmetry_multiplicity
 _atom_site_fract_x
 _atom_site_fract_y
 _atom_site_fract_z
 _atom_site_occupancy
  Cr  Cr0  1  0.99076615  0.31530603  0.77454167  1
  Cr  Cr1  1  0.98734304  0.00086517  0.45921783  1
  Cr  Cr2  1  0.99122242  0.49393119  0.95435733  1
  B  B3  1  0.27303611  0.77500818  0.40591702  1
  B  B4  1  0.27407229  0.27593923  0.90677839  1
  B  B5  1  0.27531830  0.22369807  0.40569726  1
  B  B6  1  0.27399364  0.72274393  0.90637762  1
  B  B7  1  0.26511793  0.99944003  0.18797370  1
  B  B8  1  0.27305117  0.50140079  0.68603533  1
  B  B9  1  0.76370675  0.71636527  0.09348097  1
  B  B10  1  0.76539624  0.21615608  0.59511671  1
  B  B11  1  0.76420266  0.28391143  0.09385931  1
  B  B12  1  0.76351901  0.78546496  0.59372355  1
  B  B13  1  0.76348647  0.50025700  0.31055833  1
  B  B14  1  0.76241320  0.00178208  0.80995753  1
  Rh  Rh15  1  0.50130576  0.99957449  0.33370370  1
  Rh  Rh16  1  0.49911716  0.49700832  0.83297740  1
  Rh  Rh17  1  0.99474009  0.49987712  0.16446480  1
  Rh  Rh18  1  0.99258647  0.00324523  0.66705918  1
  Rh  Rh19  1  0.16287357  0.80752929  0.05962567  1
  Rh  Rh20  1  0.16757823  0.31043493  0.56513317  1
  Rh  Rh21  1  0.16592565  0.19264793  0.06134500  1
  Rh  Rh22  1  0.16551146  0.69239514  0.56069259  1
  Rh  Rh23  1  0.16209865  0.49805293  0.37697381  1
  Rh  Rh24  1  0.16366723  0.00551127  0.87431347  1
  Rh  Rh25  1  0.67330267  0.68939197  0.43882375  1
  Rh  Rh26  1  0.68483629  0.19375407  0.93518260  1
  Rh  Rh27  1  0.67434545  0.31065855  0.43940404  1
  Rh  Rh28  1  0.67440531  0.81185170  0.93691750  1
  Rh  Rh29  1  0.66304326  0.00067611  0.12198094  1
  Rh  Rh30  1  0.67662811  0.49832627  0.62524255  1
  Rh  Rh31  1  0.51273934  0.31480799  0.22696957  1
  Rh  Rh32  1  0.51087843  0.81575730  0.72784469  1
  Rh  Rh33  1  0.51284759  0.68417397  0.22658575  1
  Rh  Rh34  1  0.49718848  0.19149306  0.72971971  1
  Rh  Rh35  1  0.49843031  0.49996685  0.03847994  1
  Rh  Rh36  1  0.49751404  0.00219653  0.54045447  1
  Rh  Rh37  1  0.01559761  0.18054909  0.27786187  1
  Rh  Rh38  1  0.01334073  0.66849946  0.77731202  1
  Rh  Rh39  1  0.01429273  0.81935200  0.27734129  1
