# generated using pymatgen
data_Ce2FeRu3
_symmetry_space_group_name_H-M   'P 1'
_cell_length_a   5.48655829
_cell_length_b   5.48655829
_cell_length_c   5.07842109
_cell_angle_alpha   90.00000000
_cell_angle_beta   57.30387049
_cell_angle_gamma   120.00000000
_symmetry_Int_Tables_number   1
_chemical_formula_structural   Ce2FeRu3
_chemical_formula_sum   'Ce2 Fe1 Ru3'
_cell_volume   103.48016357
_cell_formula_units_Z   1
loop_
 _symmetry_equiv_pos_site_id
 _symmetry_equiv_pos_as_xyz
  1  'x, y, z'
loop_
 _atom_site_type_symbol
 _atom_site_label
 _atom_site_symmetry_multiplicity
 _atom_site_fract_x
 _atom_site_fract_y
 _atom_site_fract_z
 _atom_site_occupancy
  Ce  Ce0  1  0.49410770  0.74705385  0.75883845  1
  Ce  Ce1  1  0.00589230  0.00294615  0.99116155  1
  Fe  Fe2  1  0.75000000  0.37500000  0.87500000  1
  Ru  Ru3  1  0.25000000  0.37500000  0.37500000  1
  Ru  Ru4  1  0.25000000  0.87500000  0.37500000  1
  Ru  Ru5  1  0.75000000  0.37500000  0.37500000  1
