# generated using pymatgen
data_CaH2CO4
_symmetry_space_group_name_H-M   'P 1'
_cell_length_a   6.14759282
_cell_length_b   6.14759283
_cell_length_c   7.57789562
_cell_angle_alpha   90.00000000
_cell_angle_beta   90.00000000
_cell_angle_gamma   120.00001179
_symmetry_Int_Tables_number   1
_chemical_formula_structural   CaH2CO4
_chemical_formula_sum   'Ca3 H6 C3 O12'
_cell_volume   248.02153393
_cell_formula_units_Z   3
loop_
 _symmetry_equiv_pos_site_id
 _symmetry_equiv_pos_as_xyz
  1  'x, y, z'
loop_
 _atom_site_type_symbol
 _atom_site_label
 _atom_site_symmetry_multiplicity
 _atom_site_fract_x
 _atom_site_fract_y
 _atom_site_fract_z
 _atom_site_occupancy
  Ca  Ca0  1  0.72350839  0.72466518  0.66429685  1
  Ca  Ca1  1  0.27533482  0.99884321  0.99763085  1
  Ca  Ca2  1  0.00115679  0.27649161  0.33096385  1
  H  H3  1  0.54552164  0.44859134  0.24573088  1
  H  H4  1  0.55140866  0.09693031  0.57906488  1
  H  H5  1  0.90306969  0.45447836  0.91239788  1
  H  H6  1  0.45854258  0.90804865  0.41771985  1
  H  H7  1  0.09195135  0.55049393  0.75105385  1
  H  H8  1  0.44950607  0.54145742  0.08438685  1
  C  C9  1  0.25543810  0.27882797  0.70306532  1
  C  C10  1  0.72117203  0.97661013  0.03639932  1
  C  C11  1  0.02338987  0.74456190  0.36973232  1
  O  O12  1  0.81242476  0.53823678  0.40216709  1
  O  O13  1  0.46176322  0.27418798  0.73550109  1
  O  O14  1  0.72581202  0.18757524  0.06883409  1
  O  O15  1  0.18952452  0.73430330  0.26683233  1
  O  O16  1  0.26569670  0.45522122  0.60016633  1
  O  O17  1  0.54477878  0.81047548  0.93349933  1
  O  O18  1  0.39742032  0.39813356  0.16759726  1
  O  O19  1  0.60186644  0.99928676  0.50093126  1
  O  O20  1  0.00071324  0.60257968  0.83426426  1
  O  O21  1  0.87781741  0.92908351  0.11505442  1
  O  O22  1  0.07091649  0.94873390  0.44838842  1
  O  O23  1  0.05126610  0.12218259  0.78172142  1
