# generated using pymatgen
data_Co19(Si2B)4
_symmetry_space_group_name_H-M   'P 1'
_cell_length_a   6.46098376
_cell_length_b   6.46098376
_cell_length_c   8.45225400
_cell_angle_alpha   109.02193431
_cell_angle_beta   70.97806569
_cell_angle_gamma   96.15853697
_symmetry_Int_Tables_number   1
_chemical_formula_structural   Co19(Si2B)4
_chemical_formula_sum   'Co19 Si8 B4'
_cell_volume   315.35164659
_cell_formula_units_Z   1
loop_
 _symmetry_equiv_pos_site_id
 _symmetry_equiv_pos_as_xyz
  1  'x, y, z'
loop_
 _atom_site_type_symbol
 _atom_site_label
 _atom_site_symmetry_multiplicity
 _atom_site_fract_x
 _atom_site_fract_y
 _atom_site_fract_z
 _atom_site_occupancy
  Co  Co0  1  0.87326722  0.72278000  0.71425763  1
  Co  Co1  1  0.87198638  0.71603108  0.21098935  1
  Co  Co2  1  0.12726657  0.28171431  0.28689853  1
  Co  Co3  1  0.12641645  0.27761341  0.79010793  1
  Co  Co4  1  0.27761341  0.12641645  0.45989207  1
  Co  Co5  1  0.28171431  0.12726657  0.96310147  1
  Co  Co6  1  0.72278000  0.87326722  0.53574237  1
  Co  Co7  1  0.71603108  0.87198638  0.03901065  1
  Co  Co8  1  0.72399994  0.12509691  0.34773553  1
  Co  Co9  1  0.71779966  0.12687426  0.85276835  1
  Co  Co10  1  0.27701162  0.87499408  0.64820507  1
  Co  Co11  1  0.28239094  0.87228974  0.14805354  1
  Co  Co12  1  0.12687426  0.71779966  0.39723165  1
  Co  Co13  1  0.12509691  0.72399994  0.90226447  1
  Co  Co14  1  0.87499408  0.27701162  0.60179493  1
  Co  Co15  1  0.87228974  0.28239094  0.10194646  1
  Co  Co16  1  0.50086797  0.50086797  0.12500000  1
  Co  Co17  1  0.50060547  0.49966532  0.41087549  1
  Co  Co18  1  0.49966532  0.50060547  0.83912451  1
  Si  Si19  1  0.49965651  0.17903168  0.17868175  1
  Si  Si20  1  0.50105170  0.17737323  0.64130818  1
  Si  Si21  1  0.49959010  0.82395666  0.80301263  1
  Si  Si22  1  0.49949700  0.82169335  0.33984319  1
  Si  Si23  1  0.82395666  0.49959010  0.44698737  1
  Si  Si24  1  0.82169335  0.49949700  0.91015681  1
  Si  Si25  1  0.17737323  0.50105170  0.60869182  1
  Si  Si26  1  0.17903168  0.49965651  0.07131825  1
  B  B27  1  0.00147804  0.00147804  0.12500000  1
  B  B28  1  0.99837914  0.99837914  0.62500000  1
  B  B29  1  0.00281215  0.99680909  0.37160068  1
  B  B30  1  0.99680909  0.00281215  0.87839932  1
