# generated using pymatgen
data_HfMg6Cd
_symmetry_space_group_name_H-M   'P 1'
_cell_length_a   6.38462716
_cell_length_b   6.38462665
_cell_length_c   5.03296940
_cell_angle_alpha   90.00000000
_cell_angle_beta   90.00000000
_cell_angle_gamma   120.17310713
_symmetry_Int_Tables_number   1
_chemical_formula_structural   HfMg6Cd
_chemical_formula_sum   'Hf1 Mg6 Cd1'
_cell_volume   177.36411869
_cell_formula_units_Z   1
loop_
 _symmetry_equiv_pos_site_id
 _symmetry_equiv_pos_as_xyz
  1  'x, y, z'
loop_
 _atom_site_type_symbol
 _atom_site_label
 _atom_site_symmetry_multiplicity
 _atom_site_fract_x
 _atom_site_fract_y
 _atom_site_fract_z
 _atom_site_occupancy
  Hf  Hf0  1  0.33061791  0.16938209  0.75000000  1
  Mg  Mg1  1  0.16896199  0.83634752  0.25000000  1
  Mg  Mg2  1  0.66365248  0.33103801  0.25000000  1
  Mg  Mg3  1  0.66741000  0.83259000  0.25000000  1
  Mg  Mg4  1  0.32963785  0.66721757  0.75000000  1
  Mg  Mg5  1  0.83278243  0.17036215  0.75000000  1
  Mg  Mg6  1  0.83442735  0.66557265  0.75000000  1
  Cd  Cd7  1  0.17250999  0.32749001  0.25000000  1
