# generated using pymatgen
data_CaGdAlO4
_symmetry_space_group_name_H-M   'P 1'
_cell_length_a   3.69499157
_cell_length_b   3.69499157
_cell_length_c   6.52906003
_cell_angle_alpha   73.56275667
_cell_angle_beta   73.56275667
_cell_angle_gamma   90.00000000
_symmetry_Int_Tables_number   1
_chemical_formula_structural   CaGdAlO4
_chemical_formula_sum   'Ca1 Gd1 Al1 O4'
_cell_volume   81.69235979
_cell_formula_units_Z   1
loop_
 _symmetry_equiv_pos_site_id
 _symmetry_equiv_pos_as_xyz
  1  'x, y, z'
loop_
 _atom_site_type_symbol
 _atom_site_label
 _atom_site_symmetry_multiplicity
 _atom_site_fract_x
 _atom_site_fract_y
 _atom_site_fract_z
 _atom_site_occupancy
  Ca  Ca0  1  0.35712866  0.35712866  0.28574268  1
  Gd  Gd1  1  0.64219500  0.64219500  0.71561000  1
  Al  Al2  1  0.99438174  0.99438174  0.01123653  1
  O  O3  1  0.16715795  0.16715795  0.66568410  1
  O  O4  1  0.83114539  0.83114539  0.33770922  1
  O  O5  1  0.00399563  0.50399563  0.99200874  1
  O  O6  1  0.50399563  0.00399563  0.99200874  1
