# generated using pymatgen
data_BaAlSn
_symmetry_space_group_name_H-M   'P 1'
_cell_length_a   4.69614822
_cell_length_b   4.69686126
_cell_length_c   5.17744414
_cell_angle_alpha   90.00000000
_cell_angle_beta   90.00000000
_cell_angle_gamma   120.01364304
_symmetry_Int_Tables_number   1
_chemical_formula_structural   BaAlSn
_chemical_formula_sum   'Ba1 Al1 Sn1'
_cell_volume   98.88623894
_cell_formula_units_Z   1
loop_
 _symmetry_equiv_pos_site_id
 _symmetry_equiv_pos_as_xyz
  1  'x, y, z'
loop_
 _atom_site_type_symbol
 _atom_site_label
 _atom_site_symmetry_multiplicity
 _atom_site_fract_x
 _atom_site_fract_y
 _atom_site_fract_z
 _atom_site_occupancy
  Ba  Ba0  1  -0.00000433  -0.00001316  0.00000000  1
  Al  Al1  1  0.33323850  0.66664978  0.50000000  1
  Sn  Sn2  1  0.66666583  0.33336339  0.50000000  1
