# generated using pymatgen
data_Cd3Fe2Cu10(SnSe4)5
_symmetry_space_group_name_H-M   'P 1'
_cell_length_a   7.09060465
_cell_length_b   7.09060465
_cell_length_c   21.03892013
_cell_angle_alpha   83.45116839
_cell_angle_beta   96.54883161
_cell_angle_gamma   71.14391791
_symmetry_Int_Tables_number   1
_chemical_formula_structural   Cd3Fe2Cu10(SnSe4)5
_chemical_formula_sum   'Cd3 Fe2 Cu10 Sn5 Se20'
_cell_volume   981.57367785
_cell_formula_units_Z   1
loop_
 _symmetry_equiv_pos_site_id
 _symmetry_equiv_pos_as_xyz
  1  'x, y, z'
loop_
 _atom_site_type_symbol
 _atom_site_label
 _atom_site_symmetry_multiplicity
 _atom_site_fract_x
 _atom_site_fract_y
 _atom_site_fract_z
 _atom_site_occupancy
  Cd  Cd0  1  0.99995850  0.00008201  0.99987649  1
  Cd  Cd1  1  0.59980698  0.39980698  0.20000000  1
  Cd  Cd2  1  0.20008201  0.79995850  0.40012351  1
  Fe  Fe3  1  0.80009626  0.20000918  0.60008707  1
  Fe  Fe4  1  0.40000918  0.60009626  0.79991293  1
  Cu  Cu5  1  0.85009923  0.65009923  0.70000000  1
  Cu  Cu6  1  0.24877368  0.25104156  0.50077419  1
  Cu  Cu7  1  0.64995581  0.84981198  0.29995929  1
  Cu  Cu8  1  0.45104156  0.04877368  0.89922581  1
  Cu  Cu9  1  0.04981198  0.44995581  0.10004071  1
  Cu  Cu10  1  0.35009923  0.15009923  0.70000000  1
  Cu  Cu11  1  0.75181575  0.74799949  0.50077419  1
  Cu  Cu12  1  0.14977127  0.34999652  0.29995929  1
  Cu  Cu13  1  0.94799949  0.55181575  0.89922581  1
  Cu  Cu14  1  0.54999652  0.94977127  0.10004071  1
  Sn  Sn15  1  0.29977887  0.69857693  0.60120195  1
  Sn  Sn16  1  0.70138338  0.30008191  0.40130147  1
  Sn  Sn17  1  0.10003754  0.90003754  0.20000000  1
  Sn  Sn18  1  0.89857693  0.09977887  0.79879805  1
  Sn  Sn19  1  0.50008191  0.50138338  0.99869853  1
  Se  Se20  1  0.97977923  0.28594095  0.69383828  1
  Se  Se21  1  0.57951041  0.68583418  0.89367622  1
  Se  Se22  1  0.19277278  0.09070674  0.10206604  1
  Se  Se23  1  0.79311676  0.49080786  0.30230890  1
  Se  Se24  1  0.39298147  0.89067990  0.50230157  1
  Se  Se25  1  0.09067990  0.19298147  0.89769843  1
  Se  Se26  1  0.69080786  0.59311676  0.09769110  1
  Se  Se27  1  0.29070674  0.99277278  0.29793396  1
  Se  Se28  1  0.88583418  0.37951041  0.50632378  1
  Se  Se29  1  0.48594095  0.77977923  0.70616172  1
  Se  Se30  1  0.11196610  0.60308238  0.99978588  1
  Se  Se31  1  0.71345885  0.00291981  0.20000000  1
  Se  Se32  1  0.31218022  0.40286826  0.40021412  1
  Se  Se33  1  0.90275834  0.83335066  0.60019314  1
  Se  Se34  1  0.50256520  0.23354380  0.79980686  1
  Se  Se35  1  0.60286826  0.11218022  0.99978588  1
  Se  Se36  1  0.20291981  0.51345885  0.20000000  1
  Se  Se37  1  0.80308238  0.91196610  0.40021412  1
  Se  Se38  1  0.43354380  0.30256520  0.60019314  1
  Se  Se39  1  0.03335066  0.70275834  0.79980686  1
