# generated using pymatgen
data_Bi3SbPt2
_symmetry_space_group_name_H-M   'P 1'
_cell_length_a   6.76659012
_cell_length_b   6.76498243
_cell_length_c   6.76829177
_cell_angle_alpha   91.09510297
_cell_angle_beta   90.00000000
_cell_angle_gamma   90.00000000
_symmetry_Int_Tables_number   1
_chemical_formula_structural   Bi3SbPt2
_chemical_formula_sum   'Bi6 Sb2 Pt4'
_cell_volume   309.76780899
_cell_formula_units_Z   2
loop_
 _symmetry_equiv_pos_site_id
 _symmetry_equiv_pos_as_xyz
  1  'x, y, z'
loop_
 _atom_site_type_symbol
 _atom_site_label
 _atom_site_symmetry_multiplicity
 _atom_site_fract_x
 _atom_site_fract_y
 _atom_site_fract_z
 _atom_site_occupancy
  Bi  Bi0  1  0.12848560  0.87091320  0.37028076  1
  Bi  Bi1  1  0.62848560  0.62908680  0.62971924  1
  Bi  Bi2  1  0.12518626  0.62403442  0.87472143  1
  Bi  Bi3  1  0.62518626  0.87596558  0.12527857  1
  Bi  Bi4  1  0.87140583  0.13029218  0.62919569  1
  Bi  Bi5  1  0.37140583  0.36970782  0.37080431  1
  Sb  Sb6  1  0.87235027  0.37292767  0.12663152  1
  Sb  Sb7  1  0.37235027  0.12707233  0.87336848  1
  Pt  Pt8  1  0.49606605  0.00277551  0.51013563  1
  Pt  Pt9  1  0.99606605  0.49722449  0.48986437  1
  Pt  Pt10  1  0.50650598  0.48721678  0.99952082  1
  Pt  Pt11  1  0.00650598  0.01278322  0.00047918  1
