# generated using pymatgen
data_BaSrEuCu3O7
_symmetry_space_group_name_H-M   'P 1'
_cell_length_a   3.91469753
_cell_length_b   3.80814660
_cell_length_c   11.77830270
_cell_angle_alpha   90.00000000
_cell_angle_beta   90.00000000
_cell_angle_gamma   90.00000000
_symmetry_Int_Tables_number   1
_chemical_formula_structural   BaSrEuCu3O7
_chemical_formula_sum   'Ba1 Sr1 Eu1 Cu3 O7'
_cell_volume   175.58789890
_cell_formula_units_Z   1
loop_
 _symmetry_equiv_pos_site_id
 _symmetry_equiv_pos_as_xyz
  1  'x, y, z'
loop_
 _atom_site_type_symbol
 _atom_site_label
 _atom_site_symmetry_multiplicity
 _atom_site_fract_x
 _atom_site_fract_y
 _atom_site_fract_z
 _atom_site_occupancy
  Ba  Ba0  1  0.50000000  0.50000000  0.17840563  1
  Sr  Sr1  1  0.50000000  0.50000000  0.81918123  1
  Eu  Eu2  1  0.50000000  0.50000000  0.50327031  1
  Cu  Cu3  1  0.00000000  0.00000000  0.34901606  1
  Cu  Cu4  1  -0.00000000  0.00000000  0.65764781  1
  Cu  Cu5  1  0.00000000  0.00000000  0.99610600  1
  O  O6  1  -0.00000000  -0.00000000  0.15527856  1
  O  O7  1  -0.00000000  -0.00000000  0.83735467  1
  O  O8  1  -0.00000000  0.50000000  0.37475809  1
  O  O9  1  -0.00000000  0.50000000  0.63207260  1
  O  O10  1  0.50000000  0.00000000  0.37308323  1
  O  O11  1  0.50000000  -0.00000000  0.63532360  1
  O  O12  1  0.50000000  -0.00000000  0.98850221  1
