# generated using pymatgen
data_BaNa2Fe4F12
_symmetry_space_group_name_H-M   'P 1'
_cell_length_a   7.06564869
_cell_length_b   7.05589102
_cell_length_c   7.05589102
_cell_angle_alpha   70.36966063
_cell_angle_beta   71.32087202
_cell_angle_gamma   110.05150162
_symmetry_Int_Tables_number   1
_chemical_formula_structural   BaNa2Fe4F12
_chemical_formula_sum   'Ba1 Na2 Fe4 F12'
_cell_volume   270.93619317
_cell_formula_units_Z   1
loop_
 _symmetry_equiv_pos_site_id
 _symmetry_equiv_pos_as_xyz
  1  'x, y, z'
loop_
 _atom_site_type_symbol
 _atom_site_label
 _atom_site_symmetry_multiplicity
 _atom_site_fract_x
 _atom_site_fract_y
 _atom_site_fract_z
 _atom_site_occupancy
  Ba  Ba0  1  -0.00055212  0.99992448  0.00047661  1
  Na  Na1  1  0.95079753  0.50089276  0.55009523  1
  Na  Na2  1  0.54212476  0.04096655  0.49884180  1
  Fe  Fe3  1  0.00528681  0.50326494  -0.00018065  1
  Fe  Fe4  1  0.49573363  0.50286685  0.49937193  1
  Fe  Fe5  1  0.49573363  0.99510557  0.00713322  1
  Fe  Fe6  1  0.00528681  0.00510616  0.49797813  1
  F  F7  1  0.18852718  0.89833431  0.29266737  1
  F  F8  1  0.80287657  0.10025649  0.70522339  1
  F  F9  1  0.18852718  0.48119455  0.70980713  1
  F  F10  1  0.80287657  0.50809996  0.29737992  1
  F  F11  1  0.71353760  0.80914994  0.48049581  1
  F  F12  1  0.29034274  0.19093233  0.52163155  1
  F  F13  1  0.29034274  0.81197428  0.90058959  1
  F  F14  1  0.71353760  0.19403341  0.09561234  1
  F  F15  1  0.07500677  0.28092732  0.20592055  1
  F  F16  1  0.92444452  0.71308339  0.78863888  1
  F  F17  1  0.51582435  0.71854150  0.20271715  1
  F  F18  1  0.49974515  0.28634522  0.78660006  1
