# generated using pymatgen
data_Cu81Sn22
_symmetry_space_group_name_H-M   'P 1'
_cell_length_a   12.74919219
_cell_length_b   12.74919219
_cell_length_c   12.77339668
_cell_angle_alpha   90.00000000
_cell_angle_beta   60.06266349
_cell_angle_gamma   120.00000000
_symmetry_Int_Tables_number   1
_chemical_formula_structural   Cu81Sn22
_chemical_formula_sum   'Cu81 Sn22'
_cell_volume   1469.49270469
_cell_formula_units_Z   1
loop_
 _symmetry_equiv_pos_site_id
 _symmetry_equiv_pos_as_xyz
  1  'x, y, z'
loop_
 _atom_site_type_symbol
 _atom_site_label
 _atom_site_symmetry_multiplicity
 _atom_site_fract_x
 _atom_site_fract_y
 _atom_site_fract_z
 _atom_site_occupancy
  Cu  Cu0  1  0.50004813  0.57729116  0.92266071  1
  Cu  Cu1  1  0.15458232  0.57729116  0.92266071  1
  Cu  Cu2  1  0.50004813  0.92275697  0.92266071  1
  Cu  Cu3  1  0.84528541  0.92264271  0.57734289  1
  Cu  Cu4  1  0.50001440  0.57737170  0.57734289  1
  Cu  Cu5  1  0.50001440  0.92264271  0.57734289  1
  Cu  Cu6  1  0.90274310  0.45137155  0.64588535  1
  Cu  Cu7  1  0.09728381  0.45119538  0.45152081  1
  Cu  Cu8  1  0.09728381  0.64608843  0.45152081  1
  Cu  Cu9  1  0.90239076  0.45119538  0.45152081  1
  Cu  Cu10  1  0.71170138  0.46887193  0.81942668  1
  Cu  Cu11  1  0.93774387  0.46887193  0.81942668  1
  Cu  Cu12  1  0.71170138  0.24282945  0.81942668  1
  Cu  Cu13  1  0.28847841  0.46891866  0.24260293  1
  Cu  Cu14  1  0.06136436  0.24209472  0.46913944  1
  Cu  Cu15  1  0.28876583  0.46949620  0.46913944  1
  Cu  Cu16  1  0.28876583  0.81926963  0.46913944  1
  Cu  Cu17  1  0.06136436  0.81926963  0.46913944  1
  Cu  Cu18  1  0.28847841  0.81955976  0.24260293  1
  Cu  Cu19  1  0.71159092  0.24209472  0.46913944  1
  Cu  Cu20  1  0.93783732  0.46891866  0.24260293  1
  Cu  Cu21  1  0.71159092  0.46949620  0.46913944  1
  Cu  Cu22  1  0.18193978  0.23799289  0.58006734  1
  Cu  Cu23  1  0.47598577  0.23799289  0.58006734  1
  Cu  Cu24  1  0.18193978  0.94394689  0.58006734  1
  Cu  Cu25  1  0.81655258  0.23490607  0.94854134  1
  Cu  Cu26  1  0.52684784  0.94534841  0.23711679  1
  Cu  Cu27  1  0.81753480  0.23603537  0.23711679  1
  Cu  Cu28  1  0.81753480  0.58149943  0.23711679  1
  Cu  Cu29  1  0.52684784  0.58149943  0.23711679  1
  Cu  Cu30  1  0.81655258  0.58164651  0.94854134  1
  Cu  Cu31  1  0.18138378  0.94534841  0.23711679  1
  Cu  Cu32  1  0.46981215  0.23490607  0.94854134  1
  Cu  Cu33  1  0.18138378  0.23603537  0.23711679  1
  Cu  Cu34  1  0.16651519  0.58325759  0.25022722  1
  Cu  Cu35  1  0.83309638  0.58400379  0.58289982  1
  Cu  Cu36  1  0.83309638  0.24909259  0.58289982  1
  Cu  Cu37  1  0.16800759  0.58400379  0.58289982  1
  Cu  Cu38  1  0.39220233  0.19610117  0.41169650  1
  Cu  Cu39  1  0.60863089  0.19584206  0.19552706  1
  Cu  Cu40  1  0.60863089  0.41278883  0.19552706  1
  Cu  Cu41  1  0.39168411  0.19584206  0.19552706  1
  Cu  Cu42  1  0.68844810  0.98027100  0.33128091  1
  Cu  Cu43  1  0.96054199  0.98027100  0.33128091  1
  Cu  Cu44  1  0.68844810  0.70817710  0.33128091  1
  Cu  Cu45  1  0.31368601  0.98146978  0.70484421  1
  Cu  Cu46  1  0.03523429  0.70553458  0.98180545  1
  Cu  Cu47  1  0.31265997  0.98296027  0.98180545  1
  Cu  Cu48  1  0.31265997  0.32969970  0.98180545  1
  Cu  Cu49  1  0.03523429  0.32969970  0.98180545  1
  Cu  Cu50  1  0.31368601  0.33221623  0.70484421  1
  Cu  Cu51  1  0.68849485  0.70553458  0.98180545  1
  Cu  Cu52  1  0.96293956  0.98146978  0.70484421  1
  Cu  Cu53  1  0.68849485  0.98296027  0.98180545  1
  Cu  Cu54  1  0.66885257  0.83442629  0.49672114  1
  Cu  Cu55  1  0.32900799  0.83521387  0.83577814  1
  Cu  Cu56  1  0.32900799  0.49379413  0.83577814  1
  Cu  Cu57  1  0.67042773  0.83521387  0.83577814  1
  Cu  Cu58  1  0.39840790  0.69920395  0.90238816  1
  Cu  Cu59  1  0.60178586  0.69892264  0.69929150  1
  Cu  Cu60  1  0.60178586  0.90286322  0.69929150  1
  Cu  Cu61  1  0.39784527  0.69892264  0.69929150  1
  Cu  Cu62  1  0.66673173  0.33336587  0.99990240  1
  Cu  Cu63  1  0.33354951  0.33349349  0.33295700  1
  Cu  Cu64  1  0.33354951  0.00005603  0.33295700  1
  Cu  Cu65  1  0.66698697  0.33349349  0.33295700  1
  Cu  Cu66  1  0.99976257  0.32845066  0.67178677  1
  Cu  Cu67  1  0.65690133  0.32845066  0.67178677  1
  Cu  Cu68  1  0.99976257  0.67131190  0.67178677  1
  Cu  Cu69  1  0.34323557  0.67161778  0.32799499  1
  Cu  Cu70  1  0.00038722  0.32876944  0.32799499  1
  Cu  Cu71  1  0.00038722  0.67161778  0.32799499  1
  Cu  Cu72  1  0.99925242  0.82074286  0.18000472  1
  Cu  Cu73  1  0.64148572  0.82074286  0.18000472  1
  Cu  Cu74  1  0.99925242  0.17850956  0.18000472  1
  Cu  Cu75  1  0.35943036  0.17971518  0.82080758  1
  Cu  Cu76  1  0.99947724  0.81976206  0.82080758  1
  Cu  Cu77  1  0.99947724  0.17971518  0.82080758  1
  Cu  Cu78  1  0.11695898  0.94353921  0.93950182  1
  Cu  Cu79  1  0.11695898  0.17341977  0.93950182  1
  Cu  Cu80  1  0.88707842  0.94353921  0.93950182  1
  Sn  Sn81  1  0.50053851  0.06754867  0.43191281  1
  Sn  Sn82  1  0.13509734  0.06754867  0.43191281  1
  Sn  Sn83  1  0.50053851  0.43298984  0.43191281  1
  Sn  Sn84  1  0.86510517  0.43255259  0.06754276  1
  Sn  Sn85  1  0.49990465  0.06735207  0.06754276  1
  Sn  Sn86  1  0.49990465  0.43255259  0.06754276  1
  Sn  Sn87  1  0.17648909  0.08824455  0.73526636  1
  Sn  Sn88  1  0.82947320  0.08169864  0.08882816  1
  Sn  Sn89  1  0.82947320  0.74777457  0.08882816  1
  Sn  Sn90  1  0.16339727  0.08169864  0.08882816  1
  Sn  Sn91  1  0.18172716  0.73239456  0.08587829  1
  Sn  Sn92  1  0.46478912  0.73239456  0.08587829  1
  Sn  Sn93  1  0.18172716  0.44933260  0.08587829  1
  Sn  Sn94  1  0.81871450  0.73305218  0.44823332  1
  Sn  Sn95  1  0.53535039  0.44937086  0.73265752  1
  Sn  Sn96  1  0.81797162  0.73199209  0.73265752  1
  Sn  Sn97  1  0.81797162  0.08597953  0.73265752  1
  Sn  Sn98  1  0.53535039  0.08597953  0.73265752  1
  Sn  Sn99  1  0.81871450  0.08566232  0.44823332  1
  Sn  Sn100  1  0.18136295  0.44937086  0.73265752  1
  Sn  Sn101  1  0.46610436  0.73305218  0.44823332  1
  Sn  Sn102  1  0.18136295  0.73199209  0.73265752  1
