# generated using pymatgen
data_BaPHO4
_symmetry_space_group_name_H-M   'P 1'
_cell_length_a   4.73265134
_cell_length_b   13.62374058
_cell_length_c   13.62374058
_cell_angle_alpha   116.58381319
_cell_angle_beta   88.70610857
_cell_angle_gamma   88.70610857
_symmetry_Int_Tables_number   1
_chemical_formula_structural   BaPHO4
_chemical_formula_sum   'Ba8 P8 H8 O32'
_cell_volume   784.81974937
_cell_formula_units_Z   8
loop_
 _symmetry_equiv_pos_site_id
 _symmetry_equiv_pos_as_xyz
  1  'x, y, z'
loop_
 _atom_site_type_symbol
 _atom_site_label
 _atom_site_symmetry_multiplicity
 _atom_site_fract_x
 _atom_site_fract_y
 _atom_site_fract_z
 _atom_site_occupancy
  Ba  Ba0  1  0.89271593  0.06321779  0.32322163  1
  Ba  Ba1  1  0.06725229  0.31944168  0.07693931  1
  Ba  Ba2  1  0.06725229  0.57693931  0.81944168  1
  Ba  Ba3  1  0.89271593  0.82322163  0.56321779  1
  Ba  Ba4  1  0.39527339  0.15936690  0.65936690  1
  Ba  Ba5  1  0.61185034  0.64999750  0.14999750  1
  Ba  Ba6  1  0.54156861  0.44526307  0.43020647  1
  Ba  Ba7  1  0.54156861  0.93020647  0.94526307  1
  P  P8  1  0.49873601  0.17156602  0.16933401  1
  P  P9  1  0.49873601  0.66933401  0.67156602  1
  P  P10  1  0.98626143  0.31320362  0.56270183  1
  P  P11  1  0.02836327  0.57195133  0.31635801  1
  P  P12  1  0.02836327  0.81635801  0.07195133  1
  P  P13  1  0.98626143  0.06270183  0.81320362  1
  P  P14  1  0.47428965  0.91911864  0.41911864  1
  P  P15  1  0.51394520  0.41843226  0.91843226  1
  H  H16  1  0.09133345  0.83983870  0.33983870  1
  H  H17  1  0.91845938  0.34159258  0.84159258  1
  H  H18  1  0.55090752  0.38510485  0.62993398  1
  H  H19  1  0.44985699  0.64193810  0.38517870  1
  H  H20  1  0.44985699  0.88517870  0.14193810  1
  H  H21  1  0.55090752  0.12993398  0.88510485  1
  H  H22  1  0.23706664  0.23967447  0.33758762  1
  H  H23  1  0.23706664  0.83758762  0.73967447  1
  O  O24  1  0.75159050  0.41115315  0.62647182  1
  O  O25  1  0.24264078  0.64230289  0.41116115  1
  O  O26  1  0.24264078  0.91116115  0.14230289  1
  O  O27  1  0.75159050  0.12647182  0.91115315  1
  O  O28  1  0.27566261  0.13456747  0.08166782  1
  O  O29  1  0.73038636  0.08218853  0.14235910  1
  O  O30  1  0.73038636  0.64235910  0.58218853  1
  O  O31  1  0.27566261  0.58166782  0.63456747  1
  O  O32  1  0.25075988  0.34813096  0.63260256  1
  O  O33  1  0.74729301  0.64111571  0.35380689  1
  O  O34  1  0.74729301  0.85380689  0.14111571  1
  O  O35  1  0.25075988  0.13260256  0.84813096  1
  O  O36  1  0.36796272  0.17808084  0.28652593  1
  O  O37  1  0.59387148  0.28792312  0.19685820  1
  O  O38  1  0.59387148  0.69685820  0.78792312  1
  O  O39  1  0.36796272  0.78652593  0.67808084  1
  O  O40  1  0.30223670  0.82413935  0.32413935  1
  O  O41  1  0.71304873  0.32337053  0.82337053  1
  O  O42  1  0.39639989  0.02973585  0.41979493  1
  O  O43  1  0.58137914  0.41836876  0.02866330  1
  O  O44  1  0.58137914  0.52866330  0.91836876  1
  O  O45  1  0.39639989  0.91979493  0.52973585  1
  O  O46  1  0.87891647  0.20488059  0.55617275  1
  O  O47  1  0.12983682  0.56188279  0.20449299  1
  O  O48  1  0.12983682  0.70449299  0.06188279  1
  O  O49  1  0.87891647  0.05617275  0.70488059  1
  O  O50  1  0.78775272  0.88623870  0.38623870  1
  O  O51  1  0.21087996  0.38458328  0.88458328  1
  O  O52  1  0.02624483  0.30869213  0.44739113  1
  O  O53  1  0.01479206  0.45957302  0.31647469  1
  O  O54  1  0.01479206  0.81647469  0.95957302  1
  O  O55  1  0.02624483  0.94739113  0.80869213  1
