# generated using pymatgen
data_Co8Cu7(MoO4)12
_symmetry_space_group_name_H-M   'P 1'
_cell_length_a   5.13973442
_cell_length_b   10.65720376
_cell_length_c   18.02554256
_cell_angle_alpha   90.00000000
_cell_angle_beta   90.38649101
_cell_angle_gamma   90.00000000
_symmetry_Int_Tables_number   1
_chemical_formula_structural   Co8Cu7(MoO4)12
_chemical_formula_sum   'Co8 Cu7 Mo12 O48'
_cell_volume   987.33018142
_cell_formula_units_Z   1
loop_
 _symmetry_equiv_pos_site_id
 _symmetry_equiv_pos_as_xyz
  1  'x, y, z'
loop_
 _atom_site_type_symbol
 _atom_site_label
 _atom_site_symmetry_multiplicity
 _atom_site_fract_x
 _atom_site_fract_y
 _atom_site_fract_z
 _atom_site_occupancy
  Co  Co0  1  0.75502194  0.42416193  0.02749605  1
  Co  Co1  1  0.24948598  0.07487930  0.47312632  1
  Co  Co2  1  0.24713639  0.92734082  0.97130365  1
  Co  Co3  1  0.74923426  0.57240075  0.52853375  1
  Co  Co4  1  0.24713639  0.57265918  0.97130365  1
  Co  Co5  1  0.74923426  0.92759925  0.52853375  1
  Co  Co6  1  0.75502194  0.07583807  0.02749605  1
  Co  Co7  1  0.24948598  0.42512070  0.47312632  1
  Cu  Cu8  1  0.78265868  0.25000000  0.18294491  1
  Cu  Cu9  1  0.28420264  0.25000000  0.31723369  1
  Cu  Cu10  1  0.21221407  0.75000000  0.81773848  1
  Cu  Cu11  1  0.71626315  0.75000000  0.68158871  1
  Cu  Cu12  1  0.39321731  0.25000000  0.75108784  1
  Cu  Cu13  1  0.11172277  0.75000000  0.25250218  1
  Cu  Cu14  1  0.61224585  0.75000000  0.24746768  1
  Mo  Mo15  1  0.27728409  0.47179663  0.15548894  1
  Mo  Mo16  1  0.77713360  0.02845118  0.34480941  1
  Mo  Mo17  1  0.71915641  0.97204868  0.84294847  1
  Mo  Mo18  1  0.22611545  0.52909582  0.65619526  1
  Mo  Mo19  1  0.71915641  0.52795132  0.84294847  1
  Mo  Mo20  1  0.22611545  0.97090418  0.65619526  1
  Mo  Mo21  1  0.27728409  0.02820337  0.15548894  1
  Mo  Mo22  1  0.77713360  0.47154882  0.34480941  1
  Mo  Mo23  1  0.22249077  0.25000000  0.94564224  1
  Mo  Mo24  1  0.72359165  0.25000000  0.55525585  1
  Mo  Mo25  1  0.77803072  0.75000000  0.05404957  1
  Mo  Mo26  1  0.27583100  0.75000000  0.44578900  1
  O  O27  1  0.16434546  0.11232168  0.70228110  1
  O  O28  1  0.62408718  0.38970969  0.79781660  1
  O  O29  1  0.85342082  0.61395816  0.29688614  1
  O  O30  1  0.35442157  0.88594925  0.20385960  1
  O  O31  1  0.85342082  0.88604184  0.29688614  1
  O  O32  1  0.35442157  0.61405075  0.20385960  1
  O  O33  1  0.16434546  0.38767832  0.70228110  1
  O  O34  1  0.62408718  0.11029031  0.79781660  1
  O  O35  1  0.92995818  0.88401385  0.62615949  1
  O  O36  1  0.43269753  0.61800580  0.87472587  1
  O  O37  1  0.06957924  0.38361797  0.37449796  1
  O  O38  1  0.56618355  0.11625272  0.12557018  1
  O  O39  1  0.06957924  0.11638203  0.37449796  1
  O  O40  1  0.56618355  0.38374728  0.12557018  1
  O  O41  1  0.92995818  0.61598615  0.62615949  1
  O  O42  1  0.43269753  0.88199420  0.87472587  1
  O  O43  1  0.44082357  0.25000000  0.49134768  1
  O  O44  1  0.93344929  0.25000000  0.00710943  1
  O  O45  1  0.56212441  0.75000000  0.50769218  1
  O  O46  1  0.06372659  0.75000000  0.99230715  1
  O  O47  1  0.62881954  0.25000000  0.64705858  1
  O  O48  1  0.14636055  0.25000000  0.85183442  1
  O  O49  1  0.35794638  0.75000000  0.35092078  1
  O  O50  1  0.86013458  0.75000000  0.14932687  1
  O  O51  1  0.58134798  0.99120362  0.42767178  1
  O  O52  1  0.08023649  0.51045255  0.07228765  1
  O  O53  1  0.41809191  0.49208441  0.57201306  1
  O  O54  1  0.91638113  0.01069756  0.92684857  1
  O  O55  1  0.41809191  0.00791559  0.57201306  1
  O  O56  1  0.91638113  0.48930244  0.92684857  1
  O  O57  1  0.58134798  0.50879638  0.42767178  1
  O  O58  1  0.08023649  0.98954745  0.07228765  1
  O  O59  1  0.44000808  0.87662379  0.71192153  1
  O  O60  1  0.93788702  0.62011691  0.78773819  1
  O  O61  1  0.56574815  0.37724633  0.28867126  1
  O  O62  1  0.06661409  0.12243575  0.21084684  1
  O  O63  1  0.56574815  0.12275367  0.28867126  1
  O  O64  1  0.06661409  0.37756425  0.21084684  1
  O  O65  1  0.44000808  0.62337621  0.71192153  1
  O  O66  1  0.93788702  0.87988309  0.78773819  1
  O  O67  1  0.92391071  0.11172293  0.53637750  1
  O  O68  1  0.42164148  0.38809667  0.96547418  1
  O  O69  1  0.07579541  0.61256752  0.46412237  1
  O  O70  1  0.57788414  0.88727400  0.03583968  1
  O  O71  1  0.07579541  0.88743248  0.46412237  1
  O  O72  1  0.57788414  0.61272600  0.03583968  1
  O  O73  1  0.92391071  0.38827707  0.53637750  1
  O  O74  1  0.42164148  0.11190333  0.96547418  1
