# generated using pymatgen
data_Ba2Tl3Au
_symmetry_space_group_name_H-M   'P 1'
_cell_length_a   5.25513011
_cell_length_b   6.87185171
_cell_length_c   6.59410747
_cell_angle_alpha   94.06658552
_cell_angle_beta   113.48267031
_cell_angle_gamma   67.51966109
_symmetry_Int_Tables_number   1
_chemical_formula_structural   Ba2Tl3Au
_chemical_formula_sum   'Ba2 Tl3 Au1'
_cell_volume   200.87705013
_cell_formula_units_Z   1
loop_
 _symmetry_equiv_pos_site_id
 _symmetry_equiv_pos_as_xyz
  1  'x, y, z'
loop_
 _atom_site_type_symbol
 _atom_site_label
 _atom_site_symmetry_multiplicity
 _atom_site_fract_x
 _atom_site_fract_y
 _atom_site_fract_z
 _atom_site_occupancy
  Ba  Ba0  1  0.74909090  0.29207833  0.79026014  1
  Ba  Ba1  1  0.25402731  0.70416914  0.21222375  1
  Tl  Tl2  1  0.95519879  0.69784104  0.60823863  1
  Tl  Tl3  1  0.56113673  0.11759665  0.23987012  1
  Tl  Tl4  1  0.44197319  0.89480288  0.77874926  1
  Au  Au5  1  0.03857307  0.29351196  0.37065810  1
