# generated using pymatgen
data_Ba4YbPr(Cu3O7)2
_symmetry_space_group_name_H-M   'P 1'
_cell_length_a   5.49722487
_cell_length_b   5.49722487
_cell_length_c   11.89122157
_cell_angle_alpha   90.00000000
_cell_angle_beta   90.00000000
_cell_angle_gamma   88.74628975
_symmetry_Int_Tables_number   1
_chemical_formula_structural   Ba4YbPr(Cu3O7)2
_chemical_formula_sum   'Ba4 Yb1 Pr1 Cu6 O14'
_cell_volume   359.26052460
_cell_formula_units_Z   1
loop_
 _symmetry_equiv_pos_site_id
 _symmetry_equiv_pos_as_xyz
  1  'x, y, z'
loop_
 _atom_site_type_symbol
 _atom_site_label
 _atom_site_symmetry_multiplicity
 _atom_site_fract_x
 _atom_site_fract_y
 _atom_site_fract_z
 _atom_site_occupancy
  Ba  Ba0  1  0.50000000  -0.00000000  0.18249839  1
  Ba  Ba1  1  -0.00000000  0.50000000  0.18656778  1
  Ba  Ba2  1  0.50000000  -0.00000000  0.81750161  1
  Ba  Ba3  1  -0.00000000  0.50000000  0.81343222  1
  Yb  Yb4  1  -0.00000000  0.50000000  0.50000000  1
  Pr  Pr5  1  0.50000000  -0.00000000  0.50000000  1
  Cu  Cu6  1  -0.00000000  -0.00000000  0.35260036  1
  Cu  Cu7  1  0.50000000  0.50000000  0.35260036  1
  Cu  Cu8  1  -0.00000000  -0.00000000  0.64739964  1
  Cu  Cu9  1  0.50000000  0.50000000  0.64739964  1
  Cu  Cu10  1  -0.00000000  -0.00000000  -0.00000000  1
  Cu  Cu11  1  0.50000000  0.50000000  -0.00000000  1
  O  O12  1  0.24866051  0.25133949  0.36934329  1
  O  O13  1  0.75133949  0.74866051  0.36934329  1
  O  O14  1  0.24866051  0.25133949  0.63065671  1
  O  O15  1  0.75133949  0.74866051  0.63065671  1
  O  O16  1  0.25076490  0.24923510  -0.00000000  1
  O  O17  1  0.74923510  0.75076490  -0.00000000  1
  O  O18  1  -0.00000000  -0.00000000  0.15663778  1
  O  O19  1  0.50000000  0.50000000  0.15663778  1
  O  O20  1  -0.00000000  -0.00000000  0.84336222  1
  O  O21  1  0.50000000  0.50000000  0.84336222  1
  O  O22  1  0.24693756  0.74693756  0.37430055  1
  O  O23  1  0.75306244  0.25306244  0.37430055  1
  O  O24  1  0.24693756  0.74693756  0.62569945  1
  O  O25  1  0.75306244  0.25306244  0.62569945  1
