# generated using pymatgen
data_Ba5La3(GaO4)4
_symmetry_space_group_name_H-M   'P 1'
_cell_length_a   6.01133141
_cell_length_b   7.48676106
_cell_length_c   10.16796716
_cell_angle_alpha   90.31506761
_cell_angle_beta   90.33812210
_cell_angle_gamma   89.53626082
_symmetry_Int_Tables_number   1
_chemical_formula_structural   Ba5La3(GaO4)4
_chemical_formula_sum   'Ba5 La3 Ga4 O16'
_cell_volume   457.58369221
_cell_formula_units_Z   1
loop_
 _symmetry_equiv_pos_site_id
 _symmetry_equiv_pos_as_xyz
  1  'x, y, z'
loop_
 _atom_site_type_symbol
 _atom_site_label
 _atom_site_symmetry_multiplicity
 _atom_site_fract_x
 _atom_site_fract_y
 _atom_site_fract_z
 _atom_site_occupancy
  Ba  Ba0  1  0.74352253  0.16522518  0.67333158  1
  Ba  Ba1  1  0.24041319  0.83281926  0.82906964  1
  Ba  Ba2  1  0.25831337  0.33672157  0.16687268  1
  Ba  Ba3  1  0.75982629  0.66589476  0.32802069  1
  Ba  Ba4  1  0.73308199  0.00552797  0.05390896  1
  La  La5  1  0.23632536  0.99433477  0.45157913  1
  La  La6  1  0.26641731  0.49560743  0.54620801  1
  La  La7  1  0.76366842  0.50654731  0.94913068  1
  Ga  Ga8  1  0.76264593  0.22519495  0.33999815  1
  Ga  Ga9  1  0.25986293  0.77068666  0.16737212  1
  Ga  Ga10  1  0.24289319  0.28885388  0.82876007  1
  Ga  Ga11  1  0.74160983  0.71612639  0.66037164  1
  O  O12  1  0.75776756  0.35191387  0.18057377  1
  O  O13  1  0.25792669  0.64869265  0.32931835  1
  O  O14  1  0.24814790  0.15116629  0.67199458  1
  O  O15  1  0.74798496  0.83822144  0.82057686  1
  O  O16  1  0.87546906  0.99528863  0.31602887  1
  O  O17  1  0.34470377  0.00041324  0.21370507  1
  O  O18  1  0.12846111  0.51117176  0.77968137  1
  O  O19  1  0.62571149  0.49397452  0.70227409  1
  O  O20  1  0.99163237  0.31823643  0.44611698  1
  O  O21  1  0.48776449  0.67682583  0.06062690  1
  O  O22  1  0.01053599  0.21366070  0.93506115  1
  O  O23  1  0.50713247  0.80686185  0.55476383  1
  O  O24  1  0.49435022  0.26126625  0.42842720  1
  O  O25  1  0.00464148  0.70997595  0.07403616  1
  O  O26  1  0.50366292  0.25876730  0.92279891  1
  O  O27  1  0.00552719  0.76002316  0.56939254  1
