# generated using pymatgen
data_Al4SiPd
_symmetry_space_group_name_H-M   'P 1'
_cell_length_a   4.24485987
_cell_length_b   4.24485987
_cell_length_c   7.31612468
_cell_angle_alpha   73.13586980
_cell_angle_beta   90.00000000
_cell_angle_gamma   120.00000000
_symmetry_Int_Tables_number   1
_chemical_formula_structural   Al4SiPd
_chemical_formula_sum   'Al4 Si1 Pd1'
_cell_volume   107.57040716
_cell_formula_units_Z   1
loop_
 _symmetry_equiv_pos_site_id
 _symmetry_equiv_pos_as_xyz
  1  'x, y, z'
loop_
 _atom_site_type_symbol
 _atom_site_label
 _atom_site_symmetry_multiplicity
 _atom_site_fract_x
 _atom_site_fract_y
 _atom_site_fract_z
 _atom_site_occupancy
  Al  Al0  1  0.62962385  0.25924770  0.11112845  1
  Al  Al1  1  0.12016663  0.24033326  0.63950011  1
  Al  Al2  1  0.87983337  0.75966674  0.36049989  1
  Al  Al3  1  0.37037615  0.74075230  0.88887155  1
  Si  Si4  1  0.50000000  0.00000000  0.50000000  1
  Pd  Pd5  1  0.00000000  0.00000000  -0.00000000  1
