# generated using pymatgen
data_LaMg6Cd
_symmetry_space_group_name_H-M   'P 1'
_cell_length_a   6.77327151
_cell_length_b   6.61832836
_cell_length_c   5.17603747
_cell_angle_alpha   90.00000000
_cell_angle_beta   90.00000000
_cell_angle_gamma   119.24612643
_symmetry_Int_Tables_number   1
_chemical_formula_structural   LaMg6Cd
_chemical_formula_sum   'La1 Mg6 Cd1'
_cell_volume   202.45294393
_cell_formula_units_Z   1
loop_
 _symmetry_equiv_pos_site_id
 _symmetry_equiv_pos_as_xyz
  1  'x, y, z'
loop_
 _atom_site_type_symbol
 _atom_site_label
 _atom_site_symmetry_multiplicity
 _atom_site_fract_x
 _atom_site_fract_y
 _atom_site_fract_z
 _atom_site_occupancy
  La  La0  1  0.16169542  0.33084721  0.25000000  1
  Mg  Mg1  1  0.66229672  0.32665537  0.25000000  1
  Mg  Mg2  1  0.66229672  0.83564035  0.25000000  1
  Mg  Mg3  1  0.33962550  0.16132151  0.75000000  1
  Mg  Mg4  1  0.33962550  0.67830499  0.75000000  1
  Mg  Mg5  1  0.82278265  0.16139183  0.75000000  1
  Mg  Mg6  1  0.83546989  0.66773544  0.75000000  1
  Cd  Cd7  1  0.17620760  0.83810330  0.25000000  1
