# generated using pymatgen
data_Ba4LaTiNb3O15
_symmetry_space_group_name_H-M   'P 1'
_cell_length_a   5.81120648
_cell_length_b   5.81118703
_cell_length_c   11.84676042
_cell_angle_alpha   89.99994857
_cell_angle_beta   90.00078389
_cell_angle_gamma   120.00025257
_symmetry_Int_Tables_number   1
_chemical_formula_structural   Ba4LaTiNb3O15
_chemical_formula_sum   'Ba4 La1 Ti1 Nb3 O15'
_cell_volume   346.46573665
_cell_formula_units_Z   1
loop_
 _symmetry_equiv_pos_site_id
 _symmetry_equiv_pos_as_xyz
  1  'x, y, z'
loop_
 _atom_site_type_symbol
 _atom_site_label
 _atom_site_symmetry_multiplicity
 _atom_site_fract_x
 _atom_site_fract_y
 _atom_site_fract_z
 _atom_site_occupancy
  Ba  Ba0  1  0.33332004  0.66665951  0.42531582  1
  Ba  Ba1  1  0.66666970  0.33333465  0.57480439  1
  Ba  Ba2  1  0.99999530  0.99999382  0.00205606  1
  Ba  Ba3  1  0.33333157  0.66666541  0.79496949  1
  La  La4  1  0.66660463  0.33331270  0.21400937  1
  Ti  Ti5  1  0.33332392  0.66666211  0.10572268  1
  Nb  Nb6  1  0.00000385  0.00000286  0.68398089  1
  Nb  Nb7  1  0.99998927  0.99998968  0.30741031  1
  Nb  Nb8  1  0.66666564  0.33333378  0.90182726  1
  O  O9  1  0.66931285  0.83465746  0.61039196  1
  O  O10  1  0.16535110  0.83465652  0.61039189  1
  O  O11  1  0.16535139  0.33069129  0.61039089  1
  O  O12  1  0.34251416  0.17125769  0.37632237  1
  O  O13  1  0.82874144  0.17125513  0.37632191  1
  O  O14  1  0.82875090  0.65749253  0.37632321  1
  O  O15  1  0.66116231  0.83057983  0.19292526  1
  O  O16  1  0.16946219  0.83060684  0.19292279  1
  O  O17  1  0.16945759  0.33885282  0.19292325  1
  O  O18  1  0.33726911  0.16863208  0.80890822  1
  O  O19  1  0.83136676  0.16863751  0.80890879  1
  O  O20  1  0.83135961  0.66272638  0.80890737  1
  O  O21  1  0.50250249  0.49749533  0.00808574  1
  O  O22  1  0.50250539  0.00501059  0.00808846  1
  O  O23  1  0.99498877  0.49749347  0.00809161  1
