# generated using pymatgen
data_Ba4CaZr5O15
_symmetry_space_group_name_H-M   'P 1'
_cell_length_a   5.96194193
_cell_length_b   5.96194193
_cell_length_c   21.66135841
_cell_angle_alpha   82.09002642
_cell_angle_beta   82.09002642
_cell_angle_gamma   90.00000000
_symmetry_Int_Tables_number   1
_chemical_formula_structural   Ba4CaZr5O15
_chemical_formula_sum   'Ba8 Ca2 Zr10 O30'
_cell_volume   755.22525104
_cell_formula_units_Z   2
loop_
 _symmetry_equiv_pos_site_id
 _symmetry_equiv_pos_as_xyz
  1  'x, y, z'
loop_
 _atom_site_type_symbol
 _atom_site_label
 _atom_site_symmetry_multiplicity
 _atom_site_fract_x
 _atom_site_fract_y
 _atom_site_fract_z
 _atom_site_occupancy
  Ba  Ba0  1  0.95144905  0.45144905  0.09710190  1
  Ba  Ba1  1  0.35000000  0.85000000  0.30000000  1
  Ba  Ba2  1  0.74855095  0.24855095  0.50289810  1
  Ba  Ba3  1  0.14853069  0.64853069  0.70293861  1
  Ba  Ba4  1  0.55146931  0.05146931  0.89706139  1
  Ba  Ba5  1  0.45006043  0.95006043  0.09987914  1
  Ba  Ba6  1  0.85000000  0.35000000  0.30000000  1
  Ba  Ba7  1  0.24993957  0.74993957  0.50012086  1
  Ca  Ca8  1  0.65081936  0.15081936  0.69836127  1
  Ca  Ca9  1  0.04918064  0.54918064  0.90163873  1
  Zr  Zr10  1  0.90040684  0.90040684  0.19918631  1
  Zr  Zr11  1  0.29959316  0.29959316  0.40081369  1
  Zr  Zr12  1  0.69852190  0.69852190  0.60295621  1
  Zr  Zr13  1  0.10000000  0.10000000  0.80000000  1
  Zr  Zr14  1  0.50147810  0.50147810  0.99704379  1
  Zr  Zr15  1  0.00147810  0.00147810  0.99704379  1
  Zr  Zr16  1  0.40040684  0.40040684  0.19918631  1
  Zr  Zr17  1  0.79959316  0.79959316  0.40081369  1
  Zr  Zr18  1  0.19852190  0.19852190  0.60295621  1
  Zr  Zr19  1  0.60000000  0.60000000  0.80000000  1
  O  O20  1  0.17282392  0.12809819  0.19907789  1
  O  O21  1  0.57162074  0.52783446  0.40054479  1
  O  O22  1  0.98219354  0.91732637  0.60048009  1
  O  O23  1  0.40359518  0.30481825  0.79158657  1
  O  O24  1  0.79353659  0.71509055  0.99137286  1
  O  O25  1  0.62809819  0.67282392  0.19907789  1
  O  O26  1  0.02783446  0.07162074  0.40054479  1
  O  O27  1  0.41732637  0.48219354  0.60048009  1
  O  O28  1  0.80481825  0.90359518  0.79158657  1
  O  O29  1  0.21509055  0.29353659  0.99137286  1
  O  O30  1  0.71780646  0.21780646  0.99951991  1
  O  O31  1  0.12837926  0.62837926  0.19945521  1
  O  O32  1  0.52717608  0.02717608  0.40092211  1
  O  O33  1  0.90646341  0.40646341  0.60862714  1
  O  O34  1  0.29640482  0.79640482  0.80841343  1
  O  O35  1  0.28267363  0.78267363  0.99951991  1
  O  O36  1  0.67216554  0.17216554  0.19945521  1
  O  O37  1  0.07190181  0.57190181  0.40092211  1
  O  O38  1  0.48490945  0.98490945  0.60862714  1
  O  O39  1  0.89518175  0.39518175  0.80841343  1
  O  O40  1  0.45095881  0.45095881  0.09808238  1
  O  O41  1  0.85000000  0.85000000  0.30000000  1
  O  O42  1  0.24904119  0.24904119  0.50191762  1
  O  O43  1  0.64921826  0.64921826  0.70156349  1
  O  O44  1  0.05078174  0.05078174  0.89843651  1
  O  O45  1  0.95095881  0.95095881  0.09808238  1
  O  O46  1  0.35000000  0.35000000  0.30000000  1
  O  O47  1  0.74904119  0.74904119  0.50191762  1
  O  O48  1  0.14921826  0.14921826  0.70156349  1
  O  O49  1  0.55078174  0.55078174  0.89843651  1
