# generated using pymatgen
data_Ba2NbCu2Pb2ClO8
_symmetry_space_group_name_H-M   'P 1'
_cell_length_a   4.01077784
_cell_length_b   4.01077784
_cell_length_c   15.94887346
_cell_angle_alpha   90.00000000
_cell_angle_beta   90.00000000
_cell_angle_gamma   89.90538143
_symmetry_Int_Tables_number   1
_chemical_formula_structural   Ba2NbCu2Pb2ClO8
_chemical_formula_sum   'Ba2 Nb1 Cu2 Pb2 Cl1 O8'
_cell_volume   256.55863307
_cell_formula_units_Z   1
loop_
 _symmetry_equiv_pos_site_id
 _symmetry_equiv_pos_as_xyz
  1  'x, y, z'
loop_
 _atom_site_type_symbol
 _atom_site_label
 _atom_site_symmetry_multiplicity
 _atom_site_fract_x
 _atom_site_fract_y
 _atom_site_fract_z
 _atom_site_occupancy
  Ba  Ba0  1  0.50081599  0.49918401  0.65094873  1
  Ba  Ba1  1  0.50081599  0.49918401  0.34905127  1
  Nb  Nb2  1  0.98752284  0.01247716  0.50000000  1
  Cu  Cu3  1  -0.00005487  0.00005487  0.77785709  1
  Cu  Cu4  1  -0.00005487  0.00005487  0.22214291  1
  Pb  Pb5  1  0.49989903  0.50010097  0.88096456  1
  Pb  Pb6  1  0.49989903  0.50010097  0.11903544  1
  Cl  Cl7  1  0.99977040  0.00022960  0.00000000  1
  O  O8  1  0.49979319  0.00065257  0.78895668  1
  O  O9  1  0.99934743  0.50020681  0.78895668  1
  O  O10  1  0.49979319  0.00065257  0.21104332  1
  O  O11  1  0.99934743  0.50020681  0.21104332  1
  O  O12  1  0.99344785  0.00655215  0.62527101  1
  O  O13  1  0.99344785  0.00655215  0.37472899  1
  O  O14  1  0.47857143  0.04536189  0.50000000  1
  O  O15  1  0.95463811  0.52142857  0.50000000  1
