# generated using pymatgen
data_Ba6Nd2Al4O15
_symmetry_space_group_name_H-M   'P 1'
_cell_length_a   7.11440891
_cell_length_b   11.73069301
_cell_length_c   11.73063349
_cell_angle_alpha   60.38648545
_cell_angle_beta   89.58788272
_cell_angle_gamma   90.41207972
_symmetry_Int_Tables_number   1
_chemical_formula_structural   Ba6Nd2Al4O15
_chemical_formula_sum   'Ba12 Nd4 Al8 O30'
_cell_volume   851.03688966
_cell_formula_units_Z   2
loop_
 _symmetry_equiv_pos_site_id
 _symmetry_equiv_pos_as_xyz
  1  'x, y, z'
loop_
 _atom_site_type_symbol
 _atom_site_label
 _atom_site_symmetry_multiplicity
 _atom_site_fract_x
 _atom_site_fract_y
 _atom_site_fract_z
 _atom_site_occupancy
  Ba  Ba0  1  0.50085669  0.99746332  0.00100020  1
  Ba  Ba1  1  0.00085848  0.99900430  0.00253291  1
  Ba  Ba2  1  0.31678954  0.17111080  0.65690133  1
  Ba  Ba3  1  0.32075396  0.65443531  0.17079953  1
  Ba  Ba4  1  0.32068777  0.17766203  0.17130189  1
  Ba  Ba5  1  0.82075487  0.82920393  0.34556037  1
  Ba  Ba6  1  0.81678383  0.34309943  0.82888806  1
  Ba  Ba7  1  0.82068935  0.82870037  0.82233820  1
  Ba  Ba8  1  0.65305207  0.48109327  0.04019228  1
  Ba  Ba9  1  0.15304946  0.95980615  0.51890863  1
  Ba  Ba10  1  0.00599269  0.33243316  0.33385029  1
  Ba  Ba11  1  0.50599078  0.66615050  0.66756568  1
  Nd  Nd12  1  0.64996378  0.04352182  0.47792016  1
  Nd  Nd13  1  0.64678642  0.48101388  0.48078597  1
  Nd  Nd14  1  0.14997098  0.52207641  0.95648059  1
  Nd  Nd15  1  0.14678525  0.51921601  0.51898824  1
  Al  Al16  1  0.46331981  0.33976502  0.33430723  1
  Al  Al17  1  0.96331468  0.66569625  0.66023512  1
  Al  Al18  1  0.81002032  0.18714773  0.63785845  1
  Al  Al19  1  0.82664027  0.63400631  0.18598462  1
  Al  Al20  1  0.81860017  0.18438954  0.17868176  1
  Al  Al21  1  0.32663356  0.81401260  0.36599647  1
  Al  Al22  1  0.31002732  0.36213744  0.81285472  1
  Al  Al23  1  0.31860042  0.82131608  0.81561208  1
  O  O24  1  0.22879147  0.89539566  0.20748410  1
  O  O25  1  0.22494658  0.19921805  0.88894735  1
  O  O26  1  0.21935449  0.90956807  0.88688692  1
  O  O27  1  0.72493445  0.11105415  0.80077828  1
  O  O28  1  0.72879948  0.79251912  0.10460250  1
  O  O29  1  0.71935498  0.11311106  0.09043243  1
  O  O30  1  0.64068162  0.25656881  0.50521888  1
  O  O31  1  0.64920504  0.50003465  0.26109797  1
  O  O32  1  0.65039600  0.24489241  0.25495153  1
  O  O33  1  0.14920157  0.73890232  0.49996838  1
  O  O34  1  0.14068415  0.49477386  0.74343300  1
  O  O35  1  0.15039736  0.74505192  0.75510433  1
  O  O36  1  0.32001422  0.41356960  0.17926143  1
  O  O37  1  0.34411114  0.17842691  0.41495091  1
  O  O38  1  0.32547034  0.41730612  0.41703422  1
  O  O39  1  0.84411457  0.58505231  0.82157047  1
  O  O40  1  0.82001325  0.82073992  0.58643004  1
  O  O41  1  0.82546848  0.58296829  0.58269277  1
  O  O42  1  0.45088374  0.66932260  0.39967729  1
  O  O43  1  0.42157342  0.39876262  0.92450507  1
  O  O44  1  0.47248846  0.92537453  0.68175674  1
  O  O45  1  0.44473593  0.39907168  0.66926668  1
  O  O46  1  0.47340932  0.91979615  0.39672686  1
  O  O47  1  0.42954840  0.67690024  0.93093061  1
  O  O48  1  0.94472137  0.33073871  0.60092321  1
  O  O49  1  0.97341245  0.60327392  0.08020031  1
  O  O50  1  0.92955599  0.06907276  0.32309486  1
  O  O51  1  0.95089799  0.60032739  0.33067233  1
  O  O52  1  0.92156812  0.07549760  0.60123402  1
  O  O53  1  0.97248316  0.31824693  0.07462172  1
