# generated using pymatgen
data_Li7Mn5O12
_symmetry_space_group_name_H-M   'P 1'
_cell_length_a   5.96615496
_cell_length_b   6.02457187
_cell_length_c   6.53965728
_cell_angle_alpha   103.56783181
_cell_angle_beta   104.43043228
_cell_angle_gamma   86.29795318
_symmetry_Int_Tables_number   1
_chemical_formula_structural   Li7Mn5O12
_chemical_formula_sum   'Li7 Mn5 O12'
_cell_volume   221.28498801
_cell_formula_units_Z   1
loop_
 _symmetry_equiv_pos_site_id
 _symmetry_equiv_pos_as_xyz
  1  'x, y, z'
loop_
 _atom_site_type_symbol
 _atom_site_label
 _atom_site_symmetry_multiplicity
 _atom_site_fract_x
 _atom_site_fract_y
 _atom_site_fract_z
 _atom_site_occupancy
  Li  Li0  1  0.16666700  0.16666700  0.66666700  1
  Li  Li1  1  0.83271964  0.32813672  0.33662149  1
  Li  Li2  1  0.50164797  0.49044375  0.98786079  1
  Li  Li3  1  0.16666700  0.66666700  0.66666700  1
  Li  Li4  1  0.83168503  0.84288925  0.34547221  1
  Li  Li5  1  0.50061336  0.00519628  0.99671151  1
  Li  Li6  1  0.66666700  0.16666700  0.66666700  1
  Mn  Mn7  1  0.99299153  0.99845635  0.99945041  1
  Mn  Mn8  1  0.66666700  0.66666700  0.66666700  1
  Mn  Mn9  1  0.34034147  0.33487665  0.33388259  1
  Mn  Mn10  1  0.99289880  0.49137867  0.99507723  1
  Mn  Mn11  1  0.34043420  0.84195433  0.33825577  1
  O  O12  1  0.89669745  0.89563432  0.68496135  1
  O  O13  1  0.55835078  0.08504255  0.32710942  1
  O  O14  1  0.24536483  0.26886235  0.00664285  1
  O  O15  1  0.91089096  0.43348412  0.67901277  1
  O  O16  1  0.58755232  0.60983752  0.35273329  1
  O  O17  1  0.23305668  0.75593688  0.01845130  1
  O  O18  1  0.43663655  0.43769968  0.64837265  1
  O  O19  1  0.10027632  0.57739612  0.31488170  1
  O  O20  1  0.74578068  0.72349548  0.98059971  1
  O  O21  1  0.42244304  0.89984988  0.65432123  1
  O  O22  1  0.08796817  0.06447065  0.32669015  1
  O  O23  1  0.77498222  0.24829045  0.00622358  1
