# generated using pymatgen
data_Ba2Sr2La2Cu6O13
_symmetry_space_group_name_H-M   'P 1'
_cell_length_a   5.55453507
_cell_length_b   5.55453507
_cell_length_c   12.49761509
_cell_angle_alpha   76.87249369
_cell_angle_beta   76.87249369
_cell_angle_gamma   88.73780807
_symmetry_Int_Tables_number   1
_chemical_formula_structural   Ba2Sr2La2Cu6O13
_chemical_formula_sum   'Ba2 Sr2 La2 Cu6 O13'
_cell_volume   365.51982029
_cell_formula_units_Z   1
loop_
 _symmetry_equiv_pos_site_id
 _symmetry_equiv_pos_as_xyz
  1  'x, y, z'
loop_
 _atom_site_type_symbol
 _atom_site_label
 _atom_site_symmetry_multiplicity
 _atom_site_fract_x
 _atom_site_fract_y
 _atom_site_fract_z
 _atom_site_occupancy
  Ba  Ba0  1  0.59946118  0.08575105  0.81478777  1
  Ba  Ba1  1  0.08575105  0.59946118  0.81478777  1
  Sr  Sr2  1  0.89926866  0.40698416  0.19374717  1
  Sr  Sr3  1  0.40698416  0.89926866  0.19374717  1
  La  La4  1  0.25125003  0.75154506  0.49720491  1
  La  La5  1  0.75154506  0.25125003  0.49720491  1
  Cu  Cu6  1  0.17802471  0.17802471  0.64668049  1
  Cu  Cu7  1  0.67529480  0.67529480  0.64668049  1
  Cu  Cu8  1  0.32662559  0.32662559  0.34401781  1
  Cu  Cu9  1  0.82935661  0.82935661  0.34401781  1
  Cu  Cu10  1  0.50747190  0.50747190  0.00544528  1
  Cu  Cu11  1  0.98708283  0.98708283  0.00544528  1
  O  O12  1  0.09453568  0.09453568  0.85235482  1
  O  O13  1  0.55310950  0.55310950  0.85235482  1
  O  O14  1  0.39065377  0.39065377  0.15633328  1
  O  O15  1  0.95301295  0.95301295  0.15633328  1
  O  O16  1  0.43547589  0.93547589  0.62904822  1
  O  O17  1  0.93547589  0.43547589  0.62904822  1
  O  O18  1  0.93367571  0.93367571  0.63264858  1
  O  O19  1  0.43580625  0.43580625  0.62838749  1
  O  O20  1  0.56887340  0.06887340  0.36225321  1
  O  O21  1  0.06887340  0.56887340  0.36225321  1
  O  O22  1  0.06781979  0.06781979  0.36436042  1
  O  O23  1  0.57249558  0.57249558  0.35500884  1
  O  O24  1  0.74207562  0.74207562  0.01584877  1
