# generated using pymatgen
data_Ba2In3Au
_symmetry_space_group_name_H-M   'P 1'
_cell_length_a   5.12462187
_cell_length_b   6.76248458
_cell_length_c   6.53338011
_cell_angle_alpha   95.73021714
_cell_angle_beta   113.09068945
_cell_angle_gamma   67.73438669
_symmetry_Int_Tables_number   1
_chemical_formula_structural   Ba2In3Au
_chemical_formula_sum   'Ba2 In3 Au1'
_cell_volume   192.43020567
_cell_formula_units_Z   1
loop_
 _symmetry_equiv_pos_site_id
 _symmetry_equiv_pos_as_xyz
  1  'x, y, z'
loop_
 _atom_site_type_symbol
 _atom_site_label
 _atom_site_symmetry_multiplicity
 _atom_site_fract_x
 _atom_site_fract_y
 _atom_site_fract_z
 _atom_site_occupancy
  Ba  Ba0  1  0.74743602  0.29846924  0.79334129  1
  Ba  Ba1  1  0.25499717  0.69819478  0.20818913  1
  In  In2  1  0.93976010  0.71625473  0.59577492  1
  In  In3  1  0.56816990  0.10515766  0.24149746  1
  In  In4  1  0.43560279  0.90118416  0.77238974  1
  Au  Au5  1  0.05403401  0.28073944  0.38880747  1
