# generated using pymatgen
data_Ba10Ca5Cu10Hg5O31
_symmetry_space_group_name_H-M   'P 1'
_cell_length_a   8.62503632
_cell_length_b   8.62686664
_cell_length_c   13.41503542
_cell_angle_alpha   97.36160335
_cell_angle_beta   104.86798293
_cell_angle_gamma   90.00714611
_symmetry_Int_Tables_number   1
_chemical_formula_structural   Ba10Ca5Cu10Hg5O31
_chemical_formula_sum   'Ba10 Ca5 Cu10 Hg5 O31'
_cell_volume   956.23436019
_cell_formula_units_Z   1
loop_
 _symmetry_equiv_pos_site_id
 _symmetry_equiv_pos_as_xyz
  1  'x, y, z'
loop_
 _atom_site_type_symbol
 _atom_site_label
 _atom_site_symmetry_multiplicity
 _atom_site_fract_x
 _atom_site_fract_y
 _atom_site_fract_z
 _atom_site_occupancy
  Ba  Ba0  1  0.81628607  0.65819063  0.79089411  1
  Ba  Ba1  1  0.00983924  0.25614356  0.77856906  1
  Ba  Ba2  1  0.41179098  0.45730438  0.77849132  1
  Ba  Ba3  1  0.61300263  0.05536116  0.77849043  1
  Ba  Ba4  1  0.21107477  0.85404165  0.77842108  1
  Ba  Ba5  1  0.58892523  0.54595835  0.22157892  1
  Ba  Ba6  1  0.79016076  0.14385644  0.22143094  1
  Ba  Ba7  1  0.18699737  0.34463884  0.22150957  1
  Ba  Ba8  1  0.38820902  0.94269562  0.22150868  1
  Ba  Ba9  1  0.98371393  0.74180937  0.20910589  1
  Ca  Ca10  1  0.70033994  0.60051030  0.50155178  1
  Ca  Ca11  1  0.90000000  0.20000000  0.50000000  1
  Ca  Ca12  1  0.29965868  0.39990623  0.50001577  1
  Ca  Ca13  1  0.50034132  0.00009377  0.49998423  1
  Ca  Ca14  1  0.09966006  0.79948970  0.49844822  1
  Cu  Cu15  1  0.84858722  0.92306237  0.62145860  1
  Cu  Cu16  1  0.04760945  0.52457215  0.62136965  1
  Cu  Cu17  1  0.44949596  0.72411953  0.62129637  1
  Cu  Cu18  1  0.64880678  0.32549855  0.62146974  1
  Cu  Cu19  1  0.24826049  0.12417702  0.62069445  1
  Cu  Cu20  1  0.75239055  0.87542785  0.37863035  1
  Cu  Cu21  1  0.95141278  0.47693763  0.37854140  1
  Cu  Cu22  1  0.35050404  0.67588047  0.37870363  1
  Cu  Cu23  1  0.55173951  0.27582298  0.37930555  1
  Cu  Cu24  1  0.15119322  0.07450145  0.37853026  1
  Hg  Hg25  1  0.61001027  0.79679971  0.00002367  1
  Hg  Hg26  1  0.80317637  0.41001675  0.00002617  1
  Hg  Hg27  1  0.18998973  0.60320029  0.99997633  1
  Hg  Hg28  1  0.40000000  0.20000000  0.00000000  1
  Hg  Hg29  1  0.99682363  0.98998325  0.99997383  1
  O  O30  1  0.93901755  0.97373070  0.84174856  1
  O  O31  1  0.14207529  0.56620843  0.84175226  1
  O  O32  1  0.53134370  0.77064024  0.84176805  1
  O  O33  1  0.73451280  0.36304962  0.84176962  1
  O  O34  1  0.33785755  0.16898476  0.84454315  1
  O  O35  1  0.65792471  0.83379157  0.15824774  1
  O  O36  1  0.86098245  0.42626930  0.15825144  1
  O  O37  1  0.26865630  0.62935976  0.15823195  1
  O  O38  1  0.46214245  0.23101524  0.15545685  1
  O  O39  1  0.06548720  0.03695038  0.15823038  1
  O  O40  1  0.64792790  0.82610930  0.62152318  1
  O  O41  1  0.84964442  0.42297394  0.62146489  1
  O  O42  1  0.24900234  0.62421407  0.62220963  1
  O  O43  1  0.44884780  0.22418798  0.62238861  1
  O  O44  1  0.04876837  0.02480683  0.62244785  1
  O  O45  1  0.94996949  0.72538288  0.62145097  1
  O  O46  1  0.14922012  0.32454319  0.62235338  1
  O  O47  1  0.54697472  0.52333821  0.62148173  1
  O  O48  1  0.74885476  0.12411947  0.62202292  1
  O  O49  1  0.34863066  0.92476857  0.62231826  1
  O  O50  1  0.55099766  0.77578593  0.37779037  1
  O  O51  1  0.75123163  0.37519317  0.37755215  1
  O  O52  1  0.15207210  0.57389070  0.37847682  1
  O  O53  1  0.35115220  0.17581202  0.37761139  1
  O  O54  1  0.95035558  0.97702606  0.37853511  1
  O  O55  1  0.85003051  0.67461712  0.37854903  1
  O  O56  1  0.05114524  0.27588053  0.37797708  1
  O  O57  1  0.45136934  0.47523143  0.37768174  1
  O  O58  1  0.65077988  0.07545681  0.37764662  1
  O  O59  1  0.25302528  0.87666179  0.37851827  1
  O  O60  1  0.90000000  0.70000000  0.00000000  1
