# generated using pymatgen
data_Ba3Ti4Sb4O21
_symmetry_space_group_name_H-M   'P 1'
_cell_length_a   9.09698412
_cell_length_b   9.09698235
_cell_length_c   12.05451184
_cell_angle_alpha   89.73773430
_cell_angle_beta   89.73784991
_cell_angle_gamma   60.09264717
_symmetry_Int_Tables_number   1
_chemical_formula_structural   Ba3Ti4Sb4O21
_chemical_formula_sum   'Ba6 Ti8 Sb8 O42'
_cell_volume   864.71634476
_cell_formula_units_Z   2
loop_
 _symmetry_equiv_pos_site_id
 _symmetry_equiv_pos_as_xyz
  1  'x, y, z'
loop_
 _atom_site_type_symbol
 _atom_site_label
 _atom_site_symmetry_multiplicity
 _atom_site_fract_x
 _atom_site_fract_y
 _atom_site_fract_z
 _atom_site_occupancy
  Ba  Ba0  1  0.59372879  0.00022669  0.75060337  1
  Ba  Ba1  1  0.99977528  0.40626885  0.74939567  1
  Ba  Ba2  1  0.40916019  0.59084291  0.75000026  1
  Ba  Ba3  1  0.40626863  0.99977738  0.24939551  1
  Ba  Ba4  1  0.00022461  0.59373103  0.25060497  1
  Ba  Ba5  1  0.59084245  0.40915879  0.24999994  1
  Ti  Ti6  1  0.00343296  0.74764107  0.59927154  1
  Ti  Ti7  1  0.75282927  0.25181149  0.59772234  1
  Ti  Ti8  1  0.99656390  0.25235676  0.40072789  1
  Ti  Ti9  1  0.24716635  0.74819044  0.40227849  1
  Ti  Ti10  1  0.74764631  0.00343376  0.09926806  1
  Ti  Ti11  1  0.25180939  0.75283260  0.09771918  1
  Ti  Ti12  1  0.25235740  0.99656552  0.90073386  1
  Ti  Ti13  1  0.74819536  0.24716565  0.90228225  1
  Sb  Sb14  1  0.66567109  0.66832483  0.49982117  1
  Sb  Sb15  1  0.33432410  0.33167580  0.50017648  1
  Sb  Sb16  1  0.33167971  0.33432422  0.00017786  1
  Sb  Sb17  1  0.66832469  0.66567665  0.99982190  1
  Sb  Sb18  1  0.23779391  -0.00000322  0.58641965  1
  Sb  Sb19  1  0.76220221  0.00000265  0.41357966  1
  Sb  Sb20  1  0.00000020  0.23779517  0.08641163  1
  Sb  Sb21  1  0.00000325  0.76220515  0.91358900  1
  O  O22  1  0.68671881  0.48309651  0.60090206  1
  O  O23  1  0.48668106  0.83086282  0.60581985  1
  O  O24  1  0.83172130  0.68612384  0.59787716  1
  O  O25  1  0.17078458  0.51643036  0.60033396  1
  O  O26  1  0.31833701  0.16822167  0.60591981  1
  O  O27  1  0.51931868  0.31266070  0.59834745  1
  O  O28  1  0.31327664  0.51690126  0.39909669  1
  O  O29  1  0.51331489  0.16913683  0.39417985  1
  O  O30  1  0.16827455  0.31387614  0.40212244  1
  O  O31  1  0.82920946  0.48356899  0.39966479  1
  O  O32  1  0.68165904  0.83177881  0.39407865  1
  O  O33  1  0.48067916  0.68733863  0.40165339  1
  O  O34  1  0.31266605  0.51931797  0.09834619  1
  O  O35  1  0.51642866  0.17078996  0.10033429  1
  O  O36  1  0.16822518  0.31834042  0.10592274  1
  O  O37  1  0.83086312  0.48668744  0.10582064  1
  O  O38  1  0.68612382  0.83172154  0.09787703  1
  O  O39  1  0.48309887  0.68672170  0.10090299  1
  O  O40  1  0.68734140  0.48068042  0.90165378  1
  O  O41  1  0.48357574  0.82920978  0.89966593  1
  O  O42  1  0.83177951  0.68165777  0.89407879  1
  O  O43  1  0.16914218  0.51331308  0.89417886  1
  O  O44  1  0.31388129  0.16827784  0.90212401  1
  O  O45  1  0.51690500  0.31328023  0.89909826  1
  O  O46  1  0.80010282  0.99952584  0.57779426  1
  O  O47  1  0.00051789  0.20240854  0.57359912  1
  O  O48  1  0.20333125  0.79743255  0.57442055  1
  O  O49  1  0.19989153  0.00047436  0.42220585  1
  O  O50  1  0.99947662  0.79759105  0.42640111  1
  O  O51  1  0.79666397  0.20256751  0.42558086  1
  O  O52  1  0.20240893  0.00052334  0.07360052  1
  O  O53  1  0.99952812  0.80010007  0.07779271  1
  O  O54  1  0.79743549  0.20333563  0.07441925  1
  O  O55  1  0.79759488  0.99947799  0.92640012  1
  O  O56  1  0.00047609  0.19989924  0.92220735  1
  O  O57  1  0.20256751  0.79666528  0.92558101  1
  O  O58  1  0.21728166  0.00087171  0.75010954  1
  O  O59  1  0.99912814  0.78271820  0.74988365  1
  O  O60  1  0.78318234  0.21681774  0.74999779  1
  O  O61  1  0.78271957  0.99912816  0.24989097  1
  O  O62  1  0.00087056  0.21728138  0.25011508  1
  O  O63  1  0.21681657  0.78318248  0.24999995  1
