# generated using pymatgen
data_K2LiAlF6
_symmetry_space_group_name_H-M   'P 1'
_cell_length_a   9.90805467
_cell_length_b   9.90805468
_cell_length_c   9.90805467
_cell_angle_alpha   33.52723153
_cell_angle_beta   33.52723149
_cell_angle_gamma   33.52723151
_symmetry_Int_Tables_number   1
_chemical_formula_structural   K2LiAlF6
_chemical_formula_sum   'K4 Li2 Al2 F12'
_cell_volume   264.29504470
_cell_formula_units_Z   2
loop_
 _symmetry_equiv_pos_site_id
 _symmetry_equiv_pos_as_xyz
  1  'x, y, z'
loop_
 _atom_site_type_symbol
 _atom_site_label
 _atom_site_symmetry_multiplicity
 _atom_site_fract_x
 _atom_site_fract_y
 _atom_site_fract_z
 _atom_site_occupancy
  Li  Li0  1  0.59699912  0.59699912  0.59699912  1
  Li  Li1  1  0.40300088  0.40300088  0.40300088  1
  F  F2  1  0.19048269  0.19048269  0.73193616  1
  F  F3  1  0.19048269  0.73193616  0.19048269  1
  F  F4  1  0.73193616  0.19048269  0.19048269  1
  F  F5  1  0.26806384  0.80951731  0.80951731  1
  F  F6  1  0.60885222  0.16498497  0.60885222  1
  F  F7  1  0.60885222  0.60885222  0.16498497  1
  F  F8  1  0.16498497  0.60885222  0.60885222  1
  F  F9  1  0.83501503  0.39114778  0.39114778  1
  F  F10  1  0.39114778  0.83501503  0.39114778  1
  F  F11  1  0.39114778  0.39114778  0.83501503  1
  F  F12  1  0.80951731  0.26806384  0.80951731  1
  F  F13  1  0.80951731  0.80951731  0.26806384  1
  Al  Al14  1  0.50000000  0.50000000  0.50000000  1
  Al  Al15  1  0.00000000  0.00000000  0.00000000  1
  K  K16  1  0.71950187  0.71950187  0.71950187  1
  K  K17  1  0.28049813  0.28049813  0.28049813  1
  K  K18  1  0.87212253  0.87212253  0.87212253  1
  K  K19  1  0.12787747  0.12787747  0.12787747  1
