# generated using pymatgen
data_TbZnSn2
_symmetry_space_group_name_H-M   'P 1'
_cell_length_a   4.38660913
_cell_length_b   4.38660913
_cell_length_c   9.84207319
_cell_angle_alpha   90.00000000
_cell_angle_beta   90.00000000
_cell_angle_gamma   90.00000000
_symmetry_Int_Tables_number   1
_chemical_formula_structural   TbZnSn2
_chemical_formula_sum   'Tb2 Zn2 Sn4'
_cell_volume   189.38451527
_cell_formula_units_Z   2
loop_
 _symmetry_equiv_pos_site_id
 _symmetry_equiv_pos_as_xyz
  1  'x, y, z'
loop_
 _atom_site_type_symbol
 _atom_site_label
 _atom_site_symmetry_multiplicity
 _atom_site_fract_x
 _atom_site_fract_y
 _atom_site_fract_z
 _atom_site_occupancy
  Zn  Zn0  1  0.75000000  0.25000000  0.00000000  1
  Zn  Zn1  1  0.25000000  0.75000000  0.00000000  1
  Sn  Sn2  1  0.75000000  0.75000000  0.81464081  1
  Sn  Sn3  1  0.25000000  0.25000000  0.18535919  1
  Sn  Sn4  1  0.75000000  0.25000000  0.50000000  1
  Sn  Sn5  1  0.25000000  0.75000000  0.50000000  1
  Tb  Tb6  1  0.75000000  0.75000000  0.24732674  1
  Tb  Tb7  1  0.25000000  0.25000000  0.75267326  1
