# generated using pymatgen
data_Sr2ErCu3(PbO4)2
_symmetry_space_group_name_H-M   'P 1'
_cell_length_a   3.82512210
_cell_length_b   3.82512209
_cell_length_c   15.98158638
_cell_angle_alpha   90.00000000
_cell_angle_beta   90.00000000
_cell_angle_gamma   90.01105189
_symmetry_Int_Tables_number   1
_chemical_formula_structural   Sr2ErCu3(PbO4)2
_chemical_formula_sum   'Sr2 Er1 Cu3 Pb2 O8'
_cell_volume   233.83552021
_cell_formula_units_Z   1
loop_
 _symmetry_equiv_pos_site_id
 _symmetry_equiv_pos_as_xyz
  1  'x, y, z'
loop_
 _atom_site_type_symbol
 _atom_site_label
 _atom_site_symmetry_multiplicity
 _atom_site_fract_x
 _atom_site_fract_y
 _atom_site_fract_z
 _atom_site_occupancy
  O  O0  1  0.00000000  0.50000000  0.91028486  1
  O  O1  1  0.50000000  0.00000000  0.08971514  1
  O  O2  1  0.00000000  0.50000000  0.08971514  1
  O  O3  1  0.50000000  0.00000000  0.91028486  1
  O  O4  1  0.00000000  0.00000000  0.38339109  1
  O  O5  1  0.50000000  0.50000000  0.74957007  1
  O  O6  1  0.50000000  0.50000000  0.25042993  1
  O  O7  1  0.00000000  0.00000000  0.61660891  1
  Cu  Cu8  1  0.00000000  0.00000000  0.50000000  1
  Cu  Cu9  1  0.50000000  0.50000000  0.89731313  1
  Cu  Cu10  1  0.50000000  0.50000000  0.10268687  1
  Sr  Sr11  1  0.00000000  0.00000000  0.77959096  1
  Sr  Sr12  1  0.00000000  0.00000000  0.22040904  1
  Er  Er13  1  0.00000000  0.00000000  0.00000000  1
  Pb  Pb14  1  0.50000000  0.50000000  0.38728631  1
  Pb  Pb15  1  0.50000000  0.50000000  0.61271369  1
