# generated using pymatgen
data_Na2UF6
_symmetry_space_group_name_H-M   'P 1'
_cell_length_a   6.07632944
_cell_length_b   6.07632944
_cell_length_c   3.73468068
_cell_angle_alpha   90.00000000
_cell_angle_beta   90.00000000
_cell_angle_gamma   119.99999998
_symmetry_Int_Tables_number   1
_chemical_formula_structural   Na2UF6
_chemical_formula_sum   'Na2 U1 F6'
_cell_volume   119.41715790
_cell_formula_units_Z   1
loop_
 _symmetry_equiv_pos_site_id
 _symmetry_equiv_pos_as_xyz
  1  'x, y, z'
loop_
 _atom_site_type_symbol
 _atom_site_label
 _atom_site_symmetry_multiplicity
 _atom_site_fract_x
 _atom_site_fract_y
 _atom_site_fract_z
 _atom_site_occupancy
  F  F0  1  0.75141342  0.75141342  0.50000000  1
  F  F1  1  0.00000000  0.24858658  0.50000000  1
  F  F2  1  0.24858658  0.00000000  0.50000000  1
  F  F3  1  0.62929561  0.00000000  0.00000000  1
  F  F4  1  0.00000000  0.62929561  0.00000000  1
  F  F5  1  0.37070439  0.37070439  0.00000000  1
  Na  Na6  1  0.33333333  0.66666667  0.42057518  1
  Na  Na7  1  0.66666667  0.33333333  0.57942482  1
  U  U8  1  0.00000000  0.00000000  0.00000000  1
