# generated using pymatgen
data_CsHoCoSe3
_symmetry_space_group_name_H-M   'P 1'
_cell_length_a   4.10802937
_cell_length_b   8.38403088
_cell_length_c   10.86332596
_cell_angle_alpha   90.00000000
_cell_angle_beta   90.00000000
_cell_angle_gamma   104.18131997
_symmetry_Int_Tables_number   1
_chemical_formula_structural   CsHoCoSe3
_chemical_formula_sum   'Cs2 Ho2 Co2 Se6'
_cell_volume   362.75078069
_cell_formula_units_Z   2
loop_
 _symmetry_equiv_pos_site_id
 _symmetry_equiv_pos_as_xyz
  1  'x, y, z'
loop_
 _atom_site_type_symbol
 _atom_site_label
 _atom_site_symmetry_multiplicity
 _atom_site_fract_x
 _atom_site_fract_y
 _atom_site_fract_z
 _atom_site_occupancy
  Co  Co0  1  0.53383829  0.06767657  0.25000000  1
  Co  Co1  1  0.46616171  0.93232343  0.75000000  1
  Se  Se2  1  0.05289135  0.10578269  0.75000000  1
  Se  Se3  1  0.94710865  0.89421731  0.25000000  1
  Se  Se4  1  0.38568660  0.77137320  0.93480953  1
  Se  Se5  1  0.61431340  0.22862680  0.06519047  1
  Se  Se6  1  0.61431340  0.22862680  0.43480953  1
  Se  Se7  1  0.38568660  0.77137320  0.56519047  1
  Cs  Cs8  1  0.74036317  0.48072634  0.75000000  1
  Cs  Cs9  1  0.25963683  0.51927366  0.25000000  1
  Ho  Ho10  1  0.00000000  0.00000000  0.50000000  1
  Ho  Ho11  1  0.00000000  0.00000000  0.00000000  1
