# generated using pymatgen
data_Tl2Cu2SnS4
_symmetry_space_group_name_H-M   'P 1'
_cell_length_a   5.31857288
_cell_length_b   9.37416202
_cell_length_c   9.37416203
_cell_angle_alpha   76.79823956
_cell_angle_beta   73.51988401
_cell_angle_gamma   73.51988401
_symmetry_Int_Tables_number   1
_chemical_formula_structural   Tl2Cu2SnS4
_chemical_formula_sum   'Tl4 Cu4 Sn2 S8'
_cell_volume   424.16133533
_cell_formula_units_Z   2
loop_
 _symmetry_equiv_pos_site_id
 _symmetry_equiv_pos_as_xyz
  1  'x, y, z'
loop_
 _atom_site_type_symbol
 _atom_site_label
 _atom_site_symmetry_multiplicity
 _atom_site_fract_x
 _atom_site_fract_y
 _atom_site_fract_z
 _atom_site_occupancy
  S  S0  1  0.91247399  0.48670156  0.22378097  1
  S  S1  1  0.12295651  0.01329844  0.27621903  1
  S  S2  1  0.58752601  0.27621903  0.01329844  1
  S  S3  1  0.37704349  0.22378097  0.48670156  1
  S  S4  1  0.41247399  0.72378097  0.98670156  1
  S  S5  1  0.87704349  0.98670156  0.72378097  1
  S  S6  1  0.08752601  0.51329844  0.77621903  1
  S  S7  1  0.62295651  0.77621903  0.51329844  1
  Cu  Cu8  1  0.25000000  0.97620652  0.52379348  1
  Cu  Cu9  1  0.75000000  0.47620652  0.02379348  1
  Cu  Cu10  1  0.75000000  0.02379348  0.47620652  1
  Cu  Cu11  1  0.25000000  0.52379348  0.97620652  1
  Sn  Sn12  1  0.75000000  0.75000000  0.75000000  1
  Sn  Sn13  1  0.25000000  0.25000000  0.25000000  1
  Tl  Tl14  1  0.73673925  0.37958065  0.62041935  1
  Tl  Tl15  1  0.23673925  0.12041935  0.87958065  1
  Tl  Tl16  1  0.26326075  0.62041935  0.37958065  1
  Tl  Tl17  1  0.76326075  0.87958065  0.12041935  1
