# generated using pymatgen
data_VSO5
_symmetry_space_group_name_H-M   'P 1'
_cell_length_a   4.18995177
_cell_length_b   6.37552711
_cell_length_c   6.37552711
_cell_angle_alpha   90.00000000
_cell_angle_beta   90.00000000
_cell_angle_gamma   90.00000000
_symmetry_Int_Tables_number   1
_chemical_formula_structural   VSO5
_chemical_formula_sum   'V2 S2 O10'
_cell_volume   170.31041903
_cell_formula_units_Z   2
loop_
 _symmetry_equiv_pos_site_id
 _symmetry_equiv_pos_as_xyz
  1  'x, y, z'
loop_
 _atom_site_type_symbol
 _atom_site_label
 _atom_site_symmetry_multiplicity
 _atom_site_fract_x
 _atom_site_fract_y
 _atom_site_fract_z
 _atom_site_occupancy
  O  O0  1  0.70969528  0.26654621  0.93718642  1
  O  O1  1  0.70969528  0.56281358  0.26654621  1
  O  O2  1  0.22573477  0.25000000  0.25000000  1
  O  O3  1  0.77426523  0.75000000  0.75000000  1
  O  O4  1  0.70969528  0.93718642  0.23345379  1
  O  O5  1  0.70969528  0.23345379  0.56281358  1
  O  O6  1  0.29030472  0.76654621  0.43718642  1
  O  O7  1  0.29030472  0.06281358  0.76654621  1
  O  O8  1  0.29030472  0.43718642  0.73345379  1
  O  O9  1  0.29030472  0.73345379  0.06281358  1
  S  S10  1  0.50000000  0.75000000  0.25000000  1
  S  S11  1  0.50000000  0.25000000  0.75000000  1
  V  V12  1  0.38444525  0.75000000  0.75000000  1
  V  V13  1  0.61555475  0.25000000  0.25000000  1
