# generated using pymatgen
data_VSiP2O9
_symmetry_space_group_name_H-M   'P 1'
_cell_length_a   8.33879760
_cell_length_b   8.95297474
_cell_length_c   8.95297474
_cell_angle_alpha   90.00000000
_cell_angle_beta   90.00000000
_cell_angle_gamma   90.00000000
_symmetry_Int_Tables_number   1
_chemical_formula_structural   VSiP2O9
_chemical_formula_sum   'V4 Si4 P8 O36'
_cell_volume   668.40263156
_cell_formula_units_Z   4
loop_
 _symmetry_equiv_pos_site_id
 _symmetry_equiv_pos_as_xyz
  1  'x, y, z'
loop_
 _atom_site_type_symbol
 _atom_site_label
 _atom_site_symmetry_multiplicity
 _atom_site_fract_x
 _atom_site_fract_y
 _atom_site_fract_z
 _atom_site_occupancy
  O  O0  1  0.89067216  0.18293900  0.88447791  1
  O  O1  1  0.89067216  0.31706100  0.61552209  1
  O  O2  1  0.89067216  0.88447791  0.31706100  1
  O  O3  1  0.89067216  0.61552209  0.18293900  1
  O  O4  1  0.60932784  0.38447791  0.68293900  1
  O  O5  1  0.60932784  0.81706100  0.38447791  1
  O  O6  1  0.60932784  0.68293900  0.11552209  1
  O  O7  1  0.60932784  0.11552209  0.81706100  1
  O  O8  1  0.10932784  0.81706100  0.11552209  1
  O  O9  1  0.10932784  0.68293900  0.38447791  1
  O  O10  1  0.10932784  0.11552209  0.68293900  1
  O  O11  1  0.10932784  0.38447791  0.81706100  1
  O  O12  1  0.39067216  0.61552209  0.31706100  1
  O  O13  1  0.39067216  0.18293900  0.61552209  1
  O  O14  1  0.39067216  0.31706100  0.88447791  1
  O  O15  1  0.39067216  0.88447791  0.18293900  1
  O  O16  1  0.53731610  0.75000000  0.75000000  1
  O  O17  1  0.96268390  0.25000000  0.25000000  1
  O  O18  1  0.46268390  0.25000000  0.25000000  1
  O  O19  1  0.03731610  0.75000000  0.75000000  1
  O  O20  1  0.29748012  0.90025267  0.91237499  1
  O  O21  1  0.29748012  0.58762501  0.90025267  1
  O  O22  1  0.29748012  0.91237499  0.59974733  1
  O  O23  1  0.29748012  0.59974733  0.58762501  1
  O  O24  1  0.20251988  0.40025267  0.08762501  1
  O  O25  1  0.20251988  0.09974733  0.41237499  1
  O  O26  1  0.20251988  0.41237499  0.40025267  1
  O  O27  1  0.20251988  0.08762501  0.09974733  1
  O  O28  1  0.70251988  0.09974733  0.08762501  1
  O  O29  1  0.70251988  0.41237499  0.09974733  1
  O  O30  1  0.70251988  0.08762501  0.40025267  1
  O  O31  1  0.70251988  0.40025267  0.41237499  1
  O  O32  1  0.79748012  0.59974733  0.91237499  1
  O  O33  1  0.79748012  0.90025267  0.58762501  1
  O  O34  1  0.79748012  0.58762501  0.59974733  1
  O  O35  1  0.79748012  0.91237499  0.90025267  1
  Si  Si36  1  0.50000000  0.25000000  0.75000000  1
  Si  Si37  1  0.50000000  0.75000000  0.25000000  1
  Si  Si38  1  0.00000000  0.75000000  0.25000000  1
  Si  Si39  1  0.00000000  0.25000000  0.75000000  1
  P  P40  1  0.75000000  0.92822980  0.42822980  1
  P  P41  1  0.75000000  0.07177020  0.92822980  1
  P  P42  1  0.75000000  0.42822980  0.57177020  1
  P  P43  1  0.75000000  0.57177020  0.07177020  1
  P  P44  1  0.25000000  0.07177020  0.57177020  1
  P  P45  1  0.25000000  0.92822980  0.07177020  1
  P  P46  1  0.25000000  0.57177020  0.42822980  1
  P  P47  1  0.25000000  0.42822980  0.92822980  1
  V  V48  1  0.84075247  0.75000000  0.75000000  1
  V  V49  1  0.65924753  0.25000000  0.25000000  1
  V  V50  1  0.15924753  0.25000000  0.25000000  1
  V  V51  1  0.34075247  0.75000000  0.75000000  1
