# generated using pymatgen
data_YGaO3
_symmetry_space_group_name_H-M   'P 1'
_cell_length_a   6.13362259
_cell_length_b   6.13362259
_cell_length_c   11.73154421
_cell_angle_alpha   90.00000000
_cell_angle_beta   90.00000000
_cell_angle_gamma   119.99999996
_symmetry_Int_Tables_number   1
_chemical_formula_structural   YGaO3
_chemical_formula_sum   'Y6 Ga6 O18'
_cell_volume   382.22572470
_cell_formula_units_Z   6
loop_
 _symmetry_equiv_pos_site_id
 _symmetry_equiv_pos_as_xyz
  1  'x, y, z'
loop_
 _atom_site_type_symbol
 _atom_site_label
 _atom_site_symmetry_multiplicity
 _atom_site_fract_x
 _atom_site_fract_y
 _atom_site_fract_z
 _atom_site_occupancy
  O  O0  1  0.66666667  0.33333333  0.01583644  1
  O  O1  1  0.33333333  0.66666667  0.51583644  1
  O  O2  1  0.66666667  0.33333333  0.51583644  1
  O  O3  1  0.33333333  0.66666667  0.01583644  1
  O  O4  1  0.00000000  0.00000000  0.97440629  1
  O  O5  1  0.00000000  0.00000000  0.47440629  1
  O  O6  1  0.35884759  0.00000000  0.83535659  1
  O  O7  1  0.35884759  0.35884759  0.33535659  1
  O  O8  1  0.00000000  0.64115241  0.33535659  1
  O  O9  1  0.00000000  0.35884759  0.83535659  1
  O  O10  1  0.64115241  0.64115241  0.83535659  1
  O  O11  1  0.64115241  0.00000000  0.33535659  1
  O  O12  1  0.30737875  0.00000000  0.15924185  1
  O  O13  1  0.30737875  0.30737875  0.65924185  1
  O  O14  1  0.00000000  0.69262125  0.65924185  1
  O  O15  1  0.00000000  0.30737875  0.15924185  1
  O  O16  1  0.69262125  0.69262125  0.15924185  1
  O  O17  1  0.69262125  0.00000000  0.65924185  1
  Ga  Ga18  1  0.66571579  0.00000000  0.49674050  1
  Ga  Ga19  1  0.66571579  0.66571579  0.99674050  1
  Ga  Ga20  1  0.00000000  0.33428421  0.99674050  1
  Ga  Ga21  1  0.00000000  0.66571579  0.49674050  1
  Ga  Ga22  1  0.33428421  0.33428421  0.49674050  1
  Ga  Ga23  1  0.33428421  0.00000000  0.99674050  1
  Y  Y24  1  0.66666667  0.33333333  0.23001486  1
  Y  Y25  1  0.33333333  0.66666667  0.73001486  1
  Y  Y26  1  0.66666667  0.33333333  0.73001486  1
  Y  Y27  1  0.33333333  0.66666667  0.23001486  1
  Y  Y28  1  0.00000000  0.00000000  0.77087425  1
  Y  Y29  1  0.00000000  0.00000000  0.27087425  1
