# generated using pymatgen
data_KCr4O8
_symmetry_space_group_name_H-M   'P 1'
_cell_length_a   3.00387630
_cell_length_b   7.19531260
_cell_length_c   7.19531261
_cell_angle_alpha   87.50273346
_cell_angle_beta   77.95156964
_cell_angle_gamma   77.95156961
_symmetry_Int_Tables_number   1
_chemical_formula_structural   KCr4O8
_chemical_formula_sum   'K1 Cr4 O8'
_cell_volume   148.74205737
_cell_formula_units_Z   1
loop_
 _symmetry_equiv_pos_site_id
 _symmetry_equiv_pos_as_xyz
  1  'x, y, z'
loop_
 _atom_site_type_symbol
 _atom_site_label
 _atom_site_symmetry_multiplicity
 _atom_site_fract_x
 _atom_site_fract_y
 _atom_site_fract_z
 _atom_site_occupancy
  O  O0  1  0.46083965  0.37642236  0.70189639  1
  O  O1  1  0.16273812  0.29810392  0.37642191  1
  O  O2  1  0.83726154  0.70189597  0.62357892  1
  O  O3  1  0.53916001  0.62357754  0.29810304  1
  O  O4  1  0.84544623  0.95191020  0.35719966  1
  O  O5  1  0.15455343  0.04808969  0.64279977  1
  O  O6  1  0.20264443  0.64280073  0.95191020  1
  O  O7  1  0.79735522  0.35719916  0.04808923  1
  K  K8  1  0.50000171  0.00000000  0.99999960  1
  Cr  Cr9  1  0.83581560  0.51195893  0.81641305  1
  Cr  Cr10  1  0.16418751  0.48804096  0.18358748  1
  Cr  Cr11  1  0.34777365  0.81641277  0.48804006  1
  Cr  Cr12  1  0.65222601  0.18358712  0.51195936  1
