# generated using pymatgen
data_Ba3CuSb2O9
_symmetry_space_group_name_H-M   'P 1'
_cell_length_a   5.88675811
_cell_length_b   5.88675811
_cell_length_c   14.57603844
_cell_angle_alpha   90.00000000
_cell_angle_beta   90.00000000
_cell_angle_gamma   119.99999995
_symmetry_Int_Tables_number   1
_chemical_formula_structural   Ba3CuSb2O9
_chemical_formula_sum   'Ba6 Cu2 Sb4 O18'
_cell_volume   437.44405458
_cell_formula_units_Z   2
loop_
 _symmetry_equiv_pos_site_id
 _symmetry_equiv_pos_as_xyz
  1  'x, y, z'
loop_
 _atom_site_type_symbol
 _atom_site_label
 _atom_site_symmetry_multiplicity
 _atom_site_fract_x
 _atom_site_fract_y
 _atom_site_fract_z
 _atom_site_occupancy
  O  O0  1  0.83435291  0.16564709  0.41285613  1
  O  O1  1  0.66870582  0.83435291  0.91285613  1
  O  O2  1  0.16564709  0.33129418  0.91285613  1
  O  O3  1  0.83435291  0.66870582  0.41285613  1
  O  O4  1  0.33129418  0.16564709  0.41285613  1
  O  O5  1  0.16564709  0.83435291  0.91285613  1
  O  O6  1  0.51039576  0.48960424  0.25165555  1
  O  O7  1  0.02079152  0.51039576  0.75165555  1
  O  O8  1  0.48960424  0.97920848  0.75165555  1
  O  O9  1  0.51039576  0.02079152  0.25165555  1
  O  O10  1  0.97920848  0.48960424  0.25165555  1
  O  O11  1  0.48960424  0.51039576  0.75165555  1
  O  O12  1  0.16155622  0.83844378  0.57418063  1
  O  O13  1  0.32311244  0.16155622  0.07418063  1
  O  O14  1  0.83844378  0.67688756  0.07418063  1
  O  O15  1  0.16155622  0.32311244  0.57418063  1
  O  O16  1  0.67688756  0.83844378  0.57418063  1
  O  O17  1  0.83844378  0.16155622  0.07418063  1
  Cu  Cu18  1  0.33333333  0.66666667  0.64549361  1
  Cu  Cu19  1  0.66666667  0.33333333  0.14549361  1
  Sb  Sb20  1  0.00000000  0.00000000  0.99827178  1
  Sb  Sb21  1  0.00000000  0.00000000  0.49827178  1
  Sb  Sb22  1  0.33333333  0.66666667  0.83344783  1
  Sb  Sb23  1  0.66666667  0.33333333  0.33344783  1
  Ba  Ba24  1  0.66666667  0.33333333  0.90880481  1
  Ba  Ba25  1  0.33333333  0.66666667  0.40880481  1
  Ba  Ba26  1  0.66666667  0.33333333  0.60395341  1
  Ba  Ba27  1  0.33333333  0.66666667  0.10395341  1
  Ba  Ba28  1  0.00000000  0.00000000  0.74125163  1
  Ba  Ba29  1  0.00000000  0.00000000  0.24125163  1
