# generated using pymatgen
data_Zn(SnO2)4
_symmetry_space_group_name_H-M   'P 1'
_cell_length_a   3.24455425
_cell_length_b   8.06898112
_cell_length_c   8.32046385
_cell_angle_alpha   73.30923401
_cell_angle_beta   78.52029719
_cell_angle_gamma   78.46902304
_symmetry_Int_Tables_number   1
_chemical_formula_structural   Zn(SnO2)4
_chemical_formula_sum   'Zn1 Sn4 O8'
_cell_volume   202.10243260
_cell_formula_units_Z   1
loop_
 _symmetry_equiv_pos_site_id
 _symmetry_equiv_pos_as_xyz
  1  'x, y, z'
loop_
 _atom_site_type_symbol
 _atom_site_label
 _atom_site_symmetry_multiplicity
 _atom_site_fract_x
 _atom_site_fract_y
 _atom_site_fract_z
 _atom_site_occupancy
  Zn  Zn0  1  0.30619019  0.19447589  0.19348190  1
  Sn  Sn1  1  0.64247416  0.16046765  0.56806190  1
  Sn  Sn2  1  0.10803066  0.58871943  0.21201165  1
  Sn  Sn3  1  0.86601785  0.44166705  0.83494519  1
  Sn  Sn4  1  0.34410812  0.81452850  0.51313972  1
  O  O5  1  0.87482029  0.65608974  0.60721760  1
  O  O6  1  0.48071364  0.31871991  0.73021138  1
  O  O7  1  0.49754040  0.72724092  0.29496167  1
  O  O8  1  0.15566837  0.28974469  0.41394430  1
  O  O9  1  0.17399147  0.99189421  0.67264657  1
  O  O10  1  0.84398864  0.25025441  0.06529348  1
  O  O11  1  0.81568782  0.99089448  0.39893079  1
  O  O12  1  0.26893141  0.56594014  0.90394486  1
