# generated using pymatgen
data_V4Ag2O11
_symmetry_space_group_name_H-M   'P 1'
_cell_length_a   3.61100368
_cell_length_b   7.98057240
_cell_length_c   8.12519244
_cell_angle_alpha   73.29600243
_cell_angle_beta   77.16110938
_cell_angle_gamma   76.92436311
_symmetry_Int_Tables_number   1
_chemical_formula_structural   V4Ag2O11
_chemical_formula_sum   'V4 Ag2 O11'
_cell_volume   215.33269428
_cell_formula_units_Z   1
loop_
 _symmetry_equiv_pos_site_id
 _symmetry_equiv_pos_as_xyz
  1  'x, y, z'
loop_
 _atom_site_type_symbol
 _atom_site_label
 _atom_site_symmetry_multiplicity
 _atom_site_fract_x
 _atom_site_fract_y
 _atom_site_fract_z
 _atom_site_occupancy
  O  O0  1  0.50138654  0.31672183  0.68050663  1
  O  O1  1  0.49861479  0.68327863  0.31949253  1
  O  O2  1  0.68462631  0.27651806  0.35423105  1
  O  O3  1  0.31537505  0.72348239  0.64576933  1
  O  O4  1  0.82325851  0.33662072  0.01686246  1
  O  O5  1  0.17674283  0.66337974  0.98313669  1
  O  O6  1  0.00000000  0.00000000  0.00000000  1
  O  O7  1  0.34911141  0.08207352  0.21970574  1
  O  O8  1  0.83515541  0.91958620  0.41010369  1
  O  O9  1  0.16484592  0.08041426  0.58989547  1
  O  O10  1  0.65088992  0.91792694  0.78029341  1
  V  V11  1  0.63432102  0.15507116  0.57628543  1
  V  V12  1  0.36567794  0.84492798  0.42371432  1
  V  V13  1  0.85418330  0.13883877  0.15279219  1
  V  V14  1  0.14581519  0.86116167  0.84720847  1
  Ag  Ag15  1  0.88054477  0.50692575  0.73198314  1
  Ag  Ag16  1  0.11945422  0.49307337  0.26801784  1
