# generated using pymatgen
data_Na4Fe2O5
_symmetry_space_group_name_H-M   'P 1'
_cell_length_a   5.77272612
_cell_length_b   9.25428264
_cell_length_c   12.00569362
_cell_angle_alpha   104.98953205
_cell_angle_beta   90.00000000
_cell_angle_gamma   90.00000000
_symmetry_Int_Tables_number   1
_chemical_formula_structural   Na4Fe2O5
_chemical_formula_sum   'Na16 Fe8 O20'
_cell_volume   619.54948438
_cell_formula_units_Z   4
loop_
 _symmetry_equiv_pos_site_id
 _symmetry_equiv_pos_as_xyz
  1  'x, y, z'
loop_
 _atom_site_type_symbol
 _atom_site_label
 _atom_site_symmetry_multiplicity
 _atom_site_fract_x
 _atom_site_fract_y
 _atom_site_fract_z
 _atom_site_occupancy
  O  O0  1  0.06666406  0.68758142  0.79967343  1
  O  O1  1  0.67053667  0.75722932  0.17672303  1
  O  O2  1  0.82946333  0.25722932  0.67672303  1
  O  O3  1  0.32946333  0.24277068  0.82327697  1
  O  O4  1  0.74027233  0.91558412  0.94696017  1
  O  O5  1  0.24027233  0.58441588  0.55303983  1
  O  O6  1  0.25972767  0.08441588  0.05303983  1
  O  O7  1  0.75972767  0.41558412  0.44696017  1
  O  O8  1  0.23863220  0.61072935  0.05734859  1
  O  O9  1  0.73863220  0.88927065  0.44265141  1
  O  O10  1  0.76136780  0.38927065  0.94265141  1
  O  O11  1  0.26136780  0.11072935  0.55734859  1
  O  O12  1  0.01872238  0.97982008  0.73879905  1
  O  O13  1  0.17053667  0.74277068  0.32327697  1
  O  O14  1  0.51872238  0.52017992  0.76120095  1
  O  O15  1  0.98127762  0.02017992  0.26120095  1
  O  O16  1  0.56666406  0.81241858  0.70032657  1
  O  O17  1  0.93333594  0.31241858  0.20032657  1
  O  O18  1  0.43333594  0.18758142  0.29967343  1
  O  O19  1  0.48127762  0.47982008  0.23879905  1
  Na  Na20  1  0.07325420  0.83843148  0.03290140  1
  Na  Na21  1  0.57325420  0.66156852  0.46709860  1
  Na  Na22  1  0.88578405  0.51570694  0.12199855  1
  Na  Na23  1  0.42674580  0.33843148  0.53290140  1
  Na  Na24  1  0.58931811  0.66456027  0.96218288  1
  Na  Na25  1  0.08931811  0.83543973  0.53781712  1
  Na  Na26  1  0.41068189  0.33543973  0.03781712  1
  Na  Na27  1  0.91068189  0.16456027  0.46218288  1
  Na  Na28  1  0.38056122  0.99651066  0.86683445  1
  Na  Na29  1  0.88056122  0.50348934  0.63316555  1
  Na  Na30  1  0.61943878  0.00348934  0.13316555  1
  Na  Na31  1  0.11943878  0.49651066  0.36683445  1
  Na  Na32  1  0.61421595  0.01570694  0.62199855  1
  Na  Na33  1  0.11421595  0.48429306  0.87800145  1
  Na  Na34  1  0.38578405  0.98429306  0.37800145  1
  Na  Na35  1  0.92674580  0.16156852  0.96709860  1
  Fe  Fe36  1  0.34194682  0.65924264  0.70335193  1
  Fe  Fe37  1  0.65805318  0.34075736  0.29664807  1
  Fe  Fe38  1  0.15805318  0.15924264  0.20335193  1
  Fe  Fe39  1  0.38540839  0.65688330  0.19948167  1
  Fe  Fe40  1  0.88540839  0.84311670  0.30051833  1
  Fe  Fe41  1  0.61459161  0.34311670  0.80051833  1
  Fe  Fe42  1  0.11459161  0.15688330  0.69948167  1
  Fe  Fe43  1  0.84194682  0.84075736  0.79664807  1
