# generated using pymatgen
data_Mg6GaNi
_symmetry_space_group_name_H-M   'P 1'
_cell_length_a   6.04878481
_cell_length_b   6.21064324
_cell_length_c   4.80552733
_cell_angle_alpha   90.00000000
_cell_angle_beta   90.00000000
_cell_angle_gamma   120.88919921
_symmetry_Int_Tables_number   1
_chemical_formula_structural   Mg6GaNi
_chemical_formula_sum   'Mg6 Ga1 Ni1'
_cell_volume   154.92264212
_cell_formula_units_Z   1
loop_
 _symmetry_equiv_pos_site_id
 _symmetry_equiv_pos_as_xyz
  1  'x, y, z'
loop_
 _atom_site_type_symbol
 _atom_site_label
 _atom_site_symmetry_multiplicity
 _atom_site_fract_x
 _atom_site_fract_y
 _atom_site_fract_z
 _atom_site_occupancy
  Mg  Mg0  1  0.66919819  0.33374155  0.25000000  1
  Mg  Mg1  1  0.66919819  0.83545564  0.25000000  1
  Mg  Mg2  1  0.32342809  0.17034012  0.75000000  1
  Mg  Mg3  1  0.32342809  0.65308898  0.75000000  1
  Mg  Mg4  1  0.84742760  0.17371430  0.75000000  1
  Mg  Mg5  1  0.83713263  0.66856682  0.75000000  1
  Ga  Ga6  1  0.16421833  0.83210866  0.25000000  1
  Ni  Ni7  1  0.16596888  0.33298394  0.25000000  1
