# generated using pymatgen
data_CuH12Br4(NO)2
_symmetry_space_group_name_H-M   'P 1'
_cell_length_a   8.10988952
_cell_length_b   8.10988952
_cell_length_c   8.29563017
_cell_angle_alpha   90.00000000
_cell_angle_beta   90.00000000
_cell_angle_gamma   90.00000000
_symmetry_Int_Tables_number   1
_chemical_formula_structural   CuH12Br4(NO)2
_chemical_formula_sum   'Cu2 H24 Br8 N4 O4'
_cell_volume   545.60615156
_cell_formula_units_Z   2
loop_
 _symmetry_equiv_pos_site_id
 _symmetry_equiv_pos_as_xyz
  1  'x, y, z'
loop_
 _atom_site_type_symbol
 _atom_site_label
 _atom_site_symmetry_multiplicity
 _atom_site_fract_x
 _atom_site_fract_y
 _atom_site_fract_z
 _atom_site_occupancy
  H  H0  1  0.92965499  0.92965499  0.69376551  1
  H  H1  1  0.07034501  0.07034501  0.69376551  1
  H  H2  1  0.92965499  0.92965499  0.30623449  1
  H  H3  1  0.42965499  0.57034501  0.19376551  1
  H  H4  1  0.57034501  0.42965499  0.19376551  1
  H  H5  1  0.57034501  0.42965499  0.80623449  1
  H  H6  1  0.42965499  0.57034501  0.80623449  1
  H  H7  1  0.07034501  0.07034501  0.30623449  1
  H  H8  1  0.07120091  0.42322596  0.32187749  1
  H  H9  1  0.92879909  0.57677404  0.32187749  1
  H  H10  1  0.42322596  0.07120091  0.67812251  1
  H  H11  1  0.92322596  0.42879909  0.82187749  1
  H  H12  1  0.07677404  0.57120091  0.82187749  1
  H  H13  1  0.42879909  0.92322596  0.17812251  1
  H  H14  1  0.57120091  0.07677404  0.17812251  1
  H  H15  1  0.57677404  0.92879909  0.67812251  1
  H  H16  1  0.92879909  0.57677404  0.67812251  1
  H  H17  1  0.07120091  0.42322596  0.67812251  1
  H  H18  1  0.42322596  0.07120091  0.32187749  1
  H  H19  1  0.42879909  0.92322596  0.82187749  1
  H  H20  1  0.57120091  0.07677404  0.82187749  1
  H  H21  1  0.92322596  0.42879909  0.17812251  1
  H  H22  1  0.07677404  0.57120091  0.17812251  1
  H  H23  1  0.57677404  0.92879909  0.32187749  1
  N  N24  1  0.00000000  0.50000000  0.75000000  1
  N  N25  1  0.00000000  0.50000000  0.25000000  1
  N  N26  1  0.50000000  0.00000000  0.75000000  1
  N  N27  1  0.50000000  0.00000000  0.25000000  1
  O  O28  1  0.00000000  0.00000000  0.76292934  1
  O  O29  1  0.50000000  0.50000000  0.26292934  1
  O  O30  1  0.50000000  0.50000000  0.73707066  1
  O  O31  1  0.00000000  0.00000000  0.23707066  1
  Cu  Cu32  1  0.50000000  0.50000000  0.50000000  1
  Cu  Cu33  1  0.00000000  0.00000000  0.00000000  1
  Br  Br34  1  0.21492594  0.21492594  0.50000000  1
  Br  Br35  1  0.71492594  0.28507406  0.00000000  1
  Br  Br36  1  0.78831387  0.78831387  0.00000000  1
  Br  Br37  1  0.71168613  0.28831387  0.50000000  1
  Br  Br38  1  0.28831387  0.71168613  0.50000000  1
  Br  Br39  1  0.21168613  0.21168613  0.00000000  1
  Br  Br40  1  0.28507406  0.71492594  0.00000000  1
  Br  Br41  1  0.78507406  0.78507406  0.50000000  1
