# generated using pymatgen
data_LiMg6Ni
_symmetry_space_group_name_H-M   'P 1'
_cell_length_a   6.10507032
_cell_length_b   6.24985124
_cell_length_c   4.86804800
_cell_angle_alpha   90.00000000
_cell_angle_beta   90.00000000
_cell_angle_gamma   120.78763674
_symmetry_Int_Tables_number   1
_chemical_formula_structural   LiMg6Ni
_chemical_formula_sum   'Li1 Mg6 Ni1'
_cell_volume   159.56731625
_cell_formula_units_Z   1
loop_
 _symmetry_equiv_pos_site_id
 _symmetry_equiv_pos_as_xyz
  1  'x, y, z'
loop_
 _atom_site_type_symbol
 _atom_site_label
 _atom_site_symmetry_multiplicity
 _atom_site_fract_x
 _atom_site_fract_y
 _atom_site_fract_z
 _atom_site_occupancy
  Li  Li0  1  0.16779045  0.83389472  0.25000000  1
  Mg  Mg1  1  0.66856327  0.33442319  0.25000000  1
  Mg  Mg2  1  0.66856327  0.83413908  0.25000000  1
  Mg  Mg3  1  0.32081940  0.17101525  0.75000000  1
  Mg  Mg4  1  0.32081940  0.64980515  0.75000000  1
  Mg  Mg5  1  0.84910593  0.17455347  0.75000000  1
  Mg  Mg6  1  0.83708515  0.66854307  0.75000000  1
  Ni  Ni7  1  0.16725314  0.33362607  0.25000000  1
