# generated using pymatgen
data_ZrCrSi2
_symmetry_space_group_name_H-M   'P 1'
_cell_length_a   8.02447912
_cell_length_b   9.13900017
_cell_length_c   9.80843189
_cell_angle_alpha   90.00000000
_cell_angle_beta   90.00000000
_cell_angle_gamma   90.00000000
_symmetry_Int_Tables_number   1
_chemical_formula_structural   ZrCrSi2
_chemical_formula_sum   'Zr12 Cr12 Si24'
_cell_volume   719.30837590
_cell_formula_units_Z   12
loop_
 _symmetry_equiv_pos_site_id
 _symmetry_equiv_pos_as_xyz
  1  'x, y, z'
loop_
 _atom_site_type_symbol
 _atom_site_label
 _atom_site_symmetry_multiplicity
 _atom_site_fract_x
 _atom_site_fract_y
 _atom_site_fract_z
 _atom_site_occupancy
  Si  Si0  1  0.00000000  0.60965939  0.09847489  1
  Si  Si1  1  0.00000000  0.39034061  0.90152511  1
  Si  Si2  1  0.00000000  0.10965939  0.40152511  1
  Si  Si3  1  0.00000000  0.89034061  0.59847489  1
  Si  Si4  1  0.50000000  0.62428867  0.10398524  1
  Si  Si5  1  0.50000000  0.37571133  0.89601476  1
  Si  Si6  1  0.50000000  0.12428867  0.39601476  1
  Si  Si7  1  0.50000000  0.87571133  0.60398524  1
  Si  Si8  1  0.00000000  0.54032661  0.37466663  1
  Si  Si9  1  0.00000000  0.45967339  0.62533337  1
  Si  Si10  1  0.00000000  0.04032661  0.12533337  1
  Si  Si11  1  0.00000000  0.95967339  0.87466663  1
  Si  Si12  1  0.50000000  0.53938532  0.37936462  1
  Si  Si13  1  0.50000000  0.46061468  0.62063538  1
  Si  Si14  1  0.50000000  0.03938532  0.12063538  1
  Si  Si15  1  0.50000000  0.96061468  0.87936462  1
  Si  Si16  1  0.85098180  0.17081365  0.68111782  1
  Si  Si17  1  0.85098180  0.67081365  0.81888218  1
  Si  Si18  1  0.14901820  0.67081365  0.81888218  1
  Si  Si19  1  0.14901820  0.32918635  0.18111782  1
  Si  Si20  1  0.14901820  0.82918635  0.31888218  1
  Si  Si21  1  0.14901820  0.17081365  0.68111782  1
  Si  Si22  1  0.85098180  0.32918635  0.18111782  1
  Si  Si23  1  0.85098180  0.82918635  0.31888218  1
  Cr  Cr24  1  0.74954348  0.92058745  0.74620183  1
  Cr  Cr25  1  0.25444087  0.50000000  0.00000000  1
  Cr  Cr26  1  0.25444087  0.00000000  0.50000000  1
  Cr  Cr27  1  0.74555913  0.50000000  0.00000000  1
  Cr  Cr28  1  0.74954348  0.42058745  0.75379817  1
  Cr  Cr29  1  0.74954348  0.57941255  0.24620183  1
  Cr  Cr30  1  0.25045652  0.92058745  0.74620183  1
  Cr  Cr31  1  0.25045652  0.07941255  0.25379817  1
  Cr  Cr32  1  0.25045652  0.57941255  0.24620183  1
  Cr  Cr33  1  0.25045652  0.42058745  0.75379817  1
  Cr  Cr34  1  0.74954348  0.07941255  0.25379817  1
  Cr  Cr35  1  0.74555913  0.00000000  0.50000000  1
  Zr  Zr36  1  0.50000000  0.83052277  0.32006634  1
  Zr  Zr37  1  0.50000000  0.16947723  0.67993366  1
  Zr  Zr38  1  0.50000000  0.33052277  0.17993366  1
  Zr  Zr39  1  0.50000000  0.66947723  0.82006634  1
  Zr  Zr40  1  0.74664433  0.17240316  0.95213767  1
  Zr  Zr41  1  0.74664433  0.82759684  0.04786233  1
  Zr  Zr42  1  0.25335567  0.67240316  0.54786233  1
  Zr  Zr43  1  0.25335567  0.32759684  0.45213767  1
  Zr  Zr44  1  0.25335567  0.82759684  0.04786233  1
  Zr  Zr45  1  0.25335567  0.17240316  0.95213767  1
  Zr  Zr46  1  0.74664433  0.32759684  0.45213767  1
  Zr  Zr47  1  0.74664433  0.67240316  0.54786233  1
