# generated using pymatgen
data_KEuGeS4
_symmetry_space_group_name_H-M   'P 1'
_cell_length_a   6.77724165
_cell_length_b   6.67436636
_cell_length_c   8.90593405
_cell_angle_alpha   90.00000000
_cell_angle_beta   107.72550296
_cell_angle_gamma   90.00000000
_symmetry_Int_Tables_number   1
_chemical_formula_structural   KEuGeS4
_chemical_formula_sum   'K2 Eu2 Ge2 S8'
_cell_volume   383.72434486
_cell_formula_units_Z   2
loop_
 _symmetry_equiv_pos_site_id
 _symmetry_equiv_pos_as_xyz
  1  'x, y, z'
loop_
 _atom_site_type_symbol
 _atom_site_label
 _atom_site_symmetry_multiplicity
 _atom_site_fract_x
 _atom_site_fract_y
 _atom_site_fract_z
 _atom_site_occupancy
  S  S0  1  0.92522052  0.05457747  0.06699356  1
  S  S1  1  0.07477948  0.55457747  0.93300644  1
  S  S2  1  0.08180295  0.50257444  0.33760415  1
  S  S3  1  0.91819705  0.00257444  0.66239585  1
  S  S4  1  0.52197429  0.72927145  0.79074053  1
  S  S5  1  0.47802571  0.22927145  0.20925947  1
  S  S6  1  0.47929735  0.23819997  0.77321738  1
  S  S7  1  0.52070265  0.73819997  0.22678262  1
  K  K8  1  0.76716720  0.48357500  0.56392390  1
  K  K9  1  0.23283280  0.98357500  0.43607610  1
  Ge  Ge10  1  0.27597731  0.50055575  0.17945890  1
  Ge  Ge11  1  0.72402269  0.00055575  0.82054110  1
  Eu  Eu12  1  0.73180634  0.45922591  0.05515221  1
  Eu  Eu13  1  0.26819366  0.95922591  0.94484779  1
