# generated using pymatgen
data_BaSm2CuO5
_symmetry_space_group_name_H-M   'P 1'
_cell_length_a   5.80520169
_cell_length_b   7.38546951
_cell_length_c   12.47526021
_cell_angle_alpha   90.00000000
_cell_angle_beta   90.00000000
_cell_angle_gamma   90.00000000
_symmetry_Int_Tables_number   1
_chemical_formula_structural   BaSm2CuO5
_chemical_formula_sum   'Ba4 Sm8 Cu4 O20'
_cell_volume   534.86605379
_cell_formula_units_Z   4
loop_
 _symmetry_equiv_pos_site_id
 _symmetry_equiv_pos_as_xyz
  1  'x, y, z'
loop_
 _atom_site_type_symbol
 _atom_site_label
 _atom_site_symmetry_multiplicity
 _atom_site_fract_x
 _atom_site_fract_y
 _atom_site_fract_z
 _atom_site_occupancy
  O  O0  1  0.25000000  0.42135342  0.59789974  1
  O  O1  1  0.75000000  0.57864658  0.40210026  1
  O  O2  1  0.75000000  0.92135342  0.90210026  1
  O  O3  1  0.25000000  0.07864658  0.09789974  1
  O  O4  1  0.00676376  0.85052856  0.27211937  1
  O  O5  1  0.50676376  0.14947144  0.72788063  1
  O  O6  1  0.99323624  0.35052856  0.22788063  1
  O  O7  1  0.49323624  0.64947144  0.77211937  1
  O  O8  1  0.99323624  0.14947144  0.72788063  1
  O  O9  1  0.49323624  0.85052856  0.27211937  1
  O  O10  1  0.00676376  0.64947144  0.77211937  1
  O  O11  1  0.50676376  0.35052856  0.22788063  1
  O  O12  1  0.49023346  0.66518097  0.06780039  1
  O  O13  1  0.99023346  0.33481903  0.93219961  1
  O  O14  1  0.50976654  0.16518097  0.43219961  1
  O  O15  1  0.00976654  0.83481903  0.56780039  1
  O  O16  1  0.99023346  0.16518097  0.43219961  1
  O  O17  1  0.49023346  0.83481903  0.56780039  1
  O  O18  1  0.00976654  0.66518097  0.06780039  1
  O  O19  1  0.50976654  0.33481903  0.93219961  1
  Cu  Cu20  1  0.25000000  0.78130105  0.16095108  1
  Cu  Cu21  1  0.75000000  0.21869895  0.83904892  1
  Cu  Cu22  1  0.75000000  0.28130105  0.33904892  1
  Cu  Cu23  1  0.25000000  0.71869895  0.66095108  1
  Ba  Ba24  1  0.25000000  0.56843181  0.40615558  1
  Ba  Ba25  1  0.75000000  0.43156819  0.59384442  1
  Ba  Ba26  1  0.75000000  0.06843181  0.09384442  1
  Ba  Ba27  1  0.25000000  0.93156819  0.90615558  1
  Sm  Sm28  1  0.25000000  0.10474709  0.57415644  1
  Sm  Sm29  1  0.75000000  0.89525291  0.42584356  1
  Sm  Sm30  1  0.75000000  0.60474709  0.92584356  1
  Sm  Sm31  1  0.25000000  0.39525291  0.07415644  1
  Sm  Sm32  1  0.25000000  0.38825892  0.78733333  1
  Sm  Sm33  1  0.75000000  0.61174108  0.21266667  1
  Sm  Sm34  1  0.75000000  0.88825892  0.71266667  1
  Sm  Sm35  1  0.25000000  0.11174108  0.28733333  1
