# generated using pymatgen
data_TcH4NO4
_symmetry_space_group_name_H-M   'P 1'
_cell_length_a   6.25798309
_cell_length_b   6.25798310
_cell_length_c   7.63579456
_cell_angle_alpha   114.19097970
_cell_angle_beta   114.19097977
_cell_angle_gamma   89.99999995
_symmetry_Int_Tables_number   1
_chemical_formula_structural   TcH4NO4
_chemical_formula_sum   'Tc2 H8 N2 O8'
_cell_volume   243.70245239
_cell_formula_units_Z   2
loop_
 _symmetry_equiv_pos_site_id
 _symmetry_equiv_pos_as_xyz
  1  'x, y, z'
loop_
 _atom_site_type_symbol
 _atom_site_label
 _atom_site_symmetry_multiplicity
 _atom_site_fract_x
 _atom_site_fract_y
 _atom_site_fract_z
 _atom_site_occupancy
  H  H0  1  0.55599953  0.19808105  0.84863263  1
  H  H1  1  0.65055158  0.05599953  0.34863263  1
  H  H2  1  0.44400047  0.80191895  0.15136737  1
  H  H3  1  0.34944842  0.94400047  0.65136737  1
  H  H4  1  0.29263310  0.15055158  0.84863263  1
  H  H5  1  0.70736690  0.84944842  0.15136737  1
  H  H6  1  0.69808105  0.79263310  0.34863263  1
  H  H7  1  0.30191895  0.20736690  0.65136737  1
  N  N8  1  0.62500000  0.87500000  0.25000000  1
  N  N9  1  0.37500000  0.12500000  0.75000000  1
  O  O10  1  0.83982573  0.39450874  0.08897285  1
  O  O11  1  0.89450874  0.74914713  0.58897285  1
  O  O12  1  0.16017427  0.60549126  0.91102715  1
  O  O13  1  0.30553589  0.66017427  0.41102715  1
  O  O14  1  0.10549126  0.25085287  0.41102715  1
  O  O15  1  0.24914713  0.19446411  0.08897285  1
  O  O16  1  0.69446411  0.33982573  0.58897285  1
  O  O17  1  0.75085287  0.80553589  0.91102715  1
  Tc  Tc18  1  0.87500000  0.62500000  0.75000000  1
  Tc  Tc19  1  0.12500000  0.37500000  0.25000000  1
