# generated using pymatgen
data_CeIn2Pd
_symmetry_space_group_name_H-M   'P 1'
_cell_length_a   4.67354162
_cell_length_b   5.80999204
_cell_length_c   7.53781964
_cell_angle_alpha   90.00000000
_cell_angle_beta   90.00000000
_cell_angle_gamma   113.71569731
_symmetry_Int_Tables_number   1
_chemical_formula_structural   CeIn2Pd
_chemical_formula_sum   'Ce2 In4 Pd2'
_cell_volume   187.39181456
_cell_formula_units_Z   2
loop_
 _symmetry_equiv_pos_site_id
 _symmetry_equiv_pos_as_xyz
  1  'x, y, z'
loop_
 _atom_site_type_symbol
 _atom_site_label
 _atom_site_symmetry_multiplicity
 _atom_site_fract_x
 _atom_site_fract_y
 _atom_site_fract_z
 _atom_site_occupancy
  Pd  Pd0  1  0.20468486  0.40936973  0.25000000  1
  Pd  Pd1  1  0.79531514  0.59063027  0.75000000  1
  In  In2  1  0.63656193  0.27312386  0.04988330  1
  In  In3  1  0.36343807  0.72687614  0.54988330  1
  In  In4  1  0.36343807  0.72687614  0.95011670  1
  In  In5  1  0.63656193  0.27312386  0.45011670  1
  Ce  Ce6  1  0.92047020  0.84094040  0.25000000  1
  Ce  Ce7  1  0.07952980  0.15905960  0.75000000  1
