# generated using pymatgen
data_Sr2UCoO6
_symmetry_space_group_name_H-M   'P 1'
_cell_length_a   5.83853925
_cell_length_b   5.86778083
_cell_length_c   8.25876410
_cell_angle_alpha   90.00000000
_cell_angle_beta   90.35351160
_cell_angle_gamma   90.00000000
_symmetry_Int_Tables_number   1
_chemical_formula_structural   Sr2UCoO6
_chemical_formula_sum   'Sr4 U2 Co2 O12'
_cell_volume   282.93383301
_cell_formula_units_Z   2
loop_
 _symmetry_equiv_pos_site_id
 _symmetry_equiv_pos_as_xyz
  1  'x, y, z'
loop_
 _atom_site_type_symbol
 _atom_site_label
 _atom_site_symmetry_multiplicity
 _atom_site_fract_x
 _atom_site_fract_y
 _atom_site_fract_z
 _atom_site_occupancy
  O  O0  1  0.71523249  0.27844511  0.45597553  1
  O  O1  1  0.78476886  0.77844421  0.04402391  1
  O  O2  1  0.28476880  0.72155479  0.54402453  1
  O  O3  1  0.21523243  0.22155570  0.95597615  1
  O  O4  1  0.21981426  0.21642835  0.53992315  1
  O  O5  1  0.28018697  0.71642916  0.96007753  1
  O  O6  1  0.78018703  0.78357156  0.46007691  1
  O  O7  1  0.71981432  0.28357247  0.03992254  1
  O  O8  1  0.07885801  0.48055796  0.24641529  1
  O  O9  1  0.42114092  0.98055706  0.25358413  1
  O  O10  1  0.57885866  0.01944285  0.74641592  1
  O  O11  1  0.92114156  0.51944194  0.75358477  1
  Co  Co12  1  0.00000029  0.50000081  0.50000002  1
  Co  Co13  1  0.50000035  0.00000000  0.99999940  1
  Sr  Sr14  1  0.49007585  0.46657936  0.75181209  1
  Sr  Sr15  1  0.99007592  0.03341974  0.25181269  1
  Sr  Sr16  1  0.50992373  0.53342055  0.24818796  1
  Sr  Sr17  1  0.00992366  0.96658017  0.74818737  1
  U  U18  1  0.00000000  0.50000081  0.00000000  1
  U  U19  1  0.50000064  0.00000000  0.49999942  1
