# generated using pymatgen
data_CoH4(CO3)2
_symmetry_space_group_name_H-M   'P 1'
_cell_length_a   5.51535649
_cell_length_b   6.85893691
_cell_length_c   8.13115231
_cell_angle_alpha   81.21673755
_cell_angle_beta   70.17491951
_cell_angle_gamma   66.29321426
_symmetry_Int_Tables_number   1
_chemical_formula_structural   CoH4(CO3)2
_chemical_formula_sum   'Co2 H8 C4 O12'
_cell_volume   264.90083560
_cell_formula_units_Z   2
loop_
 _symmetry_equiv_pos_site_id
 _symmetry_equiv_pos_as_xyz
  1  'x, y, z'
loop_
 _atom_site_type_symbol
 _atom_site_label
 _atom_site_symmetry_multiplicity
 _atom_site_fract_x
 _atom_site_fract_y
 _atom_site_fract_z
 _atom_site_occupancy
  H  H0  1  0.80032597  0.34187719  0.35908788  1
  H  H1  1  0.50129104  0.15812281  0.14091212  1
  H  H2  1  0.86975364  0.34205510  0.14784922  1
  H  H3  1  0.35965797  0.15794490  0.35215078  1
  H  H4  1  0.13024636  0.65794490  0.85215078  1
  H  H5  1  0.49870896  0.84187719  0.85908788  1
  H  H6  1  0.19967403  0.65812281  0.64091212  1
  H  H7  1  0.64034203  0.84205510  0.64784922  1
  C  C8  1  0.86741855  0.25088253  0.85209777  1
  C  C9  1  0.13258145  0.74911747  0.14790223  1
  C  C10  1  0.02960116  0.75088253  0.35209777  1
  C  C11  1  0.97039884  0.24911747  0.64790223  1
  O  O12  1  0.19666755  0.75078832  0.42739096  1
  O  O13  1  0.74214034  0.41942298  0.25695905  1
  O  O14  1  0.62515317  0.25078832  0.92739096  1
  O  O15  1  0.41852238  0.08057702  0.24304095  1
  O  O16  1  0.58147762  0.91942298  0.75695905  1
  O  O17  1  0.37484683  0.74921168  0.07260904  1
  O  O18  1  0.96770940  0.74739776  0.07122637  1
  O  O19  1  0.78633354  0.75260224  0.42877363  1
  O  O20  1  0.03229060  0.25260224  0.92877363  1
  O  O21  1  0.21366646  0.24739776  0.57122637  1
  O  O22  1  0.25785966  0.58057702  0.74304095  1
  O  O23  1  0.80333245  0.24921168  0.57260904  1
  Co  Co24  1  0.58065296  0.75000000  0.25000000  1
  Co  Co25  1  0.41934704  0.25000000  0.75000000  1
