# generated using pymatgen
data_KV6O11
_symmetry_space_group_name_H-M   'P 1'
_cell_length_a   5.88747799
_cell_length_b   5.88747798
_cell_length_c   13.61907041
_cell_angle_alpha   90.00000000
_cell_angle_beta   90.00000000
_cell_angle_gamma   119.99999998
_symmetry_Int_Tables_number   1
_chemical_formula_structural   KV6O11
_chemical_formula_sum   'K2 V12 O22'
_cell_volume   408.82428857
_cell_formula_units_Z   2
loop_
 _symmetry_equiv_pos_site_id
 _symmetry_equiv_pos_as_xyz
  1  'x, y, z'
loop_
 _atom_site_type_symbol
 _atom_site_label
 _atom_site_symmetry_multiplicity
 _atom_site_fract_x
 _atom_site_fract_y
 _atom_site_fract_z
 _atom_site_occupancy
  O  O0  1  0.66666734  0.33333385  0.41697029  1
  O  O1  1  0.33333285  0.66666570  0.91697055  1
  O  O2  1  0.66666734  0.33333385  0.08217168  1
  O  O3  1  0.33333285  0.66666570  0.58217194  1
  O  O4  1  0.85230692  0.70461302  0.24959764  1
  O  O5  1  0.14769379  0.85230728  0.74959790  1
  O  O6  1  0.70461349  0.85230728  0.74959790  1
  O  O7  1  0.29538770  0.14769427  0.24959764  1
  O  O8  1  0.85230740  0.14769427  0.24959764  1
  O  O9  1  0.14769326  0.29538653  0.74959790  1
  O  O10  1  0.82625446  0.65250809  0.92593145  1
  O  O11  1  0.17374635  0.82625382  0.42593119  1
  O  O12  1  0.65250747  0.82625382  0.42593119  1
  O  O13  1  0.34749272  0.17374573  0.92593145  1
  O  O14  1  0.17374504  0.34749008  0.07328957  1
  O  O15  1  0.82625527  0.17374404  0.57328983  1
  O  O16  1  0.34748960  0.17374404  0.57328983  1
  O  O17  1  0.65251059  0.82625551  0.07328957  1
  O  O18  1  0.82625383  0.17374573  0.92593145  1
  O  O19  1  0.82625515  0.65250946  0.57328983  1
  O  O20  1  0.17374673  0.34749346  0.42593119  1
  O  O21  1  0.17374491  0.82625551  0.07328957  1
  K  K22  1  0.33333285  0.66666570  0.25047039  1
  K  K23  1  0.66666734  0.33333385  0.75047065  1
  V  V24  1  0.49997498  0.50002610  0.99963371  1
  V  V25  1  0.00000000  0.00000000  0.35097813  1
  V  V26  1  0.00000000  0.00000000  0.64816548  1
  V  V27  1  0.00000000  0.00000000  0.14816522  1
  V  V28  1  0.50002574  0.00005064  0.49963345  1
  V  V29  1  0.00000000  0.00000000  0.85097765  1
  V  V30  1  0.00005111  0.50002610  0.99963371  1
  V  V31  1  0.99995008  0.49997545  0.49963345  1
  V  V32  1  0.50002621  0.49997545  0.49963345  1
  V  V33  1  0.49997445  0.99994890  0.99963371  1
  V  V34  1  0.33333285  0.66666570  0.74952690  1
  V  V35  1  0.66666734  0.33333385  0.24952664  1
