# generated using pymatgen
data_Co3B7IO13
_symmetry_space_group_name_H-M   'P 1'
_cell_length_a   8.66489044
_cell_length_b   8.66489043
_cell_length_c   8.66489043
_cell_angle_alpha   59.99999997
_cell_angle_beta   59.99999999
_cell_angle_gamma   59.99999999
_symmetry_Int_Tables_number   1
_chemical_formula_structural   Co3B7IO13
_chemical_formula_sum   'Co6 B14 I2 O26'
_cell_volume   460.01736762
_cell_formula_units_Z   2
loop_
 _symmetry_equiv_pos_site_id
 _symmetry_equiv_pos_as_xyz
  1  'x, y, z'
loop_
 _atom_site_type_symbol
 _atom_site_label
 _atom_site_symmetry_multiplicity
 _atom_site_fract_x
 _atom_site_fract_y
 _atom_site_fract_z
 _atom_site_occupancy
  B  B0  1  0.58029065  0.25912806  0.58029065  1
  B  B1  1  0.58029065  0.58029065  0.58029065  1
  B  B2  1  0.08029065  0.08029065  0.75912806  1
  B  B3  1  0.08029065  0.75912806  0.08029065  1
  B  B4  1  0.75912806  0.08029065  0.08029065  1
  B  B5  1  0.25912806  0.58029065  0.58029065  1
  B  B6  1  0.58029065  0.58029065  0.25912806  1
  B  B7  1  0.08029065  0.08029065  0.08029065  1
  B  B8  1  0.25000000  0.75000000  0.75000000  1
  B  B9  1  0.25000000  0.75000000  0.25000000  1
  B  B10  1  0.75000000  0.25000000  0.25000000  1
  B  B11  1  0.75000000  0.75000000  0.25000000  1
  B  B12  1  0.25000000  0.25000000  0.75000000  1
  B  B13  1  0.75000000  0.25000000  0.75000000  1
  O  O14  1  0.70275093  0.10435404  0.25636412  1
  O  O15  1  0.25636412  0.93653092  0.70275093  1
  O  O16  1  0.20275093  0.75636412  0.60435404  1
  O  O17  1  0.43653092  0.20275093  0.60435404  1
  O  O18  1  0.43653092  0.75636412  0.20275093  1
  O  O19  1  0.00000000  0.00000000  0.00000000  1
  O  O20  1  0.75636412  0.43653092  0.60435404  1
  O  O21  1  0.60435404  0.75636412  0.43653092  1
  O  O22  1  0.43653092  0.60435404  0.75636412  1
  O  O23  1  0.50000000  0.50000000  0.50000000  1
  O  O24  1  0.93653092  0.25636412  0.10435404  1
  O  O25  1  0.75636412  0.60435404  0.20275093  1
  O  O26  1  0.20275093  0.43653092  0.75636412  1
  O  O27  1  0.75636412  0.20275093  0.43653092  1
  O  O28  1  0.60435404  0.43653092  0.20275093  1
  O  O29  1  0.60435404  0.20275093  0.75636412  1
  O  O30  1  0.20275093  0.60435404  0.43653092  1
  O  O31  1  0.10435404  0.93653092  0.25636412  1
  O  O32  1  0.25636412  0.10435404  0.93653092  1
  O  O33  1  0.70275093  0.93653092  0.10435404  1
  O  O34  1  0.25636412  0.70275093  0.10435404  1
  O  O35  1  0.70275093  0.25636412  0.93653092  1
  O  O36  1  0.10435404  0.25636412  0.70275093  1
  O  O37  1  0.93653092  0.10435404  0.70275093  1
  O  O38  1  0.93653092  0.70275093  0.25636412  1
  O  O39  1  0.10435404  0.70275093  0.93653092  1
  Co  Co40  1  0.50000000  0.00000000  0.50000000  1
  Co  Co41  1  0.00000000  0.50000000  0.50000000  1
  Co  Co42  1  0.50000000  0.00000000  0.00000000  1
  Co  Co43  1  0.50000000  0.50000000  0.00000000  1
  Co  Co44  1  0.00000000  0.00000000  0.50000000  1
  Co  Co45  1  0.00000000  0.50000000  0.00000000  1
  I  I46  1  0.75000000  0.75000000  0.75000000  1
  I  I47  1  0.25000000  0.25000000  0.25000000  1
