# generated using pymatgen
data_Mg6ZrSn
_symmetry_space_group_name_H-M   'P 1'
_cell_length_a   6.49098673
_cell_length_b   6.16779054
_cell_length_c   5.12216916
_cell_angle_alpha   90.00000000
_cell_angle_beta   90.00000000
_cell_angle_gamma   118.36614224
_symmetry_Int_Tables_number   1
_chemical_formula_structural   Mg6ZrSn
_chemical_formula_sum   'Mg6 Zr1 Sn1'
_cell_volume   180.44386577
_cell_formula_units_Z   1
loop_
 _symmetry_equiv_pos_site_id
 _symmetry_equiv_pos_as_xyz
  1  'x, y, z'
loop_
 _atom_site_type_symbol
 _atom_site_label
 _atom_site_symmetry_multiplicity
 _atom_site_fract_x
 _atom_site_fract_y
 _atom_site_fract_z
 _atom_site_occupancy
  Mg  Mg0  1  0.66311558  0.33014619  0.25000000  1
  Mg  Mg1  1  0.66311558  0.83296839  0.25000000  1
  Mg  Mg2  1  0.34113809  0.17821101  0.75000000  1
  Mg  Mg3  1  0.34113809  0.66292807  0.75000000  1
  Mg  Mg4  1  0.83853157  0.16926628  0.75000000  1
  Mg  Mg5  1  0.82989114  0.66494607  0.75000000  1
  Zr  Zr6  1  0.15716942  0.32858421  0.25000000  1
  Sn  Sn7  1  0.16590054  0.83294977  0.25000000  1
