# generated using pymatgen
data_Zn6Ni7Ge2
_symmetry_space_group_name_H-M   'P 1'
_cell_length_a   8.14011526
_cell_length_b   8.14011525
_cell_length_c   8.14011525
_cell_angle_alpha   59.99999997
_cell_angle_beta   59.99999998
_cell_angle_gamma   59.99999996
_symmetry_Int_Tables_number   1
_chemical_formula_structural   Zn6Ni7Ge2
_chemical_formula_sum   'Zn12 Ni14 Ge4'
_cell_volume   381.39646530
_cell_formula_units_Z   2
loop_
 _symmetry_equiv_pos_site_id
 _symmetry_equiv_pos_as_xyz
  1  'x, y, z'
loop_
 _atom_site_type_symbol
 _atom_site_label
 _atom_site_symmetry_multiplicity
 _atom_site_fract_x
 _atom_site_fract_y
 _atom_site_fract_z
 _atom_site_occupancy
  Ni  Ni0  1  0.62437335  0.12562665  0.12562665  1
  Ni  Ni1  1  0.87437335  0.87437335  0.37562665  1
  Ni  Ni2  1  0.37562665  0.37562665  0.87437335  1
  Ni  Ni3  1  0.87437335  0.37562665  0.37562665  1
  Ni  Ni4  1  0.87437335  0.37562665  0.87437335  1
  Ni  Ni5  1  0.37562665  0.87437335  0.37562665  1
  Ni  Ni6  1  0.12562665  0.62437335  0.12562665  1
  Ni  Ni7  1  0.12562665  0.12562665  0.62437335  1
  Ni  Ni8  1  0.62437335  0.62437335  0.12562665  1
  Ni  Ni9  1  0.62437335  0.12562665  0.62437335  1
  Ni  Ni10  1  0.37562665  0.87437335  0.87437335  1
  Ni  Ni11  1  0.12562665  0.62437335  0.62437335  1
  Ni  Ni12  1  0.87500000  0.87500000  0.87500000  1
  Ni  Ni13  1  0.12500000  0.12500000  0.12500000  1
  Zn  Zn14  1  0.74867570  0.74867570  0.74867570  1
  Zn  Zn15  1  0.25132430  0.25132430  0.74602710  1
  Zn  Zn16  1  0.74602710  0.25132430  0.25132430  1
  Zn  Zn17  1  0.25132430  0.74602710  0.25132430  1
  Zn  Zn18  1  0.25397290  0.74867570  0.74867570  1
  Zn  Zn19  1  0.74867570  0.25397290  0.74867570  1
  Zn  Zn20  1  0.74867570  0.74867570  0.25397290  1
  Zn  Zn21  1  0.25132430  0.25132430  0.25132430  1
  Zn  Zn22  1  0.00000000  0.00000000  0.00000000  1
  Zn  Zn23  1  0.00000000  0.00000000  0.50000000  1
  Zn  Zn24  1  0.50000000  0.00000000  0.00000000  1
  Zn  Zn25  1  0.00000000  0.50000000  0.00000000  1
  Ge  Ge26  1  0.50000000  0.50000000  0.50000000  1
  Ge  Ge27  1  0.50000000  0.50000000  0.00000000  1
  Ge  Ge28  1  0.00000000  0.50000000  0.50000000  1
  Ge  Ge29  1  0.50000000  0.00000000  0.50000000  1
