# generated using pymatgen
data_Pb4IF7
_symmetry_space_group_name_H-M   'P 1'
_cell_length_a   6.07885165
_cell_length_b   6.16631085
_cell_length_c   13.08428253
_cell_angle_alpha   103.62923932
_cell_angle_beta   90.00000000
_cell_angle_gamma   90.00000000
_symmetry_Int_Tables_number   1
_chemical_formula_structural   Pb4IF7
_chemical_formula_sum   'Pb8 I2 F14'
_cell_volume   476.64169933
_cell_formula_units_Z   2
loop_
 _symmetry_equiv_pos_site_id
 _symmetry_equiv_pos_as_xyz
  1  'x, y, z'
loop_
 _atom_site_type_symbol
 _atom_site_label
 _atom_site_symmetry_multiplicity
 _atom_site_fract_x
 _atom_site_fract_y
 _atom_site_fract_z
 _atom_site_occupancy
  F  F0  1  0.51858369  0.10984185  0.75695410  1
  F  F1  1  0.01858369  0.89015815  0.24304590  1
  F  F2  1  0.48141631  0.35288775  0.24304590  1
  F  F3  1  0.98141631  0.64711225  0.75695410  1
  F  F4  1  0.48141631  0.89015815  0.24304590  1
  F  F5  1  0.98141631  0.10984185  0.75695410  1
  F  F6  1  0.51858369  0.64711225  0.75695410  1
  F  F7  1  0.01858369  0.35288775  0.24304590  1
  F  F8  1  0.50000000  0.22731143  0.00000000  1
  F  F9  1  0.00000000  0.77268857  0.00000000  1
  F  F10  1  0.75000000  0.56269486  0.12538972  1
  F  F11  1  0.25000000  0.43730514  0.87461028  1
  F  F12  1  0.00000000  0.22731143  0.00000000  1
  F  F13  1  0.50000000  0.77268857  0.00000000  1
  I  I14  1  0.25000000  0.74981275  0.49962550  1
  I  I15  1  0.75000000  0.25018725  0.50037450  1
  Pb  Pb16  1  0.25000000  0.17470971  0.34941942  1
  Pb  Pb17  1  0.75000000  0.82529029  0.65058058  1
  Pb  Pb18  1  0.25000000  0.54698838  0.09397675  1
  Pb  Pb19  1  0.75000000  0.45301162  0.90602325  1
  Pb  Pb20  1  0.25000000  0.34736037  0.69472074  1
  Pb  Pb21  1  0.75000000  0.65263963  0.30527926  1
  Pb  Pb22  1  0.25000000  0.94114394  0.88228788  1
  Pb  Pb23  1  0.75000000  0.05885606  0.11771212  1
