# generated using pymatgen
data_Nb2Se
_symmetry_space_group_name_H-M   'P 1'
_cell_length_a   3.45371676
_cell_length_b   7.26397506
_cell_length_c   9.36597887
_cell_angle_alpha   92.20648312
_cell_angle_beta   90.00000000
_cell_angle_gamma   103.75254523
_symmetry_Int_Tables_number   1
_chemical_formula_structural   Nb2Se
_chemical_formula_sum   'Nb8 Se4'
_cell_volume   228.05535990
_cell_formula_units_Z   4
loop_
 _symmetry_equiv_pos_site_id
 _symmetry_equiv_pos_as_xyz
  1  'x, y, z'
loop_
 _atom_site_type_symbol
 _atom_site_label
 _atom_site_symmetry_multiplicity
 _atom_site_fract_x
 _atom_site_fract_y
 _atom_site_fract_z
 _atom_site_occupancy
  Nb  Nb0  1  0.41267927  0.82535855  0.35286499  1
  Nb  Nb1  1  0.58732073  0.17464145  0.64713501  1
  Nb  Nb2  1  0.21648234  0.43296469  0.12511544  1
  Nb  Nb3  1  0.74327130  0.48654259  0.37680677  1
  Nb  Nb4  1  0.91563728  0.83127457  0.60073704  1
  Nb  Nb5  1  0.78351766  0.56703531  0.87488456  1
  Nb  Nb6  1  0.08436272  0.16872543  0.39926296  1
  Nb  Nb7  1  0.25672870  0.51345741  0.62319323  1
  Se  Se8  1  0.85972996  0.71945991  0.13790092  1
  Se  Se9  1  0.42546997  0.85093995  0.81532189  1
  Se  Se10  1  0.57453003  0.14906005  0.18467811  1
  Se  Se11  1  0.14027004  0.28054009  0.86209908  1
