# generated using pymatgen
data_Bi(TeBr2)2
_symmetry_space_group_name_H-M   'P 1'
_cell_length_a   7.51445879
_cell_length_b   8.04406014
_cell_length_c   9.36347185
_cell_angle_alpha   91.57138099
_cell_angle_beta   102.75868947
_cell_angle_gamma   94.76176305
_symmetry_Int_Tables_number   1
_chemical_formula_structural   Bi(TeBr2)2
_chemical_formula_sum   'Bi2 Te4 Br8'
_cell_volume   549.50133019
_cell_formula_units_Z   2
loop_
 _symmetry_equiv_pos_site_id
 _symmetry_equiv_pos_as_xyz
  1  'x, y, z'
loop_
 _atom_site_type_symbol
 _atom_site_label
 _atom_site_symmetry_multiplicity
 _atom_site_fract_x
 _atom_site_fract_y
 _atom_site_fract_z
 _atom_site_occupancy
  Br  Br0  1  0.54230903  0.58926206  0.31117575  1
  Br  Br1  1  0.45769097  0.41073794  0.68882425  1
  Br  Br2  1  0.79104158  0.92944799  0.11861645  1
  Br  Br3  1  0.20895842  0.07055201  0.88138355  1
  Br  Br4  1  0.61794385  0.93381601  0.69729465  1
  Br  Br5  1  0.38205615  0.06618399  0.30270535  1
  Br  Br6  1  0.05295819  0.75679358  0.54026176  1
  Br  Br7  1  0.94704181  0.24320642  0.45973824  1
  Te  Te8  1  0.88406875  0.54728199  0.80192340  1
  Te  Te9  1  0.11593125  0.45271801  0.19807660  1
  Te  Te10  1  0.78179747  0.35886904  0.01151852  1
  Te  Te11  1  0.21820253  0.64113096  0.98848148  1
  Bi  Bi12  1  0.28746134  0.08481301  0.61283614  1
  Bi  Bi13  1  0.71253866  0.91518699  0.38716386  1
