# generated using pymatgen
data_LiMg6Zr
_symmetry_space_group_name_H-M   'P 1'
_cell_length_a   6.38233152
_cell_length_b   6.46358194
_cell_length_c   5.02747697
_cell_angle_alpha   90.00000000
_cell_angle_beta   90.00000000
_cell_angle_gamma   120.42202893
_symmetry_Int_Tables_number   1
_chemical_formula_structural   LiMg6Zr
_chemical_formula_sum   'Li1 Mg6 Zr1'
_cell_volume   178.84248143
_cell_formula_units_Z   1
loop_
 _symmetry_equiv_pos_site_id
 _symmetry_equiv_pos_as_xyz
  1  'x, y, z'
loop_
 _atom_site_type_symbol
 _atom_site_label
 _atom_site_symmetry_multiplicity
 _atom_site_fract_x
 _atom_site_fract_y
 _atom_site_fract_z
 _atom_site_occupancy
  Li  Li0  1  0.17070946  0.83535423  0.25000000  1
  Mg  Mg1  1  0.66366605  0.32736660  0.25000000  1
  Mg  Mg2  1  0.66366605  0.83629844  0.25000000  1
  Mg  Mg3  1  0.32935050  0.16471180  0.75000000  1
  Mg  Mg4  1  0.32935050  0.66463971  0.75000000  1
  Mg  Mg5  1  0.83735158  0.16867629  0.75000000  1
  Mg  Mg6  1  0.83683278  0.66841689  0.75000000  1
  Zr  Zr7  1  0.16907308  0.33453604  0.25000000  1
