# generated using pymatgen
data_BiI
_symmetry_space_group_name_H-M   'P 1'
_cell_length_a   4.40810218
_cell_length_b   8.27490817
_cell_length_c   21.61785084
_cell_angle_alpha   96.33830146
_cell_angle_beta   90.00000000
_cell_angle_gamma   105.44739592
_symmetry_Int_Tables_number   1
_chemical_formula_structural   BiI
_chemical_formula_sum   'Bi8 I8'
_cell_volume   755.05873937
_cell_formula_units_Z   8
loop_
 _symmetry_equiv_pos_site_id
 _symmetry_equiv_pos_as_xyz
  1  'x, y, z'
loop_
 _atom_site_type_symbol
 _atom_site_label
 _atom_site_symmetry_multiplicity
 _atom_site_fract_x
 _atom_site_fract_y
 _atom_site_fract_z
 _atom_site_occupancy
  I  I0  1  0.62311043  0.24622086  0.63823821  1
  I  I1  1  0.37688957  0.75377914  0.36176179  1
  I  I2  1  0.87612042  0.75224084  0.56990084  1
  I  I3  1  0.12387958  0.24775916  0.43009916  1
  I  I4  1  0.62389159  0.24778318  0.85463527  1
  I  I5  1  0.37610841  0.75221682  0.14536473  1
  I  I6  1  0.37520597  0.75041194  0.93052059  1
  I  I7  1  0.62479403  0.24958806  0.06947941  1
  Bi  Bi8  1  0.74647590  0.49295179  0.38792793  1
  Bi  Bi9  1  0.25352410  0.50704821  0.61207207  1
  Bi  Bi10  1  0.99621673  0.99243345  0.88732957  1
  Bi  Bi11  1  0.00378327  0.00756655  0.11267043  1
  Bi  Bi12  1  0.30646556  0.61293111  0.75438415  1
  Bi  Bi13  1  0.69353444  0.38706889  0.24561585  1
  Bi  Bi14  1  0.93765570  0.87531141  0.74600010  1
  Bi  Bi15  1  0.06234430  0.12468859  0.25399990  1
