# generated using pymatgen
data_K4MnCl6
_symmetry_space_group_name_H-M   'P 1'
_cell_length_a   8.98947540
_cell_length_b   8.98947541
_cell_length_c   8.98947540
_cell_angle_alpha   89.94070478
_cell_angle_beta   89.94070477
_cell_angle_gamma   89.94070478
_symmetry_Int_Tables_number   1
_chemical_formula_structural   K4MnCl6
_chemical_formula_sum   'K8 Mn2 Cl12'
_cell_volume   726.44434553
_cell_formula_units_Z   2
loop_
 _symmetry_equiv_pos_site_id
 _symmetry_equiv_pos_as_xyz
  1  'x, y, z'
loop_
 _atom_site_type_symbol
 _atom_site_label
 _atom_site_symmetry_multiplicity
 _atom_site_fract_x
 _atom_site_fract_y
 _atom_site_fract_z
 _atom_site_occupancy
  Cl  Cl0  1  0.75004502  0.75004502  0.46399040  1
  Cl  Cl1  1  0.75004502  0.46399040  0.75004502  1
  Cl  Cl2  1  0.46399040  0.75004502  0.75004502  1
  Cl  Cl3  1  0.03600960  0.74995498  0.74995498  1
  Cl  Cl4  1  0.74995498  0.74995498  0.03600960  1
  Cl  Cl5  1  0.74995498  0.03600960  0.74995498  1
  Cl  Cl6  1  0.24995498  0.24995498  0.53600960  1
  Cl  Cl7  1  0.24995498  0.53600960  0.24995498  1
  Cl  Cl8  1  0.53600960  0.24995498  0.24995498  1
  Cl  Cl9  1  0.96399040  0.25004502  0.25004502  1
  Cl  Cl10  1  0.25004502  0.96399040  0.25004502  1
  Cl  Cl11  1  0.25004502  0.25004502  0.96399040  1
  K  K12  1  0.50000000  0.00000000  0.50000000  1
  K  K13  1  0.00000000  0.50000000  0.50000000  1
  K  K14  1  0.50000000  0.50000000  0.00000000  1
  K  K15  1  0.00000000  0.50000000  0.00000000  1
  K  K16  1  0.50000000  0.00000000  0.00000000  1
  K  K17  1  0.00000000  0.00000000  0.50000000  1
  K  K18  1  0.50000000  0.50000000  0.50000000  1
  K  K19  1  0.00000000  0.00000000  0.00000000  1
  Mn  Mn20  1  0.75000000  0.75000000  0.75000000  1
  Mn  Mn21  1  0.25000000  0.25000000  0.25000000  1
