# generated using pymatgen
data_Li2CoP2O7
_symmetry_space_group_name_H-M   'P 1'
_cell_length_a   8.09132418
_cell_length_b   13.42746724
_cell_length_c   5.08475968
_cell_angle_alpha   90.00000000
_cell_angle_beta   92.59134577
_cell_angle_gamma   90.00000000
_symmetry_Int_Tables_number   1
_chemical_formula_structural   Li2CoP2O7
_chemical_formula_sum   'Li8 Co4 P8 O28'
_cell_volume   551.87383305
_cell_formula_units_Z   4
loop_
 _symmetry_equiv_pos_site_id
 _symmetry_equiv_pos_as_xyz
  1  'x, y, z'
loop_
 _atom_site_type_symbol
 _atom_site_label
 _atom_site_symmetry_multiplicity
 _atom_site_fract_x
 _atom_site_fract_y
 _atom_site_fract_z
 _atom_site_occupancy
  Li  Li0  1  0.13597118  0.88909976  0.16662429  1
  Li  Li1  1  0.86402885  0.11090020  0.83337584  1
  Li  Li2  1  0.83460514  0.69746929  0.25620026  1
  Li  Li3  1  0.66539492  0.19746893  0.24380043  1
  Li  Li4  1  0.63597120  0.61089981  0.66662436  1
  Li  Li5  1  0.16539489  0.30253067  0.74379988  1
  Li  Li6  1  0.33460511  0.80253103  0.75619971  1
  Li  Li7  1  0.36402884  0.38910015  0.33337577  1
  O  O8  1  0.18063454  0.03616303  0.40076376  1
  O  O9  1  0.87230725  0.89268171  0.14263803  1
  O  O10  1  0.92179927  0.43822250  0.22741315  1
  O  O11  1  0.95164767  0.28964706  0.52659657  1
  O  O12  1  0.04835236  0.71035290  0.47340357  1
  O  O13  1  0.07820076  0.56177746  0.77258699  1
  O  O14  1  0.12769279  0.10731825  0.85736211  1
  O  O15  1  0.15782925  0.73121686  0.95319770  1
  O  O16  1  0.14513720  0.30886342  0.14862045  1
  O  O17  1  0.42179923  0.06177711  0.72741457  1
  O  O18  1  0.21840316  0.92607247  0.81432654  1
  O  O19  1  0.28159684  0.42607212  0.68567305  1
  O  O20  1  0.31936548  0.53616338  0.09923631  1
  O  O21  1  0.85486283  0.69113655  0.85137969  1
  O  O22  1  0.35486282  0.80886302  0.35137962  1
  O  O23  1  0.37230721  0.60731860  0.64263748  1
  O  O24  1  0.84217079  0.26878310  0.04680047  1
  O  O25  1  0.45164766  0.21035330  0.02659650  1
  O  O26  1  0.54835238  0.78964666  0.97340364  1
  O  O27  1  0.57820080  0.93822286  0.27258556  1
  O  O28  1  0.62769282  0.39268136  0.35736266  1
  O  O29  1  0.64513722  0.19113694  0.64862052  1
  O  O30  1  0.65782928  0.76878271  0.45319825  1
  O  O31  1  0.68063456  0.46383658  0.90076383  1
  O  O32  1  0.71840319  0.57392784  0.31432709  1
  O  O33  1  0.78159687  0.07392749  0.18567359  1
  O  O34  1  0.81936549  0.96383693  0.59923638  1
  O  O35  1  0.34217075  0.23121725  0.54680189  1
  P  P36  1  0.46675825  0.17878774  0.73697223  1
  P  P37  1  0.53324178  0.82121222  0.26302790  1
  P  P38  1  0.72430824  0.47082198  0.19878197  1
  P  P39  1  0.77569183  0.97082233  0.30121675  1
  P  P40  1  0.03324175  0.67878735  0.76302736  1
  P  P41  1  0.22430820  0.02917763  0.69878339  1
  P  P42  1  0.27569180  0.52917798  0.80121817  1
  P  P43  1  0.96675828  0.32121261  0.23697278  1
  Co  Co44  1  0.76312115  0.83933969  0.79940400  1
  Co  Co45  1  0.73687890  0.33934008  0.70059620  1
  Co  Co46  1  0.26312114  0.66065988  0.29940394  1
  Co  Co47  1  0.23687888  0.16066027  0.20059613  1
