# generated using pymatgen
data_Li2Mn3(P2O7)2
_symmetry_space_group_name_H-M   'P 1'
_cell_length_a   5.67597746
_cell_length_b   7.02398472
_cell_length_c   7.52944529
_cell_angle_alpha   73.95902614
_cell_angle_beta   82.19296839
_cell_angle_gamma   67.45245800
_symmetry_Int_Tables_number   1
_chemical_formula_structural   Li2Mn3(P2O7)2
_chemical_formula_sum   'Li2 Mn3 P4 O14'
_cell_volume   266.29274716
_cell_formula_units_Z   1
loop_
 _symmetry_equiv_pos_site_id
 _symmetry_equiv_pos_as_xyz
  1  'x, y, z'
loop_
 _atom_site_type_symbol
 _atom_site_label
 _atom_site_symmetry_multiplicity
 _atom_site_fract_x
 _atom_site_fract_y
 _atom_site_fract_z
 _atom_site_occupancy
  Li  Li0  1  0.64754612  0.02683092  0.69080567  1
  Li  Li1  1  0.35245262  0.97316889  0.30919431  1
  O  O2  1  0.33366151  0.26959106  0.14234660  1
  O  O3  1  0.94347434  0.35419563  0.44421422  1
  O  O4  1  0.66633901  0.73040874  0.85765453  1
  O  O5  1  0.16861278  0.23966129  0.85493575  1
  O  O6  1  0.05652440  0.64580418  0.55578576  1
  O  O7  1  0.83138706  0.76034012  0.14506372  1
  O  O8  1  0.02735593  0.93700911  0.71572496  1
  O  O9  1  0.26137083  0.56574893  0.86095313  1
  O  O10  1  0.55638542  0.26241197  0.44622261  1
  O  O11  1  0.97264213  0.06299229  0.28427469  1
  O  O12  1  0.62830355  0.22713226  0.85429385  1
  O  O13  1  0.44361510  0.73758783  0.55377718  1
  O  O14  1  0.73862791  0.43425087  0.13904684  1
  O  O15  1  0.37169519  0.77286754  0.14570747  1
  P  P16  1  0.80656319  0.26612328  0.34135212  1
  P  P17  1  0.65053803  0.68828827  0.06699426  1
  P  P18  1  0.34946181  0.31171312  0.93300654  1
  P  P19  1  0.19343734  0.73387653  0.65864768  1
  Mn  Mn20  1  0.00000000  0.00000000  0.00000000  1
  Mn  Mn21  1  0.20535378  0.51042134  0.31430182  1
  Mn  Mn22  1  0.79464674  0.48957846  0.68569931  1
