# generated using pymatgen
data_Li3Cr(PO4)2
_symmetry_space_group_name_H-M   'P 1'
_cell_length_a   4.93331466
_cell_length_b   17.74139805
_cell_length_c   6.38233642
_cell_angle_alpha   89.99996405
_cell_angle_beta   93.14067714
_cell_angle_gamma   90.00010934
_symmetry_Int_Tables_number   1
_chemical_formula_structural   Li3Cr(PO4)2
_chemical_formula_sum   'Li12 Cr4 P8 O32'
_cell_volume   557.76795595
_cell_formula_units_Z   4
loop_
 _symmetry_equiv_pos_site_id
 _symmetry_equiv_pos_as_xyz
  1  'x, y, z'
loop_
 _atom_site_type_symbol
 _atom_site_label
 _atom_site_symmetry_multiplicity
 _atom_site_fract_x
 _atom_site_fract_y
 _atom_site_fract_z
 _atom_site_occupancy
  Li  Li0  1  0.18528894  0.69871131  0.81240425  1
  Li  Li1  1  0.81471423  0.30128804  0.18760262  1
  Li  Li2  1  0.78055379  0.11582547  0.50333390  1
  Li  Li3  1  0.71944705  0.61582533  0.99666898  1
  Li  Li4  1  0.72047359  0.94255630  0.71481649  1
  Li  Li5  1  0.21944654  0.88417418  0.49666879  1
  Li  Li6  1  0.28055545  0.38417472  0.00333399  1
  Li  Li7  1  0.27952752  0.05744254  0.28518713  1
  Li  Li8  1  0.22047947  0.55744292  0.21481966  1
  Li  Li9  1  0.31471376  0.19871378  0.68760186  1
  Li  Li10  1  0.68528691  0.80128573  0.31240553  1
  Li  Li11  1  0.77952383  0.44255673  0.78518713  1
  O  O12  1  0.13660079  0.06388012  0.57221983  1
  O  O13  1  0.91225469  0.56014554  0.72412346  1
  O  O14  1  0.97355817  0.30699235  0.50926454  1
  O  O15  1  0.98452644  0.80067542  0.82186787  1
  O  O16  1  0.01547134  0.19932492  0.17813197  1
  O  O17  1  0.02643954  0.69300658  0.49073861  1
  O  O18  1  0.08774438  0.43985298  0.27587816  1
  O  O19  1  0.05794988  0.67191559  0.09910324  1
  O  O20  1  0.14555375  0.06721359  0.96924999  1
  O  O21  1  0.44204954  0.17191941  0.40090316  1
  O  O22  1  0.11988948  0.80275657  0.26334924  1
  O  O23  1  0.21442354  0.44667552  0.72129470  1
  O  O24  1  0.28557147  0.94667760  0.77870631  1
  O  O25  1  0.85444315  0.93278833  0.03075110  1
  O  O26  1  0.35445242  0.56721091  0.53075331  1
  O  O27  1  0.38011041  0.30275847  0.23665325  1
  O  O28  1  0.94205005  0.32808397  0.90090315  1
  O  O29  1  0.41224851  0.93985444  0.22411944  1
  O  O30  1  0.51546807  0.30067921  0.67813519  1
  O  O31  1  0.47357047  0.19300993  0.00926619  1
  O  O32  1  0.52642746  0.80699131  0.99073483  1
  O  O33  1  0.48453215  0.69932060  0.32186960  1
  O  O34  1  0.58774934  0.06014650  0.77587967  1
  O  O35  1  0.55794919  0.82808223  0.59910347  1
  O  O36  1  0.61988938  0.69724085  0.76334548  1
  O  O37  1  0.64554306  0.43278728  0.46924946  1
  O  O38  1  0.63659521  0.43612122  0.07222015  1
  O  O39  1  0.71442727  0.05332399  0.22129456  1
  O  O40  1  0.78557880  0.55332297  0.27870623  1
  O  O41  1  0.88011193  0.19724452  0.73665412  1
  O  O42  1  0.86339714  0.93612187  0.42778323  1
  O  O43  1  0.36340121  0.56387870  0.92778291  1
  P  P44  1  0.32707443  0.21534922  0.21072099  1
  P  P45  1  0.67292017  0.78465011  0.78928248  1
  P  P46  1  0.72047797  0.96449917  0.22677353  1
  P  P47  1  0.77951121  0.46449732  0.27323234  1
  P  P48  1  0.17293317  0.71534603  0.28928437  1
  P  P49  1  0.22048832  0.53550088  0.72677201  1
  P  P50  1  0.27951879  0.03550206  0.77322962  1
  P  P51  1  0.82706637  0.28465410  0.71072242  1
  Cr  Cr52  1  0.80221839  0.12759446  0.98416726  1
  Cr  Cr53  1  0.69770395  0.62758532  0.51577068  1
  Cr  Cr54  1  0.30228092  0.37239886  0.48420229  1
  Cr  Cr55  1  0.19782421  0.87242359  0.01578278  1
