# generated using pymatgen
data_LiFeP2O7
_symmetry_space_group_name_H-M   'P 1'
_cell_length_a   8.45541100
_cell_length_b   5.06014173
_cell_length_c   12.23864765
_cell_angle_alpha   90.00000000
_cell_angle_beta   78.48867620
_cell_angle_gamma   90.00000000
_symmetry_Int_Tables_number   1
_chemical_formula_structural   LiFeP2O7
_chemical_formula_sum   'Li4 Fe4 P8 O28'
_cell_volume   513.10479159
_cell_formula_units_Z   4
loop_
 _symmetry_equiv_pos_site_id
 _symmetry_equiv_pos_as_xyz
  1  'x, y, z'
loop_
 _atom_site_type_symbol
 _atom_site_label
 _atom_site_symmetry_multiplicity
 _atom_site_fract_x
 _atom_site_fract_y
 _atom_site_fract_z
 _atom_site_occupancy
  Li  Li0  1  0.12097735  0.27342777  0.29561045  1
  Li  Li1  1  0.87902279  0.72657282  0.70438943  1
  Li  Li2  1  0.62097682  0.22657253  0.79561048  1
  Li  Li3  1  0.37902211  0.77342609  0.20438958  1
  O  O4  1  0.41032263  0.15905462  0.11710205  1
  O  O5  1  0.91032210  0.34094567  0.61710208  1
  O  O6  1  0.83551166  0.45297118  0.85773022  1
  O  O7  1  0.90472836  0.96596815  0.84113876  1
  O  O8  1  0.09527178  0.03403244  0.15886112  1
  O  O9  1  0.16448848  0.54702941  0.14226966  1
  O  O10  1  0.08967804  0.65905492  0.38289780  1
  O  O11  1  0.09413811  0.93434799  0.59188325  1
  O  O12  1  0.10547317  0.29051904  0.74167040  1
  O  O13  1  0.21450663  0.38945368  0.54348366  1
  O  O14  1  0.06332370  0.28003053  0.94726451  1
  O  O15  1  0.60547289  0.20948126  0.24167005  1
  O  O16  1  0.33551098  0.04702912  0.35773037  1
  O  O17  1  0.40472769  0.53403273  0.34113891  1
  O  O18  1  0.43667552  0.78003083  0.55273589  1
  O  O19  1  0.89452697  0.70948155  0.25832948  1
  O  O20  1  0.28549259  0.88945397  0.95651674  1
  O  O21  1  0.39452725  0.79051933  0.75832983  1
  O  O22  1  0.90586203  0.06565260  0.40811663  1
  O  O23  1  0.71450634  0.11054662  0.04348331  1
  O  O24  1  0.40586111  0.43434769  0.90811715  1
  O  O25  1  0.56332462  0.21996976  0.44726398  1
  O  O26  1  0.59527245  0.46596786  0.65886097  1
  O  O27  1  0.66448918  0.95296950  0.64227033  1
  O  O28  1  0.58967751  0.84094597  0.88289783  1
  O  O29  1  0.93667526  0.71997006  0.05273636  1
  O  O30  1  0.78549352  0.61054691  0.45651622  1
  O  O31  1  0.59413903  0.56565092  0.09188273  1
  P  P32  1  0.58116492  0.26656645  0.11575307  1
  P  P33  1  0.41883523  0.73343415  0.88424681  1
  P  P34  1  0.52848279  0.74450688  0.64515813  1
  P  P35  1  0.91883494  0.76656674  0.38424646  1
  P  P36  1  0.02848212  0.75549400  0.14515828  1
  P  P37  1  0.08116520  0.23343385  0.61575341  1
  P  P38  1  0.47151735  0.25549371  0.35484175  1
  P  P39  1  0.97151804  0.24450659  0.85484242  1
  Fe  Fe40  1  0.76347917  0.76105269  0.97150906  1
  Fe  Fe41  1  0.73652165  0.26105437  0.52849067  1
  Fe  Fe42  1  0.26347850  0.73894623  0.47150921  1
  Fe  Fe43  1  0.23652097  0.23894593  0.02849082  1
