# generated using pymatgen
data_Li3Cr3(PO4)4
_symmetry_space_group_name_H-M   'P 1'
_cell_length_a   7.59942534
_cell_length_b   8.00715770
_cell_length_c   10.16606879
_cell_angle_alpha   90.00000000
_cell_angle_beta   93.64530320
_cell_angle_gamma   90.00000000
_symmetry_Int_Tables_number   1
_chemical_formula_structural   Li3Cr3(PO4)4
_chemical_formula_sum   'Li6 Cr6 P8 O32'
_cell_volume   617.35164622
_cell_formula_units_Z   2
loop_
 _symmetry_equiv_pos_site_id
 _symmetry_equiv_pos_as_xyz
  1  'x, y, z'
loop_
 _atom_site_type_symbol
 _atom_site_label
 _atom_site_symmetry_multiplicity
 _atom_site_fract_x
 _atom_site_fract_y
 _atom_site_fract_z
 _atom_site_occupancy
  Li  Li0  1  0.10530296  0.35988266  0.79861862  1
  Li  Li1  1  0.91108943  0.63187518  0.20336529  1
  Li  Li2  1  0.58891042  0.13187522  0.54663551  1
  Li  Li3  1  0.40086256  0.86439363  0.45075747  1
  Li  Li4  1  0.39469791  0.85988261  0.95138193  1
  Li  Li5  1  0.09913740  0.36439368  0.29924179  1
  O  O6  1  0.23908292  0.87763702  0.77043270  1
  O  O7  1  0.89152190  0.80161414  0.84631742  1
  O  O8  1  0.85050108  0.43084643  0.28243027  1
  O  O9  1  0.89957735  0.80184687  0.34861173  1
  O  O10  1  0.94094826  0.85055702  0.59617993  1
  O  O11  1  0.94861734  0.85511422  0.08953928  1
  O  O12  1  0.06041461  0.14422530  0.91045789  1
  O  O13  1  0.05325323  0.13748404  0.40808639  1
  O  O14  1  0.10318463  0.19855109  0.65084226  1
  O  O15  1  0.13666109  0.58002896  0.73062001  1
  O  O16  1  0.12013393  0.19012544  0.15367125  1
  O  O17  1  0.15136351  0.56766303  0.21984400  1
  O  O18  1  0.39681533  0.69855230  0.09915798  1
  O  O19  1  0.26091663  0.37763707  0.97956779  1
  O  O20  1  0.25363443  0.37010059  0.47906392  1
  O  O21  1  0.24636553  0.87010054  0.27093632  1
  O  O22  1  0.75790442  0.13051864  0.22264061  1
  O  O23  1  0.37986604  0.69012539  0.59632899  1
  O  O24  1  0.36333888  0.08002901  0.01938023  1
  O  O25  1  0.43958494  0.64422525  0.83954260  1
  O  O26  1  0.84645465  0.43039366  0.77886765  1
  O  O27  1  0.44674674  0.63748399  0.34191286  1
  O  O28  1  0.55138251  0.35511426  0.66046053  1
  O  O29  1  0.60847753  0.30161419  0.90368265  1
  O  O30  1  0.55905159  0.35055707  0.15381988  1
  O  O31  1  0.65354611  0.93039362  0.97113248  1
  O  O32  1  0.60042249  0.30184692  0.40138907  1
  O  O33  1  0.64949877  0.93084638  0.46756954  1
  O  O34  1  0.74209543  0.63051860  0.52735921  1
  O  O35  1  0.76350522  0.12767919  0.73165067  1
  O  O36  1  0.73649462  0.62767914  0.01834914  1
  O  O37  1  0.34863645  0.06766308  0.53015624  1
  P  P38  1  0.20118021  0.19999669  0.01866281  1
  P  P39  1  0.29881975  0.69999664  0.73133644  1
  P  P40  1  0.30270991  0.68841176  0.23229388  1
  P  P41  1  0.69438256  0.30240264  0.76520206  1
  P  P42  1  0.69961715  0.31215316  0.27527094  1
  P  P43  1  0.80561820  0.80240259  0.98479807  1
  P  P44  1  0.19729006  0.18841181  0.51770635  1
  P  P45  1  0.80038270  0.81215311  0.47472887  1
  Cr  Cr46  1  0.89278714  0.64256372  0.69628094  1
  Cr  Cr47  1  0.60721271  0.14256377  0.05371887  1
  Cr  Cr48  1  0.49303531  0.51003330  0.00077164  1
  Cr  Cr49  1  0.48352068  0.49390420  0.49881153  1
  Cr  Cr50  1  0.01647928  0.99390415  0.25118772  1
  Cr  Cr51  1  0.00696465  0.01003335  0.74922859  1
