# generated using pymatgen
data_UP2O7
_symmetry_space_group_name_H-M   'P 1'
_cell_length_a   7.11779240
_cell_length_b   11.69727699
_cell_length_c   12.97033628
_cell_angle_alpha   90.00000000
_cell_angle_beta   90.00000000
_cell_angle_gamma   90.00000000
_symmetry_Int_Tables_number   1
_chemical_formula_structural   UP2O7
_chemical_formula_sum   'U8 P16 O56'
_cell_volume   1079.89449497
_cell_formula_units_Z   8
loop_
 _symmetry_equiv_pos_site_id
 _symmetry_equiv_pos_as_xyz
  1  'x, y, z'
loop_
 _atom_site_type_symbol
 _atom_site_label
 _atom_site_symmetry_multiplicity
 _atom_site_fract_x
 _atom_site_fract_y
 _atom_site_fract_z
 _atom_site_occupancy
  O  O0  1  0.45680896  0.19058174  0.56559313  1
  O  O1  1  0.95680896  0.80941826  0.43440687  1
  O  O2  1  0.95680896  0.30941826  0.06559313  1
  O  O3  1  0.45680896  0.69058174  0.93440687  1
  O  O4  1  0.76331456  0.16087301  0.48502978  1
  O  O5  1  0.26331456  0.83912699  0.51497022  1
  O  O6  1  0.26331456  0.33912699  0.98502978  1
  O  O7  1  0.76331456  0.66087301  0.01497022  1
  O  O8  1  0.69229384  0.04884457  0.64297687  1
  O  O9  1  0.19229384  0.95115543  0.35702313  1
  O  O10  1  0.19229384  0.45115543  0.14297687  1
  O  O11  1  0.69229384  0.54884457  0.85702313  1
  O  O12  1  0.74138748  0.26356163  0.65739115  1
  O  O13  1  0.24138748  0.73643837  0.34260885  1
  O  O14  1  0.24138748  0.23643837  0.15739115  1
  O  O15  1  0.74138748  0.76356163  0.84260885  1
  O  O16  1  0.65917039  0.36791079  0.98774763  1
  O  O17  1  0.15917039  0.63208921  0.01225237  1
  O  O18  1  0.15917039  0.13208921  0.48774763  1
  O  O19  1  0.72501898  0.42465311  0.17424370  1
  O  O20  1  0.65917039  0.86791079  0.51225237  1
  O  O21  1  0.16528888  0.78439954  0.87070137  1
  O  O22  1  0.16528888  0.28439954  0.62929863  1
  O  O23  1  0.66528888  0.71560046  0.37070137  1
  O  O24  1  0.88057216  0.98855212  0.82718047  1
  O  O25  1  0.38057216  0.01144788  0.17281953  1
  O  O26  1  0.38057216  0.51144788  0.32718047  1
  O  O27  1  0.88057216  0.48855212  0.67281953  1
  O  O28  1  0.53245981  0.98444981  0.83584096  1
  O  O29  1  0.03245981  0.01555019  0.16415904  1
  O  O30  1  0.03245981  0.51555019  0.33584096  1
  O  O31  1  0.53245981  0.48444981  0.66415904  1
  O  O32  1  0.71863922  0.02634381  0.99948885  1
  O  O33  1  0.21863922  0.97365619  0.00051115  1
  O  O34  1  0.21863922  0.47365619  0.49948885  1
  O  O35  1  0.71863922  0.52634381  0.50051115  1
  O  O36  1  0.70246245  0.17471352  0.85820733  1
  O  O37  1  0.20246245  0.82528648  0.14179267  1
  O  O38  1  0.20246245  0.32528648  0.35820733  1
  O  O39  1  0.70246245  0.67471352  0.64179267  1
  O  O40  1  0.03228146  0.35163646  0.83457009  1
  O  O41  1  0.53228146  0.64836354  0.16542991  1
  O  O42  1  0.53228146  0.14836354  0.33457009  1
  O  O43  1  0.03228146  0.85163646  0.66542991  1
  O  O44  1  0.20332934  0.16436070  0.87539227  1
  O  O45  1  0.70332934  0.83563930  0.12460773  1
  O  O46  1  0.70332934  0.33563930  0.37539227  1
  O  O47  1  0.20332934  0.66436070  0.62460773  1
  O  O48  1  0.37788271  0.34121172  0.80577521  1
  O  O49  1  0.87788271  0.65878828  0.19422479  1
  O  O50  1  0.87788271  0.15878828  0.30577521  1
  O  O51  1  0.37788271  0.84121172  0.69422479  1
  O  O52  1  0.72501898  0.92465311  0.32575630  1
  O  O53  1  0.22501898  0.07534689  0.67424370  1
  O  O54  1  0.22501898  0.57534689  0.82575630  1
  O  O55  1  0.66528888  0.21560046  0.12929863  1
  P  P56  1  0.66610352  0.16474793  0.59548973  1
  P  P57  1  0.16610352  0.83525207  0.40451027  1
  P  P58  1  0.16610352  0.33525207  0.09548973  1
  P  P59  1  0.66610352  0.66474793  0.90451027  1
  P  P60  1  0.73612954  0.33128064  0.09220610  1
  P  P61  1  0.23612954  0.66871936  0.90779390  1
  P  P62  1  0.23612954  0.16871936  0.59220610  1
  P  P63  1  0.73612954  0.83128064  0.40779390  1
  P  P64  1  0.21461784  0.79287962  0.62849060  1
  P  P65  1  0.71461784  0.20712038  0.37150940  1
  P  P66  1  0.71461784  0.70712038  0.12849060  1
  P  P67  1  0.21461784  0.29287962  0.87150940  1
  P  P68  1  0.70870432  0.54622238  0.61682927  1
  P  P69  1  0.20870432  0.45377762  0.38317073  1
  P  P70  1  0.20870432  0.95377762  0.11682927  1
  P  P71  1  0.70870432  0.04622238  0.88317073  1
  U  U72  1  0.70973003  0.35933852  0.81282781  1
  U  U73  1  0.20973003  0.64066148  0.18717219  1
  U  U74  1  0.20973003  0.14066148  0.31282781  1
  U  U75  1  0.70973003  0.85933852  0.68717219  1
  U  U76  1  0.20780452  0.97471166  0.82737776  1
  U  U77  1  0.70780452  0.02528834  0.17262224  1
  U  U78  1  0.70780452  0.52528834  0.32737776  1
  U  U79  1  0.20780452  0.47471166  0.67262224  1
