# generated using pymatgen
data_LiCr2(PO4)3
_symmetry_space_group_name_H-M   'P 1'
_cell_length_a   8.54632195
_cell_length_b   8.48385179
_cell_length_c   12.14500977
_cell_angle_alpha   90.00000000
_cell_angle_beta   89.62301026
_cell_angle_gamma   90.00000000
_symmetry_Int_Tables_number   1
_chemical_formula_structural   LiCr2(PO4)3
_chemical_formula_sum   'Li4 Cr8 P12 O48'
_cell_volume   880.56372355
_cell_formula_units_Z   4
loop_
 _symmetry_equiv_pos_site_id
 _symmetry_equiv_pos_as_xyz
  1  'x, y, z'
loop_
 _atom_site_type_symbol
 _atom_site_label
 _atom_site_symmetry_multiplicity
 _atom_site_fract_x
 _atom_site_fract_y
 _atom_site_fract_z
 _atom_site_occupancy
  Li  Li0  1  0.00000000  0.00000000  0.00000000  1
  Li  Li1  1  0.49999961  0.50000048  0.50000042  1
  Li  Li2  1  0.49999976  0.50000048  0.99999992  1
  Li  Li3  1  0.99999985  0.00000000  0.49999966  1
  O  O4  1  0.24812249  0.57433833  0.98757622  1
  O  O5  1  0.87770161  0.30837462  0.81244205  1
  O  O6  1  0.84881097  0.82619433  0.59005663  1
  O  O7  1  0.84881112  0.17380545  0.09005614  1
  O  O8  1  0.87770176  0.69162516  0.31244156  1
  O  O9  1  0.92423532  0.10398601  0.66088723  1
  O  O10  1  0.97365337  0.40161329  0.40335385  1
  O  O11  1  0.97365441  0.59838649  0.90335351  1
  O  O12  1  0.02634600  0.40161329  0.09664649  1
  O  O13  1  0.02634585  0.59838649  0.59664615  1
  O  O14  1  0.07576508  0.89601494  0.33911276  1
  O  O15  1  0.07576493  0.10398601  0.83911326  1
  O  O16  1  0.12229879  0.69162516  0.18755794  1
  O  O17  1  0.12229864  0.30837462  0.68755844  1
  O  O18  1  0.15118944  0.17380545  0.40994336  1
  O  O19  1  0.15118929  0.82619433  0.90994386  1
  O  O20  1  0.22342547  0.40917569  0.28639490  1
  O  O21  1  0.25136735  0.07397855  0.01298496  1
  O  O22  1  0.22342532  0.59082409  0.78639456  1
  O  O23  1  0.24812264  0.42566145  0.48757573  1
  O  O24  1  0.25136720  0.92602241  0.51298462  1
  O  O25  1  0.92423548  0.89601494  0.16088674  1
  O  O26  1  0.27971105  0.09246092  0.21412654  1
  O  O27  1  0.27971090  0.90753886  0.71412620  1
  O  O28  1  0.34832462  0.32725428  0.08955847  1
  O  O29  1  0.34832447  0.67274667  0.58955813  1
  O  O30  1  0.37829069  0.81012480  0.31298606  1
  O  O31  1  0.37829054  0.18987498  0.81298655  1
  O  O32  1  0.42420197  0.60561998  0.16095079  1
  O  O33  1  0.42420182  0.39438098  0.66095045  1
  O  O34  1  0.47294122  0.10041202  0.40561368  1
  O  O35  1  0.47294107  0.89958894  0.90561334  1
  O  O36  1  0.52705934  0.10041202  0.09438666  1
  O  O37  1  0.52705919  0.89958894  0.59438631  1
  O  O38  1  0.57579740  0.60561998  0.33904955  1
  O  O39  1  0.57579844  0.39438098  0.83904920  1
  O  O40  1  0.62170986  0.81012480  0.18701344  1
  O  O41  1  0.62170971  0.18987498  0.68701394  1
  O  O42  1  0.65167594  0.32725428  0.41044187  1
  O  O43  1  0.65167579  0.67274667  0.91044153  1
  O  O44  1  0.72028832  0.09246092  0.28587380  1
  O  O45  1  0.72028936  0.90753886  0.78587345  1
  O  O46  1  0.77657494  0.59082409  0.71360510  1
  O  O47  1  0.74863202  0.07397855  0.48701538  1
  O  O48  1  0.75187777  0.57433833  0.51242427  1
  O  O49  1  0.77657509  0.40917569  0.21360544  1
  O  O50  1  0.74863305  0.92602241  0.98701504  1
  O  O51  1  0.75187792  0.42566145  0.01242378  1
  P  P52  1  0.35410413  0.14432203  0.10543814  1
  P  P53  1  0.35410516  0.85567892  0.60543863  1
  P  P54  1  0.14633174  0.64322305  0.89414810  1
  P  P55  1  0.49999969  0.71006666  0.24999975  1
  P  P56  1  0.49999954  0.28993312  0.75000025  1
  P  P57  1  0.64589525  0.14432203  0.39456137  1
  P  P58  1  0.64589510  0.85567892  0.89456186  1
  P  P59  1  0.85366867  0.35677673  0.10585189  1
  P  P60  1  0.99999993  0.79166181  0.24999983  1
  P  P61  1  0.99999978  0.20833798  0.75000032  1
  P  P62  1  0.14633189  0.35677673  0.39414761  1
  P  P63  1  0.85366852  0.64322305  0.60585239  1
  Cr  Cr64  1  0.78126067  0.49973148  0.85908156  1
  Cr  Cr65  1  0.78126082  0.50026830  0.35908190  1
  Cr  Cr66  1  0.71832679  0.99873813  0.64027483  1
  Cr  Cr67  1  0.71832694  0.00126165  0.14027518  1
  Cr  Cr68  1  0.28167347  0.99873813  0.85972482  1
  Cr  Cr69  1  0.28167243  0.00126165  0.35972516  1
  Cr  Cr70  1  0.21873959  0.49973148  0.64091810  1
  Cr  Cr71  1  0.21873974  0.50026830  0.14091844  1
