# generated using pymatgen
data_LiFe3(P3O10)2
_symmetry_space_group_name_H-M   'P 1'
_cell_length_a   8.43782036
_cell_length_b   8.43782037
_cell_length_c   12.30987853
_cell_angle_alpha   90.00000000
_cell_angle_beta   90.00000000
_cell_angle_gamma   75.05486452
_symmetry_Int_Tables_number   1
_chemical_formula_structural   LiFe3(P3O10)2
_chemical_formula_sum   'Li2 Fe6 P12 O40'
_cell_volume   846.77750796
_cell_formula_units_Z   2
loop_
 _symmetry_equiv_pos_site_id
 _symmetry_equiv_pos_as_xyz
  1  'x, y, z'
loop_
 _atom_site_type_symbol
 _atom_site_label
 _atom_site_symmetry_multiplicity
 _atom_site_fract_x
 _atom_site_fract_y
 _atom_site_fract_z
 _atom_site_occupancy
  Li  Li0  1  0.41130835  0.58869203  0.50000000  1
  Li  Li1  1  0.58869174  0.41130831  0.00000000  1
  O  O2  1  0.22480222  0.47223226  0.80109424  1
  O  O3  1  0.96565797  0.36089429  0.44085158  1
  O  O4  1  0.72857548  0.25854750  0.10880456  1
  O  O5  1  0.74145160  0.27142494  0.89119544  1
  O  O6  1  0.63910554  0.03434285  0.55914842  1
  O  O7  1  0.83534417  0.21523673  0.30538067  1
  O  O8  1  0.21523665  0.83534361  0.19461933  1
  O  O9  1  0.16465592  0.78476362  0.80538067  1
  O  O10  1  0.03434244  0.63910483  0.94085158  1
  O  O11  1  0.36089455  0.96565749  0.05914842  1
  O  O12  1  0.25854849  0.72857540  0.39119544  1
  O  O13  1  0.27142492  0.74145161  0.60880456  1
  O  O14  1  0.65810655  0.94464057  0.75872693  1
  O  O15  1  0.05535900  0.34189365  0.24127308  1
  O  O16  1  0.00152064  0.26233107  0.79365410  1
  O  O17  1  0.73766852  0.99847986  0.20634590  1
  O  O18  1  0.27405110  0.53723996  0.23128550  1
  O  O19  1  0.46276006  0.72594888  0.76871450  1
  O  O20  1  0.78476375  0.16465551  0.69461933  1
  O  O21  1  0.52776741  0.77519771  0.19890577  1
  O  O22  1  0.68203212  0.84770501  0.39709459  1
  O  O23  1  0.15229467  0.31796766  0.60290541  1
  O  O24  1  0.84808420  0.91862005  0.97339513  1
  O  O25  1  0.08138018  0.15191565  0.02660487  1
  O  O26  1  0.94463990  0.65810670  0.74127308  1
  O  O27  1  0.27402103  0.31651140  0.41525255  1
  O  O28  1  0.31651120  0.27402182  0.08474745  1
  O  O29  1  0.72597788  0.68348896  0.91525255  1
  O  O30  1  0.15191589  0.08138029  0.47339513  1
  O  O31  1  0.91862022  0.84808347  0.52660487  1
  O  O32  1  0.31796797  0.15229534  0.89709459  1
  O  O33  1  0.84770541  0.68203268  0.10290541  1
  O  O34  1  0.77519818  0.52776686  0.30109423  1
  O  O35  1  0.47223268  0.22480263  0.69890577  1
  O  O36  1  0.53723915  0.27405025  0.26871450  1
  O  O37  1  0.72594899  0.46276039  0.73128550  1
  O  O38  1  0.26233157  0.00152049  0.70634590  1
  O  O39  1  0.99847945  0.73766928  0.29365410  1
  O  O40  1  0.34189354  0.05535978  0.25872693  1
  O  O41  1  0.68348889  0.72597852  0.58474745  1
  P  P42  1  0.85174786  0.73537685  0.98629553  1
  P  P43  1  0.26462289  0.14825190  0.01370447  1
  P  P44  1  0.69914715  0.18205545  0.22162905  1
  P  P45  1  0.73537601  0.85174846  0.51370448  1
  P  P46  1  0.81794392  0.30085295  0.77837096  1
  P  P47  1  0.90948003  0.37241939  0.31577468  1
  P  P48  1  0.09052006  0.62758095  0.81577468  1
  P  P49  1  0.37241945  0.90947901  0.18422532  1
  P  P50  1  0.30085325  0.81794366  0.72162905  1
  P  P51  1  0.18205617  0.69914740  0.27837095  1
  P  P52  1  0.14825223  0.26462350  0.48629553  1
  P  P53  1  0.62758095  0.09052010  0.68422532  1
  Fe  Fe54  1  0.87255053  0.12744967  0.00000000  1
  Fe  Fe55  1  0.76194184  0.76194265  0.24999960  1
  Fe  Fe56  1  0.70072762  0.70072724  0.74999960  1
  Fe  Fe57  1  0.29927247  0.29927311  0.24999960  1
  Fe  Fe58  1  0.23805825  0.23805770  0.74999960  1
  Fe  Fe59  1  0.12744956  0.87255068  0.50000000  1
