# generated using pymatgen
data_MgAl2O4
_symmetry_space_group_name_H-M   'P 1'
_cell_length_a   5.76456974
_cell_length_b   5.76343035
_cell_length_c   17.34589799
_cell_angle_alpha   60.10115408
_cell_angle_beta   60.09922504
_cell_angle_gamma   59.99329188
_symmetry_Int_Tables_number   1
_chemical_formula_structural   MgAl2O4
_chemical_formula_sum   'Mg6 Al12 O24'
_cell_volume   408.09725278
_cell_formula_units_Z   6
loop_
 _symmetry_equiv_pos_site_id
 _symmetry_equiv_pos_as_xyz
  1  'x, y, z'
loop_
 _atom_site_type_symbol
 _atom_site_label
 _atom_site_symmetry_multiplicity
 _atom_site_fract_x
 _atom_site_fract_y
 _atom_site_fract_z
 _atom_site_occupancy
  Al  Al0  1  0.49602883  0.01041080  0.16584608  1
  Al  Al1  1  0.00530791  0.49673533  0.50035727  1
  Al  Al2  1  0.49606331  0.49600397  0.16585298  1
  Al  Al3  1  0.49682358  0.00539550  0.50031262  1
  Al  Al4  1  0.49688799  0.49677155  0.50034433  1
  Al  Al5  1  0.01037974  0.49598941  0.16586693  1
  Al  Al6  1  0.50208554  0.50220040  0.66453756  1
  Al  Al7  1  0.49878698  0.00658375  0.83193985  1
  Al  Al8  1  0.88100469  0.88091987  0.28568081  1
  Al  Al9  1  0.49884019  0.49885566  0.83191236  1
  Al  Al10  1  0.00656922  0.49879074  0.83194603  1
  Al  Al11  1  0.87681868  0.87678342  0.95651144  1
  Mg  Mg12  1  0.12163398  0.12175761  0.04500471  1
  Mg  Mg13  1  0.49853704  0.49849424  0.00147124  1
  Mg  Mg14  1  0.12111588  0.12129021  0.37881715  1
  Mg  Mg15  1  0.49745511  0.49730163  0.33591852  1
  Mg  Mg16  1  0.12384868  0.12391977  0.70945951  1
  Mg  Mg17  1  0.87793937  0.87788340  0.62209253  1
  O  O18  1  0.25351721  0.25352043  0.09351294  1
  O  O19  1  0.26004764  0.26004687  0.23996291  1
  O  O20  1  0.25348301  0.71245681  0.09353090  1
  O  O21  1  0.71244909  0.25352186  0.09350789  1
  O  O22  1  0.27175394  0.75109408  0.24201287  1
  O  O23  1  0.24988045  0.24984442  0.42960460  1
  O  O24  1  0.74523225  0.74522375  0.08811893  1
  O  O25  1  0.75114747  0.27171312  0.24199726  1
  O  O26  1  0.25986920  0.25990912  0.57344655  1
  O  O27  1  0.24983058  0.71138126  0.42964424  1
  O  O28  1  0.75110199  0.75108318  0.24201475  1
  O  O29  1  0.71143731  0.24984807  0.42960450  1
  O  O30  1  0.26562793  0.26561761  0.75359433  1
  O  O31  1  0.29609700  0.73479007  0.57812878  1
  O  O32  1  0.74979378  0.74976335  0.41686935  1
  O  O33  1  0.26558445  0.70801759  0.75360163  1
  O  O34  1  0.73474761  0.29614672  0.57811564  1
  O  O35  1  0.26286034  0.26285989  0.90382726  1
  O  O36  1  0.70797940  0.26561866  0.75358790  1
  O  O37  1  0.73472611  0.73479609  0.57813099  1
  O  O38  1  0.26399946  0.75481238  0.90879133  1
  O  O39  1  0.73306780  0.73305915  0.76694456  1
  O  O40  1  0.75483665  0.26399238  0.90877922  1
  O  O41  1  0.75480260  0.75479589  0.90879873  1
