# generated using pymatgen
data_Li2Ni3(P2O7)2
_symmetry_space_group_name_H-M   'P 1'
_cell_length_a   5.25390923
_cell_length_b   6.40179528
_cell_length_c   15.87594397
_cell_angle_alpha   81.49772615
_cell_angle_beta   82.01056421
_cell_angle_gamma   72.19000916
_symmetry_Int_Tables_number   1
_chemical_formula_structural   Li2Ni3(P2O7)2
_chemical_formula_sum   'Li4 Ni6 P8 O28'
_cell_volume   500.30178931
_cell_formula_units_Z   2
loop_
 _symmetry_equiv_pos_site_id
 _symmetry_equiv_pos_as_xyz
  1  'x, y, z'
loop_
 _atom_site_type_symbol
 _atom_site_label
 _atom_site_symmetry_multiplicity
 _atom_site_fract_x
 _atom_site_fract_y
 _atom_site_fract_z
 _atom_site_occupancy
  Li  Li0  1  0.07464457  0.21078200  0.98586684  1
  Li  Li1  1  0.35335191  0.68623838  0.12421487  1
  Li  Li2  1  0.64664785  0.31376174  0.87578483  1
  Li  Li3  1  0.92535519  0.78921812  0.01413286  1
  O  O4  1  0.28928976  0.85486113  0.00860123  1
  O  O5  1  0.76149095  0.68684147  0.92934076  1
  O  O6  1  0.79821287  0.71609172  0.71364775  1
  O  O7  1  0.96560736  0.68369580  0.16148206  1
  O  O8  1  0.83872284  0.34706280  0.66185568  1
  O  O9  1  0.71071000  0.14513899  0.99139848  1
  O  O10  1  0.00746751  0.02231005  0.21386504  1
  O  O11  1  0.23850881  0.31315865  0.07065958  1
  O  O12  1  0.20178689  0.28390840  0.28635196  1
  O  O13  1  0.03439240  0.31630433  0.83851828  1
  O  O14  1  0.16127691  0.65293733  0.33814466  1
  O  O15  1  0.99253225  0.97769007  0.78613466  1
  O  O16  1  0.17075021  0.59814750  0.55254794  1
  O  O17  1  0.58844673  0.02585959  0.14501798  1
  O  O18  1  0.36079197  0.14924965  0.70897184  1
  O  O19  1  0.12303121  0.98666381  0.58570659  1
  O  O20  1  0.42292900  0.29717058  0.41270895  1
  O  O21  1  0.65160546  0.41220635  0.09983816  1
  O  O22  1  0.60155858  0.44491861  0.26560023  1
  O  O23  1  0.82924955  0.40185262  0.44745176  1
  O  O24  1  0.40653549  0.84604700  0.44995879  1
  O  O25  1  0.39844117  0.55508152  0.73439947  1
  O  O26  1  0.34839430  0.58779377  0.90016217  1
  O  O27  1  0.57707075  0.70282954  0.58729075  1
  O  O28  1  0.87697048  0.01333630  0.41429365  1
  O  O29  1  0.63920971  0.85075047  0.29102841  1
  O  O30  1  0.41155495  0.97414053  0.85498227  1
  O  O31  1  0.59346427  0.15395312  0.55004155  1
  P  P32  1  0.81263607  0.88912157  0.20795544  1
  P  P33  1  0.64825648  0.57685816  0.68001797  1
  P  P34  1  0.45600848  0.76208703  0.92748639  1
  P  P35  1  0.70004466  0.21763650  0.45741227  1
  P  P36  1  0.29995510  0.78236362  0.54258807  1
  P  P37  1  0.54399321  0.23791309  0.07251385  1
  P  P38  1  0.18736369  0.11087855  0.79204489  1
  P  P39  1  0.35174328  0.42314196  0.31998173  1
  Ni  Ni40  1  0.20435014  0.28006744  0.59337607  1
  Ni  Ni41  1  0.05528211  0.64017052  0.81330718  1
  Ni  Ni42  1  0.22553134  0.95745760  0.33360136  1
  Ni  Ni43  1  0.77446842  0.04254252  0.66639897  1
  Ni  Ni44  1  0.94471765  0.35982960  0.18669315  1
  Ni  Ni45  1  0.79564962  0.71993268  0.40662364  1
