# generated using pymatgen
data_NaYMg6
_symmetry_space_group_name_H-M   'P 1'
_cell_length_a   6.67257070
_cell_length_b   6.67257011
_cell_length_c   5.26895386
_cell_angle_alpha   90.00000000
_cell_angle_beta   90.00000000
_cell_angle_gamma   120.14527505
_symmetry_Int_Tables_number   1
_chemical_formula_structural   NaYMg6
_chemical_formula_sum   'Na1 Y1 Mg6'
_cell_volume   202.86341652
_cell_formula_units_Z   1
loop_
 _symmetry_equiv_pos_site_id
 _symmetry_equiv_pos_as_xyz
  1  'x, y, z'
loop_
 _atom_site_type_symbol
 _atom_site_label
 _atom_site_symmetry_multiplicity
 _atom_site_fract_x
 _atom_site_fract_y
 _atom_site_fract_z
 _atom_site_occupancy
  Na  Na0  1  0.33792549  0.16207451  0.75000000  1
  Y  Y1  1  0.16270465  0.33729535  0.25000000  1
  Mg  Mg2  1  0.16969873  0.83278645  0.25000000  1
  Mg  Mg3  1  0.66721355  0.33030127  0.25000000  1
  Mg  Mg4  1  0.66373286  0.83626714  0.25000000  1
  Mg  Mg5  1  0.33397138  0.66839749  0.75000000  1
  Mg  Mg6  1  0.83160251  0.16602862  0.75000000  1
  Mg  Mg7  1  0.83315085  0.66684915  0.75000000  1
