# generated using pymatgen
data_LiNi(PO3)3
_symmetry_space_group_name_H-M   'P 1'
_cell_length_a   5.10426309
_cell_length_b   12.02622972
_cell_length_c   13.03953920
_cell_angle_alpha   90.00000000
_cell_angle_beta   90.00000000
_cell_angle_gamma   90.00000000
_symmetry_Int_Tables_number   1
_chemical_formula_structural   LiNi(PO3)3
_chemical_formula_sum   'Li4 Ni4 P12 O36'
_cell_volume   800.43264152
_cell_formula_units_Z   4
loop_
 _symmetry_equiv_pos_site_id
 _symmetry_equiv_pos_as_xyz
  1  'x, y, z'
loop_
 _atom_site_type_symbol
 _atom_site_label
 _atom_site_symmetry_multiplicity
 _atom_site_fract_x
 _atom_site_fract_y
 _atom_site_fract_z
 _atom_site_occupancy
  Li  Li0  1  0.01673627  -0.00337374  0.24999980  1
  Li  Li1  1  0.01673627  0.50337366  0.75000016  1
  Li  Li2  1  0.98326363  0.49662617  0.24999980  1
  Li  Li3  1  0.98326363  1.00337357  0.75000016  1
  O  O4  1  0.30587706  0.49771742  0.89638836  1
  O  O5  1  0.90207793  0.34377855  0.54913767  1
  O  O6  1  0.90207793  0.15622136  0.45086229  1
  O  O7  1  0.90207793  0.15622136  0.04913731  1
  O  O8  1  0.09792394  0.65622210  0.04913731  1
  O  O9  1  0.09792394  0.65622210  0.45086229  1
  O  O10  1  0.09792394  0.84377846  0.54913767  1
  O  O11  1  0.09792394  0.84377846  0.95086266  1
  O  O12  1  0.21151937  0.05675453  0.63362831  1
  O  O13  1  0.21151937  0.05675453  0.86637201  1
  O  O14  1  0.21151937  0.44324538  0.13362795  1
  O  O15  1  0.21151937  0.44324538  0.36637165  1
  O  O16  1  0.30587706  0.00228249  0.10361237  1
  O  O17  1  0.30587706  0.00228249  0.39638800  1
  O  O18  1  0.30587706  0.49771742  0.60361196  1
  O  O19  1  0.90207793  0.34377855  0.95086266  1
  O  O20  1  0.41820894  0.62181464  0.75000016  1
  O  O21  1  0.41820894  0.87818509  0.24999980  1
  O  O22  1  0.45664518  0.70160455  0.58077096  1
  O  O23  1  0.45664518  0.70160455  0.91922937  1
  O  O24  1  0.45664518  0.79839518  0.08077059  1
  O  O25  1  0.45664518  0.79839518  0.41922901  1
  O  O26  1  0.54335472  0.20160464  0.58077096  1
  O  O27  1  0.54335472  0.20160464  0.91922937  1
  O  O28  1  0.78848052  0.94324529  0.36637165  1
  O  O29  1  0.54335472  0.29839527  0.41922901  1
  O  O30  1  0.58179095  0.12181473  0.75000016  1
  O  O31  1  0.58179095  0.37818518  0.24999980  1
  O  O32  1  0.69412283  0.50228240  0.10361237  1
  O  O33  1  0.69412283  0.50228240  0.39638800  1
  O  O34  1  0.69412283  0.99771733  0.60361196  1
  O  O35  1  0.69412283  0.99771733  0.89638836  1
  O  O36  1  0.78848052  0.55675527  0.63362831  1
  O  O37  1  0.78848052  0.55675527  0.86637201  1
  O  O38  1  0.78848052  0.94324529  0.13362795  1
  O  O39  1  0.54335472  0.29839527  0.08077059  1
  P  P40  1  0.75644146  0.25000037  0.50000037  1
  P  P41  1  0.75644146  0.25000037  0.00000000  1
  P  P42  1  0.50090728  0.91483540  0.36457667  1
  P  P43  1  0.50090728  0.91483540  0.13542369  1
  P  P44  1  0.24355844  0.75000028  0.00000000  1
  P  P45  1  0.24355844  0.75000028  0.50000037  1
  P  P46  1  0.49909262  0.08516525  0.63542329  1
  P  P47  1  0.49909262  0.08516525  0.86457627  1
  P  P48  1  0.50090728  0.58516516  0.86457627  1
  P  P49  1  0.49909262  0.41483466  0.36457667  1
  P  P50  1  0.50090728  0.58516516  0.63542329  1
  P  P51  1  0.49909262  0.41483466  0.13542369  1
  Ni  Ni52  1  0.00000000  0.00000000  0.00000000  1
  Ni  Ni53  1  0.00000000  0.00000000  0.50000037  1
  Ni  Ni54  1  0.00000000  0.49999991  0.00000000  1
  Ni  Ni55  1  0.00000000  0.49999991  0.50000037  1
