# generated using pymatgen
data_Li6Br3N
_symmetry_space_group_name_H-M   'P 1'
_cell_length_a   5.82415042
_cell_length_b   5.82415042
_cell_length_c   6.81685358
_cell_angle_alpha   113.78465973
_cell_angle_beta   113.78465973
_cell_angle_gamma   87.88700365
_symmetry_Int_Tables_number   1
_chemical_formula_structural   Li6Br3N
_chemical_formula_sum   'Li6 Br3 N1'
_cell_volume   191.42547574
_cell_formula_units_Z   1
loop_
 _symmetry_equiv_pos_site_id
 _symmetry_equiv_pos_as_xyz
  1  'x, y, z'
loop_
 _atom_site_type_symbol
 _atom_site_label
 _atom_site_symmetry_multiplicity
 _atom_site_fract_x
 _atom_site_fract_y
 _atom_site_fract_z
 _atom_site_occupancy
  Br  Br0  1  0.23259830  0.76740170  0.50000000  1
  Br  Br1  1  0.50000000  0.50000000  0.00000000  1
  Br  Br2  1  0.76740170  0.23259830  0.50000000  1
  Li  Li3  1  0.14515961  0.14515961  0.85532793  1
  Li  Li4  1  0.03099182  0.67769400  0.77442162  1
  Li  Li5  1  0.32230600  0.96900818  0.22557838  1
  Li  Li6  1  0.67769400  0.03099182  0.77442162  1
  Li  Li7  1  0.96900818  0.32230600  0.22557838  1
  Li  Li8  1  0.85484039  0.85484039  0.14467207  1
  N  N9  1  0.00000000  0.00000000  0.00000000  1
