# generated using pymatgen
data_LiV(PO3)4
_symmetry_space_group_name_H-M   'P 1'
_cell_length_a   5.27329995
_cell_length_b   10.55808651
_cell_length_c   10.55808652
_cell_angle_alpha   71.44235303
_cell_angle_beta   98.91383038
_cell_angle_gamma   98.91383039
_symmetry_Int_Tables_number   1
_chemical_formula_structural   LiV(PO3)4
_chemical_formula_sum   'Li2 V2 P8 O24'
_cell_volume   547.02311815
_cell_formula_units_Z   2
loop_
 _symmetry_equiv_pos_site_id
 _symmetry_equiv_pos_as_xyz
  1  'x, y, z'
loop_
 _atom_site_type_symbol
 _atom_site_label
 _atom_site_symmetry_multiplicity
 _atom_site_fract_x
 _atom_site_fract_y
 _atom_site_fract_z
 _atom_site_occupancy
  Li  Li0  1  0.45820975  0.41135550  0.41135511  1
  Li  Li1  1  0.54179071  0.58864537  0.58864513  1
  O  O2  1  0.60300028  0.85130602  0.85130555  1
  O  O3  1  0.00686338  0.83713038  0.44232232  1
  O  O4  1  0.00000031  0.23494578  0.76505356  1
  O  O5  1  0.99999967  0.76505418  0.23494609  1
  O  O6  1  0.24507021  0.66620821  0.92585042  1
  O  O7  1  0.24507073  0.92585021  0.66620841  1
  O  O8  1  0.32116422  0.44030097  0.67432938  1
  O  O9  1  0.32116282  0.67433013  0.44030008  1
  O  O10  1  0.36695152  0.28757165  0.91558489  1
  O  O11  1  0.36695090  0.91558418  0.28757168  1
  O  O12  1  0.00686334  0.44232243  0.83713082  1
  O  O13  1  0.31184061  0.39254679  0.09740562  1
  O  O14  1  0.31184088  0.09740526  0.39254657  1
  O  O15  1  0.68815985  0.60745409  0.90259462  1
  O  O16  1  0.68815937  0.90259460  0.60745398  1
  O  O17  1  0.39699997  0.14869384  0.14869405  1
  O  O18  1  0.99313691  0.55767744  0.16286973  1
  O  O19  1  0.63304873  0.71242821  0.08441566  1
  O  O20  1  0.67883743  0.32566973  0.55969952  1
  O  O21  1  0.67883625  0.55969991  0.32566991  1
  O  O22  1  0.75492953  0.07414965  0.33379119  1
  O  O23  1  0.75493004  0.33379166  0.07415013  1
  O  O24  1  0.99313687  0.16286948  0.55767729  1
  O  O25  1  0.63304935  0.08441568  0.71242792  1
  P  P26  1  0.17481267  0.36580199  0.78972761  1
  P  P27  1  0.17481251  0.78972744  0.36580209  1
  P  P28  1  0.53481832  0.69779861  0.93837598  1
  P  P29  1  0.53481824  0.93837580  0.69779872  1
  P  P30  1  0.46518214  0.30220227  0.06162427  1
  P  P31  1  0.82518758  0.63419787  0.21027199  1
  P  P32  1  0.82518774  0.21027243  0.63419752  1
  P  P33  1  0.46518200  0.06162407  0.30220183  1
  V  V34  1  0.00000042  0.00000034  0.50000018  1
  V  V35  1  0.00000063  0.50000014  0.99999956  1
