# generated using pymatgen
data_VP2O7
_symmetry_space_group_name_H-M   'P 1'
_cell_length_a   6.86994138
_cell_length_b   8.13634520
_cell_length_c   9.45383039
_cell_angle_alpha   90.00000000
_cell_angle_beta   107.79816549
_cell_angle_gamma   90.00000000
_symmetry_Int_Tables_number   1
_chemical_formula_structural   VP2O7
_chemical_formula_sum   'V4 P8 O28'
_cell_volume   503.14207996
_cell_formula_units_Z   4
loop_
 _symmetry_equiv_pos_site_id
 _symmetry_equiv_pos_as_xyz
  1  'x, y, z'
loop_
 _atom_site_type_symbol
 _atom_site_label
 _atom_site_symmetry_multiplicity
 _atom_site_fract_x
 _atom_site_fract_y
 _atom_site_fract_z
 _atom_site_occupancy
  O  O0  1  0.11902823  0.39935753  0.86251478  1
  O  O1  1  0.13572650  0.05224646  0.84553593  1
  O  O2  1  0.09281463  0.33242398  0.59642143  1
  O  O3  1  0.23623275  0.61168486  0.70479626  1
  O  O4  1  0.11902747  0.10064273  0.36251431  1
  O  O5  1  0.13572572  0.44775380  0.34553652  1
  O  O6  1  0.09281387  0.16757629  0.09642096  1
  O  O7  1  0.47893298  0.22444261  0.88889274  1
  O  O8  1  0.39535897  0.09429631  0.63207437  1
  O  O9  1  0.52405570  0.91678678  0.86240555  1
  O  O10  1  0.23623197  0.88831470  0.20479686  1
  O  O11  1  0.47594383  0.41678652  0.63759344  1
  O  O12  1  0.60464055  0.59429657  0.86792568  1
  O  O13  1  0.52106655  0.72444287  0.61110625  1
  O  O14  1  0.47893374  0.27555765  0.38889368  1
  O  O15  1  0.39535973  0.40570396  0.13207531  1
  O  O16  1  0.52405645  0.58321277  0.36240649  1
  O  O17  1  0.76376830  0.11168582  0.79520414  1
  O  O18  1  0.47594306  0.08321251  0.13759403  1
  O  O19  1  0.60464131  0.90570299  0.36792556  1
  O  O20  1  0.88097204  0.60064300  0.13748622  1
  O  O21  1  0.90718642  0.83242301  0.90357897  1
  O  O22  1  0.86427304  0.55224672  0.65446306  1
  O  O23  1  0.88097129  0.89935779  0.63748527  1
  O  O24  1  0.76376754  0.38831444  0.29520367  1
  O  O25  1  0.90718565  0.66757655  0.40357850  1
  O  O26  1  0.86427379  0.94775406  0.15446400  1
  O  O27  1  0.52106730  0.77555792  0.11110719  1
  P  P28  1  0.07051133  0.46928724  0.70616987  1
  P  P29  1  0.07051056  0.03071302  0.20616940  1
  P  P30  1  0.46974366  0.58504079  0.70571859  1
  P  P31  1  0.53025586  0.08504176  0.79428146  1
  P  P32  1  0.46974443  0.91495877  0.20571847  1
  P  P33  1  0.53025510  0.41495851  0.29428099  1
  P  P34  1  0.92948895  0.53071328  0.29383112  1
  P  P35  1  0.92948819  0.96928751  0.79383018  1
  V  V36  1  0.28006750  0.22870151  0.99449582  1
  V  V37  1  0.28006826  0.27129753  0.49449570  1
  V  V38  1  0.71993202  0.72870177  0.50550423  1
  V  V39  1  0.71993279  0.77129779  0.00550411  1
