# generated using pymatgen
data_Ag2W2O7
_symmetry_space_group_name_H-M   'P 1'
_cell_length_a   6.22333602
_cell_length_b   7.23232661
_cell_length_c   7.75809595
_cell_angle_alpha   72.60792278
_cell_angle_beta   86.53403642
_cell_angle_gamma   77.06539081
_symmetry_Int_Tables_number   1
_chemical_formula_structural   Ag2W2O7
_chemical_formula_sum   'Ag4 W4 O14'
_cell_volume   324.75857429
_cell_formula_units_Z   2
loop_
 _symmetry_equiv_pos_site_id
 _symmetry_equiv_pos_as_xyz
  1  'x, y, z'
loop_
 _atom_site_type_symbol
 _atom_site_label
 _atom_site_symmetry_multiplicity
 _atom_site_fract_x
 _atom_site_fract_y
 _atom_site_fract_z
 _atom_site_occupancy
  O  O0  1  0.66875297  0.99263827  0.19757886  1
  O  O1  1  0.33124694  0.00736251  0.80242122  1
  O  O2  1  0.22542299  0.95734643  0.42301241  1
  O  O3  1  0.77457731  0.04265289  0.57698805  1
  O  O4  1  0.83259583  0.71516150  0.00499986  1
  O  O5  1  0.16740408  0.28483928  0.99500022  1
  O  O6  1  0.42437261  0.70796436  0.20189288  1
  O  O7  1  0.57562731  0.29203642  0.79810720  1
  O  O8  1  0.79141596  0.40369683  0.31061668  1
  O  O9  1  0.20858395  0.59630394  0.68938340  1
  O  O10  1  0.39268918  0.35912040  0.49933438  1
  O  O11  1  0.01838881  0.67927423  0.34187640  1
  O  O12  1  0.98161111  0.32072654  0.65812368  1
  O  O13  1  0.60731113  0.64087893  0.50066478  1
  Ag  Ag14  1  0.70468996  0.72543279  0.74207197  1
  Ag  Ag15  1  0.29531034  0.27456653  0.25792849  1
  Ag  Ag16  1  0.26581638  0.68289632  0.94782646  1
  Ag  Ag17  1  0.73418391  0.31710299  0.05217400  1
  W  W18  1  0.73219242  0.73259339  0.22535087  1
  W  W19  1  0.26780788  0.26740592  0.77464959  1
  W  W20  1  0.27743408  0.70284444  0.44374445  1
  W  W21  1  0.72256621  0.29715487  0.55625601  1
