# generated using pymatgen
data_Ca10Si3S3(ClO12)2
_symmetry_space_group_name_H-M   'P 1'
_cell_length_a   9.84524622
_cell_length_b   9.77436832
_cell_length_c   6.82800037
_cell_angle_alpha   90.00000000
_cell_angle_beta   90.00000000
_cell_angle_gamma   119.31570365
_symmetry_Int_Tables_number   1
_chemical_formula_structural   Ca10Si3S3(ClO12)2
_chemical_formula_sum   'Ca10 Si3 S3 Cl2 O24'
_cell_volume   572.91868117
_cell_formula_units_Z   1
loop_
 _symmetry_equiv_pos_site_id
 _symmetry_equiv_pos_as_xyz
  1  'x, y, z'
loop_
 _atom_site_type_symbol
 _atom_site_label
 _atom_site_symmetry_multiplicity
 _atom_site_fract_x
 _atom_site_fract_y
 _atom_site_fract_z
 _atom_site_occupancy
  Ca  Ca0  1  0.26068003  0.02812250  0.25000000  1
  Ca  Ca1  1  0.03862138  0.27393336  0.25000000  1
  Ca  Ca2  1  0.31389263  0.66108920  0.99489177  1
  Ca  Ca3  1  0.31389263  0.66108920  0.50510823  1
  Ca  Ca4  1  0.24523606  0.26046077  0.75000000  1
  Ca  Ca5  1  0.74607880  0.73290056  0.25000000  1
  Ca  Ca6  1  0.64561874  0.32527885  0.50989217  1
  Ca  Ca7  1  0.64561874  0.32527885  0.99010783  1
  Ca  Ca8  1  0.04010324  0.77380023  0.75000000  1
  Ca  Ca9  1  0.73222386  0.01919795  0.75000000  1
  Cl  Cl10  1  0.98788545  0.99237415  1.00276000  1
  Cl  Cl11  1  0.98788545  0.99237415  0.49724000  1
  O  O12  1  0.26488912  0.90635140  0.94588399  1
  O  O13  1  0.26488912  0.90635140  0.55411601  1
  O  O14  1  0.12116847  0.59774584  0.75000000  1
  O  O15  1  0.12893684  0.63607158  0.25000000  1
  O  O16  1  0.09624135  0.35692292  0.55891856  1
  O  O17  1  0.09624135  0.35692292  0.94108144  1
  O  O18  1  0.46970196  0.85781652  0.75000000  1
  O  O19  1  0.51843101  0.85903285  0.25000000  1
  O  O20  1  0.34900105  0.51254947  0.25000000  1
  O  O21  1  0.42174697  0.54198594  0.75000000  1
  O  O22  1  0.35835757  0.26831418  0.05718509  1
  O  O23  1  0.35835757  0.26831418  0.44281491  1
  O  O24  1  0.65144930  0.73090495  0.57338018  1
  O  O25  1  0.65144930  0.73090495  0.92661982  1
  O  O26  1  0.60727614  0.47224074  0.25000000  1
  O  O27  1  0.65768803  0.51729282  0.75000000  1
  O  O28  1  0.50651047  0.14999951  0.75000000  1
  O  O29  1  0.53532497  0.11939792  0.25000000  1
  O  O30  1  0.91395198  0.63916430  0.07353131  1
  O  O31  1  0.91395198  0.63916430  0.42646869  1
  O  O32  1  0.83409200  0.32289406  0.75000000  1
  O  O33  1  0.87125363  0.40481955  0.25000000  1
  O  O34  1  0.72695297  0.08242975  0.07537022  1
  O  O35  1  0.72695297  0.08242975  0.42462978  1
  S  S36  1  0.59631344  0.62976476  0.75000000  1
  S  S37  1  0.62482217  0.03119031  0.25000000  1
  S  S38  1  0.95914576  0.58081552  0.25000000  1
  Si  Si39  1  0.02488179  0.40345575  0.75000000  1
  Si  Si40  1  0.37898839  0.96321863  0.75000000  1
  Si  Si41  1  0.41329531  0.38563346  0.25000000  1
