# generated using pymatgen
data_Al2CoO4
_symmetry_space_group_name_H-M   'P 1'
_cell_length_a   5.76926200
_cell_length_b   5.78353743
_cell_length_c   17.35894270
_cell_angle_alpha   59.75512445
_cell_angle_beta   60.12972901
_cell_angle_gamma   60.06218417
_symmetry_Int_Tables_number   1
_chemical_formula_structural   Al2CoO4
_chemical_formula_sum   'Al12 Co6 O24'
_cell_volume   409.39041128
_cell_formula_units_Z   6
loop_
 _symmetry_equiv_pos_site_id
 _symmetry_equiv_pos_as_xyz
  1  'x, y, z'
loop_
 _atom_site_type_symbol
 _atom_site_label
 _atom_site_symmetry_multiplicity
 _atom_site_fract_x
 _atom_site_fract_y
 _atom_site_fract_z
 _atom_site_occupancy
  Al  Al0  1  0.24638725  0.25103723  0.08527822  1
  Al  Al1  1  0.12190851  0.62961712  0.20798562  1
  Al  Al2  1  0.62611456  0.12379487  0.20782358  1
  Al  Al3  1  0.62421575  0.62980232  0.20796091  1
  Al  Al4  1  0.12421859  0.62465842  0.54217256  1
  Al  Al5  1  0.62419336  0.62448561  0.37571750  1
  Al  Al6  1  0.62466286  0.12422194  0.54216432  1
  Al  Al7  1  0.62466053  0.62467557  0.54216536  1
  Al  Al8  1  0.12160871  0.62438141  0.87489692  1
  Al  Al9  1  0.62460323  0.62416917  0.70887401  1
  Al  Al10  1  0.62799313  0.11960563  0.87497671  1
  Al  Al11  1  0.62957012  0.62418483  0.87492226  1
  Co  Co12  1  0.00379857  -0.00022556  0.99765958  1
  Co  Co13  1  -0.00010369  1.00000914  0.33340202  1
  Co  Co14  1  0.62737416  0.62682129  0.03950282  1
  Co  Co15  1  0.25156754  0.25158977  0.41509189  1
  Co  Co16  1  0.00063470  0.00078918  0.66598020  1
  Co  Co17  1  0.24718442  0.24730309  0.75277046  1
  O  O18  1  0.36971192  0.37478869  0.13209569  1
  O  O19  1  0.39478226  0.39338458  0.27238759  1
  O  O20  1  0.36201940  0.86784001  0.13588691  1
  O  O21  1  0.85826673  0.37561428  0.13173026  1
  O  O22  1  0.41864358  0.85940332  0.28794403  1
  O  O23  1  0.38823991  0.38954186  0.46321978  1
  O  O24  1  0.85879279  0.41961017  0.28757102  1
  O  O25  1  0.38926420  0.38751233  0.61137793  1
  O  O26  1  0.38922197  0.83247624  0.46299615  1
  O  O27  1  0.85992768  0.86360810  0.13874223  1
  O  O28  1  0.83257221  0.38945988  0.46324326  1
  O  O29  1  0.85807015  0.85945814  0.28792214  1
  O  O30  1  0.39144971  0.38955315  0.79749940  1
  O  O31  1  0.41881304  0.85985128  0.62007097  1
  O  O32  1  0.86022959  0.41895313  0.62023021  1
  O  O33  1  0.37823286  0.37541674  0.95608609  1
  O  O34  1  0.86004699  0.86186884  0.47263885  1
  O  O35  1  0.39017502  0.82553989  0.79807796  1
  O  O36  1  0.82656623  0.38965885  0.79745275  1
  O  O37  1  0.86113073  0.85976212  0.62009381  1
  O  O38  1  0.41794543  0.86620029  0.94825951  1
  O  O39  1  0.88109481  0.40781435  0.94345098  1
  O  O40  1  0.86177381  0.86460323  0.80385848  1
  O  O41  1  0.87243667  0.86715948  0.94781905  1
