# generated using pymatgen
data_Sm5AgSe8
_symmetry_space_group_name_H-M   'P 1'
_cell_length_a   7.66975931
_cell_length_b   7.66975959
_cell_length_c   7.66975923
_cell_angle_alpha   109.84617097
_cell_angle_beta   109.84616958
_cell_angle_gamma   108.72389735
_symmetry_Int_Tables_number   1
_chemical_formula_structural   Sm5AgSe8
_chemical_formula_sum   'Sm5 Ag1 Se8'
_cell_volume   347.27057776
_cell_formula_units_Z   1
loop_
 _symmetry_equiv_pos_site_id
 _symmetry_equiv_pos_as_xyz
  1  'x, y, z'
loop_
 _atom_site_type_symbol
 _atom_site_label
 _atom_site_symmetry_multiplicity
 _atom_site_fract_x
 _atom_site_fract_y
 _atom_site_fract_z
 _atom_site_occupancy
  Ag  Ag0  1  0.87500000  0.12500000  0.75000000  1
  Se  Se1  1  0.99215656  0.85395797  0.50117579  1
  Se  Se2  1  0.00767923  0.36462957  0.49217835  1
  Se  Se3  1  0.14604203  0.14721781  0.13819859  1
  Se  Se4  1  0.37245121  0.51550088  0.00782165  1
  Se  Se5  1  0.48449912  0.99232077  0.85695033  1
  Se  Se6  1  0.63537043  0.62754879  0.64304967  1
  Se  Se7  1  0.50901922  0.00784344  0.36180141  1
  Se  Se8  1  0.85278219  0.49098078  0.99882421  1
  Sm  Sm9  1  0.11350572  0.74712058  0.87152478  1
  Sm  Sm10  1  0.25287942  0.62440420  0.36638514  1
  Sm  Sm11  1  0.37559580  0.24198094  0.62847522  1
  Sm  Sm12  1  0.62500000  0.37500000  0.25000000  1
  Sm  Sm13  1  0.75801906  0.88649428  0.13361486  1
