# generated using pymatgen
data_Mn2NiO4
_symmetry_space_group_name_H-M   'P 1'
_cell_length_a   6.04265468
_cell_length_b   6.04265421
_cell_length_c   6.00405208
_cell_angle_alpha   60.21110504
_cell_angle_beta   60.21110281
_cell_angle_gamma   59.92954419
_symmetry_Int_Tables_number   1
_chemical_formula_structural   Mn2NiO4
_chemical_formula_sum   'Mn4 Ni2 O8'
_cell_volume   155.42831744
_cell_formula_units_Z   2
loop_
 _symmetry_equiv_pos_site_id
 _symmetry_equiv_pos_as_xyz
  1  'x, y, z'
loop_
 _atom_site_type_symbol
 _atom_site_label
 _atom_site_symmetry_multiplicity
 _atom_site_fract_x
 _atom_site_fract_y
 _atom_site_fract_z
 _atom_site_occupancy
  Mn  Mn0  1  0.99131630  0.99131630  0.00868370  1
  Mn  Mn1  1  0.25868370  0.25868370  0.24131630  1
  Mn  Mn2  1  0.62500000  0.62500000  0.12500000  1
  Mn  Mn3  1  0.62500000  0.62500000  0.62500000  1
  Ni  Ni4  1  0.12500000  0.62500000  0.62500000  1
  Ni  Ni5  1  0.62500000  0.12500000  0.62500000  1
  O  O6  1  0.39897453  0.39897453  0.37012428  1
  O  O7  1  0.40466960  0.84038466  0.37747287  1
  O  O8  1  0.39897453  0.39897453  0.83192667  1
  O  O9  1  0.84038466  0.40466960  0.37747287  1
  O  O10  1  0.40961534  0.84533040  0.87252713  1
  O  O11  1  0.85102547  0.85102547  0.41807333  1
  O  O12  1  0.84533040  0.40961534  0.87252713  1
  O  O13  1  0.85102547  0.85102547  0.87987572  1
