# generated using pymatgen
data_LiNi3P3O11
_symmetry_space_group_name_H-M   'P 1'
_cell_length_a   9.74167735
_cell_length_b   9.51547183
_cell_length_c   9.98522004
_cell_angle_alpha   90.00000000
_cell_angle_beta   61.74136770
_cell_angle_gamma   90.00000000
_symmetry_Int_Tables_number   1
_chemical_formula_structural   LiNi3P3O11
_chemical_formula_sum   'Li4 Ni12 P12 O44'
_cell_volume   815.28337904
_cell_formula_units_Z   4
loop_
 _symmetry_equiv_pos_site_id
 _symmetry_equiv_pos_as_xyz
  1  'x, y, z'
loop_
 _atom_site_type_symbol
 _atom_site_label
 _atom_site_symmetry_multiplicity
 _atom_site_fract_x
 _atom_site_fract_y
 _atom_site_fract_z
 _atom_site_occupancy
  Li  Li0  1  0.02106210  0.32150845  0.29801634  1
  Li  Li1  1  0.47893890  0.82150945  0.20198266  1
  Li  Li2  1  0.52106110  0.17849055  0.79801634  1
  Li  Li3  1  0.97893890  0.67849055  0.70198266  1
  O  O4  1  0.20376940  0.47610851  0.41455991  1
  O  O5  1  0.85083479  0.21926720  0.72708228  1
  O  O6  1  0.70376940  0.02389249  0.91455991  1
  O  O7  1  0.82035420  0.97143442  0.63658157  1
  O  O8  1  0.00124922  0.98634997  0.24505639  1
  O  O9  1  0.64919762  0.22477226  0.58625715  1
  O  O10  1  0.67964580  0.47143442  0.86341843  1
  O  O11  1  0.79623060  0.52389149  0.58544009  1
  O  O12  1  0.64916521  0.71926820  0.77291772  1
  O  O13  1  0.96106804  0.72904738  0.09013945  1
  O  O14  1  0.79048532  0.73496211  0.43461470  1
  O  O15  1  0.82498018  0.22786023  0.29622845  1
  O  O16  1  0.14919762  0.27522674  0.08625715  1
  O  O17  1  0.14916521  0.78073180  0.27291772  1
  O  O18  1  0.29623060  0.97610851  0.08544009  1
  O  O19  1  0.17964580  0.02856458  0.36341843  1
  O  O20  1  0.99875178  0.01364903  0.75494261  1
  O  O21  1  0.03599148  0.48052680  0.69622314  1
  O  O22  1  0.32035420  0.52856558  0.13658157  1
  O  O23  1  0.85080238  0.72477226  0.91374285  1
  O  O24  1  0.35083479  0.28073280  0.22708128  1
  O  O25  1  0.03893196  0.27095262  0.90986155  1
  O  O26  1  0.20951468  0.26503789  0.56538530  1
  O  O27  1  0.17501882  0.77214077  0.70377155  1
  O  O28  1  0.35080238  0.77522774  0.41374285  1
  O  O29  1  0.32393913  -0.00037134  0.56444124  1
  O  O30  1  0.33100995  0.49798448  0.58427427  1
  O  O31  1  0.16899105  0.99798548  0.91572673  1
  O  O32  1  0.49875078  0.48635097  0.25494261  1
  O  O33  1  0.53599048  0.01947420  0.19622314  1
  O  O34  1  0.17605987  0.49962766  0.93555976  1
  O  O35  1  0.32498118  0.27213977  0.79622745  1
  O  O36  1  0.29048532  0.76503789  0.93461470  1
  O  O37  1  0.46106804  0.77095262  0.59013945  1
  O  O38  1  0.53893196  0.22904838  0.40986155  1
  O  O39  1  0.70951468  0.23496211  0.06538430  1
  O  O40  1  0.67501882  0.72785923  0.20377155  1
  O  O41  1  0.82393913  0.50037134  0.06444124  1
  O  O42  1  0.46400952  0.98052580  0.80377786  1
  O  O43  1  0.50124922  0.51365003  0.74505739  1
  O  O44  1  0.83100895  0.00201552  0.08427427  1
  O  O45  1  0.66899105  0.50201452  0.41572673  1
  O  O46  1  0.67606087  1.00037234  0.43555876  1
  O  O47  1  0.96400952  0.51947420  0.30377786  1
  P  P48  1  0.85240422  0.06114263  0.74236155  1
  P  P49  1  0.81005824  0.57457294  0.42796970  1
  P  P50  1  0.64759578  0.56114263  0.75763845  1
  P  P51  1  0.67657484  0.16166040  0.43399588  1
  P  P52  1  0.82342516  0.66166040  0.06600512  1
  P  P53  1  0.31005824  0.92542706  0.92796970  1
  P  P54  1  0.68994176  0.07457294  0.07202930  1
  P  P55  1  0.17657484  0.33833960  0.93399588  1
  P  P56  1  0.32342416  0.83833960  0.56600512  1
  P  P57  1  0.35240422  0.43885737  0.24236155  1
  P  P58  1  0.18994176  0.42542706  0.57203030  1
  P  P59  1  0.14759578  0.93885737  0.25763845  1
  Ni  Ni60  1  0.14357044  0.63406766  0.12724099  1
  Ni  Ni61  1  0.00672742  0.87235009  0.89926517  1
  Ni  Ni62  1  0.35642956  0.13406766  0.37275901  1
  Ni  Ni63  1  0.18189140  0.13188955  0.73555771  1
  Ni  Ni64  1  0.31810960  0.63188855  0.76444129  1
  Ni  Ni65  1  0.50672842  0.62764991  0.39926617  1
  Ni  Ni66  1  0.49327158  0.37234909  0.60073483  1
  Ni  Ni67  1  0.68189140  0.36811145  0.23555871  1
  Ni  Ni68  1  0.81810860  0.86811145  0.26444129  1
  Ni  Ni69  1  0.64356944  0.86593234  0.62723999  1
  Ni  Ni70  1  0.99327158  0.12764991  0.10073483  1
  Ni  Ni71  1  0.85642956  0.36593234  0.87275901  1
