# generated using pymatgen
data_Ca2Nd2Nb3FeO14
_symmetry_space_group_name_H-M   'P 1'
_cell_length_a   7.40515251
_cell_length_b   14.96896295
_cell_length_c   12.89299492
_cell_angle_alpha   30.08430907
_cell_angle_beta   54.94554451
_cell_angle_gamma   60.35000126
_symmetry_Int_Tables_number   1
_chemical_formula_structural   Ca2Nd2Nb3FeO14
_chemical_formula_sum   'Ca4 Nd4 Nb6 Fe2 O28'
_cell_volume   586.43923351
_cell_formula_units_Z   2
loop_
 _symmetry_equiv_pos_site_id
 _symmetry_equiv_pos_as_xyz
  1  'x, y, z'
loop_
 _atom_site_type_symbol
 _atom_site_label
 _atom_site_symmetry_multiplicity
 _atom_site_fract_x
 _atom_site_fract_y
 _atom_site_fract_z
 _atom_site_occupancy
  Ca  Ca0  1  0.00000000  0.00000000  0.50000000  1
  Ca  Ca1  1  0.49149871  0.25000000  0.00000000  1
  Ca  Ca2  1  0.50850129  0.75000000  0.00000000  1
  Ca  Ca3  1  0.50000000  0.50000000  0.50000000  1
  Fe  Fe4  1  0.00000000  0.00000000  0.00000000  1
  Fe  Fe5  1  0.50000000  0.50000000  0.00000000  1
  Nb  Nb6  1  0.50000000  0.00000000  0.00000000  1
  Nb  Nb7  1  0.00000000  0.50000000  0.00000000  1
  Nb  Nb8  1  0.01265563  0.75000000  0.00000000  1
  Nb  Nb9  1  0.01356657  0.25000000  0.50000000  1
  Nb  Nb10  1  0.98734437  0.25000000  0.00000000  1
  Nb  Nb11  1  0.98643343  0.75000000  0.50000000  1
  Nd  Nd12  1  0.50867102  0.25000000  0.50000000  1
  Nd  Nd13  1  0.49132898  0.75000000  0.50000000  1
  Nd  Nd14  1  0.50000000  0.00000000  0.50000000  1
  Nd  Nd15  1  0.00000000  0.50000000  0.50000000  1
  O  O16  1  0.06862071  0.30675127  0.06744614  1
  O  O17  1  0.07744197  0.00163151  0.67597315  1
  O  O18  1  0.37106751  1.00012849  0.37496947  1
  O  O19  1  0.67571790  0.99523059  0.07781065  1
  O  O20  1  0.07808248  0.20412195  0.67100795  1
  O  O21  1  0.07126717  0.79735669  0.07965049  1
  O  O22  1  0.32834230  0.29587805  0.32899205  1
  O  O23  1  0.67471849  0.29735669  0.07965049  1
  O  O24  1  0.06734872  0.50163151  0.67597315  1
  O  O25  1  0.32428210  0.00476941  0.92218935  1
  O  O26  1  0.37873658  0.50012849  0.37496947  1
  O  O27  1  0.92255803  0.99836849  0.32402685  1
  O  O28  1  0.67819962  0.49523059  0.07781065  1
  O  O29  1  0.07345916  0.69608866  0.67596028  1
  O  O30  1  0.31701554  0.19324873  0.93255386  1
  O  O31  1  0.31755703  0.80391134  0.32403972  1
  O  O32  1  0.92654084  0.30391134  0.32403972  1
  O  O33  1  0.68244297  0.19608866  0.67596028  1
  O  O34  1  0.68298446  0.80675127  0.06744614  1
  O  O35  1  0.32180038  0.50476941  0.92218935  1
  O  O36  1  0.93265128  0.49836849  0.32402685  1
  O  O37  1  0.62126342  0.49987151  0.62503053  1
  O  O38  1  0.32528151  0.70264331  0.92034951  1
  O  O39  1  0.67165770  0.70412195  0.67100795  1
  O  O40  1  0.92873283  0.20264331  0.92034951  1
  O  O41  1  0.92191752  0.79587805  0.32899205  1
  O  O42  1  0.62893249  -0.00012849  0.62503053  1
  O  O43  1  0.93137929  0.69324873  0.93255386  1
