# generated using pymatgen
data_Tb11S16
_symmetry_space_group_name_H-M   'P 1'
_cell_length_a   28.96294186
_cell_length_b   8.31163826
_cell_length_c   8.36931145
_cell_angle_alpha   90.00000000
_cell_angle_beta   54.69474932
_cell_angle_gamma   54.97388027
_symmetry_Int_Tables_number   1
_chemical_formula_structural   Tb11S16
_chemical_formula_sum   'Tb22 S32'
_cell_volume   1168.85446997
_cell_formula_units_Z   2
loop_
 _symmetry_equiv_pos_site_id
 _symmetry_equiv_pos_as_xyz
  1  'x, y, z'
loop_
 _atom_site_type_symbol
 _atom_site_label
 _atom_site_symmetry_multiplicity
 _atom_site_fract_x
 _atom_site_fract_y
 _atom_site_fract_z
 _atom_site_occupancy
  Tb  Tb0  1  0.12957885  0.23425242  0.12979665  1
  Tb  Tb1  1  0.06896723  0.11191953  0.86176404  1
  Tb  Tb2  1  0.12780300  0.76153294  0.37027621  1
  Tb  Tb3  1  0.18852376  0.35366683  0.61683179  1
  Tb  Tb4  1  0.37219700  0.27274496  0.12972379  1
  Tb  Tb5  1  0.25000000  0.62103014  0.75000000  1
  Tb  Tb6  1  0.31147624  0.10776186  0.88316821  1
  Tb  Tb7  1  0.37042115  0.75256780  0.37020335  1
  Tb  Tb8  1  0.43103277  0.38778846  0.63823596  1
  Tb  Tb9  1  0.62780300  0.22725504  0.11851178  1
  Tb  Tb10  1  0.50001334  0.87059424  0.25412314  1
  Tb  Tb11  1  0.49998666  0.62940576  0.75417648  1
  Tb  Tb12  1  0.56896723  0.11221154  0.86236702  1
  Tb  Tb13  1  0.62957885  0.74743220  0.35188797  1
  Tb  Tb14  1  0.68852376  0.39223814  0.62907318  1
  Tb  Tb15  1  0.87042115  0.26574758  0.14811203  1
  Tb  Tb16  1  0.75000000  0.87896986  0.25000000  1
  Tb  Tb17  1  0.81147624  0.14633317  0.87092682  1
  Tb  Tb18  1  0.87219700  0.73846706  0.38148822  1
  Tb  Tb19  1  0.93103277  0.38808047  0.63763298  1
  Tb  Tb20  1  -0.00001334  0.87064758  0.24587686  1
  Tb  Tb21  1  0.00001334  0.62935242  0.74582352  1
  S  S22  1  0.03319506  0.50359731  0.99981668  1
  S  S23  1  0.08090028  0.16801789  0.51489096  1
  S  S24  1  0.15998664  0.49276404  0.99197147  1
  S  S25  1  0.09160173  0.99101239  0.14072962  1
  S  S26  1  0.15752267  0.37839590  0.35809244  1
  S  S27  1  0.03302628  0.86574627  0.85748544  1
  S  S28  1  0.28768028  0.47867526  0.99066234  1
  S  S29  1  0.21231972  0.62939637  0.50933766  1
  S  S30  1  0.34001336  0.13271060  0.50802853  1
  S  S31  1  0.21060539  0.99562267  0.65778814  1
  S  S32  1  0.41909972  0.49161900  0.98510904  1
  S  S33  1  0.34247733  0.00848657  0.14190756  1
  S  S34  1  0.40839827  0.35741932  0.35927038  1
  S  S35  1  0.28939461  0.83804422  0.84221186  1
  S  S36  1  0.53302628  0.50214862  0.01040946  1
  S  S37  1  0.46680494  0.63637754  0.50018332  1
  S  S38  1  0.59160173  0.14258068  0.49286344  1
  S  S39  1  0.46697372  0.99785138  0.64251456  1
  S  S40  1  0.65752267  0.49151343  0.01181690  1
  S  S41  1  0.58090028  0.00838100  0.16150793  1
  S  S42  1  0.65998664  0.36728940  0.36808197  1
  S  S43  1  0.53319506  0.86362246  0.86740309  1
  S  S44  1  0.78939461  0.50437733  0.00020969  1
  S  S45  1  0.71060539  0.66195578  0.49979031  1
  S  S46  1  0.84247733  0.12160410  0.48818310  1
  S  S47  1  0.71231972  0.02132474  0.64138345  1
  S  S48  1  0.90839827  0.50898761  0.00713656  1
  S  S49  1  0.84001336  0.00723596  0.13191803  1
  S  S50  1  0.91909972  0.33198211  0.33849207  1
  S  S51  1  0.78768028  0.87060363  0.85861655  1
  S  S52  1  0.96697372  0.63425373  0.48959054  1
  S  S53  1  0.96680494  0.99640269  0.63259691  1
