# generated using pymatgen
data_YMg6Zr
_symmetry_space_group_name_H-M   'P 1'
_cell_length_a   6.56848820
_cell_length_b   6.56848763
_cell_length_c   5.18384522
_cell_angle_alpha   90.00000000
_cell_angle_beta   90.00000000
_cell_angle_gamma   120.16987351
_symmetry_Int_Tables_number   1
_chemical_formula_structural   YMg6Zr
_chemical_formula_sum   'Y1 Mg6 Zr1'
_cell_volume   193.36038961
_cell_formula_units_Z   1
loop_
 _symmetry_equiv_pos_site_id
 _symmetry_equiv_pos_as_xyz
  1  'x, y, z'
loop_
 _atom_site_type_symbol
 _atom_site_label
 _atom_site_symmetry_multiplicity
 _atom_site_fract_x
 _atom_site_fract_y
 _atom_site_fract_z
 _atom_site_occupancy
  Y  Y0  1  0.16839756  0.33160244  0.25000000  1
  Mg  Mg1  1  0.17269092  0.84175809  0.25000000  1
  Mg  Mg2  1  0.65824191  0.32730908  0.25000000  1
  Mg  Mg3  1  0.66495976  0.83504024  0.25000000  1
  Mg  Mg4  1  0.33449742  0.66925999  0.75000000  1
  Mg  Mg5  1  0.83074001  0.16550258  0.75000000  1
  Mg  Mg6  1  0.83484208  0.66515792  0.75000000  1
  Zr  Zr7  1  0.33563034  0.16436966  0.75000000  1
