# generated using pymatgen
data_Li2Cr(PO3)4
_symmetry_space_group_name_H-M   'P 1'
_cell_length_a   8.50311936
_cell_length_b   8.50311943
_cell_length_c   7.46071717
_cell_angle_alpha   88.36628863
_cell_angle_beta   91.63371135
_cell_angle_gamma   65.40550612
_symmetry_Int_Tables_number   1
_chemical_formula_structural   Li2Cr(PO3)4
_chemical_formula_sum   'Li4 Cr2 P8 O24'
_cell_volume   489.80974268
_cell_formula_units_Z   2
loop_
 _symmetry_equiv_pos_site_id
 _symmetry_equiv_pos_as_xyz
  1  'x, y, z'
loop_
 _atom_site_type_symbol
 _atom_site_label
 _atom_site_symmetry_multiplicity
 _atom_site_fract_x
 _atom_site_fract_y
 _atom_site_fract_z
 _atom_site_occupancy
  Li  Li0  1  0.49748829  0.82000593  0.81250378  1
  Li  Li1  1  0.50251171  0.17999507  0.18749622  1
  Li  Li2  1  0.82000493  0.49748729  0.68749622  1
  Li  Li3  1  0.17999407  0.50251271  0.31250378  1
  O  O4  1  0.62075049  0.91563754  0.32024997  1
  O  O5  1  0.83333304  0.11387955  0.32523230  1
  O  O6  1  0.16666696  0.88612045  0.67476870  1
  O  O7  1  0.11387855  0.83333404  0.17476770  1
  O  O8  1  0.06220448  0.67468923  0.52194198  1
  O  O9  1  0.32531177  0.93779552  0.02194198  1
  O  O10  1  0.15177632  0.64204018  0.85787825  1
  O  O11  1  0.35795982  0.84822368  0.35787725  1
  O  O12  1  0.08436346  0.37924951  0.82025097  1
  O  O13  1  0.12240722  0.12240622  0.25000000  1
  O  O14  1  0.61095694  0.70529262  0.57512792  1
  O  O15  1  0.37738640  0.37738640  0.75000000  1
  O  O16  1  0.87759278  0.87759378  0.75000000  1
  O  O17  1  0.93779552  0.32531077  0.47805702  1
  O  O18  1  0.70529262  0.61095694  0.92487108  1
  O  O19  1  0.88612045  0.16666696  0.82523130  1
  O  O20  1  0.62261360  0.62261360  0.25000000  1
  O  O21  1  0.38904306  0.29470738  0.42487108  1
  O  O22  1  0.37925051  0.08436246  0.67975003  1
  O  O23  1  0.91563754  0.62074949  0.17975003  1
  O  O24  1  0.64204018  0.15177632  0.64212175  1
  O  O25  1  0.84822368  0.35796082  0.14212275  1
  O  O26  1  0.67468923  0.06220348  0.97805802  1
  O  O27  1  0.29470738  0.38904406  0.07512792  1
  P  P28  1  0.77850902  0.56242371  0.11321242  1
  P  P29  1  0.77153248  0.07155334  0.81653452  1
  P  P30  1  0.07155334  0.77153248  0.68346648  1
  P  P31  1  0.22846752  0.92844766  0.18346648  1
  P  P32  1  0.22149098  0.43757729  0.88678758  1
  P  P33  1  0.56242171  0.77851002  0.38678658  1
  P  P34  1  0.43757629  0.22149098  0.61321242  1
  P  P35  1  0.92844666  0.22846752  0.31653452  1
  Cr  Cr36  1  0.87136193  0.87136193  0.25000000  1
  Cr  Cr37  1  0.12863707  0.12863807  0.75000000  1
