# generated using pymatgen
data_Cu4SnS4
_symmetry_space_group_name_H-M   'P 1'
_cell_length_a   6.43703002
_cell_length_b   7.63607434
_cell_length_c   13.64838813
_cell_angle_alpha   90.00000000
_cell_angle_beta   90.00000000
_cell_angle_gamma   90.00000000
_symmetry_Int_Tables_number   1
_chemical_formula_structural   Cu4SnS4
_chemical_formula_sum   'Cu16 Sn4 S16'
_cell_volume   670.86795347
_cell_formula_units_Z   4
loop_
 _symmetry_equiv_pos_site_id
 _symmetry_equiv_pos_as_xyz
  1  'x, y, z'
loop_
 _atom_site_type_symbol
 _atom_site_label
 _atom_site_symmetry_multiplicity
 _atom_site_fract_x
 _atom_site_fract_y
 _atom_site_fract_z
 _atom_site_occupancy
  Cu  Cu0  1  0.94077446  0.25000000  0.84182930  1
  Cu  Cu1  1  0.62551212  0.48890032  0.16504743  1
  Cu  Cu2  1  0.44077446  0.75000000  0.65817070  1
  Cu  Cu3  1  0.60877642  0.25000000  0.93253498  1
  Cu  Cu4  1  0.12551212  0.51109968  0.33495257  1
  Cu  Cu5  1  0.05922554  0.75000000  0.15817070  1
  Cu  Cu6  1  0.62551212  0.01109968  0.16504743  1
  Cu  Cu7  1  0.87448788  0.48890032  0.66504743  1
  Cu  Cu8  1  0.87448788  0.01109968  0.66504743  1
  Cu  Cu9  1  0.37448788  0.51109968  0.83495257  1
  Cu  Cu10  1  0.12551212  0.98890032  0.33495257  1
  Cu  Cu11  1  0.55922554  0.25000000  0.34182930  1
  Cu  Cu12  1  0.37448788  0.98890032  0.83495257  1
  Cu  Cu13  1  0.10877642  0.75000000  0.56746502  1
  Cu  Cu14  1  0.39122358  0.75000000  0.06746502  1
  Cu  Cu15  1  0.89122358  0.25000000  0.43253498  1
  Sn  Sn16  1  0.87436074  0.75000000  0.91397204  1
  Sn  Sn17  1  0.12563926  0.25000000  0.08602796  1
  Sn  Sn18  1  0.62563926  0.75000000  0.41397204  1
  Sn  Sn19  1  0.37436074  0.25000000  0.58602796  1
  S  S20  1  0.24396376  0.25000000  0.41326672  1
  S  S21  1  0.23676479  0.50731105  0.67719623  1
  S  S22  1  0.26323521  0.99268895  0.17719623  1
  S  S23  1  0.26038615  0.75000000  0.91594859  1
  S  S24  1  0.73961385  0.25000000  0.08405141  1
  S  S25  1  0.25603624  0.25000000  0.91326672  1
  S  S26  1  0.73676479  0.49268895  0.82280377  1
  S  S27  1  0.26323521  0.50731105  0.17719623  1
  S  S28  1  0.74396376  0.75000000  0.08673328  1
  S  S29  1  0.75603624  0.75000000  0.58673328  1
  S  S30  1  0.73676479  0.00731105  0.82280377  1
  S  S31  1  0.76038615  0.25000000  0.58405141  1
  S  S32  1  0.76323521  0.49268895  0.32280377  1
  S  S33  1  0.23676479  0.99268895  0.67719623  1
  S  S34  1  0.76323521  0.00731105  0.32280377  1
  S  S35  1  0.23961385  0.75000000  0.41594859  1
