# generated using pymatgen
data_MgAl2O4
_symmetry_space_group_name_H-M   'P 1'
_cell_length_a   5.76635190
_cell_length_b   5.75770326
_cell_length_c   23.11287073
_cell_angle_alpha   60.11737859
_cell_angle_beta   60.18032191
_cell_angle_gamma   60.04961263
_symmetry_Int_Tables_number   1
_chemical_formula_structural   MgAl2O4
_chemical_formula_sum   'Mg8 Al16 O32'
_cell_volume   544.03370341
_cell_formula_units_Z   8
loop_
 _symmetry_equiv_pos_site_id
 _symmetry_equiv_pos_as_xyz
  1  'x, y, z'
loop_
 _atom_site_type_symbol
 _atom_site_label
 _atom_site_symmetry_multiplicity
 _atom_site_fract_x
 _atom_site_fract_y
 _atom_site_fract_z
 _atom_site_occupancy
  Al  Al0  1  0.00982729  0.49568416  0.12470110  1
  Al  Al1  1  0.49571993  0.00970654  0.12468886  1
  Al  Al2  1  0.49571993  0.49581809  0.12468886  1
  Al  Al3  1  0.00218698  0.49907984  0.37491334  1
  Al  Al4  1  0.49877102  0.00148506  0.37508669  1
  Al  Al5  1  0.13508302  0.12014647  0.53115601  1
  Al  Al6  1  0.49877102  0.49939717  0.37508669  1
  Al  Al7  1  0.50340269  0.99272044  0.62515824  1
  Al  Al8  1  0.88183330  0.88168018  0.21370158  1
  Al  Al9  1  0.50555700  0.50312783  0.49704684  1
  Al  Al10  1  0.50340269  0.50324393  0.62515824  1
  Al  Al11  1  0.00528115  0.49795164  0.87470389  1
  Al  Al12  1  0.49823835  0.00651737  0.87432255  1
  Al  Al13  1  0.49943188  0.50242201  0.74893103  1
  Al  Al14  1  0.49823835  0.49795409  0.87432255  1
  Al  Al15  1  0.87718030  0.87684045  0.96728470  1
  Mg  Mg16  1  0.12132300  0.12200696  0.03366577  1
  Mg  Mg17  1  0.11845286  0.11938973  0.28569192  1
  Mg  Mg18  1  0.49664997  0.49645894  0.25260804  1
  Mg  Mg19  1  0.99781594  0.50283521  0.62412841  1
  Mg  Mg20  1  0.13343188  0.12812262  0.77758072  1
  Mg  Mg21  1  0.87459129  0.87918399  0.46676018  1
  Mg  Mg22  1  0.49774522  0.49849771  0.00131484  1
  Mg  Mg23  1  0.86415170  0.87490641  0.72150887  1
  O  O24  1  0.25239112  0.25252000  0.07081063  1
  O  O25  1  0.25900302  0.25853135  0.18098357  1
  O  O26  1  0.25239112  0.71184636  0.07081063  1
  O  O27  1  0.71156403  0.25268915  0.07076442  1
  O  O28  1  0.24890496  0.24854034  0.32386529  1
  O  O29  1  0.27152658  0.75006814  0.18208429  1
  O  O30  1  0.75043040  0.27162353  0.18199631  1
  O  O31  1  0.74452238  0.74458596  0.06657643  1
  O  O32  1  0.24890496  0.70709354  0.32386529  1
  O  O33  1  0.25204767  0.25183991  0.43606813  1
  O  O34  1  0.70665064  0.24867387  0.32400041  1
  O  O35  1  0.75043040  0.74996084  0.18199631  1
  O  O36  1  0.27828007  0.25160632  0.55896595  1
  O  O37  1  0.29657278  0.73570032  0.43300664  1
  O  O38  1  0.73730425  0.29920102  0.43205291  1
  O  O39  1  0.74998264  0.75107704  0.31196582  1
  O  O40  1  0.27828007  0.73424980  0.55896595  1
  O  O41  1  0.28919218  0.25924762  0.67307815  1
  O  O42  1  0.73730425  0.73528309  0.43205291  1
  O  O43  1  0.74197114  0.25627975  0.56136734  1
  O  O44  1  0.26161156  0.26547411  0.81603139  1
  O  O45  1  0.28018462  0.74143815  0.68423477  1
  O  O46  1  0.72008571  0.74880953  0.57057381  1
  O  O47  1  0.26378054  0.26184925  0.92813024  1
  O  O48  1  0.26161156  0.70878878  0.81603139  1
  O  O49  1  0.71608747  0.28609075  0.68777191  1
  O  O50  1  0.71098919  0.26450519  0.81500011  1
  O  O51  1  0.71608747  0.74673417  0.68777191  1
  O  O52  1  0.26286919  0.75364490  0.93246025  1
  O  O53  1  0.75338068  0.26301220  0.93256969  1
  O  O54  1  0.72946989  0.73052982  0.82736761  1
  O  O55  1  0.75338068  0.75332836  0.93256969  1
