# generated using pymatgen
data_CaH12CO9
_symmetry_space_group_name_H-M   'P 1'
_cell_length_a   6.07537624
_cell_length_b   6.07537666
_cell_length_c   10.98610489
_cell_angle_alpha   76.25947959
_cell_angle_beta   76.25947852
_cell_angle_gamma   86.56445527
_symmetry_Int_Tables_number   1
_chemical_formula_structural   CaH12CO9
_chemical_formula_sum   'Ca2 H24 C2 O18'
_cell_volume   382.61912661
_cell_formula_units_Z   2
loop_
 _symmetry_equiv_pos_site_id
 _symmetry_equiv_pos_as_xyz
  1  'x, y, z'
loop_
 _atom_site_type_symbol
 _atom_site_label
 _atom_site_symmetry_multiplicity
 _atom_site_fract_x
 _atom_site_fract_y
 _atom_site_fract_z
 _atom_site_occupancy
  Ca  Ca0  1  0.14146924  0.85853076  0.75000000  1
  Ca  Ca1  1  0.85853076  0.14146924  0.25000000  1
  C  C2  1  0.79702055  0.20297945  0.75000000  1
  C  C3  1  0.20297945  0.79702055  0.25000000  1
  O  O4  1  0.64113298  0.35886702  0.75000000  1
  O  O5  1  0.35886702  0.64113298  0.25000000  1
  O  O6  1  0.90680476  0.15252237  0.84138212  1
  O  O7  1  0.84747763  0.09319524  0.65861788  1
  O  O8  1  0.09319524  0.84747763  0.15861788  1
  O  O9  1  0.15252237  0.90680476  0.34138212  1
  O  O10  1  0.33752503  0.89726357  0.90873246  1
  O  O11  1  0.10273643  0.66247497  0.59126754  1
  O  O12  1  0.66247497  0.10273643  0.09126754  1
  O  O13  1  0.89726357  0.33752503  0.40873246  1
  O  O14  1  0.33411912  0.23904573  0.61679044  1
  O  O15  1  0.76095427  0.66588088  0.88320956  1
  O  O16  1  0.66588088  0.76095427  0.38320956  1
  O  O17  1  0.23904573  0.33411912  0.11679044  1
  O  O18  1  0.55259776  0.79040483  0.63470752  1
  O  O19  1  0.20959517  0.44740224  0.86529248  1
  O  O20  1  0.44740224  0.20959517  0.36529248  1
  O  O21  1  0.79040483  0.55259776  0.13470752  1
  H  H22  1  0.25841672  0.88027619  1.00088113  1
  H  H23  1  0.11972381  0.74158328  0.49911887  1
  H  H24  1  0.74158328  0.11972381  -0.00088113  1
  H  H25  1  0.88027619  0.25841672  0.50088113  1
  H  H26  1  0.48614200  0.81996074  0.90679518  1
  H  H27  1  0.18003926  0.51385800  0.59320482  1
  H  H28  1  0.51385800  0.18003926  0.09320482  1
  H  H29  1  0.81996074  0.48614200  0.40679518  1
  H  H30  1  0.46339236  0.27347151  0.64977958  1
  H  H31  1  0.72652849  0.53660764  0.85022042  1
  H  H32  1  0.53660764  0.72652849  0.35022042  1
  H  H33  1  0.27347151  0.46339236  0.14977958  1
  H  H34  1  0.39552390  0.22248658  0.52651745  1
  H  H35  1  0.77751342  0.60447610  0.97348255  1
  H  H36  1  0.60447610  0.77751342  0.47348255  1
  H  H37  1  0.22248658  0.39552390  0.02651745  1
  H  H38  1  0.66112853  0.89967579  0.64333804  1
  H  H39  1  0.10032421  0.33887146  0.85666196  1
  H  H40  1  0.33887147  0.10032421  0.35666196  1
  H  H41  1  0.89967579  0.66112854  0.14333804  1
  H  H42  1  0.61265462  0.63750949  0.66706918  1
  H  H43  1  0.36249051  0.38734538  0.83293082  1
  H  H44  1  0.38734538  0.36249051  0.33293082  1
  H  H45  1  0.63750949  0.61265462  0.16706918  1
