# generated using pymatgen
data_Li2V(PO3)5
_symmetry_space_group_name_H-M   'P 1'
_cell_length_a   5.23687866
_cell_length_b   13.49651615
_cell_length_c   9.00446382
_cell_angle_alpha   90.00000000
_cell_angle_beta   100.48377826
_cell_angle_gamma   90.00000000
_symmetry_Int_Tables_number   1
_chemical_formula_structural   Li2V(PO3)5
_chemical_formula_sum   'Li4 V2 P10 O30'
_cell_volume   625.80775637
_cell_formula_units_Z   2
loop_
 _symmetry_equiv_pos_site_id
 _symmetry_equiv_pos_as_xyz
  1  'x, y, z'
loop_
 _atom_site_type_symbol
 _atom_site_label
 _atom_site_symmetry_multiplicity
 _atom_site_fract_x
 _atom_site_fract_y
 _atom_site_fract_z
 _atom_site_occupancy
  Li  Li0  1  0.04214450  0.12541813  0.07426800  1
  Li  Li1  1  0.04214450  0.37458187  0.07426800  1
  Li  Li2  1  0.95785550  0.62541813  0.92573200  1
  Li  Li3  1  0.95785550  0.87458187  0.92573200  1
  O  O4  1  0.19185525  0.03333684  0.92657949  1
  O  O5  1  0.19185525  0.46666316  0.92657949  1
  O  O6  1  0.20192690  0.75000000  0.89840499  1
  O  O7  1  0.12929108  0.14494904  0.69768982  1
  O  O8  1  0.12929108  0.35505096  0.69768982  1
  O  O9  1  0.04743247  0.25000000  0.46706520  1
  O  O10  1  0.15093794  0.07465803  0.43450306  1
  O  O11  1  0.15093794  0.42534197  0.43450306  1
  O  O12  1  0.28769913  0.62527616  0.48920277  1
  O  O13  1  0.28769913  0.87472384  0.48920277  1
  O  O14  1  0.54430566  0.15736590  0.88515594  1
  O  O15  1  0.54430566  0.34263410  0.88515594  1
  O  O16  1  0.47398695  0.00928709  0.72037012  1
  O  O17  1  0.47398695  0.49071291  0.72037012  1
  O  O18  1  0.28717093  0.25000000  0.05940427  1
  O  O19  1  0.71282907  0.75000000  0.94059573  1
  O  O20  1  0.52601305  0.50928709  0.27962988  1
  O  O21  1  0.52601305  0.99071291  0.27962988  1
  O  O22  1  0.45569434  0.65736590  0.11484406  1
  O  O23  1  0.45569434  0.84263410  0.11484406  1
  O  O24  1  0.71230087  0.12527616  0.51079723  1
  O  O25  1  0.71230087  0.37472384  0.51079723  1
  O  O26  1  0.84906206  0.57465803  0.56549694  1
  O  O27  1  0.84906206  0.92534197  0.56549694  1
  O  O28  1  0.95256753  0.75000000  0.53293480  1
  O  O29  1  0.87070892  0.64494904  0.30231018  1
  O  O30  1  0.87070892  0.85505096  0.30231018  1
  O  O31  1  0.79807310  0.25000000  0.10159501  1
  O  O32  1  0.80814475  0.53333684  0.07342051  1
  O  O33  1  0.80814475  0.96666316  0.07342051  1
  P  P34  1  1.00080333  0.14050399  0.52268819  1
  P  P35  1  1.00080333  0.35949601  0.52268819  1
  P  P36  1  0.33241868  0.07676863  0.81205496  1
  P  P37  1  0.33241868  0.42323137  0.81205496  1
  P  P38  1  0.46287819  0.75000000  0.99947997  1
  P  P39  1  0.53712181  0.25000000  0.00052003  1
  P  P40  1  0.66758132  0.57676863  0.18794504  1
  P  P41  1  0.66758132  0.92323137  0.18794504  1
  P  P42  1  -0.00080333  0.64050399  0.47731181  1
  P  P43  1  -0.00080333  0.85949601  0.47731181  1
  V  V44  1  0.50000000  0.00000000  0.50000000  1
  V  V45  1  0.50000000  0.50000000  0.50000000  1
