# generated using pymatgen
data_Li2Cr3(P2O7)2
_symmetry_space_group_name_H-M   'P 1'
_cell_length_a   7.45329843
_cell_length_b   8.16622975
_cell_length_c   9.59559096
_cell_angle_alpha   90.00000000
_cell_angle_beta   107.51333786
_cell_angle_gamma   90.00000000
_symmetry_Int_Tables_number   1
_chemical_formula_structural   Li2Cr3(P2O7)2
_chemical_formula_sum   'Li4 Cr6 P8 O28'
_cell_volume   556.96697346
_cell_formula_units_Z   2
loop_
 _symmetry_equiv_pos_site_id
 _symmetry_equiv_pos_as_xyz
  1  'x, y, z'
loop_
 _atom_site_type_symbol
 _atom_site_label
 _atom_site_symmetry_multiplicity
 _atom_site_fract_x
 _atom_site_fract_y
 _atom_site_fract_z
 _atom_site_occupancy
  Cr  Cr0  1  0.00000000  0.00000000  0.50000000  1
  Cr  Cr1  1  0.19436032  0.62886346  0.51473943  1
  Cr  Cr2  1  0.00000000  0.50000000  0.00000000  1
  Cr  Cr3  1  0.19436032  0.87113654  0.01473943  1
  Cr  Cr4  1  0.80563968  0.12886346  0.98526057  1
  Cr  Cr5  1  0.80563968  0.37113654  0.48526057  1
  Li  Li6  1  0.30085058  0.57625582  0.85838118  1
  Li  Li7  1  0.30085058  0.92374418  0.35838118  1
  Li  Li8  1  0.69914942  0.07625582  0.64161882  1
  Li  Li9  1  0.69914942  0.42374418  0.14161882  1
  O  O10  1  0.00296032  0.70918147  0.86958254  1
  O  O11  1  0.00531524  0.09580267  0.87746338  1
  O  O12  1  0.13406102  0.38080598  0.86414785  1
  O  O13  1  0.00296032  0.79081853  0.36958254  1
  O  O14  1  0.00531524  0.40419733  0.37746338  1
  O  O15  1  0.30798132  0.13768469  0.81294000  1
  O  O16  1  0.13406102  0.11919402  0.36414785  1
  O  O17  1  0.36245390  0.83667467  0.88074178  1
  O  O18  1  0.31441418  0.92277632  0.61605647  1
  O  O19  1  0.39023709  0.51342767  0.68833748  1
  O  O20  1  0.30798132  0.36231531  0.31294000  1
  O  O21  1  0.36245390  0.66332533  0.38074178  1
  O  O22  1  0.31441418  0.57722368  0.11605647  1
  O  O23  1  0.60976291  0.01342767  0.81166252  1
  O  O24  1  0.39023709  0.98657233  0.18833748  1
  O  O25  1  0.68558582  0.42277632  0.88394353  1
  O  O26  1  0.63754610  0.33667467  0.61925822  1
  O  O27  1  0.69201868  0.63768469  0.68706000  1
  O  O28  1  0.60976291  0.48657233  0.31166252  1
  O  O29  1  0.68558582  0.07722368  0.38394353  1
  O  O30  1  0.63754610  0.16332533  0.11925822  1
  O  O31  1  0.86593898  0.88080598  0.63585215  1
  O  O32  1  0.69201868  0.86231531  0.18706000  1
  O  O33  1  0.99468476  0.59580267  0.62253662  1
  O  O34  1  0.99703968  0.20918147  0.63041746  1
  O  O35  1  0.86593898  0.61919402  0.13585215  1
  O  O36  1  0.99468476  0.90419733  0.12253662  1
  O  O37  1  0.99703968  0.29081853  0.13041746  1
  P  P38  1  0.10362475  0.21042785  0.79738443  1
  P  P39  1  0.10362475  0.28957215  0.29738443  1
  P  P40  1  0.40191662  0.96608445  0.77701119  1
  P  P41  1  0.40191662  0.53391555  0.27701119  1
  P  P42  1  0.59808338  0.46608445  0.72298881  1
  P  P43  1  0.59808338  0.03391555  0.22298881  1
  P  P44  1  0.89637525  0.71042785  0.70261557  1
  P  P45  1  0.89637525  0.78957215  0.20261557  1
