# generated using pymatgen
data_NaCa2ScZn2(SiO3)6
_symmetry_space_group_name_H-M   'P 1'
_cell_length_a   5.34656855
_cell_length_b   20.21272358
_cell_length_c   9.95853896
_cell_angle_alpha   42.35114963
_cell_angle_beta   73.77627929
_cell_angle_gamma   78.08404947
_symmetry_Int_Tables_number   1
_chemical_formula_structural   NaCa2ScZn2(SiO3)6
_chemical_formula_sum   'Na2 Ca4 Sc2 Zn4 Si12 O36'
_cell_volume   696.13944252
_cell_formula_units_Z   2
loop_
 _symmetry_equiv_pos_site_id
 _symmetry_equiv_pos_as_xyz
  1  'x, y, z'
loop_
 _atom_site_type_symbol
 _atom_site_label
 _atom_site_symmetry_multiplicity
 _atom_site_fract_x
 _atom_site_fract_y
 _atom_site_fract_z
 _atom_site_occupancy
  Ca  Ca0  1  0.25000000  0.13437778  0.29843333  1
  Ca  Ca1  1  0.25000000  0.46718146  0.29922732  1
  Ca  Ca2  1  0.75000000  0.19948454  0.70077268  1
  Ca  Ca3  1  0.75000000  0.53228922  0.70156667  1
  Na  Na4  1  0.25000000  0.79738177  0.30392785  1
  Na  Na5  1  0.75000000  0.86928523  0.69607215  1
  O  O6  1  0.99638332  0.32147464  0.66897428  1
  O  O7  1  0.17575745  0.16921138  0.60964939  1
  O  O8  1  0.35558184  0.27338732  0.20656791  1
  O  O9  1  0.00185252  0.65496696  0.66955849  1
  O  O10  1  0.14441816  0.27338732  0.97326914  1
  O  O11  1  0.17746304  0.50075796  0.60951545  1
  O  O12  1  0.50185252  0.01170004  0.63445936  1
  O  O13  1  0.32424255  0.16921138  0.88271646  1
  O  O14  1  0.34881418  0.60926690  0.20387131  1
  O  O15  1  0.67746304  0.16590804  0.11179034  1
  O  O16  1  0.50361668  0.32147464  0.36660282  1
  O  O17  1  0.00894001  0.99250605  0.66114806  1
  O  O18  1  0.84881418  0.05740010  0.03167100  1
  O  O19  1  0.15118582  0.60926690  0.96832900  1
  O  O20  1  0.18765007  0.83479424  0.60790318  1
  O  O21  1  0.49638332  0.34519236  0.63339718  1
  O  O22  1  0.32253696  0.50075796  0.88820966  1
  O  O23  1  0.65118582  0.05740010  0.79612869  1
  O  O24  1  0.35696738  0.94353381  0.20187095  1
  O  O25  1  0.67575745  0.49745562  0.11728354  1
  O  O26  1  0.49814748  0.65496696  0.36554064  1
  O  O27  1  0.82253696  0.16590804  0.39048455  1
  O  O28  1  0.85558184  0.39327868  0.02673086  1
  O  O29  1  0.14303262  0.94353381  0.96752763  1
  O  O30  1  0.99814748  0.01170004  0.33044151  1
  O  O31  1  0.50894001  0.67415995  0.63866722  1
  O  O32  1  0.31234993  0.83479424  0.88771510  1
  O  O33  1  0.64441816  0.39327868  0.79343209  1
  O  O34  1  0.68765007  0.83187276  0.11228490  1
  O  O35  1  0.49105999  0.99250605  0.36133278  1
  O  O36  1  0.82424255  0.49745562  0.39035061  1
  O  O37  1  0.85696738  0.72313319  0.03247237  1
  O  O38  1  0.00361668  0.34519236  0.33102572  1
  O  O39  1  0.64303262  0.72313319  0.79812905  1
  O  O40  1  0.81234993  0.83187276  0.39209682  1
  O  O41  1  0.99105999  0.67415995  0.33885194  1
  Sc  Sc42  1  0.25000000  0.73558271  0.89662644  1
  Sc  Sc43  1  0.75000000  0.93108429  0.10337356  1
  Si  Si44  1  0.26951935  0.27192625  0.37850533  1
  Si  Si45  1  0.23048065  0.27192625  0.80571592  1
  Si  Si46  1  0.26288229  0.60589285  0.38012293  1
  Si  Si47  1  0.76288229  0.06077315  0.19780249  1
  Si  Si48  1  0.23711771  0.60589285  0.80219751  1
  Si  Si49  1  0.26271555  0.94029873  0.37657253  1
  Si  Si50  1  0.73711771  0.06077315  0.61987707  1
  Si  Si51  1  0.76951935  0.39474075  0.19428408  1
  Si  Si52  1  0.23728444  0.94029873  0.80253226  1
  Si  Si53  1  0.73048065  0.39474075  0.62149467  1
  Si  Si54  1  0.76271556  0.72636827  0.19746774  1
  Si  Si55  1  0.73728445  0.72636827  0.62342747  1
  Zn  Zn56  1  0.25000000  0.06470935  0.90293598  1
  Zn  Zn57  1  0.25000000  0.39733480  0.90399730  1
  Zn  Zn58  1  0.75000000  0.26933120  0.09600270  1
  Zn  Zn59  1  0.75000000  0.60195765  0.09706402  1
