# generated using pymatgen
data_LiNi(PO3)4
_symmetry_space_group_name_H-M   'P 1'
_cell_length_a   12.87181182
_cell_length_b   8.36083323
_cell_length_c   9.30915987
_cell_angle_alpha   90.00000000
_cell_angle_beta   90.00000000
_cell_angle_gamma   90.00000000
_symmetry_Int_Tables_number   1
_chemical_formula_structural   LiNi(PO3)4
_chemical_formula_sum   'Li4 Ni4 P16 O48'
_cell_volume   1001.84314626
_cell_formula_units_Z   4
loop_
 _symmetry_equiv_pos_site_id
 _symmetry_equiv_pos_as_xyz
  1  'x, y, z'
loop_
 _atom_site_type_symbol
 _atom_site_label
 _atom_site_symmetry_multiplicity
 _atom_site_fract_x
 _atom_site_fract_y
 _atom_site_fract_z
 _atom_site_occupancy
  Li  Li0  1  -0.00000000  0.99452872  0.25000000  1
  Li  Li1  1  0.50000000  0.50547128  0.75000000  1
  Li  Li2  1  0.00000000  0.00547128  0.75000000  1
  Li  Li3  1  0.50000000  0.49452872  0.25000000  1
  Ni  Ni4  1  -0.00000000  0.36973062  0.75000000  1
  Ni  Ni5  1  0.50000000  0.86973062  0.75000000  1
  Ni  Ni6  1  0.50000000  0.13026938  0.25000000  1
  Ni  Ni7  1  0.00000000  0.63026938  0.25000000  1
  P  P8  1  0.86157360  0.82032579  0.49459675  1
  P  P9  1  0.15007837  0.46292516  0.00938379  1
  P  P10  1  0.65007837  0.03707484  0.99061621  1
  P  P11  1  0.13842640  0.82032579  0.00540325  1
  P  P12  1  0.13842640  0.17967421  0.50540325  1
  P  P13  1  0.36157360  0.67967421  0.50540325  1
  P  P14  1  0.15007837  0.53707484  0.50938379  1
  P  P15  1  0.86157360  0.17967421  0.99459675  1
  P  P16  1  0.65007837  0.96292516  0.49061621  1
  P  P17  1  0.36157360  0.32032579  0.00540325  1
  P  P18  1  0.84992163  0.53707484  0.99061621  1
  P  P19  1  0.34992163  0.96292516  0.00938379  1
  P  P20  1  0.34992163  0.03707484  0.50938379  1
  P  P21  1  0.84992163  0.46292516  0.49061621  1
  P  P22  1  0.63842640  0.67967421  0.99459675  1
  P  P23  1  0.63842640  0.32032579  0.49459675  1
  O  O24  1  0.74278951  0.60191313  0.92660478  1
  O  O25  1  0.60509705  0.40419386  0.62745287  1
  O  O26  1  0.75721049  0.10191313  0.92660478  1
  O  O27  1  0.10509705  0.90419386  0.87254713  1
  O  O28  1  0.07043897  0.46050819  0.12818058  1
  O  O29  1  0.42956103  0.96050819  0.12818058  1
  O  O30  1  0.17901897  0.35688391  0.46626357  1
  O  O31  1  0.07043897  0.53949181  0.62818058  1
  O  O32  1  0.75721049  0.89808687  0.42660478  1
  O  O33  1  0.93614761  0.81292135  0.36897820  1
  O  O34  1  0.12501591  0.36761167  0.87710352  1
  O  O35  1  0.67901897  0.14311609  0.53373643  1
  O  O36  1  0.10509705  0.09580614  0.37254713  1
  O  O37  1  0.37498409  0.86761167  0.87710352  1
  O  O38  1  0.43614761  0.68707865  0.63102180  1
  O  O39  1  0.93614761  0.18707865  0.86897820  1
  O  O40  1  0.42956103  0.03949181  0.62818058  1
  O  O41  1  0.39490295  0.40419386  0.87254713  1
  O  O42  1  0.74278951  0.39808687  0.42660478  1
  O  O43  1  0.67901897  0.85688391  0.03373643  1
  O  O44  1  0.24278951  0.89808687  0.07339522  1
  O  O45  1  0.39490295  0.59580614  0.37254713  1
  O  O46  1  0.87498409  0.36761167  0.62289648  1
  O  O47  1  0.62501591  0.13238833  0.12289648  1
  O  O48  1  0.32098103  0.14311609  0.96626357  1
  O  O49  1  0.24278951  0.10191313  0.57339522  1
  O  O50  1  0.62501591  0.86761167  0.62289648  1
  O  O51  1  0.25721049  0.60191313  0.57339522  1
  O  O52  1  0.12501591  0.63238833  0.37710352  1
  O  O53  1  0.82098103  0.64311609  0.53373643  1
  O  O54  1  0.60509705  0.59580614  0.12745287  1
  O  O55  1  0.56385239  0.31292135  0.36897820  1
  O  O56  1  0.25721049  0.39808687  0.07339522  1
  O  O57  1  0.82098103  0.35688391  0.03373643  1
  O  O58  1  0.87498409  0.63238833  0.12289648  1
  O  O59  1  0.32098103  0.85688391  0.46626357  1
  O  O60  1  0.06385239  0.81292135  0.13102180  1
  O  O61  1  0.89490295  0.90419386  0.62745287  1
  O  O62  1  0.92956103  0.53949181  0.87181942  1
  O  O63  1  0.17901897  0.64311609  0.96626357  1
  O  O64  1  0.57043897  0.03949181  0.87181942  1
  O  O65  1  0.57043897  0.96050819  0.37181942  1
  O  O66  1  0.56385239  0.68707865  0.86897820  1
  O  O67  1  0.43614761  0.31292135  0.13102180  1
  O  O68  1  0.89490295  0.09580614  0.12745287  1
  O  O69  1  0.06385239  0.18707865  0.63102180  1
  O  O70  1  0.92956103  0.46050819  0.37181942  1
  O  O71  1  0.37498409  0.13238833  0.37710352  1
