# generated using pymatgen
data_LiCr4(PO4)3
_symmetry_space_group_name_H-M   'P 1'
_cell_length_a   7.56967157
_cell_length_b   8.12145008
_cell_length_c   9.79395591
_cell_angle_alpha   109.76921448
_cell_angle_beta   110.43487885
_cell_angle_gamma   93.47479222
_symmetry_Int_Tables_number   1
_chemical_formula_structural   LiCr4(PO4)3
_chemical_formula_sum   'Li2 Cr8 P6 O24'
_cell_volume   519.94061140
_cell_formula_units_Z   2
loop_
 _symmetry_equiv_pos_site_id
 _symmetry_equiv_pos_as_xyz
  1  'x, y, z'
loop_
 _atom_site_type_symbol
 _atom_site_label
 _atom_site_symmetry_multiplicity
 _atom_site_fract_x
 _atom_site_fract_y
 _atom_site_fract_z
 _atom_site_occupancy
  Li  Li0  1  0.40916738  0.11905532  0.43268759  1
  Li  Li1  1  0.59083362  0.88094468  0.56731241  1
  O  O2  1  0.27741700  0.64665488  0.76606264  1
  O  O3  1  0.79199567  0.63483640  0.47495797  1
  O  O4  1  0.75073141  0.32863588  0.49192265  1
  O  O5  1  0.58200636  0.66645691  0.15558404  1
  O  O6  1  0.86410630  0.26149895  0.00979038  1
  O  O7  1  0.92398744  0.92906625  0.09342292  1
  O  O8  1  0.53859908  0.57965139  0.65993336  1
  O  O9  1  0.81495497  0.94201554  0.39393110  1
  O  O10  1  0.13589470  0.73850105  0.99021062  1
  O  O11  1  0.07601356  0.07093375  0.90657708  1
  O  O12  1  0.94123629  0.28385103  0.77782557  1
  O  O13  1  0.18504603  0.05798446  0.60606890  1
  O  O14  1  0.05876371  0.71614897  0.22217443  1
  O  O15  1  0.55767571  0.97785757  0.16001006  1
  O  O16  1  0.24926859  0.67136412  0.50807835  1
  O  O17  1  0.41799364  0.33354309  0.84441496  1
  O  O18  1  0.44232529  0.02214243  0.83998994  1
  O  O19  1  0.19201851  0.40966447  0.05012952  1
  O  O20  1  0.72258300  0.35334512  0.23393736  1
  O  O21  1  0.53359349  0.12520302  0.65083056  1
  O  O22  1  0.46640551  0.87479698  0.34916944  1
  O  O23  1  0.46140192  0.42034761  0.34006564  1
  O  O24  1  0.80798049  0.59033553  0.94987048  1
  O  O25  1  0.20800533  0.36516360  0.52504203  1
  P  P26  1  0.01739252  0.24965758  0.93443900  1
  P  P27  1  0.32193801  0.55984487  0.61527640  1
  P  P28  1  0.39661575  0.13668123  0.73803860  1
  P  P29  1  0.60338325  0.86331877  0.26196140  1
  P  P30  1  0.67806099  0.44015513  0.38472360  1
  P  P31  1  0.98260648  0.75034242  0.06556000  1
  Cr  Cr32  1  0.98761671  0.20428820  0.52828953  1
  Cr  Cr33  1  0.74155382  0.09876369  0.09506394  1
  Cr  Cr34  1  0.72855577  0.47444688  0.08177354  1
  Cr  Cr35  1  0.73422021  0.43016296  0.71792326  1
  Cr  Cr36  1  0.26577979  0.56983704  0.28207674  1
  Cr  Cr37  1  0.27144423  0.52555312  0.91822646  1
  Cr  Cr38  1  0.25844718  0.90123631  0.90493506  1
  Cr  Cr39  1  0.01238329  0.79571180  0.47171047  1
