# generated using pymatgen
data_NaH5SO4
_symmetry_space_group_name_H-M   'P 1'
_cell_length_a   5.99173588
_cell_length_b   7.62628077
_cell_length_c   21.56037886
_cell_angle_alpha   90.00000000
_cell_angle_beta   90.00000000
_cell_angle_gamma   104.23824137
_symmetry_Int_Tables_number   1
_chemical_formula_structural   NaH5SO4
_chemical_formula_sum   'Na8 H40 S8 O32'
_cell_volume   954.93040454
_cell_formula_units_Z   8
loop_
 _symmetry_equiv_pos_site_id
 _symmetry_equiv_pos_as_xyz
  1  'x, y, z'
loop_
 _atom_site_type_symbol
 _atom_site_label
 _atom_site_symmetry_multiplicity
 _atom_site_fract_x
 _atom_site_fract_y
 _atom_site_fract_z
 _atom_site_occupancy
  S  S0  1  0.90228628  0.88885878  0.93350484  1
  S  S1  1  0.09771372  0.61114122  0.43350484  1
  S  S2  1  0.09771372  0.11114122  0.06649516  1
  S  S3  1  0.90228628  0.38885878  0.56649516  1
  S  S4  1  0.85386637  0.72291640  0.85735813  1
  S  S5  1  0.14613363  0.77708360  0.35735813  1
  S  S6  1  0.14613363  0.27708360  0.14264187  1
  S  S7  1  0.85386637  0.22291640  0.64264187  1
  Na  Na8  1  0.27495492  0.91804046  0.65941006  1
  Na  Na9  1  0.72504508  0.58195954  0.15941006  1
  Na  Na10  1  0.72504508  0.08195954  0.34058994  1
  Na  Na11  1  0.27495492  0.41804046  0.84058994  1
  Na  Na12  1  0.74462472  0.78507876  0.59179140  1
  Na  Na13  1  0.25537528  0.71492124  0.09179140  1
  Na  Na14  1  0.25537528  0.21492124  0.40820860  1
  Na  Na15  1  0.74462472  0.28507876  0.90820860  1
  O  O16  1  0.66327718  0.56373668  0.87063800  1
  O  O17  1  0.33672282  0.93626332  0.37063800  1
  O  O18  1  0.33672282  0.43626332  0.12936200  1
  O  O19  1  0.66327718  0.06373668  0.62936200  1
  O  O20  1  0.07033852  0.66938535  0.84330693  1
  O  O21  1  0.92966148  0.83061465  0.34330693  1
  O  O22  1  0.92966148  0.33061465  0.15669307  1
  O  O23  1  0.07033852  0.16938535  0.65669307  1
  O  O24  1  0.79613045  0.83121677  0.80412538  1
  O  O25  1  0.20386955  0.66878323  0.30412538  1
  O  O26  1  0.20386955  0.16878323  0.19587462  1
  O  O27  1  0.79613045  0.33121677  0.69587462  1
  O  O28  1  0.37929010  0.90510625  0.76833526  1
  O  O29  1  0.62070990  0.59489375  0.26833526  1
  O  O30  1  0.62070990  0.09489375  0.23166474  1
  O  O31  1  0.37929010  0.40510625  0.73166474  1
  O  O32  1  0.90813071  0.71974389  0.68695198  1
  O  O33  1  0.09186929  0.78025611  0.18695198  1
  O  O34  1  0.09186929  0.28025611  0.31304802  1
  O  O35  1  0.90813071  0.21974389  0.81304802  1
  O  O36  1  0.38252605  0.64029424  0.63305836  1
  O  O37  1  0.61747395  0.85970576  0.13305836  1
  O  O38  1  0.61747395  0.35970576  0.36694164  1
  O  O39  1  0.38252605  0.14029424  0.86694164  1
  O  O40  1  0.13806336  0.89425437  0.55218752  1
  O  O41  1  0.86193664  0.60574563  0.05218752  1
  O  O42  1  0.86193664  0.10574563  0.44781248  1
  O  O43  1  0.13806336  0.39425437  0.94781248  1
  O  O44  1  0.35052327  0.74831376  0.98362806  1
  O  O45  1  0.64947673  0.75168624  0.48362806  1
  O  O46  1  0.64947673  0.25168624  0.01637194  1
  O  O47  1  0.35052327  0.24831376  0.51637194  1
  H  H48  1  0.52319017  0.86989330  0.77840877  1
  H  H49  1  0.47680983  0.63010670  0.27840877  1
  H  H50  1  0.47680983  0.13010670  0.22159123  1
  H  H51  1  0.52319017  0.36989330  0.72159123  1
  H  H52  1  0.25820462  0.81273427  0.78973948  1
  H  H53  1  0.74179538  0.68726573  0.28973948  1
  H  H54  1  0.74179538  0.18726573  0.21026052  1
  H  H55  1  0.25820462  0.31273427  0.71026052  1
  H  H56  1  0.86153369  0.75562271  0.72806461  1
  H  H57  1  0.13846631  0.74437729  0.22806461  1
  H  H58  1  0.13846631  0.24437729  0.27193539  1
  H  H59  1  0.86153369  0.25562271  0.77193539  1
  H  H60  1  0.88868906  0.58793694  0.68951061  1
  H  H61  1  0.11131094  0.91206306  0.18951061  1
  H  H62  1  0.11131094  0.41206306  0.31048939  1
  H  H63  1  0.88868906  0.08793694  0.81048939  1
  H  H64  1  0.38761062  0.56424303  0.67033999  1
  H  H65  1  0.61238938  0.93575697  0.17033999  1
  H  H66  1  0.61238938  0.43575697  0.32966001  1
  H  H67  1  0.38761062  0.06424303  0.82966001  1
  H  H68  1  0.24631011  0.57421551  0.60974278  1
  H  H69  1  0.75368989  0.92578449  0.10974278  1
  H  H70  1  0.75368989  0.42578449  0.39025722  1
  H  H71  1  0.24631011  0.07421551  0.89025722  1
  H  H72  1  0.14800252  0.81450780  0.51682038  1
  H  H73  1  0.85199748  0.68549220  0.01682038  1
  H  H74  1  0.85199748  0.18549220  0.48317962  1
  H  H75  1  0.14800252  0.31450780  0.98317962  1
  H  H76  1  0.21433176  0.01825482  0.53780350  1
  H  H77  1  0.78566824  0.48174518  0.03780350  1
  H  H78  1  0.78566824  0.98174518  0.46219650  1
  H  H79  1  0.21433176  0.51825482  0.96219650  1
  H  H80  1  0.24487231  0.81099801  0.96287860  1
  H  H81  1  0.75512769  0.68900199  0.46287860  1
  H  H82  1  0.75512769  0.18900199  0.03712140  1
  H  H83  1  0.24487231  0.31099801  0.53712140  1
  H  H84  1  0.50449423  0.79638111  0.96526667  1
  H  H85  1  0.49550577  0.70361889  0.46526667  1
  H  H86  1  0.49550577  0.20361889  0.03473333  1
  H  H87  1  0.50449423  0.29638111  0.53473333  1
