# generated using pymatgen
data_Mn(PO3)4
_symmetry_space_group_name_H-M   'P 1'
_cell_length_a   12.73785371
_cell_length_b   8.38635805
_cell_length_c   9.01429630
_cell_angle_alpha   90.00000000
_cell_angle_beta   90.00000000
_cell_angle_gamma   90.00000000
_symmetry_Int_Tables_number   1
_chemical_formula_structural   Mn(PO3)4
_chemical_formula_sum   'Mn4 P16 O48'
_cell_volume   962.94500884
_cell_formula_units_Z   4
loop_
 _symmetry_equiv_pos_site_id
 _symmetry_equiv_pos_as_xyz
  1  'x, y, z'
loop_
 _atom_site_type_symbol
 _atom_site_label
 _atom_site_symmetry_multiplicity
 _atom_site_fract_x
 _atom_site_fract_y
 _atom_site_fract_z
 _atom_site_occupancy
  Mn  Mn0  1  0.00000000  0.36207336  0.75000000  1
  Mn  Mn1  1  0.00000000  0.63792664  0.25000000  1
  Mn  Mn2  1  0.50000000  0.13792664  0.25000000  1
  Mn  Mn3  1  0.50000000  0.86207336  0.75000000  1
  O  O4  1  0.06306099  0.20216641  0.62993913  1
  O  O5  1  0.06306099  0.79783359  0.12993913  1
  O  O6  1  0.06479288  0.46927005  0.13393130  1
  O  O7  1  0.06479288  0.53072995  0.63393130  1
  O  O8  1  0.11814630  0.09399228  0.37271479  1
  O  O9  1  0.11814630  0.90600772  0.87271479  1
  O  O10  1  0.12152138  0.36068325  0.88028587  1
  O  O11  1  0.12152138  0.63931675  0.38028587  1
  O  O12  1  0.18451635  0.36666463  0.46477906  1
  O  O13  1  0.18451635  0.63333537  0.96477906  1
  O  O14  1  0.25016282  0.11912280  0.58845058  1
  O  O15  1  0.25016282  0.88087720  0.08845058  1
  O  O16  1  0.24983718  0.38087720  0.08845058  1
  O  O17  1  0.24983718  0.61912280  0.58845058  1
  O  O18  1  0.31548365  0.13333537  0.96477906  1
  O  O19  1  0.31548365  0.86666463  0.46477906  1
  O  O20  1  0.37847862  0.13931675  0.38028587  1
  O  O21  1  0.37847862  0.86068325  0.88028587  1
  O  O22  1  0.38185370  0.40600772  0.87271479  1
  O  O23  1  0.38185370  0.59399228  0.37271479  1
  O  O24  1  0.43520712  0.03072995  0.63393130  1
  O  O25  1  0.43520712  0.96927005  0.13393130  1
  O  O26  1  0.43693901  0.29783359  0.12993913  1
  O  O27  1  0.43693901  0.70216641  0.62993913  1
  O  O28  1  0.56306099  0.29783359  0.37006087  1
  O  O29  1  0.56306099  0.70216641  0.87006087  1
  O  O30  1  0.56479288  0.03072995  0.86606870  1
  O  O31  1  0.56479288  0.96927005  0.36606870  1
  O  O32  1  0.61814630  0.40600772  0.62728521  1
  O  O33  1  0.61814630  0.59399228  0.12728521  1
  O  O34  1  0.62152138  0.13931675  0.11971413  1
  O  O35  1  0.62152138  0.86068325  0.61971413  1
  O  O36  1  0.68451635  0.13333537  0.53522094  1
  O  O37  1  0.68451635  0.86666463  0.03522094  1
  O  O38  1  0.75016282  0.38087720  0.41154942  1
  O  O39  1  0.75016282  0.61912280  0.91154942  1
  O  O40  1  0.74983718  0.11912280  0.91154942  1
  O  O41  1  0.74983718  0.88087720  0.41154942  1
  O  O42  1  0.81548365  0.36666463  0.03522094  1
  O  O43  1  0.81548365  0.63333537  0.53522094  1
  O  O44  1  0.87847862  0.36068325  0.61971413  1
  O  O45  1  0.87847862  0.63931675  0.11971413  1
  O  O46  1  0.88185370  0.09399228  0.12728521  1
  O  O47  1  0.88185370  0.90600772  0.62728521  1
  O  O48  1  0.93520712  0.46927005  0.36606870  1
  O  O49  1  0.93520712  0.53072995  0.86606870  1
  O  O50  1  0.93693901  0.20216641  0.87006087  1
  O  O51  1  0.93693901  0.79783359  0.37006087  1
  P  P52  1  0.14405847  0.18672943  0.50537098  1
  P  P53  1  0.14405847  0.81327057  0.00537098  1
  P  P54  1  0.14975362  0.46066752  0.01548048  1
  P  P55  1  0.14975362  0.53933248  0.51548048  1
  P  P56  1  0.35024638  0.03933248  0.51548048  1
  P  P57  1  0.35024638  0.96066752  0.01548048  1
  P  P58  1  0.35594153  0.31327057  0.00537098  1
  P  P59  1  0.35594153  0.68672943  0.50537098  1
  P  P60  1  0.64405847  0.31327057  0.49462902  1
  P  P61  1  0.64405847  0.68672943  0.99462902  1
  P  P62  1  0.64975362  0.03933248  0.98451952  1
  P  P63  1  0.64975362  0.96066752  0.48451952  1
  P  P64  1  0.85024638  0.46066752  0.48451952  1
  P  P65  1  0.85024638  0.53933248  0.98451952  1
  P  P66  1  0.85594153  0.18672943  0.99462902  1
  P  P67  1  0.85594153  0.81327057  0.49462902  1
