# generated using pymatgen
data_Ba4Ca4Tl3Cu6O19
_symmetry_space_group_name_H-M   'P 1'
_cell_length_a   3.86782788
_cell_length_b   3.86782795
_cell_length_c   34.65246731
_cell_angle_alpha   93.19927692
_cell_angle_beta   93.19927698
_cell_angle_gamma   89.99999817
_symmetry_Int_Tables_number   1
_chemical_formula_structural   Ba4Ca4Tl3Cu6O19
_chemical_formula_sum   'Ba4 Ca4 Tl3 Cu6 O19'
_cell_volume   516.78696538
_cell_formula_units_Z   1
loop_
 _symmetry_equiv_pos_site_id
 _symmetry_equiv_pos_as_xyz
  1  'x, y, z'
loop_
 _atom_site_type_symbol
 _atom_site_label
 _atom_site_symmetry_multiplicity
 _atom_site_fract_x
 _atom_site_fract_y
 _atom_site_fract_z
 _atom_site_occupancy
  Ba  Ba0  1  0.46079144  0.46079144  0.92158287  1
  Ba  Ba1  1  0.53920856  0.53920856  0.07841713  1
  Ba  Ba2  1  0.30809338  0.30809338  0.61618676  1
  Ba  Ba3  1  0.69190662  0.69190662  0.38381324  1
  Ca  Ca4  1  0.64035561  0.64035561  0.28071122  1
  Ca  Ca5  1  0.59258336  0.59258336  0.18516672  1
  Ca  Ca6  1  0.40741664  0.40741664  0.81483328  1
  Ca  Ca7  1  0.35964439  0.35964439  0.71928878  1
  Tl  Tl8  1  0.76657144  0.76657144  0.53314287  1
  Tl  Tl9  1  0.00000000  0.00000000  0.00000000  1
  Tl  Tl10  1  0.23342856  0.23342856  0.46685713  1
  Cu  Cu11  1  0.83724976  0.83724976  0.67449953  1
  Cu  Cu12  1  0.06987830  0.06987830  0.13975659  1
  Cu  Cu13  1  0.16275024  0.16275024  0.32550047  1
  Cu  Cu14  1  0.93012170  0.93012170  0.86024341  1
  Cu  Cu15  1  0.88271805  0.88271805  0.76543611  1
  Cu  Cu16  1  0.11728195  0.11728195  0.23456389  1
  O  O17  1  0.07160180  0.57160180  0.14320360  1
  O  O18  1  0.92839820  0.42839820  0.85679640  1
  O  O19  1  0.57160180  0.07160180  0.14320360  1
  O  O20  1  0.79591910  0.79591910  0.59183821  1
  O  O21  1  0.61751873  0.11751873  0.23503747  1
  O  O22  1  0.83664250  0.33664250  0.67328500  1
  O  O23  1  0.26355311  0.26355311  0.52710621  1
  O  O24  1  0.96962248  0.96962248  0.93924497  1
  O  O25  1  0.16335750  0.66335750  0.32671500  1
  O  O26  1  0.88248127  0.38248127  0.76496253  1
  O  O27  1  0.20408090  0.20408090  0.40816179  1
  O  O28  1  0.33664250  0.83664250  0.67328500  1
  O  O29  1  0.11751873  0.61751873  0.23503747  1
  O  O30  1  0.66335750  0.16335750  0.32671500  1
  O  O31  1  0.42839820  0.92839820  0.85679640  1
  O  O32  1  0.03037752  0.03037752  0.06075503  1
  O  O33  1  0.50000000  0.50000000  0.00000000  1
  O  O34  1  0.73644689  0.73644689  0.47289379  1
  O  O35  1  0.38248127  0.88248127  0.76496253  1
