# generated using pymatgen
data_CeYMg6
_symmetry_space_group_name_H-M   'P 1'
_cell_length_a   6.68359823
_cell_length_b   6.71639845
_cell_length_c   5.32635845
_cell_angle_alpha   90.00000000
_cell_angle_beta   90.00000000
_cell_angle_gamma   120.16248020
_symmetry_Int_Tables_number   1
_chemical_formula_structural   CeYMg6
_chemical_formula_sum   'Ce1 Y1 Mg6'
_cell_volume   206.72567891
_cell_formula_units_Z   1
loop_
 _symmetry_equiv_pos_site_id
 _symmetry_equiv_pos_as_xyz
  1  'x, y, z'
loop_
 _atom_site_type_symbol
 _atom_site_label
 _atom_site_symmetry_multiplicity
 _atom_site_fract_x
 _atom_site_fract_y
 _atom_site_fract_z
 _atom_site_occupancy
  Ce  Ce0  1  0.17164168  0.83582034  0.25000000  1
  Y  Y1  1  0.17415802  0.33707851  0.25000000  1
  Mg  Mg2  1  0.66530823  0.33400475  0.25000000  1
  Mg  Mg3  1  0.66530823  0.83130248  0.25000000  1
  Mg  Mg4  1  0.33624876  0.16787431  0.75000000  1
  Mg  Mg5  1  0.33624876  0.66837545  0.75000000  1
  Mg  Mg6  1  0.82601128  0.16300614  0.75000000  1
  Mg  Mg7  1  0.82507505  0.66253802  0.75000000  1
