# generated using pymatgen
data_LiMnP2O7
_symmetry_space_group_name_H-M   'P 1'
_cell_length_a   8.21823593
_cell_length_b   5.13820892
_cell_length_c   12.32841945
_cell_angle_alpha   90.00009014
_cell_angle_beta   81.30927763
_cell_angle_gamma   89.99992955
_symmetry_Int_Tables_number   1
_chemical_formula_structural   LiMnP2O7
_chemical_formula_sum   'Li4 Mn4 P8 O28'
_cell_volume   514.61508029
_cell_formula_units_Z   4
loop_
 _symmetry_equiv_pos_site_id
 _symmetry_equiv_pos_as_xyz
  1  'x, y, z'
loop_
 _atom_site_type_symbol
 _atom_site_label
 _atom_site_symmetry_multiplicity
 _atom_site_fract_x
 _atom_site_fract_y
 _atom_site_fract_z
 _atom_site_occupancy
  Li  Li0  1  0.13618854  0.29956806  0.28361448  1
  Li  Li1  1  0.36381152  0.79956835  0.21638760  1
  Li  Li2  1  0.63618848  0.20043165  0.78361340  1
  Li  Li3  1  0.86381146  0.70043094  0.71638652  1
  O  O4  1  0.41277842  0.17867881  0.11346981  1
  O  O5  1  0.83312866  0.41675905  0.84038517  1
  O  O6  1  0.91277648  0.32132115  0.61346700  1
  O  O7  1  0.90755414  0.09038910  0.40966076  1
  O  O8  1  0.09391245  0.06202792  0.14891487  1
  O  O9  1  0.16687134  0.58323895  0.15961583  1
  O  O10  1  0.08722352  0.67867885  0.38653200  1
  O  O11  1  0.09244586  0.90961090  0.59033924  1
  O  O12  1  0.10907530  0.23793921  0.74240498  1
  O  O13  1  0.22251559  0.35819529  0.54894819  1
  O  O14  1  0.06473138  0.29121565  0.94401001  1
  O  O15  1  0.90608655  0.93797208  0.85108413  1
  O  O16  1  0.33312990  0.08324007  0.34038461  1
  O  O17  1  0.40608593  0.56202827  0.35108734  1
  O  O18  1  0.43527064  0.79121750  0.55599032  1
  O  O19  1  0.27748537  0.85820024  0.95105130  1
  O  O20  1  0.39092280  0.73793772  0.75759524  1
  O  O21  1  0.59244862  0.59038989  0.09033644  1
  O  O22  1  0.89092370  0.76206179  0.25759502  1
  O  O23  1  0.60907720  0.26206328  0.24240476  1
  O  O24  1  0.72251463  0.14179976  0.04894770  1
  O  O25  1  0.56472936  0.20878350  0.44400968  1
  O  O26  1  0.59391407  0.43797173  0.64891166  1
  O  O27  1  0.66687010  0.91675993  0.65961539  1
  O  O28  1  0.58722258  0.82132219  0.88652919  1
  O  O29  1  0.93526862  0.70878435  0.05598899  1
  O  O30  1  0.77748441  0.64180471  0.45105181  1
  O  O31  1  0.40755138  0.40961111  0.90966356  1
  P  P32  1  0.97084087  0.22164001  0.85132446  1
  P  P33  1  0.91277704  0.79460086  0.38499905  1
  P  P34  1  0.52916168  0.72163745  0.64867657  1
  P  P35  1  0.41277243  0.70539625  0.88500102  1
  P  P36  1  0.02915913  0.77835899  0.14867554  1
  P  P37  1  0.08722296  0.20539914  0.61500095  1
  P  P38  1  0.58722657  0.29460175  0.11499998  1
  P  P39  1  0.47083832  0.27836255  0.35132243  1
  Mn  Mn40  1  0.24297941  0.23051234  0.02233559  1
  Mn  Mn41  1  0.25701260  0.73050117  0.47767328  1
  Mn  Mn42  1  0.74298740  0.26949983  0.52232572  1
  Mn  Mn43  1  0.75701959  0.76948866  0.97766341  1
