# generated using pymatgen
data_Ca2IrO4
_symmetry_space_group_name_H-M   'P 1'
_cell_length_a   9.59654165
_cell_length_b   9.59654129
_cell_length_c   3.26339389
_cell_angle_alpha   90.00000000
_cell_angle_beta   90.00000000
_cell_angle_gamma   120.00000119
_symmetry_Int_Tables_number   1
_chemical_formula_structural   Ca2IrO4
_chemical_formula_sum   'Ca6 Ir3 O12'
_cell_volume   260.27329581
_cell_formula_units_Z   3
loop_
 _symmetry_equiv_pos_site_id
 _symmetry_equiv_pos_as_xyz
  1  'x, y, z'
loop_
 _atom_site_type_symbol
 _atom_site_label
 _atom_site_symmetry_multiplicity
 _atom_site_fract_x
 _atom_site_fract_y
 _atom_site_fract_z
 _atom_site_occupancy
  Ir  Ir0  1  0.31879176  0.00000000  0.00000000  1
  Ir  Ir1  1  0.68120824  0.68120824  0.00000000  1
  Ir  Ir2  1  1.00000000  0.31879176  0.00000000  1
  Ca  Ca3  1  0.00000000  0.00000000  0.00000000  1
  Ca  Ca4  1  0.33333300  0.66666700  0.50000000  1
  Ca  Ca5  1  0.66666700  0.33333300  0.50000000  1
  Ca  Ca6  1  0.68174082  0.00000000  0.50000000  1
  Ca  Ca7  1  0.31825918  0.31825918  0.50000000  1
  Ca  Ca8  1  0.00000000  0.68174082  0.50000000  1
  O  O9  1  0.18025028  0.00000000  0.50000000  1
  O  O10  1  0.81974972  0.81974972  0.50000000  1
  O  O11  1  0.00000000  0.18025028  0.50000000  1
  O  O12  1  0.44279289  0.00000000  0.50000000  1
  O  O13  1  0.55720711  0.55720711  0.50000000  1
  O  O14  1  1.00000000  0.44279289  0.50000000  1
  O  O15  1  0.44449211  0.24572033  0.00000000  1
  O  O16  1  0.80122822  0.55550789  0.00000000  1
  O  O17  1  0.75427967  0.19877178  0.00000000  1
  O  O18  1  0.19877178  0.75427967  0.00000000  1
  O  O19  1  0.55550789  0.80122822  0.00000000  1
  O  O20  1  0.24572033  0.44449211  0.00000000  1
