# generated using pymatgen
data_V3O5
_symmetry_space_group_name_H-M   'P 1'
_cell_length_a   5.19243307
_cell_length_b   5.72043912
_cell_length_c   7.08408924
_cell_angle_alpha   109.91869504
_cell_angle_beta   90.00220985
_cell_angle_gamma   117.01665081
_symmetry_Int_Tables_number   1
_chemical_formula_structural   V3O5
_chemical_formula_sum   'V6 O10'
_cell_volume   173.20644895
_cell_formula_units_Z   2
loop_
 _symmetry_equiv_pos_site_id
 _symmetry_equiv_pos_as_xyz
  1  'x, y, z'
loop_
 _atom_site_type_symbol
 _atom_site_label
 _atom_site_symmetry_multiplicity
 _atom_site_fract_x
 _atom_site_fract_y
 _atom_site_fract_z
 _atom_site_occupancy
  V  V0  1  0.62685321  0.76022150  0.47185133  1
  V  V1  1  0.63335241  0.76019993  0.97199811  1
  V  V2  1  0.36664759  0.23980007  0.52800189  1
  V  V3  1  0.37314679  0.23977850  0.02814867  1
  V  V4  1  0.00000000  0.50000000  0.25000000  1
  V  V5  1  0.00000000  0.50000000  0.75000000  1
  O  O6  1  0.65261233  0.11259523  0.08518295  1
  O  O7  1  0.96046736  0.11285492  0.58542224  1
  O  O8  1  0.26918891  0.34183015  0.30722992  1
  O  O9  1  0.57268229  0.34158924  0.80702000  1
  O  O10  1  0.73081109  0.65816985  0.19277008  1
  O  O11  1  0.42731771  0.65841076  0.69298000  1
  O  O12  1  0.34738767  0.88740477  0.41481705  1
  O  O13  1  0.03953264  0.88714508  0.91457776  1
  O  O14  1  0.19566694  0.50012323  0.00018562  1
  O  O15  1  0.80433306  0.49987677  0.49981438  1
