# generated using pymatgen
data_Ca3Cu3(AsO4)4
_symmetry_space_group_name_H-M   'P 1'
_cell_length_a   5.14602599
_cell_length_b   9.27211293
_cell_length_c   15.20860460
_cell_angle_alpha   96.31103657
_cell_angle_beta   90.00000000
_cell_angle_gamma   90.00000000
_symmetry_Int_Tables_number   1
_chemical_formula_structural   Ca3Cu3(AsO4)4
_chemical_formula_sum   'Ca6 Cu6 As8 O32'
_cell_volume   721.27376853
_cell_formula_units_Z   2
loop_
 _symmetry_equiv_pos_site_id
 _symmetry_equiv_pos_as_xyz
  1  'x, y, z'
loop_
 _atom_site_type_symbol
 _atom_site_label
 _atom_site_symmetry_multiplicity
 _atom_site_fract_x
 _atom_site_fract_y
 _atom_site_fract_z
 _atom_site_occupancy
  Ca  Ca0  1  0.96824382  0.03602766  0.73281555  1
  Ca  Ca1  1  0.46824382  0.46397234  0.76718445  1
  Ca  Ca2  1  0.03175618  0.96397234  0.26718445  1
  Ca  Ca3  1  0.53175618  0.53602766  0.23281555  1
  Ca  Ca4  1  0.00000000  0.00000000  0.00000000  1
  Ca  Ca5  1  0.50000000  0.50000000  0.50000000  1
  Cu  Cu6  1  0.02649681  0.32833040  0.11885631  1
  Cu  Cu7  1  0.97350319  0.67166960  0.88114369  1
  Cu  Cu8  1  0.52649681  0.17166960  0.38114369  1
  Cu  Cu9  1  0.47350319  0.82833040  0.61885631  1
  Cu  Cu10  1  0.50000000  0.50000000  0.00000000  1
  Cu  Cu11  1  0.00000000  0.00000000  0.50000000  1
  As  As12  1  0.49232022  0.87990610  0.84031307  1
  As  As13  1  0.00694634  0.34239517  0.90639552  1
  As  As14  1  0.50694634  0.15760483  0.59360448  1
  As  As15  1  0.49305366  0.84239517  0.40639552  1
  As  As16  1  0.50767978  0.12009390  0.15968693  1
  As  As17  1  0.99305366  0.65760483  0.09360448  1
  As  As18  1  0.00767978  0.37990610  0.34031307  1
  As  As19  1  0.99232022  0.62009390  0.65968693  1
  O  O20  1  0.05587316  0.57555009  0.76665466  1
  O  O21  1  0.56477009  0.25242030  0.50428939  1
  O  O22  1  0.11261517  0.25049708  0.81125259  1
  O  O23  1  0.09409675  0.79595366  0.65021066  1
  O  O24  1  0.88738483  0.74950292  0.18874741  1
  O  O25  1  0.44412684  0.07555009  0.26665466  1
  O  O26  1  0.61261517  0.24950292  0.68874741  1
  O  O27  1  0.81288438  0.89984793  0.39863295  1
  O  O28  1  0.83805507  0.50944090  0.40292724  1
  O  O29  1  0.94412684  0.42444991  0.23334534  1
  O  O30  1  0.40590325  0.29595366  0.15021066  1
  O  O31  1  0.18711562  0.10015207  0.60136705  1
  O  O32  1  0.19703388  0.50316486  0.92250423  1
  O  O33  1  0.16194493  0.49055910  0.59707276  1
  O  O34  1  0.83876338  0.10488843  0.14358869  1
  O  O35  1  0.33876338  0.39511157  0.35641131  1
  O  O36  1  0.69703388  0.99683514  0.57749577  1
  O  O37  1  0.38738483  0.75049708  0.31125259  1
  O  O38  1  0.33805507  0.99055910  0.09707276  1
  O  O39  1  0.31288438  0.60015207  0.10136705  1
  O  O40  1  0.66123662  0.60488843  0.64358869  1
  O  O41  1  0.16123662  0.89511157  0.85641131  1
  O  O42  1  0.43522991  0.74757970  0.49571061  1
  O  O43  1  0.06477009  0.24757970  0.99571061  1
  O  O44  1  0.80296612  0.49683514  0.07749577  1
  O  O45  1  0.55587316  0.92444991  0.73334534  1
  O  O46  1  0.90590325  0.20404634  0.34978934  1
  O  O47  1  0.66194493  0.00944090  0.90292724  1
  O  O48  1  0.93522991  0.75242030  0.00428939  1
  O  O49  1  0.68711562  0.39984793  0.89863295  1
  O  O50  1  0.30296612  0.00316486  0.42250423  1
  O  O51  1  0.59409675  0.70404634  0.84978934  1
