# generated using pymatgen
data_LiAlS3(Cl2O3)2
_symmetry_space_group_name_H-M   'P 1'
_cell_length_a   9.75969573
_cell_length_b   10.24860882
_cell_length_c   13.69713438
_cell_angle_alpha   90.00000000
_cell_angle_beta   90.00000000
_cell_angle_gamma   90.00000000
_symmetry_Int_Tables_number   1
_chemical_formula_structural   LiAlS3(Cl2O3)2
_chemical_formula_sum   'Li4 Al4 S12 Cl16 O24'
_cell_volume   1370.03263244
_cell_formula_units_Z   4
loop_
 _symmetry_equiv_pos_site_id
 _symmetry_equiv_pos_as_xyz
  1  'x, y, z'
loop_
 _atom_site_type_symbol
 _atom_site_label
 _atom_site_symmetry_multiplicity
 _atom_site_fract_x
 _atom_site_fract_y
 _atom_site_fract_z
 _atom_site_occupancy
  Li  Li0  1  0.37541359  0.75000000  0.24591063  1
  Li  Li1  1  0.87541359  0.75000000  0.25408937  1
  Li  Li2  1  0.62458641  0.25000000  0.75408937  1
  Li  Li3  1  0.12458641  0.25000000  0.74591063  1
  Al  Al4  1  0.76122416  0.75000000  0.87123244  1
  Al  Al5  1  0.23877584  0.25000000  0.12876756  1
  Al  Al6  1  0.26122416  0.75000000  0.62876756  1
  Al  Al7  1  0.73877584  0.25000000  0.37123244  1
  S  S8  1  0.87249712  0.04268589  0.64602990  1
  S  S9  1  0.62750288  0.54268589  0.14602990  1
  S  S10  1  0.37523061  0.25000000  0.56566490  1
  S  S11  1  0.62476939  0.75000000  0.43433510  1
  S  S12  1  0.37249712  0.45731411  0.85397010  1
  S  S13  1  0.37249712  0.04268589  0.85397010  1
  S  S14  1  0.12750288  0.95731411  0.35397010  1
  S  S15  1  0.62750288  0.95731411  0.14602990  1
  S  S16  1  0.12750288  0.54268589  0.35397010  1
  S  S17  1  0.12476939  0.75000000  0.06566490  1
  S  S18  1  0.87523061  0.25000000  0.93433510  1
  S  S19  1  0.87249712  0.45731411  0.64602990  1
  Cl  Cl20  1  0.87658109  0.57805349  0.90945254  1
  Cl  Cl21  1  0.21902294  0.75000000  0.78319090  1
  Cl  Cl22  1  0.28097706  0.25000000  0.28319090  1
  Cl  Cl23  1  0.07214814  0.75000000  0.54456344  1
  Cl  Cl24  1  0.71902294  0.75000000  0.71680910  1
  Cl  Cl25  1  0.12341891  0.07805349  0.09054746  1
  Cl  Cl26  1  0.62341891  0.07805349  0.40945254  1
  Cl  Cl27  1  0.78097706  0.25000000  0.21680910  1
  Cl  Cl28  1  0.87658109  0.92194651  0.90945254  1
  Cl  Cl29  1  0.92785186  0.25000000  0.45543656  1
  Cl  Cl30  1  0.62341891  0.42194651  0.40945254  1
  Cl  Cl31  1  0.57214814  0.75000000  0.95543656  1
  Cl  Cl32  1  0.12341891  0.42194651  0.09054746  1
  Cl  Cl33  1  0.37658109  0.92194651  0.59054746  1
  Cl  Cl34  1  0.42785186  0.25000000  0.04456344  1
  Cl  Cl35  1  0.37658109  0.57805349  0.59054746  1
  O  O36  1  0.75878187  0.75000000  0.38815396  1
  O  O37  1  0.25878187  0.75000000  0.11184604  1
  O  O38  1  0.99652297  0.59162435  0.31939967  1
  O  O39  1  0.00643954  0.75000000  0.12946709  1
  O  O40  1  0.25039844  0.10618474  0.81674581  1
  O  O41  1  0.49356046  0.25000000  0.62946709  1
  O  O42  1  0.50347703  0.40837565  0.81939967  1
  O  O43  1  0.49652297  0.59162435  0.18060033  1
  O  O44  1  0.00347703  0.09162435  0.68060033  1
  O  O45  1  0.24960156  0.89381526  0.31674581  1
  O  O46  1  0.99356046  0.25000000  0.87053291  1
  O  O47  1  0.00347703  0.40837565  0.68060033  1
  O  O48  1  0.50643954  0.75000000  0.37053291  1
  O  O49  1  0.74960156  0.89381526  0.18325419  1
  O  O50  1  0.24121813  0.25000000  0.61184604  1
  O  O51  1  0.74960156  0.60618474  0.18325419  1
  O  O52  1  0.50347703  0.09162435  0.81939967  1
  O  O53  1  0.49652297  0.90837565  0.18060033  1
  O  O54  1  0.75039844  0.10618474  0.68325419  1
  O  O55  1  0.75039844  0.39381526  0.68325419  1
  O  O56  1  0.74121813  0.25000000  0.88815396  1
  O  O57  1  0.25039844  0.39381526  0.81674581  1
  O  O58  1  0.24960156  0.60618474  0.31674581  1
  O  O59  1  0.99652297  0.90837565  0.31939967  1
