# generated using pymatgen
data_SrTa2Bi2O9
_symmetry_space_group_name_H-M   'P 1'
_cell_length_a   3.93663216
_cell_length_b   3.93663191
_cell_length_c   12.88926066
_cell_angle_alpha   98.78400030
_cell_angle_beta   98.78399978
_cell_angle_gamma   89.99999583
_symmetry_Int_Tables_number   1
_chemical_formula_structural   SrTa2Bi2O9
_chemical_formula_sum   'Sr1 Ta2 Bi2 O9'
_cell_volume   195.03204581
_cell_formula_units_Z   1
loop_
 _symmetry_equiv_pos_site_id
 _symmetry_equiv_pos_as_xyz
  1  'x, y, z'
loop_
 _atom_site_type_symbol
 _atom_site_label
 _atom_site_symmetry_multiplicity
 _atom_site_fract_x
 _atom_site_fract_y
 _atom_site_fract_z
 _atom_site_occupancy
  Sr  Sr0  1  0.00000000  0.00000000  0.00000000  1
  Ta  Ta1  1  0.58503890  0.58503890  0.17007780  1
  Ta  Ta2  1  0.41496110  0.41496110  0.82992220  1
  Bi  Bi3  1  0.20050961  0.20050961  0.40101921  1
  Bi  Bi4  1  0.79949039  0.79949039  0.59898079  1
  O  O5  1  0.07636242  0.57636242  0.15272484  1
  O  O6  1  0.25000000  0.75000000  0.50000000  1
  O  O7  1  0.42363758  0.92363758  0.84727516  1
  O  O8  1  0.50000000  0.50000000  0.00000000  1
  O  O9  1  0.92363758  0.42363758  0.84727516  1
  O  O10  1  0.33934324  0.33934324  0.67868648  1
  O  O11  1  0.57636242  0.07636242  0.15272484  1
  O  O12  1  0.75000000  0.25000000  0.50000000  1
  O  O13  1  0.66065676  0.66065676  0.32131352  1
