# generated using pymatgen
data_YMg6Cu
_symmetry_space_group_name_H-M   'P 1'
_cell_length_a   6.74273334
_cell_length_b   6.05874792
_cell_length_c   4.95465492
_cell_angle_alpha   90.00000000
_cell_angle_beta   90.00000000
_cell_angle_gamma   116.69749228
_symmetry_Int_Tables_number   1
_chemical_formula_structural   YMg6Cu
_chemical_formula_sum   'Y1 Mg6 Cu1'
_cell_volume   180.83141474
_cell_formula_units_Z   1
loop_
 _symmetry_equiv_pos_site_id
 _symmetry_equiv_pos_as_xyz
  1  'x, y, z'
loop_
 _atom_site_type_symbol
 _atom_site_label
 _atom_site_symmetry_multiplicity
 _atom_site_fract_x
 _atom_site_fract_y
 _atom_site_fract_z
 _atom_site_occupancy
  Y  Y0  1  0.12305475  0.31152688  0.25000000  1
  Mg  Mg1  1  0.63074479  0.31459946  0.25000000  1
  Mg  Mg2  1  0.63074479  0.81614433  0.25000000  1
  Mg  Mg3  1  0.34048399  0.16591605  0.75000000  1
  Mg  Mg4  1  0.34048399  0.67456894  0.75000000  1
  Mg  Mg5  1  0.80752970  0.15376535  0.75000000  1
  Mg  Mg6  1  0.89399941  0.69700021  0.75000000  1
  Cu  Cu7  1  0.23295858  0.86647879  0.25000000  1
