# generated using pymatgen
data_Nd2O3
_symmetry_space_group_name_H-M   'P 1'
_cell_length_a   3.70719715
_cell_length_b   7.50546313
_cell_length_c   9.05741748
_cell_angle_alpha   99.84285179
_cell_angle_beta   90.00000000
_cell_angle_gamma   104.29808249
_symmetry_Int_Tables_number   1
_chemical_formula_structural   Nd2O3
_chemical_formula_sum   'Nd6 O9'
_cell_volume   240.37921214
_cell_formula_units_Z   3
loop_
 _symmetry_equiv_pos_site_id
 _symmetry_equiv_pos_as_xyz
  1  'x, y, z'
loop_
 _atom_site_type_symbol
 _atom_site_label
 _atom_site_symmetry_multiplicity
 _atom_site_fract_x
 _atom_site_fract_y
 _atom_site_fract_z
 _atom_site_occupancy
  Nd  Nd0  1  0.63446598  0.26893195  0.48980863  1
  Nd  Nd1  1  0.36553402  0.73106805  0.51019137  1
  Nd  Nd2  1  0.30926689  0.61853378  0.86214344  1
  Nd  Nd3  1  0.96680165  0.93360330  0.18825076  1
  Nd  Nd4  1  0.69073311  0.38146622  0.13785656  1
  Nd  Nd5  1  0.03319835  0.06639670  0.81174924  1
  O  O6  1  0.47376785  0.94753570  0.34400897  1
  O  O7  1  0.52623215  0.05246430  0.65599103  1
  O  O8  1  0.20188061  0.40376122  0.62689291  1
  O  O9  1  0.12918113  0.25836226  0.28564791  1
  O  O10  1  0.50000000  0.00000000  0.00000000  1
  O  O11  1  0.87081887  0.74163774  0.71435209  1
  O  O12  1  0.82466494  0.64932988  0.02662761  1
  O  O13  1  0.17533506  0.35067012  0.97337239  1
  O  O14  1  0.79811939  0.59623878  0.37310709  1
