# generated using pymatgen
data_V2CuO6
_symmetry_space_group_name_H-M   'P 1'
_cell_length_a   3.57376841
_cell_length_b   5.02522231
_cell_length_c   6.66217251
_cell_angle_alpha   105.95126165
_cell_angle_beta   90.00081083
_cell_angle_gamma   110.83263222
_symmetry_Int_Tables_number   1
_chemical_formula_structural   V2CuO6
_chemical_formula_sum   'V2 Cu1 O6'
_cell_volume   106.88010170
_cell_formula_units_Z   1
loop_
 _symmetry_equiv_pos_site_id
 _symmetry_equiv_pos_as_xyz
  1  'x, y, z'
loop_
 _atom_site_type_symbol
 _atom_site_label
 _atom_site_symmetry_multiplicity
 _atom_site_fract_x
 _atom_site_fract_y
 _atom_site_fract_z
 _atom_site_occupancy
  Cu  Cu0  1  0.99718618  0.99994170  0.99994340  1
  V  V1  1  0.20290680  0.40942134  0.66901762  1
  V  V2  1  0.79347954  0.59059479  0.33098380  1
  O  O3  1  0.04167759  0.08755376  0.74183277  1
  O  O4  1  0.95421353  0.91243172  0.25816603  1
  O  O5  1  0.34776595  0.69934864  0.89049037  1
  O  O6  1  0.64843926  0.30069324  0.10954514  1
  O  O7  1  0.29709209  0.59784994  0.42379294  1
  O  O8  1  0.69924105  0.40216486  0.57622791  1
