# generated using pymatgen
data_CuSeO3
_symmetry_space_group_name_H-M   'P 1'
_cell_length_a   7.80054586
_cell_length_b   8.57196229
_cell_length_c   8.63163290
_cell_angle_alpha   90.00000000
_cell_angle_beta   98.42541748
_cell_angle_gamma   90.00000000
_symmetry_Int_Tables_number   1
_chemical_formula_structural   CuSeO3
_chemical_formula_sum   'Cu8 Se8 O24'
_cell_volume   570.93356760
_cell_formula_units_Z   8
loop_
 _symmetry_equiv_pos_site_id
 _symmetry_equiv_pos_as_xyz
  1  'x, y, z'
loop_
 _atom_site_type_symbol
 _atom_site_label
 _atom_site_symmetry_multiplicity
 _atom_site_fract_x
 _atom_site_fract_y
 _atom_site_fract_z
 _atom_site_occupancy
  Cu  Cu0  1  0.47256837  0.79654472  0.02549917  1
  Cu  Cu1  1  0.40846313  0.40018342  0.61654371  1
  Cu  Cu2  1  0.59153687  0.59981658  0.38345629  1
  Cu  Cu3  1  0.09153687  0.90018342  0.88345629  1
  Cu  Cu4  1  0.52743163  0.20345528  0.97450083  1
  Cu  Cu5  1  0.90846313  0.09981658  0.11654371  1
  Cu  Cu6  1  0.02743163  0.29654472  0.47450083  1
  Cu  Cu7  1  0.97256837  0.70345528  0.52549917  1
  Se  Se8  1  0.30482018  0.36372377  0.21163454  1
  Se  Se9  1  0.18064279  0.53806617  0.82762751  1
  Se  Se10  1  0.80482018  0.13627623  0.71163454  1
  Se  Se11  1  0.81935721  0.46193383  0.17237249  1
  Se  Se12  1  0.69517982  0.63627623  0.78836546  1
  Se  Se13  1  0.31935721  0.03806617  0.67237249  1
  Se  Se14  1  0.68064279  0.96193383  0.32762751  1
  Se  Se15  1  0.19517982  0.86372377  0.28836546  1
  O  O16  1  0.40828708  0.19902157  0.16196557  1
  O  O17  1  0.37736148  0.44274324  0.83896762  1
  O  O18  1  0.15902738  0.57182065  0.62717896  1
  O  O19  1  0.75056552  0.27844650  0.08776439  1
  O  O20  1  0.90828708  0.30097843  0.66196557  1
  O  O21  1  0.09171292  0.69902157  0.33803443  1
  O  O22  1  0.24943448  0.72155350  0.91223561  1
  O  O23  1  0.34097262  0.07182065  0.87282104  1
  O  O24  1  0.87736148  0.05725676  0.33896762  1
  O  O25  1  0.12166154  0.28150585  0.27309921  1
  O  O26  1  0.59171292  0.80097843  0.83803443  1
  O  O27  1  0.06825075  0.92130497  0.10757444  1
  O  O28  1  0.65902738  0.92817935  0.12717896  1
  O  O29  1  0.87833846  0.71849415  0.72690079  1
  O  O30  1  0.84097262  0.42817935  0.37282104  1
  O  O31  1  0.62263852  0.55725676  0.16103238  1
  O  O32  1  0.62166154  0.21849415  0.77309921  1
  O  O33  1  0.12263852  0.94274324  0.66103238  1
  O  O34  1  0.74943448  0.77844650  0.41223561  1
  O  O35  1  0.56825075  0.57869503  0.60757444  1
  O  O36  1  0.37833846  0.78150585  0.22690079  1
  O  O37  1  0.43174925  0.42130497  0.39242556  1
  O  O38  1  0.25056552  0.22155350  0.58776439  1
  O  O39  1  0.93174925  0.07869503  0.89242556  1
