# generated using pymatgen
data_Sr2YCu3(PbO4)2
_symmetry_space_group_name_H-M   'P 1'
_cell_length_a   5.36817099
_cell_length_b   5.41249082
_cell_length_c   15.67757877
_cell_angle_alpha   90.29242349
_cell_angle_beta   90.48270454
_cell_angle_gamma   90.13541262
_symmetry_Int_Tables_number   1
_chemical_formula_structural   Sr2YCu3(PbO4)2
_chemical_formula_sum   'Sr4 Y2 Cu6 Pb4 O16'
_cell_volume   455.49139722
_cell_formula_units_Z   2
loop_
 _symmetry_equiv_pos_site_id
 _symmetry_equiv_pos_as_xyz
  1  'x, y, z'
loop_
 _atom_site_type_symbol
 _atom_site_label
 _atom_site_symmetry_multiplicity
 _atom_site_fract_x
 _atom_site_fract_y
 _atom_site_fract_z
 _atom_site_occupancy
  Sr  Sr0  1  0.99768394  0.99699691  0.77881244  1
  Sr  Sr1  1  0.00231606  0.00300309  0.22118756  1
  Sr  Sr2  1  0.50213336  0.50124459  0.22081828  1
  Sr  Sr3  1  0.49786664  0.49875541  0.77918172  1
  Y  Y4  1  0.00000000  0.00000000  0.00000000  1
  Y  Y5  1  0.50000000  0.50000000  0.00000000  1
  Cu  Cu6  1  0.00043821  0.50082936  0.10403256  1
  Cu  Cu7  1  0.50037053  0.00011881  0.10359874  1
  Cu  Cu8  1  0.50000000  0.50000000  0.50000000  1
  Cu  Cu9  1  0.99956179  0.49917064  0.89596744  1
  Cu  Cu10  1  0.49962947  0.99988119  0.89640126  1
  Cu  Cu11  1  0.00000000  0.00000000  0.50000000  1
  Pb  Pb12  1  0.50503978  0.98795348  0.61049108  1
  Pb  Pb13  1  0.00481978  0.49699062  0.61075071  1
  Pb  Pb14  1  0.99518022  0.50300938  0.38924929  1
  Pb  Pb15  1  0.49496022  0.01204652  0.38950892  1
  O  O16  1  0.00465203  0.51024378  0.24979757  1
  O  O17  1  0.25070270  0.25068804  0.09304914  1
  O  O18  1  0.24951081  0.24924875  0.90785895  1
  O  O19  1  0.75048919  0.75075125  0.09214105  1
  O  O20  1  0.50176790  0.99360301  0.25036118  1
  O  O21  1  0.99534797  0.48975622  0.75020243  1
  O  O22  1  0.74929730  0.74931196  0.90695086  1
  O  O23  1  0.45311435  0.55434570  0.61583306  1
  O  O24  1  0.49823210  0.00639699  0.74963882  1
  O  O25  1  0.24979028  0.74988569  0.90716868  1
  O  O26  1  0.75020972  0.25011431  0.09283132  1
  O  O27  1  0.96866655  0.92863794  0.61524090  1
  O  O28  1  0.54688565  0.44565430  0.38416694  1
  O  O29  1  0.03133345  0.07136206  0.38475910  1
  O  O30  1  0.74970628  0.24985482  0.90862729  1
  O  O31  1  0.25029372  0.75014518  0.09137271  1
