# generated using pymatgen
data_CuAs2S4(O2F3)4
_symmetry_space_group_name_H-M   'P 1'
_cell_length_a   7.69045960
_cell_length_b   9.19780023
_cell_length_c   13.21465667
_cell_angle_alpha   90.00000000
_cell_angle_beta   90.00000000
_cell_angle_gamma   105.15202992
_symmetry_Int_Tables_number   1
_chemical_formula_structural   CuAs2S4(O2F3)4
_chemical_formula_sum   'Cu2 As4 S8 O16 F24'
_cell_volume   902.24714230
_cell_formula_units_Z   2
loop_
 _symmetry_equiv_pos_site_id
 _symmetry_equiv_pos_as_xyz
  1  'x, y, z'
loop_
 _atom_site_type_symbol
 _atom_site_label
 _atom_site_symmetry_multiplicity
 _atom_site_fract_x
 _atom_site_fract_y
 _atom_site_fract_z
 _atom_site_occupancy
  Cu  Cu0  1  0.00000000  0.50000000  0.50000000  1
  Cu  Cu1  1  0.00000000  0.00000000  0.00000000  1
  As  As2  1  0.31407439  0.78488196  0.86496728  1
  As  As3  1  0.31407439  0.28488196  0.63503272  1
  As  As4  1  0.68592561  0.21511804  0.13503272  1
  As  As5  1  0.68592561  0.71511804  0.36496728  1
  S  S6  1  0.79587229  0.54852191  0.70706574  1
  S  S7  1  0.72765272  0.16880312  0.45775410  1
  S  S8  1  0.27234728  0.33119688  0.95775410  1
  S  S9  1  0.79587229  0.04852191  0.79293426  1
  S  S10  1  0.20412771  0.95147809  0.20706574  1
  S  S11  1  0.27234728  0.83119688  0.54224590  1
  S  S12  1  0.72765272  0.66880312  0.04224590  1
  S  S13  1  0.20412771  0.45147809  0.29293426  1
  O  O14  1  0.18038613  0.17195410  0.93649524  1
  O  O15  1  0.17098953  0.29221409  0.30901983  1
  O  O16  1  0.18038613  0.67195410  0.56350476  1
  O  O17  1  0.81961387  0.82804590  0.06350476  1
  O  O18  1  0.81961387  0.32804590  0.43649524  1
  O  O19  1  0.77298724  0.10609568  0.55053932  1
  O  O20  1  0.22701276  0.89390432  0.44946068  1
  O  O21  1  0.17098953  0.79221409  0.19098017  1
  O  O22  1  0.86981291  0.96226414  0.86872066  1
  O  O23  1  0.22701276  0.39390432  0.05053932  1
  O  O24  1  0.82901047  0.70778591  0.69098017  1
  O  O25  1  0.13018709  0.53773586  0.36872066  1
  O  O26  1  0.86981291  0.46226414  0.63127934  1
  O  O27  1  0.77298724  0.60609568  0.94946068  1
  O  O28  1  0.82901047  0.20778591  0.80901983  1
  O  O29  1  0.13018709  0.03773586  0.13127934  1
  F  F30  1  0.17392808  0.33719728  0.53983563  1
  F  F31  1  0.45700750  0.73601328  0.77425213  1
  F  F32  1  0.15375724  0.10879263  0.64756352  1
  F  F33  1  0.84624276  0.39120737  0.14756352  1
  F  F34  1  0.15375724  0.60879263  0.85243648  1
  F  F35  1  0.42211188  0.20786187  0.53650865  1
  F  F36  1  0.52730773  0.53687146  0.38240913  1
  F  F37  1  0.57788812  0.29213813  0.03650865  1
  F  F38  1  0.84624276  0.89120737  0.35243648  1
  F  F39  1  0.45700750  0.23601328  0.72574787  1
  F  F40  1  0.52730773  0.03687146  0.11759087  1
  F  F41  1  0.54299250  0.26398672  0.22574787  1
  F  F42  1  0.17392808  0.83719728  0.96016437  1
  F  F43  1  0.42211188  0.70786187  0.96349135  1
  F  F44  1  0.79697635  0.13721977  0.22894248  1
  F  F45  1  0.54299250  0.76398672  0.27425213  1
  F  F46  1  0.82607192  0.66280272  0.46016437  1
  F  F47  1  0.20302365  0.86278023  0.77105752  1
  F  F48  1  0.82607192  0.16280272  0.03983563  1
  F  F49  1  0.47269227  0.46312854  0.61759087  1
  F  F50  1  0.47269227  0.96312854  0.88240913  1
  F  F51  1  0.20302365  0.36278023  0.72894248  1
  F  F52  1  0.79697635  0.63721977  0.27105752  1
  F  F53  1  0.57788812  0.79213813  0.46349135  1
