# generated using pymatgen
data_BaB4O7
_symmetry_space_group_name_H-M   'P 1'
_cell_length_a   4.34843757
_cell_length_b   9.09787535
_cell_length_c   11.10723990
_cell_angle_alpha   90.00000000
_cell_angle_beta   90.00000000
_cell_angle_gamma   90.00000000
_symmetry_Int_Tables_number   1
_chemical_formula_structural   BaB4O7
_chemical_formula_sum   'Ba4 B16 O28'
_cell_volume   439.41954868
_cell_formula_units_Z   4
loop_
 _symmetry_equiv_pos_site_id
 _symmetry_equiv_pos_as_xyz
  1  'x, y, z'
loop_
 _atom_site_type_symbol
 _atom_site_label
 _atom_site_symmetry_multiplicity
 _atom_site_fract_x
 _atom_site_fract_y
 _atom_site_fract_z
 _atom_site_occupancy
  Ba  Ba0  1  0.73111485  0.85256629  0.75000000  1
  Ba  Ba1  1  0.26888515  0.14743371  0.25000000  1
  Ba  Ba2  1  0.23111485  0.64743371  0.25000000  1
  Ba  Ba3  1  0.76888515  0.35256629  0.75000000  1
  B  B4  1  0.70593416  0.91081213  0.12632019  1
  B  B5  1  0.29406584  0.08918787  0.87367981  1
  B  B6  1  0.77692012  0.15795337  0.49937539  1
  B  B7  1  0.22307988  0.84204663  0.99937539  1
  B  B8  1  0.77692012  0.15795337  0.00062461  1
  B  B9  1  0.79406584  0.41081213  0.37367981  1
  B  B10  1  0.70593416  0.91081213  0.37367981  1
  B  B11  1  0.20593416  0.58918787  0.62632019  1
  B  B12  1  0.72307988  0.65795337  0.00062461  1
  B  B13  1  0.27692012  0.34204663  0.50062461  1
  B  B14  1  0.79406584  0.41081213  0.12632019  1
  B  B15  1  0.27692012  0.34204663  0.99937539  1
  B  B16  1  0.72307988  0.65795337  0.49937539  1
  B  B17  1  0.20593416  0.58918787  0.87367981  1
  B  B18  1  0.22307988  0.84204663  0.50062461  1
  B  B19  1  0.29406584  0.08918787  0.62632019  1
  O  O20  1  0.37866946  0.69558765  0.53841426  1
  O  O21  1  0.29426472  0.43649684  0.89583369  1
  O  O22  1  0.79426472  0.06350316  0.39583369  1
  O  O23  1  0.70573528  0.56350316  0.10416631  1
  O  O24  1  0.37580169  0.89017109  0.39434549  1
  O  O25  1  0.62419831  0.10982891  0.89434549  1
  O  O26  1  0.12133054  0.19558765  0.96158574  1
  O  O27  1  0.87580169  0.60982891  0.60565451  1
  O  O28  1  0.37580169  0.89017109  0.10565451  1
  O  O29  1  0.70573528  0.56350316  0.39583369  1
  O  O30  1  0.20573528  0.93649684  0.89583369  1
  O  O31  1  0.78489141  0.86742765  0.25000000  1
  O  O32  1  0.28489141  0.63257235  0.75000000  1
  O  O33  1  0.20573528  0.93649684  0.60416631  1
  O  O34  1  0.29426472  0.43649684  0.60416631  1
  O  O35  1  0.12419831  0.39017109  0.39434549  1
  O  O36  1  0.62133054  0.30441235  0.03841426  1
  O  O37  1  0.12133054  0.19558765  0.53841426  1
  O  O38  1  0.62419831  0.10982891  0.60565451  1
  O  O39  1  0.62133054  0.30441235  0.46158574  1
  O  O40  1  0.87580169  0.60982891  0.89434549  1
  O  O41  1  0.21510859  0.13257235  0.75000000  1
  O  O42  1  0.71510859  0.36742765  0.25000000  1
  O  O43  1  0.87866946  0.80441235  0.03841426  1
  O  O44  1  0.87866946  0.80441235  0.46158574  1
  O  O45  1  0.79426472  0.06350316  0.10416631  1
  O  O46  1  0.12419831  0.39017109  0.10565451  1
  O  O47  1  0.37866946  0.69558765  0.96158574  1
