# generated using pymatgen
data_ZnCoSiO5
_symmetry_space_group_name_H-M   'P 1'
_cell_length_a   5.44938682
_cell_length_b   6.84954230
_cell_length_c   8.26442312
_cell_angle_alpha   90.28311796
_cell_angle_beta   39.83646278
_cell_angle_gamma   73.42085898
_symmetry_Int_Tables_number   1
_chemical_formula_structural   ZnCoSiO5
_chemical_formula_sum   'Zn2 Co2 Si2 O10'
_cell_volume   176.33352826
_cell_formula_units_Z   2
loop_
 _symmetry_equiv_pos_site_id
 _symmetry_equiv_pos_as_xyz
  1  'x, y, z'
loop_
 _atom_site_type_symbol
 _atom_site_label
 _atom_site_symmetry_multiplicity
 _atom_site_fract_x
 _atom_site_fract_y
 _atom_site_fract_z
 _atom_site_occupancy
  Zn  Zn0  1  0.42300131  0.24551369  0.71865787  1
  Zn  Zn1  1  0.59479005  0.72160862  0.26300094  1
  Co  Co2  1  0.49993811  0.48503095  0.99657624  1
  Co  Co3  1  0.50019277  0.98495669  0.99470605  1
  Si  Si4  1  0.53284839  0.23248702  0.32616677  1
  Si  Si5  1  0.46154962  0.73933662  0.66673104  1
  O  O6  1  0.50196572  0.04284151  0.22905344  1
  O  O7  1  0.64892790  0.39996469  0.16013697  1
  O  O8  1  0.49198329  0.92925324  0.76395681  1
  O  O9  1  0.33927564  0.57439988  0.83710961  1
  O  O10  1  0.89732632  0.60504098  0.33400171  1
  O  O11  1  0.13478734  0.84284814  0.67649315  1
  O  O12  1  0.09940326  0.36514645  0.65948241  1
  O  O13  1  0.86301639  0.12758763  0.31372563  1
  O  O14  1  0.49280086  0.73899565  0.07768051  1
  O  O15  1  0.50492404  0.23211824  0.91453586  1
