# generated using pymatgen
data_Cs2Co3S4
_symmetry_space_group_name_H-M   'P 1'
_cell_length_a   5.41374052
_cell_length_b   9.12814681
_cell_length_c   9.12814698
_cell_angle_alpha   73.25715979
_cell_angle_beta   72.75002828
_cell_angle_gamma   72.75002708
_symmetry_Int_Tables_number   1
_chemical_formula_structural   Cs2Co3S4
_chemical_formula_sum   'Cs4 Co6 S8'
_cell_volume   401.39449037
_cell_formula_units_Z   2
loop_
 _symmetry_equiv_pos_site_id
 _symmetry_equiv_pos_as_xyz
  1  'x, y, z'
loop_
 _atom_site_type_symbol
 _atom_site_label
 _atom_site_symmetry_multiplicity
 _atom_site_fract_x
 _atom_site_fract_y
 _atom_site_fract_z
 _atom_site_occupancy
  Cs  Cs0  1  0.24413320  0.12434234  0.87565766  1
  Cs  Cs1  1  0.25586680  0.62434234  0.37565766  1
  Cs  Cs2  1  0.74413320  0.37565766  0.62434234  1
  Cs  Cs3  1  0.75586680  0.87565766  0.12434234  1
  Co  Co4  1  0.75000000  0.99713806  0.50286194  1
  Co  Co5  1  0.75000000  0.50286194  0.99713806  1
  Co  Co6  1  0.25000000  0.49713806  0.00286194  1
  Co  Co7  1  0.25000000  0.25000000  0.25000000  1
  Co  Co8  1  0.25000000  0.00286194  0.49713806  1
  Co  Co9  1  0.75000000  0.75000000  0.75000000  1
  S  S10  1  0.92181075  0.45527062  0.20364978  1
  S  S11  1  0.42181075  0.70364978  0.95527062  1
  S  S12  1  0.08073114  0.04472938  0.29635022  1
  S  S13  1  0.07818925  0.54472938  0.79635022  1
  S  S14  1  0.57818925  0.29635022  0.04472938  1
  S  S15  1  0.91926886  0.95527062  0.70364978  1
  S  S16  1  0.58073114  0.79635022  0.54472938  1
  S  S17  1  0.41926886  0.20364978  0.45527062  1
