# generated using pymatgen
data_PrNb3O9
_symmetry_space_group_name_H-M   'P 1'
_cell_length_a   5.44438469
_cell_length_b   7.73791116
_cell_length_c   16.66490404
_cell_angle_alpha   90.00000000
_cell_angle_beta   92.03108093
_cell_angle_gamma   90.00000000
_symmetry_Int_Tables_number   1
_chemical_formula_structural   PrNb3O9
_chemical_formula_sum   'Pr4 Nb12 O36'
_cell_volume   701.62075633
_cell_formula_units_Z   4
loop_
 _symmetry_equiv_pos_site_id
 _symmetry_equiv_pos_as_xyz
  1  'x, y, z'
loop_
 _atom_site_type_symbol
 _atom_site_label
 _atom_site_symmetry_multiplicity
 _atom_site_fract_x
 _atom_site_fract_y
 _atom_site_fract_z
 _atom_site_occupancy
  Pr  Pr0  1  0.03331079  0.75001611  0.46780603  1
  Pr  Pr1  1  0.96668921  0.25001611  0.03219397  1
  Pr  Pr2  1  0.03331079  0.74998389  0.96780603  1
  Pr  Pr3  1  0.96668921  0.24998389  0.53219397  1
  Nb  Nb4  1  0.00835639  0.52951514  0.24868481  1
  Nb  Nb5  1  0.00835639  0.97048486  0.74868481  1
  Nb  Nb6  1  0.47240489  0.51715356  0.59992642  1
  Nb  Nb7  1  0.52031372  -0.00107604  0.39968290  1
  Nb  Nb8  1  0.52031372  0.50107604  0.89968290  1
  Nb  Nb9  1  0.47968628  0.49892396  0.10031710  1
  Nb  Nb10  1  0.99164361  0.47048486  0.75131519  1
  Nb  Nb11  1  0.47240489  0.98284644  0.09992642  1
  Nb  Nb12  1  0.99164361  0.02951514  0.25131519  1
  Nb  Nb13  1  0.47968628  1.00107604  0.60031710  1
  Nb  Nb14  1  0.52759511  0.01715356  0.90007358  1
  Nb  Nb15  1  0.52759511  0.48284644  0.40007358  1
  O  O16  1  0.84571393  0.56146031  0.35642543  1
  O  O17  1  0.73621090  0.96249953  0.51713306  1
  O  O18  1  0.26429375  0.03596928  0.98300390  1
  O  O19  1  0.15428607  0.43853969  0.64357457  1
  O  O20  1  0.84571393  0.93853969  0.85642543  1
  O  O21  1  0.35150103  0.75078182  0.58075569  1
  O  O22  1  0.15031520  0.05385506  0.64351410  1
  O  O23  1  0.32002912  0.44642660  0.81024672  1
  O  O24  1  0.56098012  0.25141347  0.09520494  1
  O  O25  1  0.43901988  0.75141347  0.40479506  1
  O  O26  1  0.73570625  0.53596928  0.51699610  1
  O  O27  1  0.09686400  0.75511604  0.24086912  1
  O  O28  1  0.64849897  0.24921818  0.41924431  1
  O  O29  1  0.43901988  0.74858653  0.90479506  1
  O  O30  1  0.64849897  0.25078182  0.91924431  1
  O  O31  1  0.15031520  0.44614494  0.14351410  1
  O  O32  1  0.32002912  0.05357340  0.31024672  1
  O  O33  1  0.26429375  0.46403072  0.48300390  1
  O  O34  1  0.67997088  0.55357340  0.18975328  1
  O  O35  1  0.73570625  0.96403072  0.01699610  1
  O  O36  1  0.84968480  0.94614494  0.35648590  1
  O  O37  1  0.73621090  0.53750047  0.01713306  1
  O  O38  1  0.26378910  0.46249953  0.98286694  1
  O  O39  1  0.68305955  0.95134588  0.18890623  1
  O  O40  1  0.35150103  0.74921818  0.08075569  1
  O  O41  1  0.84968480  0.55385506  0.85648590  1
  O  O42  1  0.90313600  0.25511604  0.25913088  1
  O  O43  1  0.31694045  0.04865412  0.81109377  1
  O  O44  1  0.67997088  0.94642660  0.68975328  1
  O  O45  1  0.90313600  0.24488396  0.75913088  1
  O  O46  1  0.68305955  0.54865412  0.68890623  1
  O  O47  1  0.31694045  0.45134588  0.31109377  1
  O  O48  1  0.09686400  0.74488396  0.74086912  1
  O  O49  1  0.15428607  0.06146031  0.14357457  1
  O  O50  1  0.56098012  0.24858653  0.59520494  1
  O  O51  1  0.26378910  0.03750047  0.48286694  1
