# generated using pymatgen
data_AgAsO3
_symmetry_space_group_name_H-M   'P 1'
_cell_length_a   6.75551943
_cell_length_b   12.79082814
_cell_length_c   20.00608566
_cell_angle_alpha   90.00000000
_cell_angle_beta   90.00000000
_cell_angle_gamma   90.00000000
_symmetry_Int_Tables_number   1
_chemical_formula_structural   AgAsO3
_chemical_formula_sum   'Ag24 As24 O72'
_cell_volume   1728.69961441
_cell_formula_units_Z   24
loop_
 _symmetry_equiv_pos_site_id
 _symmetry_equiv_pos_as_xyz
  1  'x, y, z'
loop_
 _atom_site_type_symbol
 _atom_site_label
 _atom_site_symmetry_multiplicity
 _atom_site_fract_x
 _atom_site_fract_y
 _atom_site_fract_z
 _atom_site_occupancy
  Ag  Ag0  1  0.54612783  0.63293340  0.61193616  1
  Ag  Ag1  1  0.00493049  0.54929024  0.05322137  1
  Ag  Ag2  1  0.10335725  0.62918227  0.86594832  1
  Ag  Ag3  1  0.50143357  0.87516254  0.93932406  1
  Ag  Ag4  1  0.59726584  0.21046437  0.69821489  1
  Ag  Ag5  1  0.50143357  0.37516254  0.56067594  1
  Ag  Ag6  1  0.54612783  0.13293340  0.88806384  1
  Ag  Ag7  1  0.40273416  0.71046437  0.30178511  1
  Ag  Ag8  1  0.93597826  0.39252654  0.18987853  1
  Ag  Ag9  1  0.99506951  0.04929024  0.94677863  1
  Ag  Ag10  1  0.89664275  0.62918227  0.36594832  1
  Ag  Ag11  1  0.45387217  0.63293340  0.11193616  1
  Ag  Ag12  1  0.59726584  0.71046437  0.80178511  1
  Ag  Ag13  1  0.40273416  0.21046437  0.19821489  1
  Ag  Ag14  1  0.89664275  0.12918227  0.13405168  1
  Ag  Ag15  1  0.93597826  0.89252654  0.31012147  1
  Ag  Ag16  1  0.00493049  0.04929024  0.44677863  1
  Ag  Ag17  1  0.06402174  0.89252654  0.81012147  1
  Ag  Ag18  1  0.06402174  0.39252654  0.68987853  1
  Ag  Ag19  1  0.49856643  0.87516254  0.43932406  1
  Ag  Ag20  1  0.10335725  0.12918227  0.63405168  1
  Ag  Ag21  1  0.49856643  0.37516254  0.06067594  1
  Ag  Ag22  1  0.99506951  0.54929024  0.55322137  1
  Ag  Ag23  1  0.45387217  0.13293340  0.38806384  1
  As  As24  1  0.20719163  0.38240435  0.37534486  1
  As  As25  1  0.20719163  0.88240435  0.12465514  1
  As  As26  1  0.45663587  0.45945378  0.24502643  1
  As  As27  1  0.70724143  0.88090747  0.12396080  1
  As  As28  1  0.03429697  0.80171955  0.49419757  1
  As  As29  1  0.45663587  0.95945378  0.25497357  1
  As  As30  1  0.79280837  0.88240435  0.62465514  1
  As  As31  1  0.96570303  0.30171955  0.50580243  1
  As  As32  1  0.79280837  0.38240435  0.87534486  1
  As  As33  1  0.29275857  0.88090747  0.62396080  1
  As  As34  1  0.96570303  0.80171955  0.99419757  1
  As  As35  1  0.04853571  0.69459217  0.69587281  1
  As  As36  1  0.54051128  0.56895239  0.94620780  1
  As  As37  1  0.04853571  0.19459217  0.80412719  1
  As  As38  1  0.29275857  0.38090747  0.87603920  1
  As  As39  1  0.70724143  0.38090747  0.37603920  1
  As  As40  1  0.45948872  0.56895239  0.44620780  1
  As  As41  1  0.03429697  0.30171955  0.00580243  1
  As  As42  1  0.45948872  0.06895239  0.05379220  1
  As  As43  1  0.95146429  0.69459217  0.19587281  1
  As  As44  1  0.54051128  0.06895239  0.55379220  1
  As  As45  1  0.95146429  0.19459217  0.30412719  1
  As  As46  1  0.54336413  0.95945378  0.75497357  1
  As  As47  1  0.54336413  0.45945378  0.74502643  1
  O  O48  1  0.13095343  0.24156586  0.36194989  1
  O  O49  1  0.54432434  0.82942226  0.60917353  1
  O  O50  1  0.02082823  0.71801486  0.27688489  1
  O  O51  1  0.83320566  0.36772641  0.96845334  1
  O  O52  1  0.04226136  0.43336255  0.86015402  1
  O  O53  1  0.25045673  0.89618761  0.21804590  1
  O  O54  1  0.86904657  0.74156586  0.63805011  1
  O  O55  1  0.54273468  0.87987911  0.31697202  1
  O  O56  1  0.10538301  0.37621811  0.07260914  1
  O  O57  1  0.77614415  0.79043209  0.05432013  1
  O  O58  1  0.09822041  0.57144155  0.67036079  1
  O  O59  1  0.36434588  0.47592506  0.80834204  1
  O  O60  1  0.95773864  0.43336255  0.36015402  1
  O  O61  1  0.83320566  0.86772641  0.53154666  1
  O  O62  1  0.71891810  0.52191101  0.88879680  1
  O  O63  1  0.50838941  0.69130815  0.41845001  1
  O  O64  1  0.04226136  0.93336255  0.63984598  1
  O  O65  1  0.97580666  0.17654073  0.02532869  1
  O  O66  1  0.16679434  0.86772641  0.03154666  1
  O  O67  1  0.67712789  0.49133088  0.43783262  1
  O  O68  1  0.89461699  0.87621811  0.92739086  1
  O  O69  1  0.67712789  0.99133088  0.06216738  1
  O  O70  1  0.02419334  0.67654073  0.97467131  1
  O  O71  1  0.90177959  0.07144155  0.32963921  1
  O  O72  1  0.32287211  0.99133088  0.56216738  1
  O  O73  1  0.22385585  0.79043209  0.55432013  1
  O  O74  1  0.60684069  0.08206558  0.77918682  1
  O  O75  1  0.60684069  0.58206558  0.72081318  1
  O  O76  1  0.50838941  0.19130815  0.08154999  1
  O  O77  1  0.90177959  0.57144155  0.17036079  1
  O  O78  1  0.45567566  0.32942226  0.39082647  1
  O  O79  1  0.73504309  0.77165920  0.18544286  1
  O  O80  1  0.45567566  0.82942226  0.10917353  1
  O  O81  1  0.49161059  0.19130815  0.58154999  1
  O  O82  1  0.26495691  0.77165920  0.68544286  1
  O  O83  1  0.97917177  0.21801486  0.72311511  1
  O  O84  1  0.39009151  0.54881992  0.52741921  1
  O  O85  1  0.71891810  0.02191101  0.61120320  1
  O  O86  1  0.39009151  0.04881992  0.97258079  1
  O  O87  1  0.60990849  0.54881992  0.02741921  1
  O  O88  1  0.13095343  0.74156586  0.13805011  1
  O  O89  1  0.39315931  0.58206558  0.22081318  1
  O  O90  1  0.74954327  0.89618761  0.71804590  1
  O  O91  1  0.95773864  0.93336255  0.13984598  1
  O  O92  1  0.09822041  0.07144155  0.82963921  1
  O  O93  1  0.02419334  0.17654073  0.52532869  1
  O  O94  1  0.36434588  0.97592506  0.69165796  1
  O  O95  1  0.54273468  0.37987911  0.18302798  1
  O  O96  1  0.97580666  0.67654073  0.47467131  1
  O  O97  1  0.54432434  0.32942226  0.89082647  1
  O  O98  1  0.28108190  0.02191101  0.11120320  1
  O  O99  1  0.63565412  0.47592506  0.30834204  1
  O  O100  1  0.45726532  0.87987911  0.81697202  1
  O  O101  1  0.60990849  0.04881992  0.47258079  1
  O  O102  1  0.97917177  0.71801486  0.77688489  1
  O  O103  1  0.02082823  0.21801486  0.22311511  1
  O  O104  1  0.25045673  0.39618761  0.28195410  1
  O  O105  1  0.45726532  0.37987911  0.68302798  1
  O  O106  1  0.28108190  0.52191101  0.38879680  1
  O  O107  1  0.74954327  0.39618761  0.78195410  1
  O  O108  1  0.63565412  0.97592506  0.19165796  1
  O  O109  1  0.49161059  0.69130815  0.91845001  1
  O  O110  1  0.86904657  0.24156586  0.86194989  1
  O  O111  1  0.16679434  0.36772641  0.46845334  1
  O  O112  1  0.22385585  0.29043209  0.94567987  1
  O  O113  1  0.77614415  0.29043209  0.44567987  1
  O  O114  1  0.32287211  0.49133088  0.93783262  1
  O  O115  1  0.39315931  0.08206558  0.27918682  1
  O  O116  1  0.26495691  0.27165920  0.81455714  1
  O  O117  1  0.89461699  0.37621811  0.57260914  1
  O  O118  1  0.73504309  0.27165920  0.31455714  1
  O  O119  1  0.10538301  0.87621811  0.42739086  1
