# generated using pymatgen
data_K2YNb5O15
_symmetry_space_group_name_H-M   'P 1'
_cell_length_a   3.97510141
_cell_length_b   9.35185647
_cell_length_c   9.35185685
_cell_angle_alpha   111.88706825
_cell_angle_beta   90.00000000
_cell_angle_gamma   90.00000000
_symmetry_Int_Tables_number   1
_chemical_formula_structural   K2YNb5O15
_chemical_formula_sum   'K2 Y1 Nb5 O15'
_cell_volume   322.59276655
_cell_formula_units_Z   1
loop_
 _symmetry_equiv_pos_site_id
 _symmetry_equiv_pos_as_xyz
  1  'x, y, z'
loop_
 _atom_site_type_symbol
 _atom_site_label
 _atom_site_symmetry_multiplicity
 _atom_site_fract_x
 _atom_site_fract_y
 _atom_site_fract_z
 _atom_site_occupancy
  K  K0  1  0.00000000  0.70194337  0.29805663  1
  K  K1  1  0.00000000  0.29805663  0.70194337  1
  Y  Y2  1  0.00000000  0.00000000  0.00000000  1
  Nb  Nb3  1  0.50000000  0.05939072  0.31832997  1
  Nb  Nb4  1  0.50000000  0.31832997  0.05939072  1
  Nb  Nb5  1  0.50000000  0.94060928  0.68167003  1
  Nb  Nb6  1  0.50000000  0.68167003  0.94060928  1
  Nb  Nb7  1  0.50000000  0.50000000  0.50000000  1
  O  O8  1  0.50000000  0.12732452  0.12732452  1
  O  O9  1  0.50000000  0.83860680  0.16139320  1
  O  O10  1  0.50000000  0.45758862  0.27273722  1
  O  O11  1  0.50000000  0.16139320  0.83860680  1
  O  O12  1  0.50000000  0.87267548  0.87267548  1
  O  O13  1  0.00000000  0.04757909  0.27929534  1
  O  O14  1  0.00000000  0.95242091  0.72070466  1
  O  O15  1  0.50000000  0.72726278  0.54241138  1
  O  O16  1  0.00000000  0.27929534  0.04757909  1
  O  O17  1  0.50000000  0.00000000  0.50000000  1
  O  O18  1  0.50000000  0.27273722  0.45758862  1
  O  O19  1  0.00000000  0.72070466  0.95242091  1
  O  O20  1  0.00000000  0.50000000  0.50000000  1
  O  O21  1  0.50000000  0.54241138  0.72726278  1
  O  O22  1  0.50000000  0.50000000  0.00000000  1
