# generated using pymatgen
data_LiAlSiO4
_symmetry_space_group_name_H-M   'P 1'
_cell_length_a   4.99201037
_cell_length_b   6.69859796
_cell_length_c   10.07220348
_cell_angle_alpha   90.00000000
_cell_angle_beta   90.00000000
_cell_angle_gamma   90.00000000
_symmetry_Int_Tables_number   1
_chemical_formula_structural   LiAlSiO4
_chemical_formula_sum   'Li4 Al4 Si4 O16'
_cell_volume   336.80915095
_cell_formula_units_Z   4
loop_
 _symmetry_equiv_pos_site_id
 _symmetry_equiv_pos_as_xyz
  1  'x, y, z'
loop_
 _atom_site_type_symbol
 _atom_site_label
 _atom_site_symmetry_multiplicity
 _atom_site_fract_x
 _atom_site_fract_y
 _atom_site_fract_z
 _atom_site_occupancy
  Li  Li0  1  0.25662402  0.98496919  0.64479262  1
  Li  Li1  1  0.75662402  0.48496919  0.85520738  1
  Li  Li2  1  0.75662402  0.01503081  0.35520738  1
  Li  Li3  1  0.25662402  0.51503081  0.14479262  1
  Al  Al4  1  0.75149470  0.51491923  0.32757792  1
  Al  Al5  1  0.25149470  0.01491923  0.17242208  1
  Al  Al6  1  0.25149470  0.48508077  0.67242208  1
  Al  Al7  1  0.75149470  0.98508077  0.82757792  1
  Si  Si8  1  0.25067943  0.27969231  0.40618730  1
  Si  Si9  1  0.25067943  0.22030769  0.90618730  1
  Si  Si10  1  0.75067943  0.77969231  0.09381270  1
  Si  Si11  1  0.75067943  0.72030769  0.59381270  1
  O  O12  1  0.40389844  0.03674323  0.82967274  1
  O  O13  1  0.90389844  0.96325677  0.17032726  1
  O  O14  1  0.92702713  0.29799724  0.37772867  1
  O  O15  1  0.42702713  0.70200276  0.62227133  1
  O  O16  1  0.90389844  0.53674323  0.67032726  1
  O  O17  1  0.81022552  0.72441760  0.43371424  1
  O  O18  1  0.42702713  0.79799724  0.12227133  1
  O  O19  1  0.40389844  0.46325677  0.32967274  1
  O  O20  1  0.85445075  0.56987424  0.16202193  1
  O  O21  1  0.31022552  0.27558240  0.56628576  1
  O  O22  1  0.35445075  0.43012576  0.83797807  1
  O  O23  1  0.85445075  0.93012576  0.66202193  1
  O  O24  1  0.35445075  0.06987424  0.33797807  1
  O  O25  1  0.31022552  0.22441760  0.06628576  1
  O  O26  1  0.92702713  0.20200276  0.87772867  1
  O  O27  1  0.81022552  0.77558240  0.93371424  1
