# generated using pymatgen
data_K2LiAlF6
_symmetry_space_group_name_H-M   'P 1'
_cell_length_a   5.69419453
_cell_length_b   5.69419486
_cell_length_c   13.93136361
_cell_angle_alpha   90.00000000
_cell_angle_beta   90.00000000
_cell_angle_gamma   119.99999812
_symmetry_Int_Tables_number   1
_chemical_formula_structural   K2LiAlF6
_chemical_formula_sum   'K6 Li3 Al3 F18'
_cell_volume   391.19103421
_cell_formula_units_Z   3
loop_
 _symmetry_equiv_pos_site_id
 _symmetry_equiv_pos_as_xyz
  1  'x, y, z'
loop_
 _atom_site_type_symbol
 _atom_site_label
 _atom_site_symmetry_multiplicity
 _atom_site_fract_x
 _atom_site_fract_y
 _atom_site_fract_z
 _atom_site_occupancy
  K  K0  1  0.00000000  0.00000000  0.74450884  1
  K  K1  1  0.33333300  0.66666700  0.08100820  1
  K  K2  1  0.00000000  0.00000000  0.43977211  1
  K  K3  1  0.33333300  0.66666700  0.58567366  1
  K  K4  1  0.66666700  0.33333300  0.92210259  1
  K  K5  1  0.66666700  0.33333300  0.22677618  1
  Li  Li6  1  0.00000000  0.00000000  0.19010675  1
  Li  Li7  1  0.66666700  0.33333300  0.47655180  1
  Li  Li8  1  0.33333300  0.66666700  0.83332852  1
  Al  Al9  1  0.66666700  0.33333300  0.67199253  1
  Al  Al10  1  0.00000000  0.00000000  0.99469387  1
  Al  Al11  1  0.33333300  0.66666700  0.33333110  1
  F  F12  1  0.63971724  0.81985862  0.25749556  1
  F  F13  1  0.81447656  0.18552344  0.59121651  1
  F  F14  1  0.85219325  0.14780675  0.07547331  1
  F  F15  1  0.02696102  0.51348051  0.40917001  1
  F  F16  1  0.51297793  0.02595586  0.74623566  1
  F  F17  1  0.48651949  0.97303898  0.40917001  1
  F  F18  1  0.15369605  0.84630395  0.92046023  1
  F  F19  1  0.51297793  0.48702207  0.74623566  1
  F  F20  1  0.18014138  0.36028276  0.25749556  1
  F  F21  1  0.81447656  0.62895311  0.59121651  1
  F  F22  1  0.85219325  0.70438650  0.07547331  1
  F  F23  1  0.37104689  0.18552344  0.59121651  1
  F  F24  1  0.29561350  0.14780675  0.07547331  1
  F  F25  1  0.18014138  0.81985862  0.25749556  1
  F  F26  1  0.69260791  0.84630395  0.92046023  1
  F  F27  1  0.97404414  0.48702207  0.74623566  1
  F  F28  1  0.15369605  0.30739209  0.92046023  1
  F  F29  1  0.48651949  0.51348051  0.40917001  1
