# generated using pymatgen
data_InH8C4NO10
_symmetry_space_group_name_H-M   'P 1'
_cell_length_a   9.10228992
_cell_length_b   9.10228968
_cell_length_c   11.65331025
_cell_angle_alpha   90.00000000
_cell_angle_beta   90.00000000
_cell_angle_gamma   120.00000086
_symmetry_Int_Tables_number   1
_chemical_formula_structural   InH8C4NO10
_chemical_formula_sum   'In3 H24 C12 N3 O30'
_cell_volume   836.14433963
_cell_formula_units_Z   3
loop_
 _symmetry_equiv_pos_site_id
 _symmetry_equiv_pos_as_xyz
  1  'x, y, z'
loop_
 _atom_site_type_symbol
 _atom_site_label
 _atom_site_symmetry_multiplicity
 _atom_site_fract_x
 _atom_site_fract_y
 _atom_site_fract_z
 _atom_site_occupancy
  In  In0  1  0.50000000  0.00000000  0.00000000  1
  In  In1  1  0.00000000  0.50000000  0.66666700  1
  In  In2  1  0.50000000  0.50000000  0.33333300  1
  H  H3  1  0.90085161  0.64315689  0.17839015  1
  H  H4  1  0.89718051  0.92244981  0.94813336  1
  H  H5  1  0.25769472  0.90085161  0.51172315  1
  H  H6  1  0.90085161  0.25769472  0.15494385  1
  H  H7  1  0.25769472  0.35684311  0.82160985  1
  H  H8  1  0.02526929  0.10281949  0.28146636  1
  H  H9  1  0.97473071  0.07755019  0.05186664  1
  H  H10  1  0.02526929  0.92244981  0.05186664  1
  H  H11  1  0.09914839  0.74230528  0.15494385  1
  H  H12  1  0.92244981  0.89718051  0.71853364  1
  H  H13  1  0.09914839  0.35684311  0.17839015  1
  H  H14  1  0.92244981  0.02526929  0.61480036  1
  H  H15  1  0.64315689  0.74230528  0.84505615  1
  H  H16  1  0.74230528  0.64315689  0.82160985  1
  H  H17  1  0.97473071  0.89718051  0.28146636  1
  H  H18  1  0.35684311  0.25769472  0.84505615  1
  H  H19  1  0.35684311  0.09914839  0.48827685  1
  H  H20  1  0.07755019  0.10281949  0.71853364  1
  H  H21  1  0.74230528  0.09914839  0.51172315  1
  H  H22  1  0.10281949  0.07755019  0.94813336  1
  H  H23  1  0.07755019  0.97473071  0.61480036  1
  H  H24  1  0.89718051  0.97473071  0.38519964  1
  H  H25  1  0.10281949  0.02526929  0.38519964  1
  H  H26  1  0.64315689  0.90085161  0.48827685  1
  C  C27  1  0.21326326  0.78673674  0.83333300  1
  C  C28  1  0.31152110  0.62304220  0.50000000  1
  C  C29  1  0.37695780  0.68847890  0.16666700  1
  C  C30  1  0.78673674  0.57347347  0.50000000  1
  C  C31  1  0.78673674  0.21326326  0.83333300  1
  C  C32  1  0.21326326  0.42652653  0.50000000  1
  C  C33  1  0.31152110  0.68847890  0.83333300  1
  C  C34  1  0.68847890  0.37695780  0.50000000  1
  C  C35  1  0.68847890  0.31152110  0.83333300  1
  C  C36  1  0.57347347  0.78673674  0.16666700  1
  C  C37  1  0.62304220  0.31152110  0.16666700  1
  C  C38  1  0.42652653  0.21326326  0.16666700  1
  N  N39  1  0.00000000  0.00000000  0.66666700  1
  N  N40  1  0.00000000  0.00000000  0.33333300  1
  N  N41  1  0.00000000  0.00000000  0.00000000  1
  O  O42  1  0.24484056  0.69488493  0.55501669  1
  O  O43  1  0.08164355  0.73113831  0.77175361  1
  O  O44  1  0.54995563  0.30511507  0.44498331  1
  O  O45  1  0.35050524  0.26886169  0.22824639  1
  O  O46  1  0.24308380  0.00000000  0.50000000  1
  O  O47  1  0.54995563  0.24484056  0.88834969  1
  O  O48  1  0.24484056  0.54995563  0.77831631  1
  O  O49  1  0.73113831  0.64949476  0.43842061  1
  O  O50  1  0.00000000  0.24308380  0.16666700  1
  O  O51  1  0.45004437  0.75515944  0.88834969  1
  O  O52  1  0.75691620  0.75691620  0.83333300  1
  O  O53  1  0.73113831  0.08164355  0.89491239  1
  O  O54  1  0.24308380  0.24308380  0.83333300  1
  O  O55  1  0.69488493  0.24484056  0.11165031  1
  O  O56  1  0.91835645  0.64949476  0.56157939  1
  O  O57  1  0.08164355  0.35050524  0.56157939  1
  O  O58  1  0.26886169  0.35050524  0.43842061  1
  O  O59  1  0.64949476  0.91835645  0.10508761  1
  O  O60  1  0.26886169  0.91835645  0.89491239  1
  O  O61  1  0.45004437  0.69488493  0.44498331  1
  O  O62  1  0.69488493  0.45004437  0.22168369  1
  O  O63  1  0.75691620  0.00000000  0.50000000  1
  O  O64  1  1.00000000  0.75691620  0.16666700  1
  O  O65  1  0.75515944  0.30511507  0.55501669  1
  O  O66  1  0.91835645  0.26886169  0.77175361  1
  O  O67  1  0.35050524  0.08164355  0.10508761  1
  O  O68  1  0.30511507  0.75515944  0.11165031  1
  O  O69  1  0.75515944  0.45004437  0.77831631  1
  O  O70  1  0.64949476  0.73113831  0.22824639  1
  O  O71  1  0.30511507  0.54995563  0.22168369  1
