# generated using pymatgen
data_NaLaMgWO6
_symmetry_space_group_name_H-M   'P 1'
_cell_length_a   5.60353039
_cell_length_b   5.60353308
_cell_length_c   8.01979938
_cell_angle_alpha   90.00000000
_cell_angle_beta   90.00088857
_cell_angle_gamma   90.00000000
_symmetry_Int_Tables_number   1
_chemical_formula_structural   NaLaMgWO6
_chemical_formula_sum   'Na2 La2 Mg2 W2 O12'
_cell_volume   251.81823493
_cell_formula_units_Z   2
loop_
 _symmetry_equiv_pos_site_id
 _symmetry_equiv_pos_as_xyz
  1  'x, y, z'
loop_
 _atom_site_type_symbol
 _atom_site_label
 _atom_site_symmetry_multiplicity
 _atom_site_fract_x
 _atom_site_fract_y
 _atom_site_fract_z
 _atom_site_occupancy
  Na  Na0  1  0.25000563  0.75000000  0.50000283  1
  Na  Na1  1  0.74999437  0.25000000  0.49999717  1
  La  La2  1  0.25010014  0.75000000  0.00000533  1
  La  La3  1  0.74989986  0.25000000  0.99999467  1
  Mg  Mg4  1  0.25001003  0.25000000  0.25520448  1
  Mg  Mg5  1  0.74998997  0.75000000  0.74479552  1
  W  W6  1  0.24997268  0.25000000  0.74305531  1
  W  W7  1  0.75002732  0.75000000  0.25694469  1
  O  O8  1  0.49345037  0.00653633  0.77042317  1
  O  O9  1  0.50654963  0.99346367  0.22957683  1
  O  O10  1  0.24999059  0.25000000  0.99646013  1
  O  O11  1  0.49345037  0.49346367  0.77042317  1
  O  O12  1  0.25003864  0.25000000  0.50992646  1
  O  O13  1  0.75000941  0.75000000  0.00353987  1
  O  O14  1  0.50654963  0.50653633  0.22957683  1
  O  O15  1  0.00652379  0.00653825  0.77037534  1
  O  O16  1  0.74996136  0.75000000  0.49007354  1
  O  O17  1  0.00652379  0.49346175  0.77037534  1
  O  O18  1  0.99347621  0.50653825  0.22962466  1
  O  O19  1  0.99347621  0.99346175  0.22962466  1
