# generated using pymatgen
data_Nd6S4N3Cl
_symmetry_space_group_name_H-M   'P 1'
_cell_length_a   4.02346737
_cell_length_b   11.82081740
_cell_length_c   26.71453531
_cell_angle_alpha   90.00000000
_cell_angle_beta   90.00000000
_cell_angle_gamma   90.00000000
_symmetry_Int_Tables_number   1
_chemical_formula_structural   Nd6S4N3Cl
_chemical_formula_sum   'Nd24 S16 N12 Cl4'
_cell_volume   1270.56128078
_cell_formula_units_Z   4
loop_
 _symmetry_equiv_pos_site_id
 _symmetry_equiv_pos_as_xyz
  1  'x, y, z'
loop_
 _atom_site_type_symbol
 _atom_site_label
 _atom_site_symmetry_multiplicity
 _atom_site_fract_x
 _atom_site_fract_y
 _atom_site_fract_z
 _atom_site_occupancy
  Nd  Nd0  1  0.25000000  0.88374153  0.79454490  1
  Nd  Nd1  1  0.75000000  0.58736816  0.54049217  1
  Nd  Nd2  1  0.75000000  0.08736816  0.95950783  1
  Nd  Nd3  1  0.25000000  0.73302781  0.16874306  1
  Nd  Nd4  1  0.25000000  0.91263184  0.04049217  1
  Nd  Nd5  1  0.25000000  0.38374153  0.70545510  1
  Nd  Nd6  1  0.75000000  0.05504477  0.69082047  1
  Nd  Nd7  1  0.75000000  0.55504477  0.80917953  1
  Nd  Nd8  1  0.25000000  0.73424619  0.43463822  1
  Nd  Nd9  1  0.75000000  0.11625847  0.20545510  1
  Nd  Nd10  1  0.75000000  0.26697219  0.83125694  1
  Nd  Nd11  1  0.25000000  0.44495523  0.19082047  1
  Nd  Nd12  1  0.25000000  0.44236679  0.92629919  1
  Nd  Nd13  1  0.25000000  0.94236679  0.57370081  1
  Nd  Nd14  1  0.25000000  0.23424619  0.06536178  1
  Nd  Nd15  1  0.75000000  0.76575381  0.93463822  1
  Nd  Nd16  1  0.75000000  0.61625847  0.29454490  1
  Nd  Nd17  1  0.75000000  0.05763321  0.42629919  1
  Nd  Nd18  1  0.75000000  0.55763321  0.07370081  1
  Nd  Nd19  1  0.75000000  0.76697219  0.66874306  1
  Nd  Nd20  1  0.25000000  0.94495523  0.30917953  1
  Nd  Nd21  1  0.75000000  0.26575381  0.56536178  1
  Nd  Nd22  1  0.25000000  0.41263184  0.45950783  1
  Nd  Nd23  1  0.25000000  0.23302781  0.33125694  1
  S  S24  1  0.75000000  0.81699707  0.35856060  1
  S  S25  1  0.25000000  0.71487298  0.60335642  1
  S  S26  1  0.25000000  0.04555229  0.13448635  1
  S  S27  1  0.75000000  0.45444771  0.63448635  1
  S  S28  1  0.75000000  0.78512702  0.10335642  1
  S  S29  1  0.75000000  0.95444771  0.86551365  1
  S  S30  1  0.25000000  0.54555229  0.36551365  1
  S  S31  1  0.25000000  0.21487298  0.89664358  1
  S  S32  1  0.25000000  0.64550122  0.99249032  1
  S  S33  1  0.75000000  0.35449878  0.00750968  1
  S  S34  1  0.75000000  0.31699707  0.14143940  1
  S  S35  1  0.25000000  0.14550122  0.50750968  1
  S  S36  1  0.75000000  0.85449878  0.49249032  1
  S  S37  1  0.25000000  0.68300293  0.85856060  1
  S  S38  1  0.75000000  0.28512702  0.39664358  1
  S  S39  1  0.25000000  0.18300293  0.64143940  1
  N  N40  1  0.75000000  0.90218879  0.99066944  1
  N  N41  1  0.25000000  0.06058093  0.37642359  1
  N  N42  1  0.75000000  0.88871658  0.73952799  1
  N  N43  1  0.75000000  0.43941907  0.87642359  1
  N  N44  1  0.75000000  0.93941907  0.62357641  1
  N  N45  1  0.25000000  0.56058093  0.12357641  1
  N  N46  1  0.25000000  0.61128342  0.23952799  1
  N  N47  1  0.25000000  0.09781121  0.00933056  1
  N  N48  1  0.75000000  0.38871658  0.76047201  1
  N  N49  1  0.75000000  0.40218879  0.50933056  1
  N  N50  1  0.25000000  0.11128342  0.26047201  1
  N  N51  1  0.25000000  0.59781121  0.49066944  1
  Cl  Cl52  1  0.25000000  0.13156273  0.76795882  1
  Cl  Cl53  1  0.75000000  0.86843727  0.23204118  1
  Cl  Cl54  1  0.25000000  0.63156273  0.73204118  1
  Cl  Cl55  1  0.75000000  0.36843727  0.26795882  1
