# generated using pymatgen
data_CuMoO4
_symmetry_space_group_name_H-M   'P 1'
_cell_length_a   8.34805249
_cell_length_b   8.84748402
_cell_length_c   9.56229518
_cell_angle_alpha   90.00000000
_cell_angle_beta   90.00000000
_cell_angle_gamma   106.50515306
_symmetry_Int_Tables_number   1
_chemical_formula_structural   CuMoO4
_chemical_formula_sum   'Cu8 Mo8 O32'
_cell_volume   677.16187121
_cell_formula_units_Z   8
loop_
 _symmetry_equiv_pos_site_id
 _symmetry_equiv_pos_as_xyz
  1  'x, y, z'
loop_
 _atom_site_type_symbol
 _atom_site_label
 _atom_site_symmetry_multiplicity
 _atom_site_fract_x
 _atom_site_fract_y
 _atom_site_fract_z
 _atom_site_occupancy
  Cu  Cu0  1  0.67761692  0.26300106  0.99260726  1
  Cu  Cu1  1  0.16206916  0.17858900  0.50172441  1
  Cu  Cu2  1  0.82238308  0.23699894  0.49260726  1
  Cu  Cu3  1  0.32238308  0.73699894  0.00739274  1
  Cu  Cu4  1  0.17761692  0.76300106  0.50739274  1
  Cu  Cu5  1  0.66206916  0.67858900  0.99827559  1
  Cu  Cu6  1  0.83793084  0.82141100  0.49827559  1
  Cu  Cu7  1  0.33793084  0.32141100  0.00172441  1
  Mo  Mo8  1  0.54627921  0.90793331  0.72852462  1
  Mo  Mo9  1  0.04627921  0.40793331  0.77147538  1
  Mo  Mo10  1  0.95372079  0.59206669  0.22852462  1
  Mo  Mo11  1  0.53747883  0.38001650  0.68945983  1
  Mo  Mo12  1  0.45372079  0.09206669  0.27147538  1
  Mo  Mo13  1  0.96252117  0.11998350  0.18945983  1
  Mo  Mo14  1  0.03747883  0.88001650  0.81054017  1
  Mo  Mo15  1  0.46252117  0.61998350  0.31054017  1
  O  O16  1  0.14732261  0.25727715  0.11984921  1
  O  O17  1  0.35267739  0.24272285  0.61984921  1
  O  O18  1  0.87852758  0.35169120  0.89298413  1
  O  O19  1  0.85267739  0.74272285  0.88015079  1
  O  O20  1  0.93536475  0.39821190  0.28276972  1
  O  O21  1  0.54843528  0.38370686  0.89018170  1
  O  O22  1  0.97477653  0.71521384  0.39248065  1
  O  O23  1  0.95156472  0.11629314  0.39018170  1
  O  O24  1  0.73024438  0.36757399  0.60906318  1
  O  O25  1  0.45156472  0.61629314  0.10981830  1
  O  O26  1  0.02522347  0.28478616  0.60751935  1
  O  O27  1  0.64732261  0.75727715  0.38015079  1
  O  O28  1  0.12147242  0.64830880  0.10701587  1
  O  O29  1  0.02837970  0.06863545  0.85122482  1
  O  O30  1  0.43536475  0.89821190  0.21723028  1
  O  O31  1  0.76050754  0.57949338  0.13943808  1
  O  O32  1  0.73949246  0.92050662  0.63943808  1
  O  O33  1  0.97162030  0.93136455  0.14877518  1
  O  O34  1  0.23949246  0.42050662  0.86056192  1
  O  O35  1  0.37852758  0.85169120  0.60701587  1
  O  O36  1  0.06463525  0.60178810  0.71723028  1
  O  O37  1  0.47477653  0.21521384  0.10751935  1
  O  O38  1  0.47162030  0.43136455  0.35122482  1
  O  O39  1  0.23024438  0.86757399  0.89093682  1
  O  O40  1  0.26975562  0.63242601  0.39093682  1
  O  O41  1  0.62147242  0.14830880  0.39298413  1
  O  O42  1  0.52837970  0.56863545  0.64877518  1
  O  O43  1  0.56463525  0.10178810  0.78276972  1
  O  O44  1  0.26050754  0.07949338  0.36056192  1
  O  O45  1  0.04843528  0.88370686  0.60981830  1
  O  O46  1  0.52522347  0.78478616  0.89248065  1
  O  O47  1  0.76975562  0.13242601  0.10906318  1
