# generated using pymatgen
data_Y2(MoO4)3
_symmetry_space_group_name_H-M   'P 1'
_cell_length_a   10.54187769
_cell_length_b   10.52553548
_cell_length_c   10.73499800
_cell_angle_alpha   90.00000000
_cell_angle_beta   90.00000000
_cell_angle_gamma   90.00000000
_symmetry_Int_Tables_number   1
_chemical_formula_structural   Y2(MoO4)3
_chemical_formula_sum   'Y8 Mo12 O48'
_cell_volume   1191.14365173
_cell_formula_units_Z   4
loop_
 _symmetry_equiv_pos_site_id
 _symmetry_equiv_pos_as_xyz
  1  'x, y, z'
loop_
 _atom_site_type_symbol
 _atom_site_label
 _atom_site_symmetry_multiplicity
 _atom_site_fract_x
 _atom_site_fract_y
 _atom_site_fract_z
 _atom_site_occupancy
  Y  Y0  1  0.00093145  0.68795181  0.25907340  1
  Y  Y1  1  0.99906855  0.31204819  0.25907340  1
  Y  Y2  1  0.50093145  0.81204819  0.25907340  1
  Y  Y3  1  0.31200162  0.49721628  0.73355341  1
  Y  Y4  1  0.81200162  0.00278372  0.73355341  1
  Y  Y5  1  0.49906855  0.18795181  0.25907340  1
  Y  Y6  1  0.18799838  0.99721628  0.73355341  1
  Y  Y7  1  0.68799838  0.50278372  0.73355341  1
  Mo  Mo8  1  0.75207242  0.75259117  0.99656009  1
  Mo  Mo9  1  0.79317559  0.99807556  0.35310145  1
  Mo  Mo10  1  0.29317559  0.50192444  0.35310145  1
  Mo  Mo11  1  0.25207242  0.74740883  0.99656009  1
  Mo  Mo12  1  0.99235074  0.29378098  0.64019404  1
  Mo  Mo13  1  0.50764926  0.79378098  0.64019404  1
  Mo  Mo14  1  0.70682441  0.49807556  0.35310145  1
  Mo  Mo15  1  0.00764926  0.70621902  0.64019404  1
  Mo  Mo16  1  0.74792758  0.25259117  0.99656009  1
  Mo  Mo17  1  0.49235074  0.20621902  0.64019404  1
  Mo  Mo18  1  0.24792758  0.24740883  0.99656009  1
  Mo  Mo19  1  0.20682441  0.00192444  0.35310145  1
  O  O20  1  0.12092083  0.87512147  0.28218894  1
  O  O21  1  0.30386090  0.48425371  0.51807817  1
  O  O22  1  0.00320583  0.69436787  0.47465277  1
  O  O23  1  0.80386090  0.01574629  0.51807817  1
  O  O24  1  0.65879331  0.84999909  0.69057009  1
  O  O25  1  0.17800197  0.12721567  0.90090230  1
  O  O26  1  0.67800197  0.37278433  0.90090230  1
  O  O27  1  0.82199803  0.87278433  0.90090230  1
  O  O28  1  0.37947614  0.88164154  0.70621156  1
  O  O29  1  0.37344381  0.99602168  0.30406499  1
  O  O30  1  0.12655619  0.49602168  0.30406499  1
  O  O31  1  0.50320583  0.80563213  0.47465277  1
  O  O32  1  0.87947614  0.61835846  0.70621156  1
  O  O33  1  0.17966979  0.86352294  0.89721456  1
  O  O34  1  0.32199803  0.62721567  0.90090230  1
  O  O35  1  0.84120669  0.34999909  0.69057009  1
  O  O36  1  0.36449440  0.17664411  0.09598459  1
  O  O37  1  0.32033021  0.36352294  0.89721456  1
  O  O38  1  0.62052386  0.11835846  0.70621156  1
  O  O39  1  0.37907917  0.37512147  0.28218894  1
  O  O40  1  0.85242631  0.84615707  0.30832748  1
  O  O41  1  0.00444641  0.12678055  0.68801501  1
  O  O42  1  0.87150490  0.68095794  0.09230717  1
  O  O43  1  0.34120669  0.15000091  0.69057009  1
  O  O44  1  0.62655619  0.00397832  0.30406499  1
  O  O45  1  0.12052386  0.38164154  0.70621156  1
  O  O46  1  0.69613910  0.51574629  0.51807817  1
  O  O47  1  0.87907917  0.12487853  0.28218894  1
  O  O48  1  0.82033021  0.13647706  0.89721456  1
  O  O49  1  0.15879331  0.65000091  0.69057009  1
  O  O50  1  0.99679417  0.30563213  0.47465277  1
  O  O51  1  0.50444641  0.37321945  0.68801501  1
  O  O52  1  0.49679417  0.19436787  0.47465277  1
  O  O53  1  0.37150490  0.81904206  0.09230717  1
  O  O54  1  0.67966979  0.63647706  0.89721456  1
  O  O55  1  0.49555359  0.62678055  0.68801501  1
  O  O56  1  0.62092083  0.62487853  0.28218894  1
  O  O57  1  0.64757369  0.34615707  0.30832748  1
  O  O58  1  0.19613910  0.98425371  0.51807817  1
  O  O59  1  0.13550560  0.67664411  0.09598459  1
  O  O60  1  0.99555359  0.87321945  0.68801501  1
  O  O61  1  0.35242631  0.65384293  0.30832748  1
  O  O62  1  0.87344381  0.50397832  0.30406499  1
  O  O63  1  0.86449440  0.32335589  0.09598459  1
  O  O64  1  0.62849510  0.18095794  0.09230717  1
  O  O65  1  0.12849510  0.31904206  0.09230717  1
  O  O66  1  0.63550560  0.82335589  0.09598459  1
  O  O67  1  0.14757369  0.15384293  0.30832748  1
