# generated using pymatgen
data_Al(HO)3
_symmetry_space_group_name_H-M   'P 1'
_cell_length_a   5.12345783
_cell_length_b   8.76280645
_cell_length_c   9.50815867
_cell_angle_alpha   90.00000000
_cell_angle_beta   90.27839474
_cell_angle_gamma   90.00000000
_symmetry_Int_Tables_number   1
_chemical_formula_structural   Al(HO)3
_chemical_formula_sum   'Al8 H24 O24'
_cell_volume   426.87201044
_cell_formula_units_Z   8
loop_
 _symmetry_equiv_pos_site_id
 _symmetry_equiv_pos_as_xyz
  1  'x, y, z'
loop_
 _atom_site_type_symbol
 _atom_site_label
 _atom_site_symmetry_multiplicity
 _atom_site_fract_x
 _atom_site_fract_y
 _atom_site_fract_z
 _atom_site_occupancy
  Al  Al0  1  0.46842290  0.83218091  0.50351862  1
  Al  Al1  1  0.02528234  0.33447920  0.49644586  1
  Al  Al2  1  0.96842290  0.66781909  0.00351862  1
  Al  Al3  1  0.52528234  0.16552080  0.99644586  1
  Al  Al4  1  0.03157710  0.33218091  0.99648138  1
  Al  Al5  1  0.97471766  0.66552080  0.50355414  1
  Al  Al6  1  0.47471766  0.83447920  0.00355414  1
  Al  Al7  1  0.53157710  0.16781909  0.49648138  1
  H  H8  1  0.05712273  0.91661792  0.88577733  1
  H  H9  1  0.24450455  0.72930934  0.71134837  1
  H  H10  1  0.69196856  0.46229443  0.12605056  1
  H  H11  1  0.14429841  0.09610442  0.35436423  1
  H  H12  1  0.25549545  0.22930934  0.78865163  1
  H  H13  1  0.95358870  0.49421390  0.70695429  1
  H  H14  1  0.30803144  0.53770557  0.87394944  1
  H  H15  1  0.18236624  0.79349126  0.29478623  1
  H  H16  1  0.75549545  0.27069066  0.28865163  1
  H  H17  1  0.19196856  0.03770557  0.62605056  1
  H  H18  1  0.94287727  0.08338208  0.11422267  1
  H  H19  1  0.85570159  0.90389558  0.64563577  1
  H  H20  1  0.80803144  0.96229443  0.37394944  1
  H  H21  1  0.64429841  0.40389558  0.85436423  1
  H  H22  1  0.81763376  0.20650874  0.70521377  1
  H  H23  1  0.35570159  0.59610442  0.14563577  1
  H  H24  1  0.04641130  0.50578610  0.29304571  1
  H  H25  1  0.54641130  0.99421390  0.79304571  1
  H  H26  1  0.45358870  0.00578610  0.20695429  1
  H  H27  1  0.74450455  0.77069066  0.21134837  1
  H  H28  1  0.55712273  0.58338208  0.38577733  1
  H  H29  1  0.31763376  0.29349126  0.20521377  1
  H  H30  1  0.44287727  0.41661792  0.61422267  1
  H  H31  1  0.68236624  0.70650874  0.79478623  1
  O  O32  1  0.15343041  0.82098472  0.89739460  1
  O  O33  1  0.62487857  0.98870885  0.38992308  1
  O  O34  1  0.37680561  0.00915404  0.11175102  1
  O  O35  1  0.62319439  0.99084596  0.88824898  1
  O  O36  1  0.27813938  0.69228714  0.11595922  1
  O  O37  1  0.12319439  0.50915404  0.38824898  1
  O  O38  1  0.77900908  0.80461061  0.11466881  1
  O  O39  1  0.22186062  0.19228714  0.38404078  1
  O  O40  1  0.22099092  0.19538939  0.88533119  1
  O  O41  1  0.87512143  0.48870885  0.11007692  1
  O  O42  1  0.84656959  0.17901528  0.10260540  1
  O  O43  1  0.12487857  0.51129115  0.88992308  1
  O  O44  1  0.34656959  0.32098472  0.60260540  1
  O  O45  1  0.65343041  0.67901528  0.39739460  1
  O  O46  1  0.72186062  0.30771286  0.88404078  1
  O  O47  1  0.72099092  0.30461061  0.38533119  1
  O  O48  1  0.77813938  0.80771286  0.61595922  1
  O  O49  1  0.27900908  0.69538939  0.61466881  1
  O  O50  1  0.64910155  0.67441004  0.89263781  1
  O  O51  1  0.85089845  0.17441004  0.60736219  1
  O  O52  1  0.37512143  0.01129115  0.61007692  1
  O  O53  1  0.14910155  0.82558996  0.39263781  1
  O  O54  1  0.87680561  0.49084596  0.61175102  1
  O  O55  1  0.35089845  0.32558996  0.10736219  1
