# generated using pymatgen
data_SiO2
_symmetry_space_group_name_H-M   'P 1'
_cell_length_a   7.56747336
_cell_length_b   10.22992744
_cell_length_c   14.14375345
_cell_angle_alpha   90.00000000
_cell_angle_beta   90.00000000
_cell_angle_gamma   111.70756040
_symmetry_Int_Tables_number   1
_chemical_formula_structural   SiO2
_chemical_formula_sum   'Si18 O36'
_cell_volume   1017.28585668
_cell_formula_units_Z   18
loop_
 _symmetry_equiv_pos_site_id
 _symmetry_equiv_pos_as_xyz
  1  'x, y, z'
loop_
 _atom_site_type_symbol
 _atom_site_label
 _atom_site_symmetry_multiplicity
 _atom_site_fract_x
 _atom_site_fract_y
 _atom_site_fract_z
 _atom_site_occupancy
  Si  Si0  1  0.88310245  0.35266416  0.94901915  1
  Si  Si1  1  0.92033752  0.84067504  0.54001760  1
  Si  Si2  1  0.11689755  0.64733584  0.44901915  1
  Si  Si3  1  0.53043829  0.64733584  0.44901915  1
  Si  Si4  1  0.86025293  0.72050586  0.75000000  1
  Si  Si5  1  0.46956171  0.35266416  0.55098085  1
  Si  Si6  1  0.11689755  0.64733584  0.05098085  1
  Si  Si7  1  0.13974707  0.27949414  0.25000000  1
  Si  Si8  1  0.55818040  0.52441361  0.25000000  1
  Si  Si9  1  0.46956171  0.35266416  0.94901915  1
  Si  Si10  1  0.44181960  0.47558639  0.75000000  1
  Si  Si11  1  0.53043829  0.64733584  0.05098085  1
  Si  Si12  1  0.03376678  0.47558639  0.75000000  1
  Si  Si13  1  0.07966248  0.15932496  0.04001760  1
  Si  Si14  1  0.07966248  0.15932496  0.45998240  1
  Si  Si15  1  0.92033752  0.84067504  0.95998240  1
  Si  Si16  1  0.88310245  0.35266416  0.55098085  1
  Si  Si17  1  0.96623322  0.52441361  0.25000000  1
  O  O18  1  0.34425364  0.68850728  0.04050631  1
  O  O19  1  0.65574636  0.31149272  0.54050631  1
  O  O20  1  0.50000000  0.50000000  0.50000000  1
  O  O21  1  0.94488179  0.37192118  0.83891499  1
  O  O22  1  0.01826314  0.38304991  0.25000000  1
  O  O23  1  0.29388120  0.23008096  0.50159465  1
  O  O24  1  0.91092028  0.82184055  0.65580897  1
  O  O25  1  0.94488179  0.37192118  0.66108501  1
  O  O26  1  0.91092028  0.82184055  0.84419103  1
  O  O27  1  0.93619976  0.23008096  -0.00159465  1
  O  O28  1  0.00000000  0.00000000  0.00000000  1
  O  O29  1  0.36478677  0.38304991  0.25000000  1
  O  O30  1  0.06380024  0.76991904  1.00159465  1
  O  O31  1  0.70611880  0.76991904  1.00159465  1
  O  O32  1  0.42703938  0.37192118  0.66108501  1
  O  O33  1  0.08907972  0.17815945  0.15580897  1
  O  O34  1  0.93619976  0.23008096  0.50159465  1
  O  O35  1  0.73479256  0.46958512  0.25000000  1
  O  O36  1  0.08907972  0.17815945  0.34419103  1
  O  O37  1  0.26520744  0.53041488  0.75000000  1
  O  O38  1  0.57296062  0.62807882  0.33891499  1
  O  O39  1  0.34425364  0.68850728  0.45949369  1
  O  O40  1  0.00000000  0.50000000  0.00000000  1
  O  O41  1  0.42703938  0.37192118  0.83891499  1
  O  O42  1  0.70611880  0.76991904  0.49840535  1
  O  O43  1  0.57296062  0.62807882  0.16108501  1
  O  O44  1  0.06380024  0.76991904  0.49840535  1
  O  O45  1  0.65574636  0.31149272  0.95949369  1
  O  O46  1  0.00000000  0.00000000  0.50000000  1
  O  O47  1  0.98173686  0.61695009  0.75000000  1
  O  O48  1  0.05511821  0.62807882  0.33891499  1
  O  O49  1  0.05511821  0.62807882  0.16108501  1
  O  O50  1  0.63521323  0.61695009  0.75000000  1
  O  O51  1  0.50000000  0.50000000  0.00000000  1
  O  O52  1  0.29388120  0.23008096  -0.00159465  1
  O  O53  1  0.00000000  0.50000000  0.50000000  1
