# generated using pymatgen
data_KMg2V3(CuO6)2
_symmetry_space_group_name_H-M   'P 1'
_cell_length_a   7.12368076
_cell_length_b   8.84162706
_cell_length_c   8.84162612
_cell_angle_alpha   92.26892909
_cell_angle_beta   105.44456469
_cell_angle_gamma   105.44456649
_symmetry_Int_Tables_number   1
_chemical_formula_structural   KMg2V3(CuO6)2
_chemical_formula_sum   'K2 Mg4 V6 Cu4 O24'
_cell_volume   513.72223294
_cell_formula_units_Z   2
loop_
 _symmetry_equiv_pos_site_id
 _symmetry_equiv_pos_as_xyz
  1  'x, y, z'
loop_
 _atom_site_type_symbol
 _atom_site_label
 _atom_site_symmetry_multiplicity
 _atom_site_fract_x
 _atom_site_fract_y
 _atom_site_fract_z
 _atom_site_occupancy
  K  K0  1  0.25000000  0.99319851  0.00680149  1
  K  K1  1  0.75000000  0.00680149  0.99319851  1
  Mg  Mg2  1  0.62194425  0.05262612  0.37301515  1
  Mg  Mg3  1  0.87805575  0.62698485  0.94737388  1
  Mg  Mg4  1  0.37805575  0.94737388  0.62698485  1
  Mg  Mg5  1  0.12194425  0.37301515  0.05262612  1
  V  V6  1  0.88130426  0.88587285  0.64395951  1
  V  V7  1  0.75000000  0.28363500  0.71636500  1
  V  V8  1  0.38130426  0.64395951  0.88587285  1
  V  V9  1  0.11869574  0.11412715  0.35604049  1
  V  V10  1  0.61869574  0.35604049  0.11412715  1
  V  V11  1  0.25000000  0.71636500  0.28363500  1
  Cu  Cu12  1  0.75000000  0.73416581  0.26583419  1
  Cu  Cu13  1  0.25000000  0.26583419  0.73416581  1
  Cu  Cu14  1  0.25000000  0.50681193  0.49318807  1
  Cu  Cu15  1  0.75000000  0.49318807  0.50681193  1
  O  O16  1  0.17647881  0.28127871  0.50012124  1
  O  O17  1  0.32352119  0.49987876  0.71872129  1
  O  O18  1  0.82352119  0.71872129  0.49987876  1
  O  O19  1  0.67647881  0.50012124  0.28127871  1
  O  O20  1  0.96665210  0.24611951  0.83114263  1
  O  O21  1  0.53334790  0.16885737  0.75388049  1
  O  O22  1  0.03334790  0.75388049  0.16885737  1
  O  O23  1  0.46665210  0.83114263  0.24611951  1
  O  O24  1  0.81942506  0.40516585  0.02997978  1
  O  O25  1  0.68057494  0.97002022  0.59483415  1
  O  O26  1  0.18057494  0.59483415  0.97002022  1
  O  O27  1  0.31942506  0.02997978  0.40516585  1
  O  O28  1  0.37450299  0.33113460  0.98016629  1
  O  O29  1  0.12549701  0.01983371  0.66886540  1
  O  O30  1  0.62549701  0.66886540  0.01983371  1
  O  O31  1  0.87450299  0.98016629  0.33113460  1
  O  O32  1  0.11099095  0.18190784  0.17730420  1
  O  O33  1  0.38900905  0.82269580  0.81809216  1
  O  O34  1  0.88900905  0.81809216  0.82269580  1
  O  O35  1  0.61099095  0.17730420  0.18190784  1
  O  O36  1  0.73219547  0.27078958  0.51042469  1
  O  O37  1  0.76780453  0.48957531  0.72921042  1
  O  O38  1  0.26780453  0.72921042  0.48957531  1
  O  O39  1  0.23219547  0.51042469  0.27078958  1
