# generated using pymatgen
data_PrCo3
_symmetry_space_group_name_H-M   'P 1'
_cell_length_a   8.86520572
_cell_length_b   8.86520544
_cell_length_c   8.86520574
_cell_angle_alpha   33.40112785
_cell_angle_beta   33.40113058
_cell_angle_gamma   33.40112948
_symmetry_Int_Tables_number   1
_chemical_formula_structural   PrCo3
_chemical_formula_sum   'Pr3 Co9'
_cell_volume   188.02183548
_cell_formula_units_Z   3
loop_
 _symmetry_equiv_pos_site_id
 _symmetry_equiv_pos_as_xyz
  1  'x, y, z'
loop_
 _atom_site_type_symbol
 _atom_site_label
 _atom_site_symmetry_multiplicity
 _atom_site_fract_x
 _atom_site_fract_y
 _atom_site_fract_z
 _atom_site_occupancy
  Pr  Pr0  1  0.86035715  0.86035715  0.86035715  1
  Pr  Pr1  1  0.13964285  0.13964285  0.13964285  1
  Pr  Pr2  1  -0.00000000  0.00000000  -0.00000000  1
  Co  Co3  1  0.91790872  0.42244045  0.42244045  1
  Co  Co4  1  0.33375848  0.33375848  0.33375848  1
  Co  Co5  1  0.57755955  0.57755955  0.08209128  1
  Co  Co6  1  0.42244045  0.42244045  0.91790872  1
  Co  Co7  1  0.66624152  0.66624152  0.66624152  1
  Co  Co8  1  0.42244045  0.91790872  0.42244045  1
  Co  Co9  1  0.57755955  0.08209128  0.57755955  1
  Co  Co10  1  0.50000000  0.50000000  0.50000000  1
  Co  Co11  1  0.08209128  0.57755955  0.57755955  1
