# generated using pymatgen
data_Er2PbSe4
_symmetry_space_group_name_H-M   'P 1'
_cell_length_a   4.11240919
_cell_length_b   12.56748347
_cell_length_c   14.94341193
_cell_angle_alpha   90.00000000
_cell_angle_beta   90.00000000
_cell_angle_gamma   90.00000000
_symmetry_Int_Tables_number   1
_chemical_formula_structural   Er2PbSe4
_chemical_formula_sum   'Er8 Pb4 Se16'
_cell_volume   772.31489722
_cell_formula_units_Z   4
loop_
 _symmetry_equiv_pos_site_id
 _symmetry_equiv_pos_as_xyz
  1  'x, y, z'
loop_
 _atom_site_type_symbol
 _atom_site_label
 _atom_site_symmetry_multiplicity
 _atom_site_fract_x
 _atom_site_fract_y
 _atom_site_fract_z
 _atom_site_occupancy
  Er  Er0  1  0.25000000  0.93913438  0.11039293  1
  Er  Er1  1  0.75000000  0.58151071  0.09656777  1
  Er  Er2  1  0.25000000  0.41848929  0.90343223  1
  Er  Er3  1  0.25000000  0.43913438  0.38960707  1
  Er  Er4  1  0.75000000  0.08151071  0.40343223  1
  Er  Er5  1  0.25000000  0.91848929  0.59656777  1
  Er  Er6  1  0.75000000  0.06086562  0.88960707  1
  Er  Er7  1  0.75000000  0.56086562  0.61039293  1
  Pb  Pb8  1  0.75000000  0.73617573  0.82972148  1
  Pb  Pb9  1  0.25000000  0.26382427  0.17027852  1
  Pb  Pb10  1  0.75000000  0.23617573  0.67027852  1
  Pb  Pb11  1  0.25000000  0.76382427  0.32972148  1
  Se  Se12  1  0.25000000  0.63040775  0.96988606  1
  Se  Se13  1  0.25000000  0.52353470  0.21407133  1
  Se  Se14  1  0.75000000  0.08953662  0.07687915  1
  Se  Se15  1  0.75000000  0.86959225  0.46988606  1
  Se  Se16  1  0.75000000  0.36959225  0.03011394  1
  Se  Se17  1  0.25000000  0.70717412  0.66976227  1
  Se  Se18  1  0.75000000  0.47646530  0.78592867  1
  Se  Se19  1  0.25000000  0.91046338  0.92312085  1
  Se  Se20  1  0.75000000  0.58953662  0.42312085  1
  Se  Se21  1  0.75000000  0.97646530  0.71407133  1
  Se  Se22  1  0.25000000  0.02353470  0.28592867  1
  Se  Se23  1  0.75000000  0.79282588  0.16976227  1
  Se  Se24  1  0.25000000  0.41046338  0.57687915  1
  Se  Se25  1  0.25000000  0.13040775  0.53011394  1
  Se  Se26  1  0.75000000  0.29282588  0.33023773  1
  Se  Se27  1  0.25000000  0.20717412  0.83023773  1
