# generated using pymatgen
data_TiCl3
_symmetry_space_group_name_H-M   'P 1'
_cell_length_a   6.10575333
_cell_length_b   6.10575307
_cell_length_c   19.05697416
_cell_angle_alpha   90.00000000
_cell_angle_beta   90.00000000
_cell_angle_gamma   120.00000138
_symmetry_Int_Tables_number   1
_chemical_formula_structural   TiCl3
_chemical_formula_sum   'Ti6 Cl18'
_cell_volume   615.26620618
_cell_formula_units_Z   6
loop_
 _symmetry_equiv_pos_site_id
 _symmetry_equiv_pos_as_xyz
  1  'x, y, z'
loop_
 _atom_site_type_symbol
 _atom_site_label
 _atom_site_symmetry_multiplicity
 _atom_site_fract_x
 _atom_site_fract_y
 _atom_site_fract_z
 _atom_site_occupancy
  Ti  Ti0  1  0.00000000  0.00000000  0.16549342  1
  Ti  Ti1  1  0.00000000  0.00000000  0.83450658  1
  Ti  Ti2  1  0.66666700  0.33333300  0.50000000  1
  Ti  Ti3  1  0.33333300  0.66666700  0.83448523  1
  Ti  Ti4  1  0.33333300  0.66666700  0.50000000  1
  Ti  Ti5  1  0.33333300  0.66666700  0.16551477  1
  Cl  Cl6  1  0.64704790  -0.00003384  0.42611724  1
  Cl  Cl7  1  0.66672350  0.98044442  0.76069123  1
  Cl  Cl8  1  0.35291826  0.35295210  0.42611724  1
  Cl  Cl9  1  0.01955558  0.33327650  0.23930877  1
  Cl  Cl10  1  0.31474085  0.98133217  0.90817583  1
  Cl  Cl11  1  1.00003384  0.35295210  0.57388276  1
  Cl  Cl12  1  0.64704790  0.64708174  0.57388276  1
  Cl  Cl13  1  1.00003384  0.64708174  0.42611724  1
  Cl  Cl14  1  0.66672350  0.68627908  0.23930877  1
  Cl  Cl15  1  0.01866783  0.33340868  0.90817583  1
  Cl  Cl16  1  0.31372092  0.33327650  0.76069123  1
  Cl  Cl17  1  0.35291826  -0.00003384  0.57388276  1
  Cl  Cl18  1  0.66659132  0.68525915  0.90817583  1
  Cl  Cl19  1  0.31372092  0.98044442  0.23930877  1
  Cl  Cl20  1  0.01955558  0.68627908  0.76069123  1
  Cl  Cl21  1  0.01866783  0.68525915  0.09182417  1
  Cl  Cl22  1  0.66659132  0.98133217  0.09182417  1
  Cl  Cl23  1  0.31474085  0.33340868  0.09182417  1
