# generated using pymatgen
data_Ga5Fe6
_symmetry_space_group_name_H-M   'P 1'
_cell_length_a   6.39304754
_cell_length_b   6.39304762
_cell_length_c   7.68878522
_cell_angle_alpha   75.66164997
_cell_angle_beta   75.66164983
_cell_angle_gamma   76.52286673
_symmetry_Int_Tables_number   1
_chemical_formula_structural   Ga5Fe6
_chemical_formula_sum   'Ga10 Fe12'
_cell_volume   289.99768588
_cell_formula_units_Z   2
loop_
 _symmetry_equiv_pos_site_id
 _symmetry_equiv_pos_as_xyz
  1  'x, y, z'
loop_
 _atom_site_type_symbol
 _atom_site_label
 _atom_site_symmetry_multiplicity
 _atom_site_fract_x
 _atom_site_fract_y
 _atom_site_fract_z
 _atom_site_occupancy
  Ga  Ga0  1  0.32152245  0.32152245  0.65502964  1
  Ga  Ga1  1  0.84161840  0.23457820  0.79491273  1
  Ga  Ga2  1  0.13112347  0.13112347  0.40140198  1
  Ga  Ga3  1  0.15838160  0.76542180  0.20508727  1
  Ga  Ga4  1  0.23457820  0.84161840  0.79491273  1
  Ga  Ga5  1  0.62271783  0.62271783  0.02012060  1
  Ga  Ga6  1  0.67847755  0.67847755  0.34497036  1
  Ga  Ga7  1  0.76542180  0.15838160  0.20508727  1
  Ga  Ga8  1  0.86887653  0.86887653  0.59859802  1
  Ga  Ga9  1  0.37728217  0.37728217  0.97987940  1
  Fe  Fe10  1  0.86905194  0.86905194  0.01319341  1
  Fe  Fe11  1  0.60344836  0.60344836  0.69055517  1
  Fe  Fe12  1  0.50000000  0.00000000  0.50000000  1
  Fe  Fe13  1  0.72032809  0.27967191  0.50000000  1
  Fe  Fe14  1  0.99302520  0.45688581  0.17014178  1
  Fe  Fe15  1  0.00697480  0.54311419  0.82985822  1
  Fe  Fe16  1  0.39655164  0.39655164  0.30944483  1
  Fe  Fe17  1  0.45688581  0.99302520  0.17014178  1
  Fe  Fe18  1  0.13094806  0.13094806  0.98680659  1
  Fe  Fe19  1  0.27967191  0.72032809  0.50000000  1
  Fe  Fe20  1  0.54311419  0.00697480  0.82985822  1
  Fe  Fe21  1  0.00000000  0.50000000  0.50000000  1
