# generated using pymatgen
data_Mg15Mo
_symmetry_space_group_name_H-M   'P 1'
_cell_length_a   6.31275685
_cell_length_b   6.31275635
_cell_length_c   10.08324404
_cell_angle_alpha   90.00000000
_cell_angle_beta   90.00000000
_cell_angle_gamma   120.00000259
_symmetry_Int_Tables_number   1
_chemical_formula_structural   Mg15Mo
_chemical_formula_sum   'Mg15 Mo1'
_cell_volume   347.99178170
_cell_formula_units_Z   1
loop_
 _symmetry_equiv_pos_site_id
 _symmetry_equiv_pos_as_xyz
  1  'x, y, z'
loop_
 _atom_site_type_symbol
 _atom_site_label
 _atom_site_symmetry_multiplicity
 _atom_site_fract_x
 _atom_site_fract_y
 _atom_site_fract_z
 _atom_site_occupancy
  Mg  Mg0  1  0.16666700  0.33333300  0.62500000  1
  Mg  Mg1  1  0.16645488  0.83322694  0.12500000  1
  Mg  Mg2  1  0.16843585  0.83421743  0.62500000  1
  Mg  Mg3  1  0.66677306  0.33354512  0.12500000  1
  Mg  Mg4  1  0.66578257  0.33156415  0.62500000  1
  Mg  Mg5  1  0.66677306  0.83322694  0.12500000  1
  Mg  Mg6  1  0.66578257  0.83421743  0.62500000  1
  Mg  Mg7  1  0.32714564  0.17285436  0.36481585  1
  Mg  Mg8  1  0.32714564  0.17285436  0.88518415  1
  Mg  Mg9  1  0.32714564  0.65429227  0.36481585  1
  Mg  Mg10  1  0.32714564  0.65429227  0.88518415  1
  Mg  Mg11  1  0.84570773  0.17285436  0.36481585  1
  Mg  Mg12  1  0.84570773  0.17285436  0.88518415  1
  Mg  Mg13  1  0.83333300  0.66666700  0.37592237  1
  Mg  Mg14  1  0.83333300  0.66666700  0.87407763  1
  Mo  Mo15  1  0.16666700  0.33333300  0.12500000  1
