# generated using pymatgen
data_CdBiSe2Br
_symmetry_space_group_name_H-M   'P 1'
_cell_length_a   4.17112424
_cell_length_b   10.20698912
_cell_length_c   13.42128482
_cell_angle_alpha   90.00000000
_cell_angle_beta   90.00000000
_cell_angle_gamma   90.00000000
_symmetry_Int_Tables_number   1
_chemical_formula_structural   CdBiSe2Br
_chemical_formula_sum   'Cd4 Bi4 Se8 Br4'
_cell_volume   571.40609758
_cell_formula_units_Z   4
loop_
 _symmetry_equiv_pos_site_id
 _symmetry_equiv_pos_as_xyz
  1  'x, y, z'
loop_
 _atom_site_type_symbol
 _atom_site_label
 _atom_site_symmetry_multiplicity
 _atom_site_fract_x
 _atom_site_fract_y
 _atom_site_fract_z
 _atom_site_occupancy
  Cd  Cd0  1  0.75000000  0.50688790  0.26428749  1
  Cd  Cd1  1  0.75000000  0.00688790  0.23571251  1
  Cd  Cd2  1  0.25000000  0.49311210  0.73571251  1
  Cd  Cd3  1  0.25000000  0.99311210  0.76428749  1
  Bi  Bi4  1  0.75000000  0.31099441  0.97029444  1
  Bi  Bi5  1  0.25000000  0.18900559  0.47029444  1
  Bi  Bi6  1  0.75000000  0.81099441  0.52970556  1
  Bi  Bi7  1  0.25000000  0.68900559  0.02970556  1
  Se  Se8  1  0.25000000  0.75148029  0.66936342  1
  Se  Se9  1  0.25000000  0.25148029  0.83063658  1
  Se  Se10  1  0.75000000  0.24851971  0.33063658  1
  Se  Se11  1  0.75000000  0.05543724  0.61393261  1
  Se  Se12  1  0.75000000  0.74851971  0.16936342  1
  Se  Se13  1  0.25000000  0.44456276  0.11393261  1
  Se  Se14  1  0.25000000  0.94456276  0.38606739  1
  Se  Se15  1  0.75000000  0.55543724  0.88606739  1
  Br  Br16  1  0.25000000  0.57570352  0.39512917  1
  Br  Br17  1  0.75000000  0.42429648  0.60487083  1
  Br  Br18  1  0.75000000  0.92429648  0.89512917  1
  Br  Br19  1  0.25000000  0.07570352  0.10487083  1
