# generated using pymatgen
data_HgH8C2Br3N
_symmetry_space_group_name_H-M   'P 1'
_cell_length_a   6.52002685
_cell_length_b   7.18162996
_cell_length_c   10.42869133
_cell_angle_alpha   97.58642205
_cell_angle_beta   90.00000000
_cell_angle_gamma   90.00000000
_symmetry_Int_Tables_number   1
_chemical_formula_structural   HgH8C2Br3N
_chemical_formula_sum   'Hg2 H16 C4 Br6 N2'
_cell_volume   484.04311139
_cell_formula_units_Z   2
loop_
 _symmetry_equiv_pos_site_id
 _symmetry_equiv_pos_as_xyz
  1  'x, y, z'
loop_
 _atom_site_type_symbol
 _atom_site_label
 _atom_site_symmetry_multiplicity
 _atom_site_fract_x
 _atom_site_fract_y
 _atom_site_fract_z
 _atom_site_occupancy
  Hg  Hg0  1  0.75000000  0.59465653  0.13653960  1
  Hg  Hg1  1  0.25000000  0.40534347  0.86346040  1
  H  H2  1  0.38640976  0.87047316  0.37560504  1
  H  H3  1  0.11359024  0.87047316  0.37560504  1
  H  H4  1  0.87955144  0.94158597  0.82250155  1
  H  H5  1  0.37955144  0.05841403  0.17749845  1
  H  H6  1  0.88591120  0.77242111  0.60499991  1
  H  H7  1  0.75000000  0.02781286  0.48512849  1
  H  H8  1  0.75000000  0.73892955  0.81367157  1
  H  H9  1  0.11408880  0.22757889  0.39500009  1
  H  H10  1  0.38591120  0.22757889  0.39500009  1
  H  H11  1  0.61408880  0.77242111  0.60499991  1
  H  H12  1  0.25000000  0.26107045  0.18632843  1
  H  H13  1  0.61359024  0.12952684  0.62439496  1
  H  H14  1  0.25000000  0.97218714  0.51487151  1
  H  H15  1  0.12044856  0.05841403  0.17749845  1
  H  H16  1  0.88640976  0.12952684  0.62439496  1
  H  H17  1  0.62044856  0.94158597  0.82250155  1
  C  C18  1  0.75000000  0.85546577  0.63799567  1
  C  C19  1  0.25000000  0.14453423  0.36200433  1
  C  C20  1  0.25000000  0.95315212  0.40861123  1
  C  C21  1  0.75000000  0.04684788  0.59138877  1
  Br  Br22  1  0.75000000  0.43438994  0.89168488  1
  Br  Br23  1  0.75000000  0.96442766  0.13166853  1
  Br  Br24  1  0.25000000  0.56561006  0.10831512  1
  Br  Br25  1  0.75000000  0.46916415  0.35319245  1
  Br  Br26  1  0.25000000  0.53083585  0.64680755  1
  Br  Br27  1  0.25000000  0.03557234  0.86833147  1
  N  N28  1  0.25000000  0.12848771  0.21667260  1
  N  N29  1  0.75000000  0.87151229  0.78332740  1
