# generated using pymatgen
data_Ce10(B3C4)3
_symmetry_space_group_name_H-M   'P 1'
_cell_length_a   8.31673863
_cell_length_b   8.31673863
_cell_length_c   24.67878851
_cell_angle_alpha   90.00000000
_cell_angle_beta   90.00000000
_cell_angle_gamma   90.00000000
_symmetry_Int_Tables_number   1
_chemical_formula_structural   Ce10(B3C4)3
_chemical_formula_sum   'Ce40 B36 C48'
_cell_volume   1706.98593422
_cell_formula_units_Z   4
loop_
 _symmetry_equiv_pos_site_id
 _symmetry_equiv_pos_as_xyz
  1  'x, y, z'
loop_
 _atom_site_type_symbol
 _atom_site_label
 _atom_site_symmetry_multiplicity
 _atom_site_fract_x
 _atom_site_fract_y
 _atom_site_fract_z
 _atom_site_occupancy
  Ce  Ce0  1  0.49232425  0.18939672  0.58057697  1
  Ce  Ce1  1  0.00767575  0.68939672  0.66942303  1
  Ce  Ce2  1  0.79876321  0.29503910  0.68090381  1
  Ce  Ce3  1  0.60303219  0.91679303  0.70778051  1
  Ce  Ce4  1  0.18939672  0.49232425  0.41942303  1
  Ce  Ce5  1  0.39856386  0.70468762  0.94525946  1
  Ce  Ce6  1  0.98980562  0.10054614  0.44058367  1
  Ce  Ce7  1  0.79503910  0.70123679  0.43090381  1
  Ce  Ce8  1  0.70123679  0.79503910  0.56909619  1
  Ce  Ce9  1  0.29876321  0.20496090  0.06909619  1
  Ce  Ce10  1  0.70468762  0.39856386  0.05474054  1
  Ce  Ce11  1  0.91679303  0.60303219  0.29221949  1
  Ce  Ce12  1  0.51019438  0.60054614  0.80941633  1
  Ce  Ce13  1  0.81060328  0.50767575  0.91942303  1
  Ce  Ce14  1  0.20468762  0.10143614  0.69525946  1
  Ce  Ce15  1  0.01019438  0.89945386  0.94058367  1
  Ce  Ce16  1  0.20496090  0.29876321  0.93090381  1
  Ce  Ce17  1  0.10143614  0.20468762  0.30474054  1
  Ce  Ce18  1  0.50767575  0.81060328  0.08057697  1
  Ce  Ce19  1  0.79531238  0.89856386  0.19525946  1
  Ce  Ce20  1  0.39696781  0.08320697  0.20778051  1
  Ce  Ce21  1  0.99232425  0.31060328  0.16942303  1
  Ce  Ce22  1  0.08320697  0.39696781  0.79221949  1
  Ce  Ce23  1  0.29531238  0.60143614  0.55474054  1
  Ce  Ce24  1  0.89945386  0.01019438  0.05941633  1
  Ce  Ce25  1  0.58320697  0.10303219  0.95778051  1
  Ce  Ce26  1  0.48980562  0.39945386  0.30941633  1
  Ce  Ce27  1  0.89696781  0.41679303  0.54221949  1
  Ce  Ce28  1  0.10303219  0.58320697  0.04221949  1
  Ce  Ce29  1  0.20123679  0.70496090  0.18090381  1
  Ce  Ce30  1  0.39945386  0.48980562  0.69058367  1
  Ce  Ce31  1  0.70496090  0.20123679  0.81909619  1
  Ce  Ce32  1  0.60054614  0.51019438  0.19058367  1
  Ce  Ce33  1  0.29503910  0.79876321  0.31909619  1
  Ce  Ce34  1  0.31060328  0.99232425  0.83057697  1
  Ce  Ce35  1  0.89856386  0.79531238  0.80474054  1
  Ce  Ce36  1  0.60143614  0.29531238  0.44525946  1
  Ce  Ce37  1  0.41679303  0.89696781  0.45778051  1
  Ce  Ce38  1  0.10054614  0.98980562  0.55941633  1
  Ce  Ce39  1  0.68939672  0.00767575  0.33057697  1
  B  B40  1  0.90420536  0.21252266  0.96904993  1
  B  B41  1  0.37068800  0.50198069  0.11082215  1
  B  B42  1  0.59579464  0.71252266  0.28095007  1
  B  B43  1  0.08164233  0.91835767  0.25000000  1
  B  B44  1  0.49801931  0.62931200  0.38917785  1
  B  B45  1  0.87068800  0.99801931  0.63917785  1
  B  B46  1  0.91835767  0.08164233  0.75000000  1
  B  B47  1  0.62880761  0.12418886  0.11670589  1
  B  B48  1  0.78747734  0.09579464  0.53095007  1
  B  B49  1  0.28747734  0.40420536  0.21904993  1
  B  B50  1  0.40420536  0.28747734  0.78095007  1
  B  B51  1  0.12418886  0.62880761  0.88329411  1
  B  B52  1  0.29172960  0.20018177  0.47619976  1
  B  B53  1  0.62418886  0.87119239  0.86670589  1
  B  B54  1  0.20827040  0.70018177  0.77380024  1
  B  B55  1  0.00198069  0.12931200  0.86082215  1
  B  B56  1  0.41835767  0.41835767  0.00000000  1
  B  B57  1  0.71252266  0.59579464  0.71904993  1
  B  B58  1  0.87119239  0.62418886  0.13329411  1
  B  B59  1  0.87581114  0.37119239  0.38329411  1
  B  B60  1  0.70018177  0.20827040  0.22619976  1
  B  B61  1  0.79172960  0.29981823  0.27380024  1
  B  B62  1  0.12880761  0.37581114  0.63329411  1
  B  B63  1  0.79981823  0.70827040  0.02380024  1
  B  B64  1  0.21252266  0.90420536  0.03095007  1
  B  B65  1  0.99801931  0.87068800  0.36082215  1
  B  B66  1  0.09579464  0.78747734  0.46904993  1
  B  B67  1  0.37119239  0.87581114  0.61670589  1
  B  B68  1  0.12931200  0.00198069  0.13917785  1
  B  B69  1  0.50198069  0.37068800  0.88917785  1
  B  B70  1  0.70827040  0.79981823  0.97619976  1
  B  B71  1  0.62931200  0.49801931  0.61082215  1
  B  B72  1  0.29981823  0.79172960  0.72619976  1
  B  B73  1  0.58164233  0.58164233  0.50000000  1
  B  B74  1  0.37581114  0.12880761  0.36670589  1
  B  B75  1  0.20018177  0.29172960  0.52380024  1
  C  C76  1  0.30120097  0.99416228  0.92856249  1
  C  C77  1  0.40887291  0.50556189  0.05236005  1
  C  C78  1  0.70873956  0.00250567  0.48487873  1
  C  C79  1  0.80120097  0.50583772  0.82143751  1
  C  C80  1  0.90887291  0.99443811  0.69763995  1
  C  C81  1  0.89274648  0.39887618  0.44181162  1
  C  C82  1  0.69879903  0.00583772  0.42856249  1
  C  C83  1  0.00583772  0.69879903  0.57143751  1
  C  C84  1  0.99416228  0.30120097  0.07143751  1
  C  C85  1  0.09089856  0.80018446  0.40810170  1
  C  C86  1  0.40910144  0.30018446  0.84189830  1
  C  C87  1  0.00556189  0.09112709  0.80236005  1
  C  C88  1  0.80018446  0.09089856  0.59189830  1
  C  C89  1  0.99749433  0.29126044  0.01512127  1
  C  C90  1  0.31611680  0.80033018  0.66686734  1
  C  C91  1  0.59089856  0.69981554  0.34189830  1
  C  C92  1  0.49749433  0.20873956  0.73487873  1
  C  C93  1  0.60112382  0.10725352  0.05818838  1
  C  C94  1  0.19966982  0.68388320  0.83313266  1
  C  C95  1  0.10725352  0.60112382  0.94181162  1
  C  C96  1  0.60725352  0.89887618  0.80818838  1
  C  C97  1  0.09112709  0.00556189  0.19763995  1
  C  C98  1  0.20873956  0.49749433  0.26512127  1
  C  C99  1  0.69981554  0.59089856  0.65810170  1
  C  C100  1  0.00250567  0.70873956  0.51512127  1
  C  C101  1  0.69966982  0.81611680  0.91686734  1
  C  C102  1  0.30018446  0.40910144  0.15810170  1
  C  C103  1  0.49416228  0.19879903  0.67856249  1
  C  C104  1  0.50583772  0.80120097  0.17856249  1
  C  C105  1  0.99443811  0.90887291  0.30236005  1
  C  C106  1  0.39887618  0.89274648  0.55818838  1
  C  C107  1  0.10112382  0.39274648  0.69181162  1
  C  C108  1  0.50250567  0.79126044  0.23487873  1
  C  C109  1  0.19879903  0.49416228  0.32143751  1
  C  C110  1  0.90910144  0.19981554  0.90810170  1
  C  C111  1  0.81611680  0.69966982  0.08313266  1
  C  C112  1  0.79126044  0.50250567  0.76512127  1
  C  C113  1  0.89887618  0.60725352  0.19181162  1
  C  C114  1  0.18388320  0.30033018  0.58313266  1
  C  C115  1  0.59112709  0.49443811  0.55236005  1
  C  C116  1  0.19981554  0.90910144  0.09189830  1
  C  C117  1  0.50556189  0.40887291  0.94763995  1
  C  C118  1  0.39274648  0.10112382  0.30818838  1
  C  C119  1  0.29126044  0.99749433  0.98487873  1
  C  C120  1  0.80033018  0.31611680  0.33313266  1
  C  C121  1  0.49443811  0.59112709  0.44763995  1
  C  C122  1  0.30033018  0.18388320  0.41686734  1
  C  C123  1  0.68388320  0.19966982  0.16686734  1
