# generated using pymatgen
data_SrCu2(PO4)2
_symmetry_space_group_name_H-M   'P 1'
_cell_length_a   8.05597000
_cell_length_b   10.54893129
_cell_length_c   15.55133664
_cell_angle_alpha   90.00000000
_cell_angle_beta   90.00000000
_cell_angle_gamma   90.00000000
_symmetry_Int_Tables_number   1
_chemical_formula_structural   SrCu2(PO4)2
_chemical_formula_sum   'Sr8 Cu16 P16 O64'
_cell_volume   1321.58173094
_cell_formula_units_Z   8
loop_
 _symmetry_equiv_pos_site_id
 _symmetry_equiv_pos_as_xyz
  1  'x, y, z'
loop_
 _atom_site_type_symbol
 _atom_site_label
 _atom_site_symmetry_multiplicity
 _atom_site_fract_x
 _atom_site_fract_y
 _atom_site_fract_z
 _atom_site_occupancy
  Sr  Sr0  1  0.97213673  0.08613002  0.12400304  1
  Sr  Sr1  1  0.47213673  0.91386998  0.62400304  1
  Sr  Sr2  1  0.02786327  0.41386998  0.62400304  1
  Sr  Sr3  1  0.52786327  0.08613002  0.37599696  1
  Sr  Sr4  1  0.52786327  0.58613002  0.12400304  1
  Sr  Sr5  1  0.97213673  0.58613002  0.37599696  1
  Sr  Sr6  1  0.02786327  0.91386998  0.87599696  1
  Sr  Sr7  1  0.47213673  0.41386998  0.87599696  1
  Cu  Cu8  1  0.08242209  0.94937195  0.32737837  1
  Cu  Cu9  1  0.91757791  0.05062805  0.67262163  1
  Cu  Cu10  1  0.90609811  0.70984488  0.07668973  1
  Cu  Cu11  1  0.08242209  0.44937195  0.17262163  1
  Cu  Cu12  1  0.91757791  0.55062805  0.82737837  1
  Cu  Cu13  1  0.59390189  0.20984488  0.07668973  1
  Cu  Cu14  1  0.09390189  0.29015512  0.92331027  1
  Cu  Cu15  1  0.40609811  0.79015512  0.92331027  1
  Cu  Cu16  1  0.40609811  0.29015512  0.57668973  1
  Cu  Cu17  1  0.59390189  0.70984488  0.42331027  1
  Cu  Cu18  1  0.41757791  0.44937195  0.32737837  1
  Cu  Cu19  1  0.41757791  0.94937195  0.17262163  1
  Cu  Cu20  1  0.58242209  0.55062805  0.67262163  1
  Cu  Cu21  1  0.58242209  0.05062805  0.82737837  1
  Cu  Cu22  1  0.09390189  0.79015512  0.57668973  1
  Cu  Cu23  1  0.90609811  0.20984488  0.42331027  1
  P  P24  1  0.25000000  0.67218440  0.75000000  1
  P  P25  1  0.75000000  0.29572416  0.75000000  1
  P  P26  1  0.79540295  0.43031263  0.00664466  1
  P  P27  1  0.25000000  0.17218440  0.75000000  1
  P  P28  1  0.20459705  0.06968737  0.50664466  1
  P  P29  1  0.29540295  0.06968737  0.99335534  1
  P  P30  1  0.25000000  0.70427584  0.25000000  1
  P  P31  1  0.70459705  0.93031263  0.00664466  1
  P  P32  1  0.75000000  0.79572416  0.75000000  1
  P  P33  1  0.75000000  0.32781560  0.25000000  1
  P  P34  1  0.20459705  0.56968737  0.99335534  1
  P  P35  1  0.70459705  0.43031263  0.49335534  1
  P  P36  1  0.75000000  0.82781560  0.25000000  1
  P  P37  1  0.79540295  0.93031263  0.49335534  1
  P  P38  1  0.25000000  0.20427584  0.25000000  1
  P  P39  1  0.29540295  0.56968737  0.50664466  1
  O  O40  1  0.65346240  0.52614475  0.42123219  1
  O  O41  1  0.76782598  0.49718592  0.91917519  1
  O  O42  1  0.08629358  0.18491717  0.50392664  1
  O  O43  1  0.91370642  0.31508283  0.00392664  1
  O  O44  1  0.59153464  0.91149436  0.25789453  1
  O  O45  1  0.26782598  0.00281408  0.08082481  1
  O  O46  1  0.75878117  0.24195787  0.16866628  1
  O  O47  1  0.61501162  0.88498894  0.46821525  1
  O  O48  1  0.74121883  0.24195787  0.33133372  1
  O  O49  1  0.24121883  0.25804213  0.66866628  1
  O  O50  1  0.90373090  0.37957491  0.77376183  1
  O  O51  1  0.75878117  0.74195787  0.33133372  1
  O  O52  1  0.09626910  0.12042509  0.27376183  1
  O  O53  1  0.09626910  0.62042509  0.22623817  1
  O  O54  1  0.90846536  0.41149436  0.25789453  1
  O  O55  1  0.65346240  0.02614475  0.07876781  1
  O  O56  1  0.74121883  0.74195787  0.16866628  1
  O  O57  1  0.30858179  0.28120465  0.32934071  1
  O  O58  1  0.19141821  0.28120465  0.17065929  1
  O  O59  1  0.25878117  0.75804213  0.66866628  1
  O  O60  1  0.11501162  0.61501106  0.53178475  1
  O  O61  1  0.40373090  0.12042509  0.22623817  1
  O  O62  1  0.09153464  0.08850564  0.75789453  1
  O  O63  1  0.23217402  0.50281408  0.08082481  1
  O  O64  1  0.59153464  0.41149436  0.24210547  1
  O  O65  1  0.15346240  0.47385525  0.92123219  1
  O  O66  1  0.73217402  0.99718592  0.91917519  1
  O  O67  1  0.09153464  0.58850564  0.74210547  1
  O  O68  1  0.88498838  0.38498894  0.46821525  1
  O  O69  1  0.91370642  0.81508283  0.49607336  1
  O  O70  1  0.08629358  0.68491717  0.99607336  1
  O  O71  1  0.25878117  0.25804213  0.83133372  1
  O  O72  1  0.24121883  0.75804213  0.83133372  1
  O  O73  1  0.41370642  0.68491717  0.50392664  1
  O  O74  1  0.26782598  0.50281408  0.41917519  1
  O  O75  1  0.40846536  0.58850564  0.75789453  1
  O  O76  1  0.40373090  0.62042509  0.27376183  1
  O  O77  1  0.76782598  0.99718592  0.58082481  1
  O  O78  1  0.80858179  0.21879535  0.67065929  1
  O  O79  1  0.80858179  0.71879535  0.82934071  1
  O  O80  1  0.90373090  0.87957491  0.72623817  1
  O  O81  1  0.34653760  0.97385525  0.92123219  1
  O  O82  1  0.59626910  0.37957491  0.72623817  1
  O  O83  1  0.38498838  0.11501106  0.53178475  1
  O  O84  1  0.58629358  0.81508283  0.00392664  1
  O  O85  1  0.19141821  0.78120465  0.32934071  1
  O  O86  1  0.40846536  0.08850564  0.74210547  1
  O  O87  1  0.58629358  0.31508283  0.49607336  1
  O  O88  1  0.38498838  0.61501106  0.96821525  1
  O  O89  1  0.84653760  0.02614475  0.42123219  1
  O  O90  1  0.73217402  0.49718592  0.58082481  1
  O  O91  1  0.23217402  0.00281408  0.41917519  1
  O  O92  1  0.90846536  0.91149436  0.24210547  1
  O  O93  1  0.41370642  0.18491717  0.99607336  1
  O  O94  1  0.15346240  0.97385525  0.57876781  1
  O  O95  1  0.30858179  0.78120465  0.17065929  1
  O  O96  1  0.11501162  0.11501106  0.96821525  1
  O  O97  1  0.69141821  0.71879535  0.67065929  1
  O  O98  1  0.61501162  0.38498894  0.03178475  1
  O  O99  1  0.84653760  0.52614475  0.07876781  1
  O  O100  1  0.59626910  0.87957491  0.77376183  1
  O  O101  1  0.34653760  0.47385525  0.57876781  1
  O  O102  1  0.88498838  0.88498894  0.03178475  1
  O  O103  1  0.69141821  0.21879535  0.82934071  1
