# generated using pymatgen
data_Pr2Ga
_symmetry_space_group_name_H-M   'P 1'
_cell_length_a   5.05559799
_cell_length_b   6.83136368
_cell_length_c   10.04370237
_cell_angle_alpha   90.00000000
_cell_angle_beta   90.00000000
_cell_angle_gamma   90.00000000
_symmetry_Int_Tables_number   1
_chemical_formula_structural   Pr2Ga
_chemical_formula_sum   'Pr8 Ga4'
_cell_volume   346.87561741
_cell_formula_units_Z   4
loop_
 _symmetry_equiv_pos_site_id
 _symmetry_equiv_pos_as_xyz
  1  'x, y, z'
loop_
 _atom_site_type_symbol
 _atom_site_label
 _atom_site_symmetry_multiplicity
 _atom_site_fract_x
 _atom_site_fract_y
 _atom_site_fract_z
 _atom_site_occupancy
  Pr  Pr0  1  0.25000000  0.32258817  0.43801303  1
  Pr  Pr1  1  0.75000000  0.05729274  0.30422464  1
  Pr  Pr2  1  0.75000000  0.55729274  0.19577536  1
  Pr  Pr3  1  0.75000000  0.67741183  0.56198697  1
  Pr  Pr4  1  0.75000000  0.17741183  0.93801303  1
  Pr  Pr5  1  0.25000000  0.44270726  0.80422464  1
  Pr  Pr6  1  0.25000000  0.94270726  0.69577536  1
  Pr  Pr7  1  0.25000000  0.82258817  0.06198697  1
  Ga  Ga8  1  0.75000000  0.21498637  0.62088692  1
  Ga  Ga9  1  0.25000000  0.78501363  0.37911308  1
  Ga  Ga10  1  0.75000000  0.71498637  0.87911308  1
  Ga  Ga11  1  0.25000000  0.28501363  0.12088692  1
