# generated using pymatgen
data_Eu2Re6S11
_symmetry_space_group_name_H-M   'P 1'
_cell_length_a   11.81392420
_cell_length_b   11.81392426
_cell_length_c   11.81392446
_cell_angle_alpha   45.35389101
_cell_angle_beta   45.35389073
_cell_angle_gamma   45.35388886
_symmetry_Int_Tables_number   1
_chemical_formula_structural   Eu2Re6S11
_chemical_formula_sum   'Eu4 Re12 S22'
_cell_volume   760.21779256
_cell_formula_units_Z   2
loop_
 _symmetry_equiv_pos_site_id
 _symmetry_equiv_pos_as_xyz
  1  'x, y, z'
loop_
 _atom_site_type_symbol
 _atom_site_label
 _atom_site_symmetry_multiplicity
 _atom_site_fract_x
 _atom_site_fract_y
 _atom_site_fract_z
 _atom_site_occupancy
  Eu  Eu0  1  0.30977801  0.30977801  0.30977801  1
  Eu  Eu1  1  0.19022199  0.19022199  0.19022199  1
  Eu  Eu2  1  0.69022199  0.69022199  0.69022199  1
  Eu  Eu3  1  0.80977801  0.80977801  0.80977801  1
  Re  Re4  1  0.00556885  0.21377554  0.88378250  1
  Re  Re5  1  0.88378250  0.00556885  0.21377554  1
  Re  Re6  1  0.61621750  0.28622446  0.49443115  1
  Re  Re7  1  0.71377554  0.50556885  0.38378250  1
  Re  Re8  1  0.38378250  0.71377554  0.50556885  1
  Re  Re9  1  0.28622446  0.49443115  0.61621750  1
  Re  Re10  1  0.78622446  0.11621750  0.99443115  1
  Re  Re11  1  0.21377554  0.88378250  0.00556885  1
  Re  Re12  1  0.50556885  0.38378250  0.71377554  1
  Re  Re13  1  0.99443115  0.78622446  0.11621750  1
  Re  Re14  1  0.11621750  0.99443115  0.78622446  1
  Re  Re15  1  0.49443115  0.61621750  0.28622446  1
  S  S16  1  0.91678803  0.30064598  0.69167880  1
  S  S17  1  0.08321197  0.69935402  0.30832120  1
  S  S18  1  0.50006419  0.25000000  0.99993581  1
  S  S19  1  0.80064598  0.41678803  0.19167880  1
  S  S20  1  0.40720711  0.40720711  0.40720711  1
  S  S21  1  0.30832120  0.08321197  0.69935402  1
  S  S22  1  0.80832120  0.19935402  0.58321197  1
  S  S23  1  0.58321197  0.80832120  0.19935402  1
  S  S24  1  0.19167880  0.80064598  0.41678803  1
  S  S25  1  0.41678803  0.19167880  0.80064598  1
  S  S26  1  0.49993581  0.75000000  0.00006419  1
  S  S27  1  0.19935402  0.58321197  0.80832120  1
  S  S28  1  0.25000000  0.99993581  0.50006419  1
  S  S29  1  0.99993581  0.50006419  0.25000000  1
  S  S30  1  0.59279289  0.59279289  0.59279289  1
  S  S31  1  0.30064598  0.69167880  0.91678803  1
  S  S32  1  0.69935402  0.30832120  0.08321197  1
  S  S33  1  0.69167880  0.91678803  0.30064598  1
  S  S34  1  0.90720711  0.90720711  0.90720711  1
  S  S35  1  0.00006419  0.49993581  0.75000000  1
  S  S36  1  0.09279289  0.09279289  0.09279289  1
  S  S37  1  0.75000000  0.00006419  0.49993581  1
