# generated using pymatgen
data_YMg6Al
_symmetry_space_group_name_H-M   'P 1'
_cell_length_a   6.54877761
_cell_length_b   6.54877705
_cell_length_c   5.01793738
_cell_angle_alpha   90.00000000
_cell_angle_beta   90.00000000
_cell_angle_gamma   119.64707869
_symmetry_Int_Tables_number   1
_chemical_formula_structural   YMg6Al
_chemical_formula_sum   'Y1 Mg6 Al1'
_cell_volume   187.02937627
_cell_formula_units_Z   1
loop_
 _symmetry_equiv_pos_site_id
 _symmetry_equiv_pos_as_xyz
  1  'x, y, z'
loop_
 _atom_site_type_symbol
 _atom_site_label
 _atom_site_symmetry_multiplicity
 _atom_site_fract_x
 _atom_site_fract_y
 _atom_site_fract_z
 _atom_site_occupancy
  Y  Y0  1  0.32598700  0.17401300  0.75000000  1
  Mg  Mg1  1  0.16172175  0.82291887  0.25000000  1
  Mg  Mg2  1  0.67708113  0.33827825  0.25000000  1
  Mg  Mg3  1  0.66744773  0.83255227  0.25000000  1
  Mg  Mg4  1  0.32476835  0.66159063  0.75000000  1
  Mg  Mg5  1  0.83840937  0.17523165  0.75000000  1
  Mg  Mg6  1  0.83549612  0.66450388  0.75000000  1
  Al  Al7  1  0.16908855  0.33091145  0.25000000  1
