# generated using pymatgen
data_U4Al18Ni5
_symmetry_space_group_name_H-M   'P 1'
_cell_length_a   4.03714943
_cell_length_b   8.06676209
_cell_length_c   14.42796058
_cell_angle_alpha   86.25231526
_cell_angle_beta   81.95466442
_cell_angle_gamma   75.51290035
_symmetry_Int_Tables_number   1
_chemical_formula_structural   U4Al18Ni5
_chemical_formula_sum   'U4 Al18 Ni5'
_cell_volume   450.22796980
_cell_formula_units_Z   1
loop_
 _symmetry_equiv_pos_site_id
 _symmetry_equiv_pos_as_xyz
  1  'x, y, z'
loop_
 _atom_site_type_symbol
 _atom_site_label
 _atom_site_symmetry_multiplicity
 _atom_site_fract_x
 _atom_site_fract_y
 _atom_site_fract_z
 _atom_site_occupancy
  U  U0  1  0.23180635  0.19738330  0.33886762  1
  U  U1  1  0.43758412  0.23365485  0.89103667  1
  U  U2  1  0.76802980  0.79967723  0.66446661  1
  U  U3  1  0.55726706  0.77345157  0.11187957  1
  Al  Al4  1  0.62958573  0.85030322  0.89007291  1
  Al  Al5  1  0.89535246  0.98390364  0.22525419  1
  Al  Al6  1  0.10289013  0.01460670  0.77953725  1
  Al  Al7  1  0.56944987  0.18263246  0.67865333  1
  Al  Al8  1  0.43481319  0.79744230  0.33282099  1
  Al  Al9  1  0.70489712  0.37718114  0.21290086  1
  Al  Al10  1  0.02342667  0.40648083  0.54695299  1
  Al  Al11  1  0.28715155  0.63054794  0.79527964  1
  Al  Al12  1  0.79511089  0.38121093  0.02836282  1
  Al  Al13  1  0.57293583  0.45399716  0.39989987  1
  Al  Al14  1  0.19773734  0.04423544  0.56074208  1
  Al  Al15  1  0.06398515  0.61175027  0.26011028  1
  Al  Al16  1  0.92836967  0.39978362  0.74343466  1
  Al  Al17  1  0.99649475  0.00404921  0.00272031  1
  Al  Al18  1  0.36496938  0.15359733  0.11654189  1
  Al  Al19  1  0.38908342  0.70100264  0.52093216  1
  Al  Al20  1  0.81301888  0.93915020  0.43488222  1
  Al  Al21  1  0.19953850  0.62175382  0.97926708  1
  Ni  Ni22  1  0.64155567  0.20481184  0.51255787  1
  Ni  Ni23  1  0.78088741  0.55211775  0.88637644  1
  Ni  Ni24  1  0.21258502  0.45226336  0.12265405  1
  Ni  Ni25  1  0.97021583  0.63251542  0.42689236  1
  Ni  Ni26  1  0.43385822  0.48209581  0.65010330  1
