# generated using pymatgen
data_ReN2(OF4)2
_symmetry_space_group_name_H-M   'P 1'
_cell_length_a   5.86304121
_cell_length_b   9.03270804
_cell_length_c   12.48825411
_cell_angle_alpha   90.00000000
_cell_angle_beta   90.00000000
_cell_angle_gamma   90.00000000
_symmetry_Int_Tables_number   1
_chemical_formula_structural   ReN2(OF4)2
_chemical_formula_sum   'Re4 N8 O8 F32'
_cell_volume   661.36719123
_cell_formula_units_Z   4
loop_
 _symmetry_equiv_pos_site_id
 _symmetry_equiv_pos_as_xyz
  1  'x, y, z'
loop_
 _atom_site_type_symbol
 _atom_site_label
 _atom_site_symmetry_multiplicity
 _atom_site_fract_x
 _atom_site_fract_y
 _atom_site_fract_z
 _atom_site_occupancy
  Re  Re0  1  0.25000000  0.22492290  0.87059951  1
  Re  Re1  1  0.75000000  0.27507710  0.37059951  1
  Re  Re2  1  0.75000000  0.77507710  0.12940049  1
  Re  Re3  1  0.25000000  0.72492290  0.62940049  1
  N  N4  1  0.25000000  0.49009263  0.23676173  1
  N  N5  1  0.75000000  0.50990737  0.76323827  1
  N  N6  1  0.25000000  0.74473778  0.93062705  1
  N  N7  1  0.25000000  0.24473778  0.56937295  1
  N  N8  1  0.25000000  0.99009263  0.26323827  1
  N  N9  1  0.75000000  0.00990737  0.73676173  1
  N  N10  1  0.75000000  0.25526222  0.06937295  1
  N  N11  1  0.75000000  0.75526222  0.43062705  1
  O  O12  1  0.25000000  0.55721372  0.31113290  1
  O  O13  1  0.25000000  0.12851999  0.54099653  1
  O  O14  1  0.75000000  0.44278628  0.68886710  1
  O  O15  1  0.75000000  0.87148001  0.45900347  1
  O  O16  1  0.25000000  0.62851999  0.95900347  1
  O  O17  1  0.25000000  0.05721372  0.18886710  1
  O  O18  1  0.75000000  0.94278628  0.81113290  1
  O  O19  1  0.75000000  0.37148001  0.04099653  1
  F  F20  1  0.45413783  0.89850491  0.61971093  1
  F  F21  1  0.95422936  0.77887145  0.25651655  1
  F  F22  1  0.25000000  0.51953867  0.67320956  1
  F  F23  1  0.95413783  0.60149509  0.11971093  1
  F  F24  1  0.47267598  0.86175866  0.07076276  1
  F  F25  1  0.54586217  0.60149509  0.11971093  1
  F  F26  1  0.02732402  0.36175866  0.42923724  1
  F  F27  1  0.25000000  0.77382310  0.47718695  1
  F  F28  1  0.75000000  0.98046133  0.17320956  1
  F  F29  1  0.52732402  0.63824134  0.57076276  1
  F  F30  1  0.04586217  0.89850491  0.61971093  1
  F  F31  1  0.45422936  0.22112855  0.74348345  1
  F  F32  1  0.75000000  0.72617690  0.97718695  1
  F  F33  1  0.54586217  0.10149509  0.38028907  1
  F  F34  1  0.04577064  0.72112855  0.75651655  1
  F  F35  1  0.45413783  0.39850491  0.88028907  1
  F  F36  1  0.97267598  0.63824134  0.57076276  1
  F  F37  1  0.95413783  0.10149509  0.38028907  1
  F  F38  1  0.75000000  0.48046133  0.32679044  1
  F  F39  1  0.75000000  0.22617690  0.52281305  1
  F  F40  1  0.95422936  0.27887145  0.24348345  1
  F  F41  1  0.52732402  0.13824134  0.92923724  1
  F  F42  1  0.45422936  0.72112855  0.75651655  1
  F  F43  1  0.54577064  0.77887145  0.25651655  1
  F  F44  1  0.25000000  0.27382310  0.02281305  1
  F  F45  1  0.54577064  0.27887145  0.24348345  1
  F  F46  1  0.47267598  0.36175866  0.42923724  1
  F  F47  1  0.04586217  0.39850491  0.88028907  1
  F  F48  1  0.25000000  0.01953867  0.82679044  1
  F  F49  1  0.02732402  0.86175866  0.07076276  1
  F  F50  1  0.97267598  0.13824134  0.92923724  1
  F  F51  1  0.04577064  0.22112855  0.74348345  1
