# generated using pymatgen
data_Ca2CO3F2
_symmetry_space_group_name_H-M   'P 1'
_cell_length_a   6.70872248
_cell_length_b   7.54761853
_cell_length_c   7.73786718
_cell_angle_alpha   90.00000000
_cell_angle_beta   90.00000000
_cell_angle_gamma   90.00000000
_symmetry_Int_Tables_number   1
_chemical_formula_structural   Ca2CO3F2
_chemical_formula_sum   'Ca8 C4 O12 F8'
_cell_volume   391.80596143
_cell_formula_units_Z   4
loop_
 _symmetry_equiv_pos_site_id
 _symmetry_equiv_pos_as_xyz
  1  'x, y, z'
loop_
 _atom_site_type_symbol
 _atom_site_label
 _atom_site_symmetry_multiplicity
 _atom_site_fract_x
 _atom_site_fract_y
 _atom_site_fract_z
 _atom_site_occupancy
  C  C0  1  0.75000000  0.46689106  0.50000000  1
  C  C1  1  0.25000000  0.03310894  0.00000000  1
  C  C2  1  0.25000000  0.53310894  0.50000000  1
  C  C3  1  0.75000000  0.96689106  0.00000000  1
  O  O4  1  0.32658344  0.44911025  0.37042624  1
  O  O5  1  0.17341656  0.44911025  0.62957376  1
  O  O6  1  0.82658344  0.05088975  0.12957376  1
  O  O7  1  0.67341656  0.55088975  0.62957376  1
  O  O8  1  0.32658344  0.94911025  0.12957376  1
  O  O9  1  0.82658344  0.55088975  0.37042624  1
  O  O10  1  0.17341656  0.94911025  0.87042624  1
  O  O11  1  0.25000000  0.20626151  0.00000000  1
  O  O12  1  0.75000000  0.79373849  0.00000000  1
  O  O13  1  0.25000000  0.70626151  0.50000000  1
  O  O14  1  0.75000000  0.29373849  0.50000000  1
  O  O15  1  0.67341656  0.05088975  0.87042624  1
  F  F16  1  0.89718211  0.37936970  0.87869216  1
  F  F17  1  0.39718211  0.12063030  0.62130784  1
  F  F18  1  0.60281789  0.37936970  0.12130784  1
  F  F19  1  0.10281789  0.12063030  0.37869216  1
  F  F20  1  0.89718211  0.87936970  0.62130784  1
  F  F21  1  0.39718211  0.62063030  0.87869216  1
  F  F22  1  0.60281789  0.87936970  0.37869216  1
  F  F23  1  0.10281789  0.62063030  0.12130784  1
  Ca  Ca24  1  0.53920148  0.33687123  0.82707669  1
  Ca  Ca25  1  0.03920148  0.16312877  0.67292331  1
  Ca  Ca26  1  0.96079852  0.33687123  0.17292331  1
  Ca  Ca27  1  0.46079852  0.16312877  0.32707669  1
  Ca  Ca28  1  0.46079852  0.66312877  0.17292331  1
  Ca  Ca29  1  0.96079852  0.83687123  0.32707669  1
  Ca  Ca30  1  0.03920148  0.66312877  0.82707669  1
  Ca  Ca31  1  0.53920148  0.83687123  0.67292331  1
