# generated using pymatgen
data_CsLi3Cl4
_symmetry_space_group_name_H-M   'P 1'
_cell_length_a   4.77937584
_cell_length_b   5.07763320
_cell_length_c   15.66970382
_cell_angle_alpha   90.00000000
_cell_angle_beta   98.77204966
_cell_angle_gamma   90.00000000
_symmetry_Int_Tables_number   1
_chemical_formula_structural   CsLi3Cl4
_chemical_formula_sum   'Cs2 Li6 Cl8'
_cell_volume   375.82300744
_cell_formula_units_Z   2
loop_
 _symmetry_equiv_pos_site_id
 _symmetry_equiv_pos_as_xyz
  1  'x, y, z'
loop_
 _atom_site_type_symbol
 _atom_site_label
 _atom_site_symmetry_multiplicity
 _atom_site_fract_x
 _atom_site_fract_y
 _atom_site_fract_z
 _atom_site_occupancy
  Cs  Cs0  1  0.65160078  0.75000000  0.30320156  1
  Cs  Cs1  1  0.34839922  0.25000000  0.69679844  1
  Li  Li2  1  0.77450312  0.75000000  0.54900624  1
  Li  Li3  1  0.06765645  0.25000000  0.13531289  1
  Li  Li4  1  0.53080397  0.75000000  0.06160794  1
  Li  Li5  1  0.22549688  0.25000000  0.45099376  1
  Li  Li6  1  0.46919603  0.25000000  0.93839206  1
  Li  Li7  1  0.93234355  0.75000000  0.86468711  1
  Cl  Cl8  1  0.85198147  0.75000000  0.70396293  1
  Cl  Cl9  1  0.75192293  0.25000000  0.50384587  1
  Cl  Cl10  1  0.54634516  0.25000000  0.09269032  1
  Cl  Cl11  1  0.45365484  0.75000000  0.90730968  1
  Cl  Cl12  1  0.05463976  0.75000000  0.10927952  1
  Cl  Cl13  1  0.14801853  0.25000000  0.29603707  1
  Cl  Cl14  1  0.24807707  0.75000000  0.49615413  1
  Cl  Cl15  1  0.94536024  0.25000000  0.89072048  1
