# generated using pymatgen
data_Ca2FeClO3
_symmetry_space_group_name_H-M   'P 1'
_cell_length_a   3.90136908
_cell_length_b   3.90146439
_cell_length_c   13.68039327
_cell_angle_alpha   89.99843688
_cell_angle_beta   90.00115208
_cell_angle_gamma   90.00202402
_symmetry_Int_Tables_number   1
_chemical_formula_structural   Ca2FeClO3
_chemical_formula_sum   'Ca4 Fe2 Cl2 O6'
_cell_volume   208.22998458
_cell_formula_units_Z   2
loop_
 _symmetry_equiv_pos_site_id
 _symmetry_equiv_pos_as_xyz
  1  'x, y, z'
loop_
 _atom_site_type_symbol
 _atom_site_label
 _atom_site_symmetry_multiplicity
 _atom_site_fract_x
 _atom_site_fract_y
 _atom_site_fract_z
 _atom_site_occupancy
  Ca  Ca0  1  0.25001121  0.25000568  0.34062030  1
  Ca  Ca1  1  0.24999942  0.25000430  0.09429172  1
  Ca  Ca2  1  0.74999918  0.74998701  0.90577650  1
  Ca  Ca3  1  0.74998709  0.74999341  0.65940166  1
  Fe  Fe4  1  0.25000320  0.24999199  0.79099579  1
  Fe  Fe5  1  0.75000692  0.74999891  0.20897816  1
  Cl  Cl6  1  0.25000888  0.24999881  0.57608961  1
  Cl  Cl7  1  0.74999089  0.75000266  0.42379847  1
  O  O8  1  0.74999371  0.25002663  0.76664522  1
  O  O9  1  0.75000644  0.75000004  0.06867248  1
  O  O10  1  0.24998227  0.25000275  0.93134392  1
  O  O11  1  0.75001683  0.24999500  0.23338030  1
  O  O12  1  0.24998118  0.74999766  0.76663440  1
  O  O13  1  0.25001277  0.74999515  0.23337149  1
