# generated using pymatgen
data_H7NO6
_symmetry_space_group_name_H-M   'P 1'
_cell_length_a   9.66338118
_cell_length_b   14.91664623
_cell_length_c   3.69970425
_cell_angle_alpha   90.00000000
_cell_angle_beta   89.97195216
_cell_angle_gamma   90.00000000
_symmetry_Int_Tables_number   1
_chemical_formula_structural   H7NO6
_chemical_formula_sum   'H28 N4 O24'
_cell_volume   533.29468698
_cell_formula_units_Z   4
loop_
 _symmetry_equiv_pos_site_id
 _symmetry_equiv_pos_as_xyz
  1  'x, y, z'
loop_
 _atom_site_type_symbol
 _atom_site_label
 _atom_site_symmetry_multiplicity
 _atom_site_fract_x
 _atom_site_fract_y
 _atom_site_fract_z
 _atom_site_occupancy
  H  H0  1  0.81562351  0.71590000  0.23585303  1
  H  H1  1  0.68259244  0.28129112  0.74229370  1
  H  H2  1  0.31740756  0.78129112  0.75770630  1
  H  H3  1  0.18437649  0.21590000  0.26414697  1
  H  H4  1  0.89013481  0.64774645  0.89038018  1
  H  H5  1  0.70831027  0.68145086  0.92747863  1
  H  H6  1  0.60387783  0.35927809  0.40049847  1
  H  H7  1  0.78928014  0.32001557  0.44946937  1
  H  H8  1  0.39612217  0.85927809  0.09950153  1
  H  H9  1  0.21071986  0.82001557  0.05053063  1
  H  H10  1  0.10986519  0.14774645  0.60961982  1
  H  H11  1  0.29168973  0.18145086  0.57252137  1
  H  H12  1  0.76016325  0.88410586  0.79642102  1
  H  H13  1  0.73686138  0.09294000  0.27197305  1
  H  H14  1  0.70615824  0.98102163  0.74175914  1
  H  H15  1  0.83666835  0.00968577  0.28845626  1
  H  H16  1  0.29384176  0.48102163  0.75824086  1
  H  H17  1  0.16333165  0.50968577  0.21154374  1
  H  H18  1  0.23983675  0.38410586  0.70357898  1
  H  H19  1  0.26313862  0.59294000  0.22802695  1
  H  H20  1  0.52129174  0.83136328  0.42737981  1
  H  H21  1  0.57057928  0.90428391  0.12099772  1
  H  H22  1  0.97320187  0.18173423  0.93917372  1
  H  H23  1  0.92524477  0.10558941  0.65196105  1
  H  H24  1  0.07475523  0.60558941  0.84803895  1
  H  H25  1  0.02679813  0.68173423  0.56082628  1
  H  H26  1  0.42942072  0.40428391  0.37900228  1
  H  H27  1  0.47870826  0.33136328  0.07262019  1
  N  N28  1  0.97832527  0.83847099  0.34358964  1
  N  N29  1  0.51459607  0.16147724  0.86594326  1
  N  N30  1  0.48540393  0.66147724  0.63405674  1
  N  N31  1  0.02167473  0.33847099  0.15641036  1
  O  O32  1  0.86179584  0.81139046  0.47429686  1
  O  O33  1  0.63396311  0.18413822  0.99091507  1
  O  O34  1  0.36603689  0.68413822  0.50908493  1
  O  O35  1  0.13820416  0.31139046  0.02570314  1
  O  O36  1  0.07043756  0.77792787  0.28240746  1
  O  O37  1  0.42995141  0.22617804  0.78630883  1
  O  O38  1  0.57004859  0.72617804  0.71369117  1
  O  O39  1  0.92956244  0.27792787  0.21759254  1
  O  O40  1  0.00089677  0.91821575  0.27629739  1
  O  O41  1  0.48132343  0.08263623  0.82127075  1
  O  O42  1  0.51867657  0.58263623  0.67872925  1
  O  O43  1  0.99910323  0.41821575  0.22370261  1
  O  O44  1  0.79273735  0.66444398  0.07329396  1
  O  O45  1  0.70574074  0.33529012  0.59618289  1
  O  O46  1  0.29425926  0.83529012  0.90381711  1
  O  O47  1  0.20726265  0.16444398  0.42670604  1
  O  O48  1  0.70410194  0.93053173  0.91540137  1
  O  O49  1  0.79748112  0.05853687  0.43564193  1
  O  O50  1  0.20251888  0.55853687  0.06435807  1
  O  O51  1  0.29589806  0.43053173  0.58459863  1
  O  O52  1  0.48899537  0.88200212  0.27625925  1
  O  O53  1  0.00598961  0.12939321  0.79724120  1
  O  O54  1  0.99401039  0.62939321  0.70275880  1
  O  O55  1  0.51100463  0.38200212  0.22374075  1
