# generated using pymatgen
data_EuIn4
_symmetry_space_group_name_H-M   'P 1'
_cell_length_a   5.15180265
_cell_length_b   6.57248347
_cell_length_c   9.67152077
_cell_angle_alpha   73.49621146
_cell_angle_beta   74.55348059
_cell_angle_gamma   66.92584771
_symmetry_Int_Tables_number   1
_chemical_formula_structural   EuIn4
_chemical_formula_sum   'Eu2 In8'
_cell_volume   284.37297948
_cell_formula_units_Z   2
loop_
 _symmetry_equiv_pos_site_id
 _symmetry_equiv_pos_as_xyz
  1  'x, y, z'
loop_
 _atom_site_type_symbol
 _atom_site_label
 _atom_site_symmetry_multiplicity
 _atom_site_fract_x
 _atom_site_fract_y
 _atom_site_fract_z
 _atom_site_occupancy
  Eu  Eu0  1  0.16508129  0.37649906  0.29333835  1
  Eu  Eu1  1  0.83491871  0.62350094  0.70666165  1
  In  In2  1  0.43826433  0.22734214  0.89612920  1
  In  In3  1  0.15355280  0.03939163  0.65350277  1
  In  In4  1  0.57713533  0.27013564  0.57559369  1
  In  In5  1  0.56173567  0.77265786  0.10387080  1
  In  In6  1  0.84644720  0.96060837  0.34649723  1
  In  In7  1  0.15494610  0.74185628  0.94825151  1
  In  In8  1  0.84505390  0.25814372  0.05174849  1
  In  In9  1  0.42286467  0.72986436  0.42440631  1
