# generated using pymatgen
data_TeHO3
_symmetry_space_group_name_H-M   'P 1'
_cell_length_a   11.98458543
_cell_length_b   8.32789197
_cell_length_c   4.83496042
_cell_angle_alpha   90.00000000
_cell_angle_beta   89.95927336
_cell_angle_gamma   90.00000000
_symmetry_Int_Tables_number   1
_chemical_formula_structural   TeHO3
_chemical_formula_sum   'Te8 H8 O24'
_cell_volume   482.55954691
_cell_formula_units_Z   8
loop_
 _symmetry_equiv_pos_site_id
 _symmetry_equiv_pos_as_xyz
  1  'x, y, z'
loop_
 _atom_site_type_symbol
 _atom_site_label
 _atom_site_symmetry_multiplicity
 _atom_site_fract_x
 _atom_site_fract_y
 _atom_site_fract_z
 _atom_site_occupancy
  Te  Te0  1  0.61202255  0.46435932  0.00067252  1
  Te  Te1  1  0.38808119  0.53618778  0.50096470  1
  Te  Te2  1  0.88808119  0.96381222  0.50096470  1
  Te  Te3  1  0.11202255  0.03564068  0.00067252  1
  Te  Te4  1  0.93868411  0.35810415  0.85536536  1
  Te  Te5  1  0.06141921  0.64108830  0.35514790  1
  Te  Te6  1  0.56141921  0.85891170  0.35514790  1
  Te  Te7  1  0.43868411  0.14189585  0.85536536  1
  H  H8  1  0.72977551  0.56183033  0.59405041  1
  H  H9  1  0.27132352  0.44312170  0.08960295  1
  H  H10  1  0.77132352  0.05687830  0.08960295  1
  H  H11  1  0.22977551  0.93816967  0.59405041  1
  H  H12  1  0.70817913  0.31765931  0.39397154  1
  H  H13  1  0.29285631  0.68616578  0.89333234  1
  H  H14  1  0.79285631  0.81383422  0.89333234  1
  H  H15  1  0.20817913  0.18234069  0.39397154  1
  O  O16  1  0.73890251  0.48216618  0.74146268  1
  O  O17  1  0.26083427  0.51796483  0.24387303  1
  O  O18  1  0.76083427  0.98203517  0.24387303  1
  O  O19  1  0.23890251  0.01783382  0.74146268  1
  O  O20  1  0.95736887  0.45008578  0.49941666  1
  O  O21  1  0.04266852  0.54926642  0.99925797  1
  O  O22  1  0.54266852  0.95073358  0.99925797  1
  O  O23  1  0.45736887  0.04991422  0.49941666  1
  O  O24  1  0.34847382  0.34676980  0.69940911  1
  O  O25  1  0.65171086  0.65403973  0.19800890  1
  O  O26  1  0.15171086  0.84596027  0.19800890  1
  O  O27  1  0.84847382  0.15323020  0.69940911  1
  O  O28  1  0.48277197  0.40693328  0.24075540  1
  O  O29  1  0.51710536  0.59387747  0.74098884  1
  O  O30  1  0.01710536  0.90612253  0.74098884  1
  O  O31  1  0.98277197  0.09306672  0.24075540  1
  O  O32  1  0.57554900  0.26801833  0.79546370  1
  O  O33  1  0.42437360  0.73283071  0.29619444  1
  O  O34  1  0.92437360  0.76716929  0.29619444  1
  O  O35  1  0.07554900  0.23198167  0.79546370  1
  O  O36  1  0.72238724  0.33396626  0.19570501  1
  O  O37  1  0.27704046  0.66555683  0.69715954  1
  O  O38  1  0.77704046  0.83444317  0.69715954  1
  O  O39  1  0.22238724  0.16603374  0.19570501  1
