# generated using pymatgen
data_SmMn4(CuO4)3
_symmetry_space_group_name_H-M   'P 1'
_cell_length_a   6.44109414
_cell_length_b   6.44109753
_cell_length_c   6.44111777
_cell_angle_alpha   109.45952148
_cell_angle_beta   109.48470333
_cell_angle_gamma   109.47011575
_symmetry_Int_Tables_number   1
_chemical_formula_structural   SmMn4(CuO4)3
_chemical_formula_sum   'Sm1 Mn4 Cu3 O12'
_cell_volume   205.70991146
_cell_formula_units_Z   1
loop_
 _symmetry_equiv_pos_site_id
 _symmetry_equiv_pos_as_xyz
  1  'x, y, z'
loop_
 _atom_site_type_symbol
 _atom_site_label
 _atom_site_symmetry_multiplicity
 _atom_site_fract_x
 _atom_site_fract_y
 _atom_site_fract_z
 _atom_site_occupancy
  Sm  Sm0  1  0.00000038  0.99999903  0.99999793  1
  Mn  Mn1  1  0.99999818  0.00000356  0.49999721  1
  Mn  Mn2  1  0.49999811  0.99999564  0.99999976  1
  Mn  Mn3  1  0.50000101  0.50000059  0.49999234  1
  Mn  Mn4  1  0.99999620  0.50000084  0.00000379  1
  Cu  Cu5  1  0.50000119  0.00000098  0.50000253  1
  Cu  Cu6  1  0.49999985  0.49999857  0.99999981  1
  Cu  Cu7  1  0.00000093  0.50000055  0.50000175  1
  O  O8  1  0.47475222  0.17026478  0.30448561  1
  O  O9  1  0.69534135  0.86552062  0.17017876  1
  O  O10  1  0.17020085  0.30458230  0.47477793  1
  O  O11  1  0.13422113  0.82973529  0.30448647  1
  O  O12  1  0.82980507  0.69542309  0.52522371  1
  O  O13  1  0.17019770  0.69541939  0.86561925  1
  O  O14  1  0.30465707  0.13447702  0.82982024  1
  O  O15  1  0.52524995  0.82973293  0.69551384  1
  O  O16  1  0.82980122  0.30457784  0.13438433  1
  O  O17  1  0.86578000  0.17026724  0.69551751  1
  O  O18  1  0.69534093  0.52516238  0.82981895  1
  O  O19  1  0.30465664  0.47483735  0.17017828  1
