# generated using pymatgen
data_CeBC
_symmetry_space_group_name_H-M   'P 1'
_cell_length_a   8.30860887
_cell_length_b   8.33146875
_cell_length_c   12.13935777
_cell_angle_alpha   90.00334486
_cell_angle_beta   90.00281491
_cell_angle_gamma   90.00058517
_symmetry_Int_Tables_number   1
_chemical_formula_structural   CeBC
_chemical_formula_sum   'Ce20 B20 C20'
_cell_volume   840.32173103
_cell_formula_units_Z   20
loop_
 _symmetry_equiv_pos_site_id
 _symmetry_equiv_pos_as_xyz
  1  'x, y, z'
loop_
 _atom_site_type_symbol
 _atom_site_label
 _atom_site_symmetry_multiplicity
 _atom_site_fract_x
 _atom_site_fract_y
 _atom_site_fract_z
 _atom_site_occupancy
  Ce  Ce0  1  0.94781858  0.59889256  0.86147205  1
  Ce  Ce1  1  0.43881495  0.30263482  0.63344828  1
  Ce  Ce2  1  0.84285153  0.09062753  0.09667971  1
  Ce  Ce3  1  0.16008026  0.99225255  0.91771289  1
  Ce  Ce4  1  0.34293302  0.40939532  0.90320682  1
  Ce  Ce5  1  0.05210535  0.09890466  0.63849629  1
  Ce  Ce6  1  0.33987292  0.00780093  0.41775392  1
  Ce  Ce7  1  0.75465484  0.79062419  0.32842301  1
  Ce  Ce8  1  0.25472433  0.70948646  0.67159598  1
  Ce  Ce9  1  0.56118696  0.80271661  0.86652380  1
  Ce  Ce10  1  0.55216363  0.40107117  0.36152599  1
  Ce  Ce11  1  0.83981354  0.49215911  0.58226781  1
  Ce  Ce12  1  0.06111476  0.69740040  0.13343060  1
  Ce  Ce13  1  0.24532036  0.29050900  0.17160671  1
  Ce  Ce14  1  0.93874078  0.19726806  0.36655197  1
  Ce  Ce15  1  0.65711401  0.90940415  0.59669541  1
  Ce  Ce16  1  0.66015841  0.50776233  0.08226911  1
  Ce  Ce17  1  0.74534299  0.20940221  0.82845338  1
  Ce  Ce18  1  0.44794180  0.90109471  0.13854083  1
  Ce  Ce19  1  0.15714496  0.59059062  0.40333332  1
  B  B20  1  0.56163961  0.20536281  0.18033150  1
  B  B21  1  0.43847310  0.70530790  0.31967025  1
  B  B22  1  0.89941447  0.48059887  0.26051289  1
  B  B23  1  0.06148896  0.29461499  0.81965906  1
  B  B24  1  0.47891105  0.10748675  0.95955768  1
  B  B25  1  0.37990620  0.59610982  0.21361550  1
  B  B26  1  0.97881587  0.39252843  0.04044733  1
  B  B27  1  0.12015761  0.40386001  0.71360018  1
  B  B28  1  0.60055666  0.51938101  0.76050083  1
  B  B29  1  0.31537444  0.69864839  0.99194540  1
  B  B30  1  0.68461679  0.19871991  0.50805973  1
  B  B31  1  0.39944376  0.01937083  0.73947920  1
  B  B32  1  0.87984799  0.90393273  0.78637842  1
  B  B33  1  0.62018633  0.09613701  0.28637865  1
  B  B34  1  0.93846610  0.79470458  0.68031516  1
  B  B35  1  0.10050861  0.98060151  0.23946634  1
  B  B36  1  0.52109791  0.60742271  0.54042534  1
  B  B37  1  0.02116010  0.89260762  0.45955936  1
  B  B38  1  0.81532339  0.80134146  0.00804423  1
  B  B39  1  0.18464022  0.30120510  0.49194457  1
  C  C40  1  0.55639589  0.61640291  0.66114956  1
  C  C41  1  0.64740582  0.09714991  0.40837377  1
  C  C42  1  0.47243626  0.69905823  0.43990809  1
  C  C43  1  0.35457726  0.00636104  0.62131503  1
  C  C44  1  0.74824316  0.19790901  0.62317925  1
  C  C45  1  0.85256173  0.90289518  0.90836522  1
  C  C46  1  0.44362731  0.11638299  0.83884337  1
  C  C47  1  0.35257248  0.59715812  0.09166114  1
  C  C48  1  0.02758969  0.30093344  0.93988300  1
  C  C49  1  0.97242574  0.80098705  0.56011066  1
  C  C50  1  0.75182541  0.80210261  0.12316457  1
  C  C51  1  0.94359369  0.38360002  0.16113397  1
  C  C52  1  0.64540654  0.50631942  0.87865817  1
  C  C53  1  0.52765923  0.19905109  0.06009863  1
  C  C54  1  0.85456754  0.49367318  0.37866258  1
  C  C55  1  0.25178051  0.69794443  0.87686671  1
  C  C56  1  0.14530200  0.99366982  0.12134865  1
  C  C57  1  0.14742693  0.40282420  0.59162929  1
  C  C58  1  0.24825305  0.30200959  0.37690123  1
  C  C59  1  0.05642260  0.88362796  0.33886762  1
