# generated using pymatgen
data_YbCl3
_symmetry_space_group_name_H-M   'P 1'
_cell_length_a   3.98826563
_cell_length_b   6.03820780
_cell_length_c   8.66026669
_cell_angle_alpha   90.00000000
_cell_angle_beta   90.00000000
_cell_angle_gamma   109.28409779
_symmetry_Int_Tables_number   1
_chemical_formula_structural   YbCl3
_chemical_formula_sum   'Yb2 Cl6'
_cell_volume   196.85479612
_cell_formula_units_Z   2
loop_
 _symmetry_equiv_pos_site_id
 _symmetry_equiv_pos_as_xyz
  1  'x, y, z'
loop_
 _atom_site_type_symbol
 _atom_site_label
 _atom_site_symmetry_multiplicity
 _atom_site_fract_x
 _atom_site_fract_y
 _atom_site_fract_z
 _atom_site_occupancy
  Yb  Yb0  1  0.75029598  0.50059197  0.25000000  1
  Yb  Yb1  1  0.24970402  0.49940803  0.75000000  1
  Cl  Cl2  1  0.35377475  0.70754950  0.06056706  1
  Cl  Cl3  1  0.64622525  0.29245050  0.93943294  1
  Cl  Cl4  1  0.64622525  0.29245050  0.56056706  1
  Cl  Cl5  1  0.35377475  0.70754950  0.43943294  1
  Cl  Cl6  1  0.08380368  0.16760736  0.25000000  1
  Cl  Cl7  1  0.91619632  0.83239264  0.75000000  1
