# generated using pymatgen
data_As9Pb7S20
_symmetry_space_group_name_H-M   'P 1'
_cell_length_a   8.35960361
_cell_length_b   8.40872955
_cell_length_c   25.97866434
_cell_angle_alpha   90.00000000
_cell_angle_beta   90.00000000
_cell_angle_gamma   89.87305833
_symmetry_Int_Tables_number   1
_chemical_formula_structural   As9Pb7S20
_chemical_formula_sum   'As18 Pb14 S40'
_cell_volume   1826.13055191
_cell_formula_units_Z   2
loop_
 _symmetry_equiv_pos_site_id
 _symmetry_equiv_pos_as_xyz
  1  'x, y, z'
loop_
 _atom_site_type_symbol
 _atom_site_label
 _atom_site_symmetry_multiplicity
 _atom_site_fract_x
 _atom_site_fract_y
 _atom_site_fract_z
 _atom_site_occupancy
  As  As0  1  0.37824861  0.87879224  0.73430473  1
  As  As1  1  0.62175139  0.12120776  0.23430473  1
  As  As2  1  0.73704958  0.37678478  0.84164403  1
  As  As3  1  0.26295042  0.62321522  0.34164503  1
  As  As4  1  0.72769126  0.59797986  0.72488307  1
  As  As5  1  0.27230874  0.40202014  0.22488307  1
  As  As6  1  0.11268889  0.07701670  0.84832394  1
  As  As7  1  0.88731111  0.92298330  0.34832394  1
  As  As8  1  0.11824503  0.64478378  0.86306173  1
  As  As9  1  0.88175497  0.35521622  0.36306173  1
  As  As10  1  0.43320291  0.60501176  0.94721105  1
  As  As11  1  0.56679709  0.39498824  0.44721105  1
  As  As12  1  0.44575216  0.12975143  0.95629869  1
  As  As13  1  0.55424784  0.87024857  0.45629869  1
  As  As14  1  0.07175068  0.37251881  0.63569440  1
  As  As15  1  0.92824932  0.62748119  0.13569440  1
  As  As16  1  0.06622671  0.82641192  0.64398007  1
  As  As17  1  0.93377329  0.17358808  0.14398007  1
  Pb  Pb18  1  0.34994766  0.35394873  0.76007150  1
  Pb  Pb19  1  0.65005234  0.64605127  0.26007150  1
  Pb  Pb20  1  0.28499972  0.11949881  0.37199035  1
  Pb  Pb21  1  0.71500028  0.88050119  0.87199035  1
  Pb  Pb22  1  0.81599951  0.12332803  0.72666633  1
  Pb  Pb23  1  0.18400049  0.87667197  0.22666633  1
  Pb  Pb24  1  0.46222545  0.62094858  0.58434604  1
  Pb  Pb25  1  0.53777455  0.37905142  0.08434604  1
  Pb  Pb26  1  0.44222893  0.11515295  0.58576962  1
  Pb  Pb27  1  0.55777107  0.88484705  0.08576962  1
  Pb  Pb28  1  0.94682170  0.62535950  0.49257798  1
  Pb  Pb29  1  0.05317830  0.37464050  0.99257798  1
  Pb  Pb30  1  0.94510563  0.12615171  0.49888376  1
  Pb  Pb31  1  0.05489437  0.87384829  0.99888376  1
  S  S32  1  0.59398120  0.35025112  0.97656453  1
  S  S33  1  0.40601880  0.64974888  0.47656453  1
  S  S34  1  0.90751884  0.63829222  0.91800104  1
  S  S35  1  0.09248116  0.36170778  0.41800104  1
  S  S36  1  0.24031663  0.67526304  0.69325317  1
  S  S37  1  0.75968337  0.32473696  0.19325317  1
  S  S38  1  0.58534297  0.40422614  0.68532699  1
  S  S39  1  0.41465703  0.59577386  0.18532699  1
  S  S40  1  0.91949659  0.60398200  0.61560584  1
  S  S41  1  0.08050341  0.39601800  0.11560584  1
  S  S42  1  0.23564600  0.37463471  0.56464034  1
  S  S43  1  0.76435400  0.62536529  0.06464034  1
  S  S44  1  0.70885817  0.37551617  0.52116993  1
  S  S45  1  0.29114183  0.62448383  0.02116993  1
  S  S46  1  0.26573822  0.43124188  0.90132319  1
  S  S47  1  0.73426178  0.56875812  0.40132319  1
  S  S48  1  0.27310689  0.83682469  0.90176861  1
  S  S49  1  0.61128059  0.84358011  0.68802251  1
  S  S50  1  0.72689311  0.16317531  0.40176861  1
  S  S51  1  0.38791261  0.07446790  0.48028463  1
  S  S52  1  0.92599140  0.13802691  0.90732454  1
  S  S53  1  0.07400860  0.86197309  0.40732454  1
  S  S54  1  0.97365190  0.90441235  0.79867175  1
  S  S55  1  0.02634810  0.09558765  0.29867175  1
  S  S56  1  0.93816891  0.38574929  0.78535034  1
  S  S57  1  0.06183109  0.61425071  0.28535034  1
  S  S58  1  0.58191735  0.16889292  0.80833885  1
  S  S59  1  0.41808265  0.83110708  0.30833885  1
  S  S60  1  0.58143840  0.60918275  0.80050547  1
  S  S61  1  0.41856160  0.39081725  0.30050547  1
  S  S62  1  0.27173842  0.09212260  0.69342838  1
  S  S63  1  0.72826158  0.90787740  0.19342838  1
  S  S64  1  0.27589063  0.12815751  0.02595210  1
  S  S65  1  0.72410937  0.87184249  0.52595210  1
  S  S66  1  0.78722212  0.13776752  0.07165406  1
  S  S67  1  0.21277788  0.86223248  0.57165406  1
  S  S68  1  0.09376163  0.81724823  0.11210546  1
  S  S69  1  0.90623837  0.18275177  0.61210546  1
  S  S70  1  0.38871941  0.15641989  0.18802251  1
  S  S71  1  0.61208739  0.92553210  0.98028463  1
