# generated using pymatgen
data_Mg14SnMo
_symmetry_space_group_name_H-M   'P 1'
_cell_length_a   6.25735028
_cell_length_b   6.25734979
_cell_length_c   10.21174444
_cell_angle_alpha   90.00000000
_cell_angle_beta   90.00000000
_cell_angle_gamma   120.00000258
_symmetry_Int_Tables_number   1
_chemical_formula_structural   Mg14SnMo
_chemical_formula_sum   'Mg14 Sn1 Mo1'
_cell_volume   346.26728215
_cell_formula_units_Z   1
loop_
 _symmetry_equiv_pos_site_id
 _symmetry_equiv_pos_as_xyz
  1  'x, y, z'
loop_
 _atom_site_type_symbol
 _atom_site_label
 _atom_site_symmetry_multiplicity
 _atom_site_fract_x
 _atom_site_fract_y
 _atom_site_fract_z
 _atom_site_occupancy
  Mg  Mg0  1  0.16626708  0.83313304  0.12500000  1
  Mg  Mg1  1  0.16651554  0.83325727  0.62500000  1
  Mg  Mg2  1  0.66686696  0.33373292  0.12500000  1
  Mg  Mg3  1  0.66674273  0.33348446  0.62500000  1
  Mg  Mg4  1  0.66686696  0.83313304  0.12500000  1
  Mg  Mg5  1  0.66674273  0.83325727  0.62500000  1
  Mg  Mg6  1  0.32824358  0.17175642  0.38414962  1
  Mg  Mg7  1  0.32824358  0.17175642  0.86585038  1
  Mg  Mg8  1  0.32824358  0.65648816  0.38414962  1
  Mg  Mg9  1  0.32824358  0.65648816  0.86585038  1
  Mg  Mg10  1  0.84351184  0.17175642  0.38414962  1
  Mg  Mg11  1  0.84351184  0.17175642  0.86585038  1
  Mg  Mg12  1  0.83333300  0.66666700  0.37668131  1
  Mg  Mg13  1  0.83333300  0.66666700  0.87331869  1
  Sn  Sn14  1  0.16666700  0.33333300  0.12500000  1
  Mo  Mo15  1  0.16666700  0.33333300  0.62500000  1
