# generated using pymatgen
data_Yb2Ga10Ru3
_symmetry_space_group_name_H-M   'P 1'
_cell_length_a   8.94077272
_cell_length_b   8.94129819
_cell_length_c   6.37818834
_cell_angle_alpha   90.00947158
_cell_angle_beta   89.99652444
_cell_angle_gamma   89.98970899
_symmetry_Int_Tables_number   1
_chemical_formula_structural   Yb2Ga10Ru3
_chemical_formula_sum   'Yb4 Ga20 Ru6'
_cell_volume   509.88584944
_cell_formula_units_Z   2
loop_
 _symmetry_equiv_pos_site_id
 _symmetry_equiv_pos_as_xyz
  1  'x, y, z'
loop_
 _atom_site_type_symbol
 _atom_site_label
 _atom_site_symmetry_multiplicity
 _atom_site_fract_x
 _atom_site_fract_y
 _atom_site_fract_z
 _atom_site_occupancy
  Yb  Yb0  1  0.18348327  0.68356682  0.00003983  1
  Yb  Yb1  1  0.81650047  0.31630984  0.99986651  1
  Yb  Yb2  1  0.31637535  0.18359825  0.99996015  1
  Yb  Yb3  1  0.68346095  0.81651545  0.99999481  1
  Ga  Ga4  1  0.70643628  0.56074938  0.70808644  1
  Ga  Ga5  1  0.29350746  0.43924978  0.70802360  1
  Ga  Ga6  1  0.79354770  0.06079991  0.70808397  1
  Ga  Ga7  1  0.20647572  0.93925304  0.70804267  1
  Ga  Ga8  1  0.56066547  0.29361253  0.70813607  1
  Ga  Ga9  1  0.43933932  0.70643818  0.70809200  1
  Ga  Ga10  1  0.06078842  0.20656684  0.70826135  1
  Ga  Ga11  1  0.93921853  0.79350826  0.70819170  1
  Ga  Ga12  1  0.29363317  0.43932494  0.29190475  1
  Ga  Ga13  1  0.70647183  0.56079988  0.29183191  1
  Ga  Ga14  1  0.20650639  0.93914220  0.29183893  1
  Ga  Ga15  1  0.79361658  0.06065002  0.29199553  1
  Ga  Ga16  1  0.43919034  0.70647307  0.29184078  1
  Ga  Ga17  1  0.56076672  0.29355995  0.29201092  1
  Ga  Ga18  1  0.93915551  0.79352592  0.29196691  1
  Ga  Ga19  1  0.06067849  0.20645376  0.29204405  1
  Ga  Ga20  1  0.99997021  0.49985584  0.71520836  1
  Ga  Ga21  1  0.50007078  0.99993803  0.71483242  1
  Ga  Ga22  1  0.00001518  0.49994781  0.28487656  1
  Ga  Ga23  1  0.49997578  0.00001831  0.28512756  1
  Ru  Ru24  1  0.17931439  0.67925265  0.49991887  1
  Ru  Ru25  1  0.82062722  0.32070603  0.49968378  1
  Ru  Ru26  1  0.32069467  0.17938240  0.49992808  1
  Ru  Ru27  1  0.67933654  0.82069716  0.50000672  1
  Ru  Ru28  1  0.50009231  0.49993920  0.00015888  1
  Ru  Ru29  1  0.00008496  0.00016454  0.00004589  1
