# generated using pymatgen
data_Ce8Nd2O19
_symmetry_space_group_name_H-M   'P 1'
_cell_length_a   3.88096374
_cell_length_b   38.89138730
_cell_length_c   37.10695022
_cell_angle_alpha   5.20030039
_cell_angle_beta   58.49377615
_cell_angle_gamma   60.09166833
_symmetry_Int_Tables_number   1
_chemical_formula_structural   Ce8Nd2O19
_chemical_formula_sum   'Ce8 Nd2 O19'
_cell_volume   415.18474207
_cell_formula_units_Z   1
loop_
 _symmetry_equiv_pos_site_id
 _symmetry_equiv_pos_as_xyz
  1  'x, y, z'
loop_
 _atom_site_type_symbol
 _atom_site_label
 _atom_site_symmetry_multiplicity
 _atom_site_fract_x
 _atom_site_fract_y
 _atom_site_fract_z
 _atom_site_occupancy
  Ce  Ce0  1  0.99144542  0.19293286  0.00902389  1
  Ce  Ce1  1  0.00464283  0.39979935  0.00028015  1
  Ce  Ce2  1  0.00205242  0.29945380  0.00112259  1
  Ce  Ce3  1  0.00467395  0.50111493  0.99872403  1
  Ce  Ce4  1  0.00338450  0.59974432  -0.00027222  1
  Ce  Ce5  1  0.00385695  0.80572256  0.99289343  1
  Ce  Ce6  1  0.00081741  0.70064438  0.99862345  1
  Ce  Ce7  1  0.01387868  0.90976160  0.98736226  1
  Nd  Nd8  1  0.03655378  0.02578602  0.96689893  1
  Nd  Nd9  1  0.96651971  0.07190339  0.03444227  1
  O  O10  1  0.25296891  0.09826379  0.25224738  1
  O  O11  1  0.25497500  0.19987155  0.25025320  1
  O  O12  1  0.25611781  0.30285983  0.24651140  1
  O  O13  1  0.25140291  0.39783795  0.25178594  1
  O  O14  1  0.25418255  0.50669623  0.24160010  1
  O  O15  1  0.74901425  0.00186258  0.74738983  1
  O  O16  1  0.25147834  0.60180229  0.24775965  1
  O  O17  1  0.28924378  0.72755956  0.21459501  1
  O  O18  1  0.76756449  0.11579767  0.73036599  1
  O  O19  1  0.74178152  0.18934801  0.76232694  1
  O  O20  1  0.74855894  0.29750963  0.75197943  1
  O  O21  1  0.21262515  0.87078669  0.28621060  1
  O  O22  1  0.76076623  0.40814470  0.73923772  1
  O  O23  1  0.25631982  0.00587681  0.24368381  1
  O  O24  1  0.74000647  0.49294735  0.76001851  1
  O  O25  1  0.75384643  0.59886426  0.75133756  1
  O  O26  1  0.75682881  0.70093290  0.74873435  1
  O  O27  1  0.75339769  0.79968181  0.75031276  1
  O  O28  1  0.75417427  0.89960018  0.74947004  1
