# generated using pymatgen
data_K2SrCl4
_symmetry_space_group_name_H-M   'P 1'
_cell_length_a   8.07594541
_cell_length_b   16.13274878
_cell_length_c   9.33923218
_cell_angle_alpha   54.62685844
_cell_angle_beta   124.57558004
_cell_angle_gamma   109.17903405
_symmetry_Int_Tables_number   1
_chemical_formula_structural   K2SrCl4
_chemical_formula_sum   'K8 Sr4 Cl16'
_cell_volume   816.92587555
_cell_formula_units_Z   4
loop_
 _symmetry_equiv_pos_site_id
 _symmetry_equiv_pos_as_xyz
  1  'x, y, z'
loop_
 _atom_site_type_symbol
 _atom_site_label
 _atom_site_symmetry_multiplicity
 _atom_site_fract_x
 _atom_site_fract_y
 _atom_site_fract_z
 _atom_site_occupancy
  K  K0  1  0.13210794  0.94462610  0.87810620  1
  K  K1  1  0.12304725  0.43994337  0.86269576  1
  K  K2  1  0.37021808  0.81039014  0.61717829  1
  K  K3  1  0.25394346  0.62731170  0.36938287  1
  K  K4  1  0.62304725  0.56005663  0.24258249  1
  K  K5  1  0.87021808  0.18960986  0.73795857  1
  K  K6  1  0.63210794  0.05537390  0.26735841  1
  K  K7  1  0.75394346  0.37268830  0.12400627  1
  Sr  Sr8  1  0.37117952  0.30715950  0.64243749  1
  Sr  Sr9  1  0.87117952  0.69284050  0.75675650  1
  Sr  Sr10  1  0.23248673  0.12313024  0.36349388  1
  Sr  Sr11  1  0.73248673  0.87686976  0.10975436  1
  Cl  Cl12  1  0.37033344  0.75744182  0.99495438  1
  Cl  Cl13  1  0.96174458  0.69285780  0.49038106  1
  Cl  Cl14  1  0.36284724  0.23920656  0.01289578  1
  Cl  Cl15  1  0.52039328  0.58190881  0.83899307  1
  Cl  Cl16  1  0.03408511  0.17949185  0.50520384  1
  Cl  Cl17  1  0.11663823  0.51706079  0.09753987  1
  Cl  Cl18  1  0.53408511  0.82050815  0.36418753  1
  Cl  Cl19  1  0.51302199  0.06739987  0.87407206  1
  Cl  Cl20  1  0.61663823  0.48293921  0.63166146  1
  Cl  Cl21  1  0.01302199  0.93260013  0.50887179  1
  Cl  Cl22  1  0.10935315  0.99373730  0.14239960  1
  Cl  Cl23  1  0.46174458  0.30714220  0.37609666  1
  Cl  Cl24  1  0.60935315  0.00626270  0.62987420  1
  Cl  Cl25  1  0.86284724  0.76079344  0.99130890  1
  Cl  Cl26  1  0.02039328  0.41809119  0.50281069  1
  Cl  Cl27  1  0.87033344  0.24255818  0.00983802  1
