# generated using pymatgen
data_Ba2ScCl7
_symmetry_space_group_name_H-M   'P 1'
_cell_length_a   7.01195253
_cell_length_b   12.26118665
_cell_length_c   13.67386136
_cell_angle_alpha   90.00000000
_cell_angle_beta   90.00000000
_cell_angle_gamma   95.42987223
_symmetry_Int_Tables_number   1
_chemical_formula_structural   Ba2ScCl7
_chemical_formula_sum   'Ba8 Sc4 Cl28'
_cell_volume   1170.33306753
_cell_formula_units_Z   4
loop_
 _symmetry_equiv_pos_site_id
 _symmetry_equiv_pos_as_xyz
  1  'x, y, z'
loop_
 _atom_site_type_symbol
 _atom_site_label
 _atom_site_symmetry_multiplicity
 _atom_site_fract_x
 _atom_site_fract_y
 _atom_site_fract_z
 _atom_site_occupancy
  Ba  Ba0  1  0.26008052  0.86858642  0.92731171  1
  Ba  Ba1  1  0.73425892  0.01462395  0.66308447  1
  Ba  Ba2  1  0.26008052  0.36858642  0.57268829  1
  Ba  Ba3  1  0.73425892  0.51462395  0.83691553  1
  Ba  Ba4  1  0.73991948  0.63141358  0.42731171  1
  Ba  Ba5  1  0.73991948  0.13141358  0.07268829  1
  Ba  Ba6  1  0.26574108  0.98537605  0.33691553  1
  Ba  Ba7  1  0.26574108  0.48537605  0.16308447  1
  Sc  Sc8  1  0.80120782  0.20469250  0.36657270  1
  Sc  Sc9  1  0.80120782  0.70469250  0.13342730  1
  Sc  Sc10  1  0.19879218  0.29530750  0.86657270  1
  Sc  Sc11  1  0.19879218  0.79530750  0.63342730  1
  Cl  Cl12  1  0.95390461  0.76119568  0.76879252  1
  Cl  Cl13  1  0.04609539  0.73880432  0.26879252  1
  Cl  Cl14  1  0.22663940  0.48836504  0.80583540  1
  Cl  Cl15  1  0.45230107  0.34359204  0.99641898  1
  Cl  Cl16  1  0.95164338  0.85750783  0.51526492  1
  Cl  Cl17  1  0.77336060  0.51163496  0.19416460  1
  Cl  Cl18  1  0.45230107  0.84359204  0.50358102  1
  Cl  Cl19  1  0.46209514  0.76176573  0.74527364  1
  Cl  Cl20  1  0.95390461  0.26119568  0.73120748  1
  Cl  Cl21  1  0.46209514  0.26176573  0.75472636  1
  Cl  Cl22  1  0.62589068  0.51763617  0.62301822  1
  Cl  Cl23  1  0.54769893  0.15640796  0.49641898  1
  Cl  Cl24  1  0.12052241  0.11123874  0.93308234  1
  Cl  Cl25  1  0.04835662  0.64249217  0.01526492  1
  Cl  Cl26  1  0.54769893  0.65640796  0.00358102  1
  Cl  Cl27  1  0.12052241  0.61123874  0.56691766  1
  Cl  Cl28  1  0.87947759  0.38876126  0.43308234  1
  Cl  Cl29  1  0.62589068  0.01763617  0.87698178  1
  Cl  Cl30  1  0.04835662  0.14249217  0.48473508  1
  Cl  Cl31  1  0.77336060  0.01163496  0.30583540  1
  Cl  Cl32  1  0.53790486  0.23823427  0.25472636  1
  Cl  Cl33  1  0.37410932  0.48236383  0.37698178  1
  Cl  Cl34  1  0.22663940  0.98836504  0.69416460  1
  Cl  Cl35  1  0.87947759  0.88876126  0.06691766  1
  Cl  Cl36  1  0.53790486  0.73823427  0.24527364  1
  Cl  Cl37  1  0.95164338  0.35750783  0.98473508  1
  Cl  Cl38  1  0.37410932  0.98236383  0.12301822  1
  Cl  Cl39  1  0.04609539  0.23880432  0.23120748  1
