# generated using pymatgen
data_Sr2YAlCu2O7
_symmetry_space_group_name_H-M   'P 1'
_cell_length_a   12.03283100
_cell_length_b   12.03283100
_cell_length_c   12.03283100
_cell_angle_alpha   37.61146302
_cell_angle_beta   153.36202028
_cell_angle_gamma   153.93684803
_symmetry_Int_Tables_number   1
_chemical_formula_structural   Sr2YAlCu2O7
_chemical_formula_sum   'Sr4 Y2 Al2 Cu4 O14'
_cell_volume   342.68207552
_cell_formula_units_Z   2
loop_
 _symmetry_equiv_pos_site_id
 _symmetry_equiv_pos_as_xyz
  1  'x, y, z'
loop_
 _atom_site_type_symbol
 _atom_site_label
 _atom_site_symmetry_multiplicity
 _atom_site_fract_x
 _atom_site_fract_y
 _atom_site_fract_z
 _atom_site_occupancy
  Sr  Sr0  1  0.02710290  0.85839783  0.86036894  1
  Sr  Sr1  1  0.99802889  0.16673396  0.13963106  1
  Sr  Sr2  1  0.02710290  0.66673396  0.66870508  1
  Sr  Sr3  1  0.99802889  0.35839783  0.33129492  1
  Y  Y4  1  0.01414335  0.51414335  0.50000000  1
  Y  Y5  1  0.01414335  0.01414335  0.00000000  1
  Al  Al6  1  0.56284772  0.74523281  0.31761491  1
  Al  Al7  1  0.42761789  0.24523281  0.68238509  1
  Cu  Cu8  1  0.51688336  0.44388479  0.92727029  1
  Cu  Cu9  1  0.51661449  0.58961307  0.07272971  1
  Cu  Cu10  1  0.51688336  0.08961307  0.57299858  1
  Cu  Cu11  1  0.51661449  0.94388479  0.42700142  1
  O  O12  1  0.01743314  0.92584510  0.59158804  1
  O  O13  1  0.33425706  0.42584510  0.40841196  1
  O  O14  1  0.50769235  0.20188703  0.18456053  1
  O  O15  1  0.01732650  0.32313182  0.81543947  1
  O  O16  1  0.50769235  0.82313182  0.80580532  1
  O  O17  1  0.01732650  0.70188703  0.19419468  1
  O  O18  1  0.52493525  0.70263531  0.68571577  1
  O  O19  1  0.01691955  0.83921948  0.31428423  1
  O  O20  1  0.52493525  0.33921948  0.32229994  1
  O  O21  1  0.01691955  0.20263531  0.67770006  1
  O  O22  1  0.49187469  0.87343412  0.25603337  1
  O  O23  1  0.61740076  0.23584132  0.74396663  1
  O  O24  1  0.49187469  0.73584132  0.11844056  1
  O  O25  1  0.61740076  0.37343412  0.88155944  1
