# generated using pymatgen
data_Al22CdO34
_symmetry_space_group_name_H-M   'P 1'
_cell_length_a   11.81072355
_cell_length_b   47.31597349
_cell_length_c   22.97337757
_cell_angle_alpha   13.81729361
_cell_angle_beta   24.17560093
_cell_angle_gamma   27.63815821
_symmetry_Int_Tables_number   1
_chemical_formula_structural   Al22CdO34
_chemical_formula_sum   'Al44 Cd2 O68'
_cell_volume   1255.68972245
_cell_formula_units_Z   2
loop_
 _symmetry_equiv_pos_site_id
 _symmetry_equiv_pos_as_xyz
  1  'x, y, z'
loop_
 _atom_site_type_symbol
 _atom_site_label
 _atom_site_symmetry_multiplicity
 _atom_site_fract_x
 _atom_site_fract_y
 _atom_site_fract_z
 _atom_site_occupancy
  Al  Al0  1  0.00000000  0.00000000  0.00000000  1
  Al  Al1  1  0.09922231  0.12502041  0.09288597  1
  Al  Al2  1  0.59234659  0.00136124  0.09374120  1
  Al  Al3  1  0.99598217  0.25000000  0.00211352  1
  Al  Al4  1  0.34828081  0.00195317  0.34746393  1
  Al  Al5  1  0.45044133  0.00023411  0.44985936  1
  Al  Al6  1  0.54955867  0.99976589  0.55014064  1
  Al  Al7  1  0.09959476  0.37632705  0.09381092  1
  Al  Al8  1  0.09959476  0.12367295  0.59911910  1
  Al  Al9  1  0.59549064  0.25000000  0.09612258  1
  Al  Al10  1  0.00000000  0.50000000  0.00000000  1
  Al  Al11  1  0.65171919  0.99804683  0.65253607  1
  Al  Al12  1  0.35218236  0.25000000  0.34999448  1
  Al  Al13  1  0.40765341  0.99863876  0.90625880  1
  Al  Al14  1  0.90425634  0.12259787  0.40944193  1
  Al  Al15  1  0.46595918  0.25000000  0.44251288  1
  Al  Al16  1  0.55433998  0.25000000  0.54621856  1
  Al  Al17  1  0.09574366  0.62259787  0.10016658  1
  Al  Al18  1  0.09922231  0.37497959  0.59296760  1
  Al  Al19  1  0.59234659  0.49863876  0.09918614  1
  Al  Al20  1  0.00401783  0.75000000  0.99788648  1
  Al  Al21  1  0.64935667  0.25000000  0.65089994  1
  Al  Al22  1  0.34828081  0.49804683  0.35527660  1
  Al  Al23  1  0.40909042  0.25000000  0.90311687  1
  Al  Al24  1  0.90892484  0.37300265  0.40800458  1
  Al  Al25  1  0.90892484  0.12699735  0.90001516  1
  Al  Al26  1  0.45044133  0.49976589  0.45079580  1
  Al  Al27  1  0.54955867  0.50023411  0.54920420  1
  Al  Al28  1  0.09107516  0.87300265  0.09998484  1
  Al  Al29  1  0.09107516  0.62699735  0.59199542  1
  Al  Al30  1  0.59090958  0.75000000  0.09688313  1
  Al  Al31  1  0.65171919  0.50195317  0.64472340  1
  Al  Al32  1  0.35064333  0.75000000  0.34910006  1
  Al  Al33  1  0.40765341  0.50136124  0.90081386  1
  Al  Al34  1  0.90077769  0.62502041  0.40703240  1
  Al  Al35  1  0.90425634  0.37740213  0.89983342  1
  Al  Al36  1  0.44566002  0.75000000  0.45378144  1
  Al  Al37  1  0.53404082  0.75000000  0.55748712  1
  Al  Al38  1  0.09574366  0.87740213  0.59055807  1
  Al  Al39  1  0.64781764  0.75000000  0.65000552  1
  Al  Al40  1  0.40450936  0.75000000  0.90387742  1
  Al  Al41  1  0.90040524  0.62367295  0.90618908  1
  Al  Al42  1  0.90040524  0.87632705  0.40088090  1
  Al  Al43  1  0.90077769  0.87497959  0.90711403  1
  Cd  Cd44  1  0.09992808  0.25000000  0.21691051  1
  Cd  Cd45  1  0.90007192  0.75000000  0.78308949  1
  O  O46  1  0.09396646  0.99844403  0.09701755  1
  O  O47  1  0.29705681  0.00300458  0.29067767  1
  O  O48  1  0.18547410  0.13377146  0.19047256  1
  O  O49  1  0.71768440  0.99857635  0.19372747  1
  O  O50  1  0.09603187  0.25000000  0.09836037  1
  O  O51  1  0.09589092  0.99883707  0.59790217  1
  O  O52  1  0.59728873  0.12462187  0.09576920  1
  O  O53  1  0.38904402  0.13069163  0.39524828  1
  O  O54  1  0.90410908  0.00116293  0.40209783  1
  O  O55  1  0.29963317  0.25000000  0.29531604  1
  O  O56  1  0.80296572  0.13258267  0.28378733  1
  O  O57  1  0.18906442  0.11762388  0.71964536  1
  O  O58  1  0.18906442  0.38237612  0.19014087  1
  O  O59  1  0.72252182  0.25000000  0.18956954  1
  O  O60  1  0.09396646  0.50155597  0.09079365  1
  O  O61  1  0.10462337  0.25000000  0.59485653  1
  O  O62  1  0.59877844  0.12281558  0.59834986  1
  O  O63  1  0.59877844  0.37718442  0.08961220  1
  O  O64  1  0.61935731  0.25000000  0.44043058  1
  O  O65  1  0.40453486  0.37372601  0.40488796  1
  O  O66  1  0.40453486  0.12627399  0.89979199  1
  O  O67  1  0.91515583  0.25000000  0.39852755  1
  O  O68  1  0.90603354  0.00155597  0.90298245  1
  O  O69  1  0.29705681  0.49699542  0.30269599  1
  O  O70  1  0.27941637  0.25000000  0.81161578  1
  O  O71  1  0.81105160  0.38141057  0.28223351  1
  O  O72  1  0.81105160  0.11858943  0.80787579  1
  O  O73  1  0.19703428  0.63258267  0.18588200  1
  O  O74  1  0.18547410  0.36622854  0.72555840  1
  O  O75  1  0.71768440  0.50142365  0.18803288  1
  O  O76  1  0.70660005  0.25000000  0.70253760  1
  O  O77  1  0.09583460  0.75000000  0.09292181  1
  O  O78  1  0.09589092  0.50116293  0.59325045  1
  O  O79  1  0.59728873  0.37537813  0.59425668  1
  O  O80  1  0.61095598  0.63069163  0.08198519  1
  O  O81  1  0.50000000  0.50000000  0.50000000  1
  O  O82  1  0.38904402  0.36930837  0.91801481  1
  O  O83  1  0.40271127  0.62462187  0.40574332  1
  O  O84  1  0.90410908  0.49883707  0.40674955  1
  O  O85  1  0.90416540  0.25000000  0.90707819  1
  O  O86  1  0.29339995  0.75000000  0.29746240  1
  O  O87  1  0.28231560  0.49857635  0.81196712  1
  O  O88  1  0.80296572  0.36741733  0.81411800  1
  O  O89  1  0.81452590  0.63377146  0.27444160  1
  O  O90  1  0.18894840  0.61858943  0.71776649  1
  O  O91  1  0.18894840  0.88141057  0.19212421  1
  O  O92  1  0.72058363  0.75000000  0.18838422  1
  O  O93  1  0.70294319  0.50300458  0.69730401  1
  O  O94  1  0.08484417  0.75000000  0.60147245  1
  O  O95  1  0.59546514  0.87372601  0.10020801  1
  O  O96  1  0.59546514  0.62627399  0.59511204  1
  O  O97  1  0.38064269  0.75000000  0.55956942  1
  O  O98  1  0.40122156  0.62281558  0.91038780  1
  O  O99  1  0.40122156  0.87718442  0.40165014  1
  O  O100  1  0.89537663  0.75000000  0.40514347  1
  O  O101  1  0.90603354  0.49844403  0.90920635  1
  O  O102  1  0.27747818  0.75000000  0.81043046  1
  O  O103  1  0.81093558  0.61762388  0.80985913  1
  O  O104  1  0.81093558  0.88237612  0.28035464  1
  O  O105  1  0.19703428  0.86741733  0.71621267  1
  O  O106  1  0.70036683  0.75000000  0.70468396  1
  O  O107  1  0.61095598  0.86930837  0.60475172  1
  O  O108  1  0.50000000  0.00000000  0.50000000  1
  O  O109  1  0.40271127  0.87537813  0.90423080  1
  O  O110  1  0.90396813  0.75000000  0.90163963  1
  O  O111  1  0.28231560  0.00142365  0.80627253  1
  O  O112  1  0.81452590  0.86622854  0.80952744  1
  O  O113  1  0.70294319  0.99699542  0.70932233  1
