# generated using pymatgen
data_Ce5AgS8
_symmetry_space_group_name_H-M   'P 1'
_cell_length_a   7.40118125
_cell_length_b   7.40118144
_cell_length_c   7.40118111
_cell_angle_alpha   109.77703247
_cell_angle_beta   109.77703294
_cell_angle_gamma   108.86131383
_symmetry_Int_Tables_number   1
_chemical_formula_structural   Ce5AgS8
_chemical_formula_sum   'Ce5 Ag1 S8'
_cell_volume   312.06449705
_cell_formula_units_Z   1
loop_
 _symmetry_equiv_pos_site_id
 _symmetry_equiv_pos_as_xyz
  1  'x, y, z'
loop_
 _atom_site_type_symbol
 _atom_site_label
 _atom_site_symmetry_multiplicity
 _atom_site_fract_x
 _atom_site_fract_y
 _atom_site_fract_z
 _atom_site_occupancy
  Ce  Ce0  1  0.11088731  0.74204533  0.86794655  1
  Ce  Ce1  1  0.25795467  0.62590122  0.36884198  1
  Ce  Ce2  1  0.37409878  0.24294076  0.63205345  1
  Ce  Ce3  1  0.62500000  0.37500000  0.25000000  1
  Ce  Ce4  1  0.75705924  0.88911269  0.13115802  1
  Ag  Ag5  1  0.87500000  0.12500000  0.75000000  1
  S  S6  1  0.99147259  0.84830780  0.49635172  1
  S  S7  1  0.15169220  0.14804392  0.14316480  1
  S  S8  1  0.37054631  0.51774672  0.01054823  1
  S  S9  1  0.48225328  0.99280151  0.85279959  1
  S  S10  1  0.64000191  0.62945369  0.64720041  1
  S  S11  1  0.50487913  0.00852741  0.35683520  1
  S  S12  1  0.85195608  0.49512087  0.00364828  1
  S  S13  1  0.00719849  0.35999809  0.48945177  1
