# generated using pymatgen
data_Nd2PbSe4
_symmetry_space_group_name_H-M   'P 1'
_cell_length_a   7.83962466
_cell_length_b   7.83962547
_cell_length_c   7.83962503
_cell_angle_alpha   109.41802276
_cell_angle_beta   109.57767569
_cell_angle_gamma   109.41801912
_symmetry_Int_Tables_number   1
_chemical_formula_structural   Nd2PbSe4
_chemical_formula_sum   'Nd4 Pb2 Se8'
_cell_volume   370.90513317
_cell_formula_units_Z   2
loop_
 _symmetry_equiv_pos_site_id
 _symmetry_equiv_pos_as_xyz
  1  'x, y, z'
loop_
 _atom_site_type_symbol
 _atom_site_label
 _atom_site_symmetry_multiplicity
 _atom_site_fract_x
 _atom_site_fract_y
 _atom_site_fract_z
 _atom_site_occupancy
  Nd  Nd0  1  0.25000000  0.63103004  0.38103004  1
  Nd  Nd1  1  0.75000000  0.86896996  0.11896996  1
  Nd  Nd2  1  0.61896996  0.36896996  0.25000000  1
  Nd  Nd3  1  0.88103004  0.13103004  0.75000000  1
  Pb  Pb4  1  0.12500000  0.75000000  0.87500000  1
  Pb  Pb5  1  0.37500000  0.25000000  0.62500000  1
  Se  Se6  1  0.99022046  0.84737316  0.49239962  1
  Se  Se7  1  0.50760038  0.99782084  0.35497353  1
  Se  Se8  1  0.14284730  0.15262684  0.14502647  1
  Se  Se9  1  0.35715270  0.50217916  0.00977954  1
  Se  Se10  1  0.50977954  0.00217916  0.85715270  1
  Se  Se11  1  0.64502647  0.65262684  0.64284730  1
  Se  Se12  1  0.85497353  0.49782084  0.00760038  1
  Se  Se13  1  0.99239962  0.34737316  0.49022046  1
