# generated using pymatgen
data_Ca11AlSi3ClO18
_symmetry_space_group_name_H-M   'P 1'
_cell_length_a   8.69084278
_cell_length_b   8.68779175
_cell_length_c   8.72604565
_cell_angle_alpha   105.01264328
_cell_angle_beta   105.02798770
_cell_angle_gamma   118.65184547
_symmetry_Int_Tables_number   1
_chemical_formula_structural   Ca11AlSi3ClO18
_chemical_formula_sum   'Ca11 Al1 Si3 Cl1 O18'
_cell_volume   498.01409244
_cell_formula_units_Z   1
loop_
 _symmetry_equiv_pos_site_id
 _symmetry_equiv_pos_as_xyz
  1  'x, y, z'
loop_
 _atom_site_type_symbol
 _atom_site_label
 _atom_site_symmetry_multiplicity
 _atom_site_fract_x
 _atom_site_fract_y
 _atom_site_fract_z
 _atom_site_occupancy
  Ca  Ca0  1  0.03444998  0.29254114  0.74582272  1
  Ca  Ca1  1  0.45333843  0.71124921  0.74623678  1
  Ca  Ca2  1  0.28862726  0.54671842  0.25417728  1
  Ca  Ca3  1  0.99540316  0.00447561  0.00000000  1
  Ca  Ca4  1  0.29754268  0.03738338  0.74312702  1
  Ca  Ca5  1  0.70710165  0.96501243  0.25376322  1
  Ca  Ca6  1  0.70573946  0.44624702  0.74246127  1
  Ca  Ca7  1  0.55441567  0.29425636  0.25687298  1
  Ca  Ca8  1  0.50052468  0.99983524  0.50011675  1
  Ca  Ca9  1  0.96327819  0.70378575  0.25753873  1
  Ca  Ca10  1  0.00040793  0.49971849  0.49988325  1
  Al  Al11  1  0.78943030  0.21277512  0.00000000  1
  Si  Si12  1  0.21152912  0.79054354  0.00000000  1
  Si  Si13  1  0.20972555  0.21038353  0.42218023  1
  Si  Si14  1  0.78754532  0.78820330  0.57781977  1
  Cl  Cl15  1  0.50098236  0.49920933  0.00000000  1
  O  O16  1  0.18349146  0.63802598  0.81784291  1
  O  O17  1  0.24938225  0.75144045  0.50064476  1
  O  O18  1  0.00452335  0.00396058  0.70592824  1
  O  O19  1  0.17946015  0.36256373  0.54670095  1
  O  O20  1  0.02180063  0.29594461  1.00000000  1
  O  O21  1  0.36564855  0.82018307  0.18215709  1
  O  O22  1  0.29859511  0.29803234  0.29407176  1
  O  O23  1  0.63275921  0.81586278  0.45329905  1
  O  O24  1  0.36123828  0.17963037  0.54556114  1
  O  O25  1  0.70605223  0.70552441  0.71135903  1
  O  O26  1  0.70000173  0.98009575  0.00000000  1
  O  O27  1  0.29399409  0.00696849  1.00000000  1
  O  O28  1  0.62677395  0.18096517  0.80429614  1
  O  O29  1  0.81567714  0.63406923  0.45443886  1
  O  O30  1  0.99469320  0.99416538  0.28864097  1
  O  O31  1  0.74873749  0.25079569  0.49935524  1
  O  O32  1  0.82247781  0.37666903  0.19570386  1
  O  O33  1  0.99465164  0.70276511  1.00000000  1
