# generated using pymatgen
data_Na2LiLa3Ti6O18
_symmetry_space_group_name_H-M   'P 1'
_cell_length_a   5.48778395
_cell_length_b   16.79282394
_cell_length_c   14.83445538
_cell_angle_alpha   18.70577836
_cell_angle_beta   55.93429831
_cell_angle_gamma   60.26730788
_symmetry_Int_Tables_number   1
_chemical_formula_structural   Na2LiLa3Ti6O18
_chemical_formula_sum   'Na2 Li1 La3 Ti6 O18'
_cell_volume   360.10224897
_cell_formula_units_Z   1
loop_
 _symmetry_equiv_pos_site_id
 _symmetry_equiv_pos_as_xyz
  1  'x, y, z'
loop_
 _atom_site_type_symbol
 _atom_site_label
 _atom_site_symmetry_multiplicity
 _atom_site_fract_x
 _atom_site_fract_y
 _atom_site_fract_z
 _atom_site_occupancy
  Na  Na0  1  0.27020073  0.92409981  0.22184657  1
  Na  Na1  1  0.78126301  0.77030578  0.70035539  1
  Li  Li2  1  0.36298608  0.59891137  0.15245454  1
  La  La3  1  0.26174207  0.25751682  0.22949034  1
  La  La4  1  0.75379009  0.08118747  0.74391823  1
  La  La5  1  0.76348537  0.42238842  0.72705898  1
  Ti  Ti6  1  0.01517686  0.01327129  0.97091730  1
  Ti  Ti7  1  0.51264299  0.16261822  0.49236049  1
  Ti  Ti8  1  0.01275052  0.34121201  0.97819007  1
  Ti  Ti9  1  0.51295397  0.50168440  0.48515310  1
  Ti  Ti10  1  0.00959391  0.67249570  0.98442934  1
  Ti  Ti11  1  0.51181062  0.83074277  0.49034994  1
  O  O12  1  0.31038665  0.12879227  0.18669131  1
  O  O13  1  0.28931171  0.42550377  0.22332101  1
  O  O14  1  0.78166960  0.09429364  0.22373152  1
  O  O15  1  0.24976353  0.15939322  0.67510500  1
  O  O16  1  0.75051285  0.18001588  0.32468248  1
  O  O17  1  0.20268981  0.25760948  0.76813657  1
  O  O18  1  0.30809262  0.79026931  0.18970845  1
  O  O19  1  0.80345552  0.39007861  0.26091018  1
  O  O20  1  0.24738641  0.48261200  0.68734800  1
  O  O21  1  0.74833068  0.51315580  0.32334334  1
  O  O22  1  0.20995398  0.58206323  0.77806131  1
  O  O23  1  0.70369397  0.23329932  0.79308324  1
  O  O24  1  0.79148664  0.75322764  0.23085828  1
  O  O25  1  0.23968725  0.81038733  0.69511680  1
  O  O26  1  0.74805730  0.85457665  0.31576778  1
  O  O27  1  0.19915004  0.90729021  0.78606164  1
  O  O28  1  0.69812395  0.56153014  0.79827431  1
  O  O29  1  0.69985427  0.88280243  0.81327446  1
