# generated using pymatgen
data_RuOF4
_symmetry_space_group_name_H-M   'P 1'
_cell_length_a   5.62175274
_cell_length_b   9.50537063
_cell_length_c   12.83310635
_cell_angle_alpha   90.00000000
_cell_angle_beta   90.00000000
_cell_angle_gamma   90.00000000
_symmetry_Int_Tables_number   1
_chemical_formula_structural   RuOF4
_chemical_formula_sum   'Ru8 O8 F32'
_cell_volume   685.76069415
_cell_formula_units_Z   8
loop_
 _symmetry_equiv_pos_site_id
 _symmetry_equiv_pos_as_xyz
  1  'x, y, z'
loop_
 _atom_site_type_symbol
 _atom_site_label
 _atom_site_symmetry_multiplicity
 _atom_site_fract_x
 _atom_site_fract_y
 _atom_site_fract_z
 _atom_site_occupancy
  Ru  Ru0  1  0.39406349  0.76710273  0.29453760  1
  Ru  Ru1  1  0.10593651  0.23289727  0.79453760  1
  Ru  Ru2  1  0.14829411  0.48208040  0.48627522  1
  Ru  Ru3  1  0.85170589  0.98208040  0.01372478  1
  Ru  Ru4  1  0.64829411  0.01791960  0.51372478  1
  Ru  Ru5  1  0.35170589  0.51791960  0.98627522  1
  Ru  Ru6  1  0.89406349  0.73289727  0.70546240  1
  Ru  Ru7  1  0.60593651  0.26710273  0.20546240  1
  O  O8  1  0.14486566  0.81702162  0.73405230  1
  O  O9  1  0.90559595  0.07943087  0.46991819  1
  O  O10  1  0.09440405  0.57943087  0.03008181  1
  O  O11  1  0.59440405  0.92056913  0.96991819  1
  O  O12  1  0.85513434  0.31702162  0.76594770  1
  O  O13  1  0.35513434  0.18297838  0.23405230  1
  O  O14  1  0.40559595  0.42056913  0.53008181  1
  O  O15  1  0.64486566  0.68297838  0.26594770  1
  F  F16  1  0.83800573  0.37353345  0.13678282  1
  F  F17  1  0.33292473  0.34351388  0.72672352  1
  F  F18  1  0.86305735  0.85478078  0.57454400  1
  F  F19  1  0.16199427  0.87353345  0.36321718  1
  F  F20  1  0.11872672  0.10428028  0.68324372  1
  F  F21  1  0.16707527  0.65648612  0.22672352  1
  F  F22  1  0.41170068  0.89197001  0.55591995  1
  F  F23  1  0.88127328  0.60428028  0.81675628  1
  F  F24  1  0.62979508  0.11043185  0.64242747  1
  F  F25  1  0.38201835  0.40933387  0.12688115  1
  F  F26  1  0.08829932  0.10802999  0.05591995  1
  F  F27  1  0.38127328  0.89571972  0.18324372  1
  F  F28  1  0.36305735  0.64521922  0.42545600  1
  F  F29  1  0.87020492  0.88956815  0.14242747  1
  F  F30  1  0.11798165  0.59066613  0.62688115  1
  F  F31  1  0.61798165  0.90933387  0.37311885  1
  F  F32  1  0.61872672  0.39571972  0.31675628  1
  F  F33  1  0.92982784  0.35217604  0.54029333  1
  F  F34  1  0.42982784  0.14782396  0.45970667  1
  F  F35  1  0.88201835  0.09066613  0.87311885  1
  F  F36  1  0.12979508  0.38956815  0.35757253  1
  F  F37  1  0.91170068  0.60802999  0.44408005  1
  F  F38  1  0.37020492  0.61043185  0.85757253  1
  F  F39  1  0.07017216  0.85217604  0.95970667  1
  F  F40  1  0.57017216  0.64782396  0.04029333  1
  F  F41  1  0.66707527  0.84351388  0.77327648  1
  F  F42  1  0.63694265  0.14521922  0.07454400  1
  F  F43  1  0.83292473  0.15648612  0.27327648  1
  F  F44  1  0.13694265  0.35478078  0.92545600  1
  F  F45  1  0.58829932  0.39197001  0.94408005  1
  F  F46  1  0.66199427  0.62646655  0.63678282  1
  F  F47  1  0.33800573  0.12646655  0.86321718  1
