# generated using pymatgen
data_Li11TiP5
_symmetry_space_group_name_H-M   'P 1'
_cell_length_a   4.11262301
_cell_length_b   21.03624724
_cell_length_c   11.16724438
_cell_angle_alpha   18.77454888
_cell_angle_beta   56.46727245
_cell_angle_gamma   60.74126292
_symmetry_Int_Tables_number   1
_chemical_formula_structural   Li11TiP5
_chemical_formula_sum   'Li11 Ti1 P5'
_cell_volume   257.06961118
_cell_formula_units_Z   1
loop_
 _symmetry_equiv_pos_site_id
 _symmetry_equiv_pos_as_xyz
  1  'x, y, z'
loop_
 _atom_site_type_symbol
 _atom_site_label
 _atom_site_symmetry_multiplicity
 _atom_site_fract_x
 _atom_site_fract_y
 _atom_site_fract_z
 _atom_site_occupancy
  Li  Li0  1  0.27496085  0.31979442  0.28370206  1
  Li  Li1  1  0.50753162  0.30587568  0.48518612  1
  Li  Li2  1  0.25782703  0.56465611  0.22035513  1
  Li  Li3  1  0.75214873  0.05106493  0.74679262  1
  Li  Li4  1  0.73573010  0.23714118  0.78094463  1
  Li  Li5  1  0.28123812  0.77949479  0.18001660  1
  Li  Li6  1  0.47480437  0.70639013  0.50614687  1
  Li  Li7  1  0.77533551  0.47348275  0.69397175  1
  Li  Li8  1  0.21412402  0.93636186  0.29664755  1
  Li  Li9  1  0.71854917  0.67205811  0.73420370  1
  Li  Li10  1  0.75905219  0.82349907  0.78813343  1
  Ti  Ti11  1  0.23829046  0.15154762  0.25522699  1
  P  P12  1  0.99227402  0.99260003  0.01748393  1
  P  P13  1  0.96795346  0.19477221  0.03007735  1
  P  P14  1  0.02450208  0.39951673  0.98447073  1
  P  P15  1  0.00893482  0.56572882  0.05116208  1
  P  P16  1  0.01674344  0.82601555  0.94547845  1
