# generated using pymatgen
data_LiTi(PO3)5
_symmetry_space_group_name_H-M   'P 1'
_cell_length_a   10.40779853
_cell_length_b   13.74641721
_cell_length_c   8.92579378
_cell_angle_alpha   90.00000000
_cell_angle_beta   101.26476334
_cell_angle_gamma   90.00000000
_symmetry_Int_Tables_number   1
_chemical_formula_structural   LiTi(PO3)5
_chemical_formula_sum   'Li4 Ti4 P20 O60'
_cell_volume   1252.41111027
_cell_formula_units_Z   4
loop_
 _symmetry_equiv_pos_site_id
 _symmetry_equiv_pos_as_xyz
  1  'x, y, z'
loop_
 _atom_site_type_symbol
 _atom_site_label
 _atom_site_symmetry_multiplicity
 _atom_site_fract_x
 _atom_site_fract_y
 _atom_site_fract_z
 _atom_site_occupancy
  Li  Li0  1  0.01700025  0.37325243  0.07035525  1
  Li  Li1  1  0.51700025  0.12674757  0.07035525  1
  Li  Li2  1  0.48299975  0.62674757  0.92964475  1
  Li  Li3  1  0.98299975  0.87325243  0.92964475  1
  Ti  Ti4  1  0.25000000  0.50000000  0.50000000  1
  Ti  Ti5  1  0.75000000  0.50000000  0.50000000  1
  Ti  Ti6  1  0.75000000  0.00000000  0.50000000  1
  Ti  Ti7  1  0.25000000  0.00000000  0.50000000  1
  P  P8  1  0.81842814  0.91338873  0.17790928  1
  P  P9  1  0.77191866  0.25083460  0.01672140  1
  P  P10  1  0.27191866  0.24916540  0.01672140  1
  P  P11  1  0.18157186  0.41338873  0.82209072  1
  P  P12  1  0.31842814  0.58661127  0.17790928  1
  P  P13  1  0.00692506  0.35646409  0.52671448  1
  P  P14  1  0.33394515  0.92483997  0.18337200  1
  P  P15  1  0.00358315  0.14134592  0.52414043  1
  P  P16  1  0.99307494  0.85646409  0.47328552  1
  P  P17  1  0.49641685  0.85865408  0.47585957  1
  P  P18  1  0.68157186  0.08661127  0.82209072  1
  P  P19  1  0.49307494  0.64353591  0.47328552  1
  P  P20  1  0.50358315  0.35865408  0.52414043  1
  P  P21  1  0.50692506  0.14353591  0.52671448  1
  P  P22  1  0.99641685  0.64134592  0.47585957  1
  P  P23  1  0.83394515  0.57516003  0.18337200  1
  P  P24  1  0.16605485  0.07516003  0.81662800  1
  P  P25  1  0.22808134  0.75083460  0.98327860  1
  P  P26  1  0.72808134  0.74916540  0.98327860  1
  P  P27  1  0.66605485  0.42483997  0.81662800  1
  O  O28  1  0.25628927  0.52294693  0.28791677  1
  O  O29  1  0.24556959  0.02524411  0.70826990  1
  O  O30  1  0.40275215  0.98787165  0.09188902  1
  O  O31  1  0.28920538  0.33399894  0.88550806  1
  O  O32  1  0.64179148  0.88015595  0.50377384  1
  O  O33  1  0.93177462  0.85068700  0.29826669  1
  O  O34  1  0.14521326  0.26920429  0.06290902  1
  O  O35  1  0.35478674  0.73079571  0.93709098  1
  O  O36  1  0.58631544  0.42366512  0.44287535  1
  O  O37  1  0.55855152  0.35674253  0.70075242  1
  O  O38  1  0.89743466  0.26816435  0.12288858  1
  O  O39  1  0.85820852  0.11984405  0.49622616  1
  O  O40  1  0.64521326  0.23079571  0.06290902  1
  O  O41  1  0.47588283  0.75113574  0.53249585  1
  O  O42  1  0.97588283  0.74886426  0.53249585  1
  O  O43  1  0.61354865  0.04059388  0.93331138  1
  O  O44  1  0.23889169  0.84456401  0.10275497  1
  O  O45  1  0.88645135  0.95940612  0.06668862  1
  O  O46  1  0.02411717  0.24886426  0.46750415  1
  O  O47  1  0.10256534  0.76816435  0.87711142  1
  O  O48  1  0.91368456  0.57633488  0.55712465  1
  O  O49  1  0.41089727  0.57838896  0.55644211  1
  O  O50  1  0.25443041  0.97475589  0.29173010  1
  O  O51  1  0.11354865  0.45940612  0.93331138  1
  O  O52  1  0.24371073  0.47705307  0.71208323  1
  O  O53  1  0.90275215  0.51212835  0.09188902  1
  O  O54  1  0.74556959  0.47475589  0.70826990  1
  O  O55  1  0.52411717  0.25113574  0.46750415  1
  O  O56  1  0.78920538  0.16600106  0.88550806  1
  O  O57  1  0.73889169  0.65543599  0.10275497  1
  O  O58  1  0.13732067  0.88020530  0.50158268  1
  O  O59  1  0.59724785  0.48787165  0.90811098  1
  O  O60  1  0.36267933  0.11979470  0.49841732  1
  O  O61  1  0.56822538  0.14931300  0.70173331  1
  O  O62  1  0.41368456  0.92366512  0.55712465  1
  O  O63  1  0.09724785  0.01212835  0.90811098  1
  O  O64  1  0.60256534  0.73183565  0.87711142  1
  O  O65  1  0.71079462  0.83399894  0.11449194  1
  O  O66  1  0.74371073  0.02294693  0.71208323  1
  O  O67  1  0.14179148  0.61984405  0.50377384  1
  O  O68  1  0.75628927  0.97705307  0.28791677  1
  O  O69  1  0.85478674  0.76920429  0.93709098  1
  O  O70  1  0.43177462  0.64931300  0.29826669  1
  O  O71  1  0.05855152  0.14325747  0.70075242  1
  O  O72  1  0.86267933  0.38020530  0.49841732  1
  O  O73  1  0.94144848  0.64325747  0.29924758  1
  O  O74  1  0.63732067  0.61979470  0.50158268  1
  O  O75  1  0.91089727  0.92161104  0.55644211  1
  O  O76  1  0.08631544  0.07633488  0.44287535  1
  O  O77  1  0.38645135  0.54059388  0.06668862  1
  O  O78  1  0.06822538  0.35068700  0.70173331  1
  O  O79  1  0.75443041  0.52524411  0.29173010  1
  O  O80  1  0.35820852  0.38015595  0.49622616  1
  O  O81  1  0.76110831  0.34456401  0.89724503  1
  O  O82  1  0.26110831  0.15543599  0.89724503  1
  O  O83  1  0.08910273  0.42161104  0.44355789  1
  O  O84  1  0.21079462  0.66600106  0.11449194  1
  O  O85  1  0.58910273  0.07838896  0.44355789  1
  O  O86  1  0.39743466  0.23183565  0.12288858  1
  O  O87  1  0.44144848  0.85674253  0.29924758  1
