# generated using pymatgen
data_Bi17P5Pb5O43
_symmetry_space_group_name_H-M   'P 1'
_cell_length_a   11.74352221
_cell_length_b   11.66327165
_cell_length_c   11.66327053
_cell_angle_alpha   92.92068431
_cell_angle_beta   118.36771293
_cell_angle_gamma   118.36771551
_symmetry_Int_Tables_number   1
_chemical_formula_structural   Bi17P5Pb5O43
_chemical_formula_sum   'Bi17 P5 Pb5 O43'
_cell_volume   1155.18164494
_cell_formula_units_Z   1
loop_
 _symmetry_equiv_pos_site_id
 _symmetry_equiv_pos_as_xyz
  1  'x, y, z'
loop_
 _atom_site_type_symbol
 _atom_site_label
 _atom_site_symmetry_multiplicity
 _atom_site_fract_x
 _atom_site_fract_y
 _atom_site_fract_z
 _atom_site_occupancy
  Bi  Bi0  1  0.66557324  0.33904450  0.69522903  1
  Bi  Bi1  1  0.29634390  0.32015388  0.32015388  1
  Bi  Bi2  1  0.33220744  0.33555076  0.67649167  1
  Bi  Bi3  1  0.66786435  0.33205938  0.33205938  1
  Bi  Bi4  1  0.66395946  0.67212652  0.00774275  1
  Bi  Bi5  1  0.66557324  0.69522903  0.33904450  1
  Bi  Bi6  1  0.02301239  0.68736603  0.03614099  1
  Bi  Bi7  1  0.67473751  0.31768746  0.02153627  1
  Bi  Bi8  1  0.66395946  0.00774275  0.67212652  1
  Bi  Bi9  1  0.67473751  0.02153627  0.31768746  1
  Bi  Bi10  1  0.02273405  0.69305542  0.69305542  1
  Bi  Bi11  1  0.01298917  0.01323224  0.01323224  1
  Bi  Bi12  1  0.35029884  0.67885137  0.67885137  1
  Bi  Bi13  1  0.32996861  0.68049040  0.00366680  1
  Bi  Bi14  1  0.02301239  0.03614099  0.68736603  1
  Bi  Bi15  1  0.32996861  0.00366680  0.68049040  1
  Bi  Bi16  1  0.33220744  0.67649167  0.33555076  1
  P  P17  1  0.35680561  0.02949790  0.34024109  1
  P  P18  1  0.97722211  0.63201228  0.32978875  1
  P  P19  1  0.97722211  0.32978875  0.63201228  1
  P  P20  1  0.64290345  0.64773849  0.64773849  1
  P  P21  1  0.35680561  0.34024109  0.02949790  1
  Pb  Pb22  1  0.99224974  0.99170392  0.32714148  1
  Pb  Pb23  1  0.00545228  0.33653434  0.33653434  1
  Pb  Pb24  1  0.69201449  0.01018639  0.01018639  1
  Pb  Pb25  1  0.35973084  0.01867248  0.01867248  1
  Pb  Pb26  1  0.99224974  0.32714148  0.99170392  1
  O  O27  1  0.05029377  0.16320040  0.16320040  1
  O  O28  1  0.92859096  0.65871742  0.18947206  1
  O  O29  1  0.24901949  0.74955521  0.74955521  1
  O  O30  1  0.82306612  0.72183710  0.72183710  1
  O  O31  1  0.71116091  0.19249575  0.77678751  1
  O  O32  1  0.64459587  0.19069435  0.19069435  1
  O  O33  1  0.56381589  0.64315561  0.49256512  1
  O  O34  1  0.23302691  0.06239902  0.25777055  1
  O  O35  1  0.97596492  0.72130874  0.43106718  1
  O  O36  1  0.48684087  0.90515453  0.08914868  1
  O  O37  1  0.56381589  0.49256512  0.64315561  1
  O  O38  1  0.47799806  0.70354610  0.89946247  1
  O  O39  1  0.13496707  0.64443995  0.39809231  1
  O  O40  1  0.42577011  0.07804913  0.49799826  1
  O  O41  1  0.84732951  0.87681709  0.05778068  1
  O  O42  1  0.92859096  0.18947206  0.65871742  1
  O  O43  1  0.16541148  0.11401897  0.61035317  1
  O  O44  1  0.84495151  0.28397814  0.47097676  1
  O  O45  1  0.84732951  0.05778068  0.87681709  1
  O  O46  1  0.48706882  0.25475306  0.73915841  1
  O  O47  1  0.28437780  0.27667414  0.87248585  1
  O  O48  1  0.60826078  0.72561112  0.72561112  1
  O  O49  1  0.82681907  0.91629872  0.46530038  1
  O  O50  1  0.47799806  0.89946247  0.70354610  1
  O  O51  1  0.97596492  0.43106718  0.72130874  1
  O  O52  1  0.23302691  0.25777055  0.06239902  1
  O  O53  1  0.84496699  0.08524448  0.27046805  1
  O  O54  1  0.48706882  0.73915841  0.25475306  1
  O  O55  1  0.48684087  0.08914868  0.90515453  1
  O  O56  1  0.28437780  0.87248585  0.27667414  1
  O  O57  1  0.82681907  0.46530038  0.91629872  1
  O  O58  1  0.13732824  0.73323213  0.91557292  1
  O  O59  1  0.49559004  0.32153044  0.11274011  1
  O  O60  1  0.42577011  0.49799826  0.07804913  1
  O  O61  1  0.21185803  0.45196834  0.27510998  1
  O  O62  1  0.84496699  0.27046805  0.08524448  1
  O  O63  1  0.84495151  0.47097676  0.28397814  1
  O  O64  1  0.21185803  0.27510998  0.45196834  1
  O  O65  1  0.49559004  0.11274011  0.32153044  1
  O  O66  1  0.13496707  0.39809231  0.64443995  1
  O  O67  1  0.16541148  0.61035317  0.11401897  1
  O  O68  1  0.13732824  0.91557292  0.73323213  1
  O  O69  1  0.71116091  0.77678751  0.19249575  1
