# generated using pymatgen
data_V2Cu2O7
_symmetry_space_group_name_H-M   'P 1'
_cell_length_a   5.14092754
_cell_length_b   5.91260594
_cell_length_c   9.51408390
_cell_angle_alpha   99.75392111
_cell_angle_beta   97.57540753
_cell_angle_gamma   96.96452156
_symmetry_Int_Tables_number   1
_chemical_formula_structural   V2Cu2O7
_chemical_formula_sum   'V4 Cu4 O14'
_cell_volume   279.45649778
_cell_formula_units_Z   2
loop_
 _symmetry_equiv_pos_site_id
 _symmetry_equiv_pos_as_xyz
  1  'x, y, z'
loop_
 _atom_site_type_symbol
 _atom_site_label
 _atom_site_symmetry_multiplicity
 _atom_site_fract_x
 _atom_site_fract_y
 _atom_site_fract_z
 _atom_site_occupancy
  V  V0  1  0.71315292  0.26757043  0.30282772  1
  V  V1  1  0.28684708  0.73242957  0.69717228  1
  V  V2  1  0.83672823  0.32808099  0.78172291  1
  V  V3  1  0.16327177  0.67191901  0.21827709  1
  Cu  Cu4  1  0.72005827  0.85192699  0.99415470  1
  Cu  Cu5  1  0.27994173  0.14807301  0.00584530  1
  Cu  Cu6  1  0.73248851  0.84614102  0.48497548  1
  Cu  Cu7  1  0.26751149  0.15385898  0.51502452  1
  O  O8  1  0.41602738  0.82453310  0.34996116  1
  O  O9  1  0.73564191  0.54711877  0.89154370  1
  O  O10  1  0.95437368  0.12826807  0.88062027  1
  O  O11  1  0.08695125  0.89564185  0.60225104  1
  O  O12  1  0.44506662  0.31316261  0.38336397  1
  O  O13  1  0.91304875  0.10435815  0.39774896  1
  O  O14  1  0.61401120  0.12285574  0.12068800  1
  O  O15  1  0.04562632  0.87173193  0.11937973  1
  O  O16  1  0.58397262  0.17546690  0.65003884  1
  O  O17  1  0.10394504  0.44638290  0.68946470  1
  O  O18  1  0.55493338  0.68683739  0.61663603  1
  O  O19  1  0.89605496  0.55361710  0.31053530  1
  O  O20  1  0.26435809  0.45288123  0.10845630  1
  O  O21  1  0.38598880  0.87714426  0.87931200  1
