# generated using pymatgen
data_La2Mn3PbO9
_symmetry_space_group_name_H-M   'P 1'
_cell_length_a   16.66376317
_cell_length_b   14.65346517
_cell_length_c   14.65346599
_cell_angle_alpha   22.07386120
_cell_angle_beta   19.29701702
_cell_angle_gamma   19.29701749
_symmetry_Int_Tables_number   1
_chemical_formula_structural   La2Mn3PbO9
_chemical_formula_sum   'La4 Mn6 Pb2 O18'
_cell_volume   369.02945822
_cell_formula_units_Z   2
loop_
 _symmetry_equiv_pos_site_id
 _symmetry_equiv_pos_as_xyz
  1  'x, y, z'
loop_
 _atom_site_type_symbol
 _atom_site_label
 _atom_site_symmetry_multiplicity
 _atom_site_fract_x
 _atom_site_fract_y
 _atom_site_fract_z
 _atom_site_occupancy
  La  La0  1  0.08219020  0.25114280  0.25114280  1
  La  La1  1  0.41780980  0.24885720  0.24885720  1
  La  La2  1  0.58219020  0.75114280  0.75114280  1
  La  La3  1  0.91780980  0.74885720  0.74885720  1
  Mn  Mn4  1  0.00000000  0.00000000  0.00000000  1
  Mn  Mn5  1  0.33296499  0.00036801  0.00036801  1
  Mn  Mn6  1  0.66703501  -0.00036801  -0.00036801  1
  Mn  Mn7  1  0.16703501  0.49963199  0.49963199  1
  Mn  Mn8  1  0.50000000  0.50000000  0.50000000  1
  Mn  Mn9  1  0.83296499  0.50036801  0.50036801  1
  Pb  Pb10  1  0.75000000  0.25000000  0.25000000  1
  Pb  Pb11  1  0.25000000  0.75000000  0.75000000  1
  O  O12  1  0.25000000  0.29454432  0.20545568  1
  O  O13  1  0.03091771  0.73617199  0.31092284  1
  O  O14  1  0.15489677  0.18694378  0.73617199  1
  O  O15  1  0.58014591  0.31092284  0.18694378  1
  O  O16  1  0.20545568  0.79454432  0.25000000  1
  O  O17  1  0.29454432  0.25000000  0.70545568  1
  O  O18  1  0.34510323  0.76382801  0.31305622  1
  O  O19  1  0.46908229  0.18907716  0.76382801  1
  O  O20  1  0.08014591  0.68694378  0.81092284  1
  O  O21  1  0.91985409  0.31305622  0.18907716  1
  O  O22  1  0.53091771  0.81092284  0.23617199  1
  O  O23  1  0.65489677  0.23617199  0.68694378  1
  O  O24  1  0.70545568  0.75000000  0.29454432  1
  O  O25  1  0.79454432  0.20545568  0.75000000  1
  O  O26  1  0.41985409  0.68907716  0.81305622  1
  O  O27  1  0.84510323  0.81305622  0.26382801  1
  O  O28  1  0.96908229  0.26382801  0.68907716  1
  O  O29  1  0.75000000  0.70545568  0.79454432  1
