# generated using pymatgen
data_KTb2Cu(MoO4)4
_symmetry_space_group_name_H-M   'P 1'
_cell_length_a   5.31690826
_cell_length_b   6.90614084
_cell_length_c   19.74273688
_cell_angle_alpha   88.81185771
_cell_angle_beta   86.91215559
_cell_angle_gamma   67.35995097
_symmetry_Int_Tables_number   1
_chemical_formula_structural   KTb2Cu(MoO4)4
_chemical_formula_sum   'K2 Tb4 Cu2 Mo8 O32'
_cell_volume   668.10553441
_cell_formula_units_Z   2
loop_
 _symmetry_equiv_pos_site_id
 _symmetry_equiv_pos_as_xyz
  1  'x, y, z'
loop_
 _atom_site_type_symbol
 _atom_site_label
 _atom_site_symmetry_multiplicity
 _atom_site_fract_x
 _atom_site_fract_y
 _atom_site_fract_z
 _atom_site_occupancy
  Tb  Tb0  1  0.85141314  0.29446284  0.46772631  1
  Tb  Tb1  1  0.14587598  0.70553716  0.96772631  1
  Tb  Tb2  1  0.14858686  0.70553716  0.53227369  1
  Tb  Tb3  1  0.85412402  0.29446284  0.03227369  1
  K  K4  1  0.02866757  0.94266486  0.75000000  1
  K  K5  1  0.97133243  0.05733514  0.25000000  1
  Cu  Cu6  1  0.69103553  0.61792895  0.25000000  1
  Cu  Cu7  1  0.30896447  0.38207105  0.75000000  1
  Mo  Mo8  1  0.25081402  0.48212129  0.14703276  1
  Mo  Mo9  1  0.42537472  0.12258813  0.59124983  1
  Mo  Mo10  1  0.74918598  0.51787871  0.85296724  1
  Mo  Mo11  1  0.57462528  0.87741187  0.40875017  1
  Mo  Mo12  1  0.54796285  0.87741187  0.09124983  1
  Mo  Mo13  1  0.26706470  0.48212129  0.35296724  1
  Mo  Mo14  1  0.73293530  0.51787871  0.64703276  1
  Mo  Mo15  1  0.45203715  0.12258813  0.90875017  1
  O  O16  1  0.52970817  0.40511606  0.28687483  1
  O  O17  1  0.22878747  0.09568896  0.10090823  1
  O  O18  1  0.06517577  0.40511606  0.21312517  1
  O  O19  1  0.98708027  0.27960000  0.67261291  1
  O  O20  1  0.82996519  0.66217295  0.45761954  1
  O  O21  1  0.21648799  0.03887042  0.96301673  1
  O  O22  1  0.26668027  0.72040000  0.17261291  1
  O  O23  1  0.58523823  0.47676645  0.56660570  1
  O  O24  1  0.60210989  0.30066582  0.13170192  1
  O  O25  1  0.41476177  0.52323355  0.43339430  1
  O  O26  1  0.77121253  0.90431104  0.89909177  1
  O  O27  1  0.06200468  0.52323355  0.06660570  1
  O  O28  1  0.39789011  0.69933418  0.86829808  1
  O  O29  1  0.51635046  0.18123350  0.67166170  1
  O  O30  1  0.25535841  0.96112958  0.46301673  1
  O  O31  1  0.47029183  0.59488394  0.71312517  1
  O  O32  1  0.32447642  0.90431104  0.60090823  1
  O  O33  1  0.01291973  0.72040000  0.32738709  1
  O  O34  1  0.17003481  0.33782705  0.54238046  1
  O  O35  1  0.73331973  0.27960000  0.82738709  1
  O  O36  1  0.69758397  0.81876650  0.17166170  1
  O  O37  1  0.93482423  0.59488394  0.78687483  1
  O  O38  1  0.30241603  0.18123350  0.82833830  1
  O  O39  1  0.48364954  0.81876650  0.32833830  1
  O  O40  1  0.09722430  0.30066582  0.36829808  1
  O  O41  1  0.78351201  0.96112958  0.03698327  1
  O  O42  1  0.90277570  0.69933418  0.63170192  1
  O  O43  1  0.49213815  0.33782705  0.95761954  1
  O  O44  1  0.74464159  0.03887042  0.53698327  1
  O  O45  1  0.93799532  0.47676645  0.93339430  1
  O  O46  1  0.67552358  0.09568896  0.39909177  1
  O  O47  1  0.50786185  0.66217295  0.04238046  1
