# generated using pymatgen
data_H10C2N2O5
_symmetry_space_group_name_H-M   'P 1'
_cell_length_a   8.06257840
_cell_length_b   10.37081529
_cell_length_c   3.80591213
_cell_angle_alpha   90.00000000
_cell_angle_beta   90.00000000
_cell_angle_gamma   90.00000000
_symmetry_Int_Tables_number   1
_chemical_formula_structural   H10C2N2O5
_chemical_formula_sum   'H20 C4 N4 O10'
_cell_volume   318.23328889
_cell_formula_units_Z   2
loop_
 _symmetry_equiv_pos_site_id
 _symmetry_equiv_pos_as_xyz
  1  'x, y, z'
loop_
 _atom_site_type_symbol
 _atom_site_label
 _atom_site_symmetry_multiplicity
 _atom_site_fract_x
 _atom_site_fract_y
 _atom_site_fract_z
 _atom_site_occupancy
  H  H0  1  0.06014345  0.64599835  0.43790933  1
  H  H1  1  0.93985655  0.35400165  0.43790933  1
  H  H2  1  0.56014345  0.85400165  0.56209067  1
  H  H3  1  0.43985655  0.14599835  0.56209067  1
  H  H4  1  0.02177932  0.77622077  0.70967021  1
  H  H5  1  0.97822068  0.22377923  0.70967021  1
  H  H6  1  0.52177932  0.72377923  0.29032979  1
  H  H7  1  0.47822068  0.27622077  0.29032979  1
  H  H8  1  0.15302462  0.79171350  0.36763552  1
  H  H9  1  0.84697538  0.20828650  0.36763552  1
  H  H10  1  0.65302462  0.70828650  0.63236448  1
  H  H11  1  0.34697538  0.29171350  0.63236448  1
  H  H12  1  0.20675221  0.70012085  0.72574406  1
  H  H13  1  0.79324779  0.29987915  0.72574406  1
  H  H14  1  0.70675221  0.79987915  0.27425594  1
  H  H15  1  0.29324779  0.20012085  0.27425594  1
  H  H16  1  0.09949728  0.48360826  0.02951823  1
  H  H17  1  0.90050272  0.51639174  0.02951823  1
  H  H18  1  0.59949728  0.01639174  0.97048177  1
  H  H19  1  0.40050272  0.98360826  0.97048177  1
  C  C20  1  0.40740510  0.52335401  0.93057544  1
  C  C21  1  0.59259490  0.47664599  0.93057544  1
  C  C22  1  0.90740510  0.97664599  0.06942456  1
  C  C23  1  0.09259490  0.02335401  0.06942456  1
  N  N24  1  0.11013797  0.72755199  0.55830809  1
  N  N25  1  0.88986203  0.27244801  0.55830809  1
  N  N26  1  0.61013797  0.77244801  0.44169191  1
  N  N27  1  0.38986203  0.22755199  0.44169191  1
  O  O28  1  0.29698513  0.44012603  0.85850453  1
  O  O29  1  0.70301487  0.55987397  0.85850453  1
  O  O30  1  0.79698513  0.05987397  0.14149547  1
  O  O31  1  0.20301487  0.94012603  0.14149547  1
  O  O32  1  0.38025486  0.64117263  0.99923546  1
  O  O33  1  0.61974514  0.35882737  0.99923546  1
  O  O34  1  0.88025486  0.85882737  0.00076454  1
  O  O35  1  0.11974514  0.14117263  0.00076454  1
  O  O36  1  0.00000000  0.50000000  0.17958390  1
  O  O37  1  0.50000000  0.00000000  0.82041610  1
