# generated using pymatgen
data_Ti5Fe11O24
_symmetry_space_group_name_H-M   'P 1'
_cell_length_a   11.09906102
_cell_length_b   14.95802177
_cell_length_c   9.80992984
_cell_angle_alpha   26.59453811
_cell_angle_beta   50.16572728
_cell_angle_gamma   37.64389046
_symmetry_Int_Tables_number   1
_chemical_formula_structural   Ti5Fe11O24
_chemical_formula_sum   'Ti5 Fe11 O24'
_cell_volume   431.52702907
_cell_formula_units_Z   1
loop_
 _symmetry_equiv_pos_site_id
 _symmetry_equiv_pos_as_xyz
  1  'x, y, z'
loop_
 _atom_site_type_symbol
 _atom_site_label
 _atom_site_symmetry_multiplicity
 _atom_site_fract_x
 _atom_site_fract_y
 _atom_site_fract_z
 _atom_site_occupancy
  Ti  Ti0  1  0.06916465  0.99860193  0.15392080  1
  Ti  Ti1  1  0.57417710  0.00029645  0.14770920  1
  Ti  Ti2  1  0.32649730  0.50253294  0.14088722  1
  Ti  Ti3  1  0.82600726  0.49754061  0.14987884  1
  Ti  Ti4  1  0.43043296  0.99744173  0.85726014  1
  Fe  Fe5  1  0.17810047  0.00014280  0.35494644  1
  Fe  Fe6  1  0.67537768  0.99808685  0.36054576  1
  Fe  Fe7  1  0.07196340  0.50057179  0.64617270  1
  Fe  Fe8  1  0.42678703  0.50482877  0.34997282  1
  Fe  Fe9  1  0.17998206  0.49807166  0.85478128  1
  Fe  Fe10  1  0.57627915  0.49708319  0.64727382  1
  Fe  Fe11  1  0.93225174  0.49892323  0.35591969  1
  Fe  Fe12  1  0.67614740  0.50340857  0.85321462  1
  Fe  Fe13  1  0.31737607  0.00071382  0.64823209  1
  Fe  Fe14  1  0.82496903  0.00221841  0.63972517  1
  Fe  Fe15  1  0.92357904  0.00033927  0.85332821  1
  O  O16  1  0.29192130  0.19852831  0.03722087  1
  O  O17  1  0.10370410  0.34603416  0.24883410  1
  O  O18  1  0.15961424  0.11920292  0.79150219  1
  O  O19  1  0.04619718  0.69090761  0.04714018  1
  O  O20  1  0.42981000  0.17464410  0.43853555  1
  O  O21  1  0.29748330  0.33303296  0.57237504  1
  O  O22  1  0.79237581  0.19783524  0.03824787  1
  O  O23  1  0.59319822  0.35825485  0.23960807  1
  O  O24  1  0.18314558  0.67359311  0.42927511  1
  O  O25  1  0.64792091  0.13290832  0.78586775  1
  O  O26  1  0.05712756  0.84321197  0.54420062  1
  O  O27  1  0.54156515  0.70370300  0.03135930  1
  O  O28  1  0.47463124  0.30714890  0.93752602  1
  O  O29  1  0.93438302  0.18016899  0.42735580  1
  O  O30  1  0.36461658  0.84179497  0.24143413  1
  O  O31  1  0.79568337  0.34909109  0.55384710  1
  O  O32  1  0.40251175  0.62659580  0.78063617  1
  O  O33  1  0.21811932  0.81042768  0.93386035  1
  O  O34  1  0.68084888  0.67334211  0.43704860  1
  O  O35  1  0.53789257  0.85334376  0.55294340  1
  O  O36  1  0.97301919  0.30760719  0.93583585  1
  O  O37  1  0.85661216  0.83644587  0.25837114  1
  O  O38  1  0.90254753  0.62965125  0.78026835  1
  O  O39  1  0.70597869  0.81172382  0.94293760  1
