# generated using pymatgen
data_Pr7Mn8O24
_symmetry_space_group_name_H-M   'P 1'
_cell_length_a   11.05481972
_cell_length_b   7.79020707
_cell_length_c   9.56774464
_cell_angle_alpha   65.97536153
_cell_angle_beta   54.71926239
_cell_angle_gamma   45.12330613
_symmetry_Int_Tables_number   1
_chemical_formula_structural   Pr7Mn8O24
_chemical_formula_sum   'Pr7 Mn8 O24'
_cell_volume   476.64440201
_cell_formula_units_Z   1
loop_
 _symmetry_equiv_pos_site_id
 _symmetry_equiv_pos_as_xyz
  1  'x, y, z'
loop_
 _atom_site_type_symbol
 _atom_site_label
 _atom_site_symmetry_multiplicity
 _atom_site_fract_x
 _atom_site_fract_y
 _atom_site_fract_z
 _atom_site_occupancy
  Pr  Pr0  1  0.35203300  0.03223083  0.25526514  1
  Pr  Pr1  1  0.13838102  0.46209560  0.74874387  1
  Pr  Pr2  1  0.36135168  0.52508037  0.25228520  1
  Pr  Pr3  1  0.85829089  0.03264018  0.24271749  1
  Pr  Pr4  1  0.63414030  0.47481245  0.74917361  1
  Pr  Pr5  1  0.86468354  0.52498379  0.24574597  1
  Pr  Pr6  1  0.63981845  0.98577459  0.74893682  1
  Mn  Mn7  1  0.25024985  0.99708143  0.99756504  1
  Mn  Mn8  1  0.99841681  0.50060482  0.50220788  1
  Mn  Mn9  1  0.24777349  0.50922919  0.99493236  1
  Mn  Mn10  1  0.75511156  0.00162731  0.99423337  1
  Mn  Mn11  1  0.49859916  0.99754526  0.50038868  1
  Mn  Mn12  1  0.49358437  0.50919157  0.50324699  1
  Mn  Mn13  1  0.75110264  0.50121797  0.99579379  1
  Mn  Mn14  1  0.00054138  0.00117512  0.50369791  1
  O  O15  1  0.21040531  0.27084264  0.03985061  1
  O  O16  1  0.16122896  0.49330397  0.24980325  1
  O  O17  1  0.24059624  0.24693390  0.51889493  1
  O  O18  1  0.01052120  0.24703011  0.97941331  1
  O  O19  1  0.00348086  0.72721447  0.54142962  1
  O  O20  1  0.09511602  0.98751915  0.24956053  1
  O  O21  1  0.40827075  0.01125482  0.74890629  1
  O  O22  1  0.69813195  0.28171242  0.04396954  1
  O  O23  1  0.50119841  0.27090141  0.45798488  1
  O  O24  1  0.47856349  0.78270707  0.04023077  1
  O  O25  1  0.27311069  0.76669255  0.44873433  1
  O  O26  1  0.35378297  0.46874066  0.74909895  1
  O  O27  1  0.66141091  0.49424913  0.24827863  1
  O  O28  1  0.73467744  0.22461164  0.53048377  1
  O  O29  1  0.51633360  0.22483542  0.96718516  1
  O  O30  1  0.53756575  0.70304250  0.52042805  1
  O  O31  1  0.30868058  0.70311406  0.97782776  1
  O  O32  1  0.59555536  0.98723107  0.24843566  1
  O  O33  1  0.88094866  0.02980821  0.74902663  1
  O  O34  1  0.99273263  0.28192170  0.45422075  1
  O  O35  1  0.97282824  0.76663231  0.04959427  1
  O  O36  1  0.76996937  0.78259964  0.45738227  1
  O  O37  1  0.81778090  0.53794490  0.74885647  1
  O  O38  1  0.79623156  0.72722275  0.95621546  1
