# generated using pymatgen
data_KHo2Cu(MoO4)4
_symmetry_space_group_name_H-M   'P 1'
_cell_length_a   5.28425843
_cell_length_b   6.87111154
_cell_length_c   19.69633090
_cell_angle_alpha   88.85906112
_cell_angle_beta   86.70753336
_cell_angle_gamma   67.39987952
_symmetry_Int_Tables_number   1
_chemical_formula_structural   KHo2Cu(MoO4)4
_chemical_formula_sum   'K2 Ho4 Cu2 Mo8 O32'
_cell_volume   659.14044407
_cell_formula_units_Z   2
loop_
 _symmetry_equiv_pos_site_id
 _symmetry_equiv_pos_as_xyz
  1  'x, y, z'
loop_
 _atom_site_type_symbol
 _atom_site_label
 _atom_site_symmetry_multiplicity
 _atom_site_fract_x
 _atom_site_fract_y
 _atom_site_fract_z
 _atom_site_occupancy
  K  K0  1  0.97265882  0.05690955  0.24824426  1
  K  K1  1  0.02664615  0.93928704  0.74827171  1
  Ho  Ho2  1  0.85149473  0.29381684  0.46871817  1
  Ho  Ho3  1  0.85458889  0.29409019  0.03074311  1
  Ho  Ho4  1  0.14570595  0.70446843  0.96819011  1
  Ho  Ho5  1  0.15017118  0.70418100  0.53183752  1
  Cu  Cu6  1  0.69009448  0.61753566  0.24950177  1
  Cu  Cu7  1  0.30883424  0.38220194  0.75060348  1
  Mo  Mo8  1  0.54567428  0.87632608  0.09141253  1
  Mo  Mo9  1  0.26794913  0.48198430  0.35354447  1
  Mo  Mo10  1  0.42099345  0.12220973  0.59131147  1
  Mo  Mo11  1  0.25071422  0.48032454  0.14602064  1
  Mo  Mo12  1  0.45409150  0.12263734  0.90838640  1
  Mo  Mo13  1  0.73176612  0.51642985  0.64652817  1
  Mo  Mo14  1  0.57993878  0.87479852  0.40924234  1
  Mo  Mo15  1  0.74961694  0.51583604  0.85264760  1
  O  O16  1  0.21648712  0.03808759  0.96277020  1
  O  O17  1  0.50725776  0.66082905  0.04124564  1
  O  O18  1  0.30322743  0.18018523  0.82804395  1
  O  O19  1  0.90718284  0.69576169  0.63050060  1
  O  O20  1  0.93135481  0.59506864  0.78537712  1
  O  O21  1  0.69636342  0.81954631  0.17190253  1
  O  O22  1  0.77673328  0.90308569  0.89930070  1
  O  O23  1  0.58158812  0.47915368  0.56582283  1
  O  O24  1  0.47107162  0.59618041  0.71363253  1
  O  O25  1  0.06757030  0.40280910  0.21314020  1
  O  O26  1  0.51189809  0.18469375  0.67144605  1
  O  O27  1  0.83957098  0.66009307  0.45789030  1
  O  O28  1  0.48734268  0.81747682  0.32873168  1
  O  O29  1  0.05971671  0.52085823  0.06583999  1
  O  O30  1  0.42280205  0.52280242  0.43322894  1
  O  O31  1  0.26974625  0.71936746  0.17194895  1
  O  O32  1  0.60402628  0.29910016  0.12904864  1
  O  O33  1  0.94278454  0.47636831  0.93252625  1
  O  O34  1  0.01615669  0.72164106  0.32721536  1
  O  O35  1  0.32092611  0.90165783  0.60105232  1
  O  O36  1  0.25922661  0.96005930  0.46429716  1
  O  O37  1  0.49510398  0.33813611  0.95786372  1
  O  O38  1  0.73341814  0.27688864  0.82656427  1
  O  O39  1  0.22293985  0.09562349  0.10017047  1
  O  O40  1  0.74520907  0.03793674  0.53777004  1
  O  O41  1  0.09261917  0.30238183  0.37023294  1
  O  O42  1  0.52898930  0.40025771  0.28630979  1
  O  O43  1  0.67954855  0.09592912  0.40066115  1
  O  O44  1  0.16734841  0.33807391  0.54174186  1
  O  O45  1  0.78365424  0.96000942  0.03695398  1
  O  O46  1  0.98593045  0.27425547  0.67133374  1
  O  O47  1  0.39572929  0.69692072  0.86963033  1
