# generated using pymatgen
data_HfMg14Nb
_symmetry_space_group_name_H-M   'P 1'
_cell_length_a   6.41219212
_cell_length_b   6.15587741
_cell_length_c   10.16595127
_cell_angle_alpha   90.00000000
_cell_angle_beta   90.00000000
_cell_angle_gamma   118.68628812
_symmetry_Int_Tables_number   1
_chemical_formula_structural   HfMg14Nb
_chemical_formula_sum   'Hf1 Mg14 Nb1'
_cell_volume   352.02488625
_cell_formula_units_Z   1
loop_
 _symmetry_equiv_pos_site_id
 _symmetry_equiv_pos_as_xyz
  1  'x, y, z'
loop_
 _atom_site_type_symbol
 _atom_site_label
 _atom_site_symmetry_multiplicity
 _atom_site_fract_x
 _atom_site_fract_y
 _atom_site_fract_z
 _atom_site_occupancy
  Hf  Hf0  1  0.16226768  0.83113334  0.12500000  1
  Mg  Mg1  1  0.16476956  0.33238428  0.62500000  1
  Mg  Mg2  1  0.16572182  0.83286041  0.62500000  1
  Mg  Mg3  1  0.66162936  0.33223305  0.12500000  1
  Mg  Mg4  1  0.66513624  0.33204221  0.62500000  1
  Mg  Mg5  1  0.66162936  0.82939530  0.12500000  1
  Mg  Mg6  1  0.66513624  0.83309303  0.62500000  1
  Mg  Mg7  1  0.33222963  0.16962066  0.37085852  1
  Mg  Mg8  1  0.33222963  0.16962066  0.87914148  1
  Mg  Mg9  1  0.33222963  0.66260997  0.37085852  1
  Mg  Mg10  1  0.33222963  0.66260997  0.87914148  1
  Mg  Mg11  1  0.84335347  0.17167723  0.36864320  1
  Mg  Mg12  1  0.84335347  0.17167723  0.88135680  1
  Mg  Mg13  1  0.83810204  0.66905152  0.37406145  1
  Mg  Mg14  1  0.83810204  0.66905152  0.87593855  1
  Nb  Nb15  1  0.16188020  0.33093960  0.12500000  1
