# generated using pymatgen
data_Li(ReO3)5
_symmetry_space_group_name_H-M   'P 1'
_cell_length_a   6.48535960
_cell_length_b   32.41944121
_cell_length_c   12.41933672
_cell_angle_alpha   29.49242665
_cell_angle_beta   121.40135965
_cell_angle_gamma   109.31698939
_symmetry_Int_Tables_number   1
_chemical_formula_structural   Li(ReO3)5
_chemical_formula_sum   'Li4 Re20 O60'
_cell_volume   1049.39562826
_cell_formula_units_Z   4
loop_
 _symmetry_equiv_pos_site_id
 _symmetry_equiv_pos_as_xyz
  1  'x, y, z'
loop_
 _atom_site_type_symbol
 _atom_site_label
 _atom_site_symmetry_multiplicity
 _atom_site_fract_x
 _atom_site_fract_y
 _atom_site_fract_z
 _atom_site_occupancy
  Li  Li0  1  0.49908142  0.90025962  0.99920063  1
  Li  Li1  1  0.49921885  0.40017711  0.49938595  1
  Li  Li2  1  0.50091858  0.69974038  0.00079937  1
  Li  Li3  1  0.50078115  0.19982289  0.50061405  1
  Re  Re4  1  0.00089220  0.89986268  0.99997605  1
  Re  Re5  1  0.50035814  0.90104831  0.49706122  1
  Re  Re6  1  0.99634562  0.00049741  0.49610707  1
  Re  Re7  1  0.49964186  0.69895169  0.50293878  1
  Re  Re8  1  0.99910780  0.70013732  0.00002395  1
  Re  Re9  1  0.00000000  0.80000000  0.50000000  1
  Re  Re10  1  0.99571109  0.50035471  0.99746876  1
  Re  Re11  1  0.50089466  0.50012117  0.50251592  1
  Re  Re12  1  0.50000000  0.80000000  0.00000000  1
  Re  Re13  1  0.00365438  0.59950259  0.50389293  1
  Re  Re14  1  0.50000000  0.30000000  0.50000000  1
  Re  Re15  1  0.49918529  0.60080308  0.99655288  1
  Re  Re16  1  0.00115426  0.39998463  0.50017937  1
  Re  Re17  1  0.49910534  0.09987883  0.49748408  1
  Re  Re18  1  0.00428891  0.09964529  0.00253124  1
  Re  Re19  1  0.50015024  0.40130329  0.99769315  1
  Re  Re20  1  0.99884574  0.20001537  0.49982063  1
  Re  Re21  1  0.49984976  0.19869671  0.00230685  1
  Re  Re22  1  0.00000000  0.30000000  0.00000000  1
  Re  Re23  1  0.50081471  0.99919692  0.00344712  1
  O  O24  1  0.07883918  0.94050672  0.79167349  1
  O  O25  1  0.21712644  0.89894100  0.72005355  1
  O  O26  1  0.07805044  0.74029806  0.79250100  1
  O  O27  1  0.21645876  0.98724095  0.27987378  1
  O  O28  1  0.21547743  0.69938961  0.71871690  1
  O  O29  1  0.71710143  0.86993165  0.93314905  1
  O  O30  1  0.50573747  0.82575801  0.79233191  1
  O  O31  1  0.06304681  0.54213455  0.78508216  1
  O  O32  1  0.28151716  0.84360165  0.49909690  1
  O  O33  1  0.71932935  0.95539324  0.50317614  1
  O  O34  1  0.21527484  0.78730942  0.28006679  1
  O  O35  1  0.21638722  0.49926021  0.72050713  1
  O  O36  1  0.28129100  0.93035572  0.06544558  1
  O  O37  1  0.49520270  0.96970550  0.21487664  1
  O  O38  1  0.50479730  0.63029450  0.78512336  1
  O  O39  1  0.71870900  0.66964428  0.93455442  1
  O  O40  1  0.28067065  0.64460676  0.49682386  1
  O  O41  1  0.06394692  0.34270669  0.78331278  1
  O  O42  1  0.78472516  0.81269058  0.71993321  1
  O  O43  1  0.71848284  0.75639835  0.50090310  1
  O  O44  1  0.21565724  0.58695315  0.28133645  1
  O  O45  1  0.21592944  0.29999873  0.71730586  1
  O  O46  1  0.28289857  0.73006835  0.06685095  1
  O  O47  1  0.49426253  0.77424199  0.20766809  1
  O  O48  1  0.72053004  0.46853055  0.93695195  1
  O  O49  1  0.50440808  0.43093118  0.78333872  1
  O  O50  1  0.78452257  0.90061039  0.28128310  1
  O  O51  1  0.06423368  0.14256405  0.78288233  1
  O  O52  1  0.28889934  0.44385278  0.49509653  1
  O  O53  1  0.78354124  0.61275905  0.72012622  1
  O  O54  1  0.71871839  0.55607156  0.50190076  1
  O  O55  1  0.21705908  0.38657936  0.28291991  1
  O  O56  1  0.92194956  0.85970194  0.20749900  1
  O  O57  1  0.21630048  0.09969354  0.71771851  1
  O  O58  1  0.49521173  0.57469423  0.20733873  1
  O  O59  1  0.28860755  0.52656042  0.08032934  1
  O  O60  1  0.71285234  0.27312109  0.92124708  1
  O  O61  1  0.50403703  0.23043677  0.78308848  1
  O  O62  1  0.78287356  0.70105900  0.27994645  1
  O  O63  1  0.78371311  0.41309034  0.71819734  1
  O  O64  1  0.28624000  0.24367517  0.49469113  1
  O  O65  1  0.92116082  0.65949328  0.20832651  1
  O  O66  1  0.71376000  0.35632483  0.50530887  1
  O  O67  1  0.21628689  0.18690966  0.28180266  1
  O  O68  1  0.28714766  0.32687891  0.07875292  1
  O  O69  1  0.49596297  0.36956323  0.21691152  1
  O  O70  1  0.71139245  0.07343958  0.91967066  1
  O  O71  1  0.50478827  0.02530577  0.79266127  1
  O  O72  1  0.78369952  0.50030646  0.28228149  1
  O  O73  1  0.78294092  0.21342064  0.71708009  1
  O  O74  1  0.28128161  0.04392844  0.49809924  1
  O  O75  1  0.71110066  0.15614722  0.50490347  1
  O  O76  1  0.93576632  0.45743595  0.21711767  1
  O  O77  1  0.49559192  0.16906882  0.21666128  1
  O  O78  1  0.27946996  0.13146945  0.06304805  1
  O  O79  1  0.78407056  0.30000127  0.28269414  1
  O  O80  1  0.78434276  0.01304685  0.71866355  1
  O  O81  1  0.93605308  0.25729331  0.21668722  1
  O  O82  1  0.78361278  0.10073979  0.27949287  1
  O  O83  1  0.93695319  0.05786545  0.21491784  1
