# generated using pymatgen
data_Li3Fe2(PO4)3
_symmetry_space_group_name_H-M   'P 1'
_cell_length_a   8.76948926
_cell_length_b   8.71305194
_cell_length_c   8.76948880
_cell_angle_alpha   60.12843839
_cell_angle_beta   120.35736155
_cell_angle_gamma   119.87155954
_symmetry_Int_Tables_number   1
_chemical_formula_structural   Li3Fe2(PO4)3
_chemical_formula_sum   'Li6 Fe4 P6 O24'
_cell_volume   473.42710456
_cell_formula_units_Z   2
loop_
 _symmetry_equiv_pos_site_id
 _symmetry_equiv_pos_as_xyz
  1  'x, y, z'
loop_
 _atom_site_type_symbol
 _atom_site_label
 _atom_site_symmetry_multiplicity
 _atom_site_fract_x
 _atom_site_fract_y
 _atom_site_fract_z
 _atom_site_occupancy
  Li  Li0  1  0.03557427  0.06385420  0.64538856  1
  Li  Li1  1  0.62480200  0.73095097  0.64002682  1
  Li  Li2  1  0.74150799  0.32879837  0.11316662  1
  Li  Li3  1  0.35997318  0.23095097  0.37519800  1
  Li  Li4  1  0.35461144  0.56385420  0.96442573  1
  Li  Li5  1  0.88683338  0.82879837  0.25849101  1
  Fe  Fe6  1  0.35379825  0.06504519  0.14531124  1
  Fe  Fe7  1  0.64679230  0.94269522  0.84627311  1
  Fe  Fe8  1  0.15372689  0.44269522  0.35320770  1
  Fe  Fe9  1  0.85468876  0.56504519  0.64620175  1
  P  P10  1  0.24997719  0.76371818  0.52806573  1
  P  P11  1  0.04521348  0.25093387  0.04919764  1
  P  P12  1  0.95080236  0.75093287  0.95478652  1
  P  P13  1  0.47193427  0.26371818  0.75002281  1
  P  P14  1  0.53052523  0.73838794  0.24825981  1
  P  P15  1  0.75174019  0.23838794  0.46947477  1
  O  O16  1  0.06064674  0.24647991  0.23559112  1
  O  O17  1  0.24148270  0.26728985  0.07159692  1
  O  O18  1  0.92840308  0.76728985  0.75851730  1
  O  O19  1  0.47923169  0.88464549  0.24500141  1
  O  O20  1  0.37716704  0.54197002  0.27893033  1
  O  O21  1  0.97968870  0.56561378  0.10972999  1
  O  O22  1  0.75499859  0.38464549  0.52076831  1
  O  O23  1  0.25814522  0.62459945  0.47479312  1
  O  O24  1  0.89027001  0.06561378  0.02031130  1
  O  O25  1  0.93398429  0.27975741  0.44722306  1
  O  O26  1  0.72106967  0.04197002  0.62283296  1
  O  O27  1  0.05386218  0.71496624  0.52563149  1
  O  O28  1  0.59420889  0.23911258  0.27662936  1
  O  O29  1  0.61875866  0.46318128  0.70903658  1
  O  O30  1  0.11536763  0.92749326  0.99396528  1
  O  O31  1  0.00603472  0.42749326  0.88463237  1
  O  O32  1  0.72337064  0.73911258  0.40579111  1
  O  O33  1  0.29096342  0.96318128  0.38124134  1
  O  O34  1  0.55277694  0.77975741  0.06601571  1
  O  O35  1  0.39983099  0.75596378  0.72574525  1
  O  O36  1  0.52520688  0.12459945  0.74185478  1
  O  O37  1  0.76440888  0.74647991  0.93935326  1
  O  O38  1  0.27425475  0.25596378  0.60016901  1
  O  O39  1  0.47436851  0.21496624  0.94613782  1
