# generated using pymatgen
data_RbHSO4
_symmetry_space_group_name_H-M   'P 1'
_cell_length_a   14.69723656
_cell_length_b   4.78317126
_cell_length_c   15.13329277
_cell_angle_alpha   90.00000000
_cell_angle_beta   119.34186683
_cell_angle_gamma   90.00000000
_symmetry_Int_Tables_number   1
_chemical_formula_structural   RbHSO4
_chemical_formula_sum   'Rb8 H8 S8 O32'
_cell_volume   927.38014951
_cell_formula_units_Z   8
loop_
 _symmetry_equiv_pos_site_id
 _symmetry_equiv_pos_as_xyz
  1  'x, y, z'
loop_
 _atom_site_type_symbol
 _atom_site_label
 _atom_site_symmetry_multiplicity
 _atom_site_fract_x
 _atom_site_fract_y
 _atom_site_fract_z
 _atom_site_occupancy
  Rb  Rb0  1  0.12243254  0.06026585  0.90979527  1
  Rb  Rb1  1  0.12243254  0.93973415  0.40979527  1
  Rb  Rb2  1  0.38166655  0.46300464  0.83892055  1
  Rb  Rb3  1  0.38166655  0.53699536  0.33892055  1
  Rb  Rb4  1  0.87899512  0.67956160  0.59124191  1
  Rb  Rb5  1  0.87899512  0.32043840  0.09124191  1
  Rb  Rb6  1  0.60512736  0.13788683  0.67720638  1
  Rb  Rb7  1  0.60512736  0.86211317  0.17720638  1
  H  H8  1  0.12685058  0.63018953  0.61994595  1
  H  H9  1  0.12685058  0.36981047  0.11994595  1
  H  H10  1  0.26880080  0.32791023  0.55199506  1
  H  H11  1  0.26880080  0.67208977  0.05199506  1
  H  H12  1  0.83513382  0.94126598  0.78276513  1
  H  H13  1  0.83513382  0.05873402  0.28276513  1
  H  H14  1  0.64551195  0.54422402  0.88881684  1
  H  H15  1  0.64551195  0.45577598  0.38881684  1
  S  S16  1  0.13523594  0.06416271  0.67705666  1
  S  S17  1  0.13523594  0.93583729  0.17705666  1
  S  S18  1  0.38523452  0.64151869  0.59636548  1
  S  S19  1  0.38523452  0.35848131  0.09636548  1
  S  S20  1  0.89352808  0.53508469  0.84840374  1
  S  S21  1  0.89352808  0.46491531  0.34840374  1
  S  S22  1  0.63545043  0.95238796  0.94550814  1
  S  S23  1  0.63545043  0.04761204  0.44550814  1
  O  O24  1  0.04414396  0.13553400  0.68772164  1
  O  O25  1  0.04414396  0.86446600  0.18772164  1
  O  O26  1  0.16659627  0.29550684  0.63255621  1
  O  O27  1  0.16659627  0.70449216  0.13255621  1
  O  O28  1  0.22246421  0.95120250  0.77019970  1
  O  O29  1  0.22246421  0.04879750  0.27019970  1
  O  O30  1  0.09680871  0.82163913  0.59266495  1
  O  O31  1  0.09680871  0.17836087  0.09266495  1
  O  O32  1  0.44651898  0.70068977  0.54597668  1
  O  O33  1  0.44651898  0.29931023  0.04597668  1
  O  O34  1  0.43919395  0.45862945  0.68457460  1
  O  O35  1  0.43919395  0.54137055  0.18457460  1
  O  O36  1  0.28688127  0.45267748  0.51112760  1
  O  O37  1  0.28688127  0.54732252  0.01112760  1
  O  O38  1  0.33603660  0.88511824  0.61281380  1
  O  O39  1  0.33603660  0.11488176  0.11281380  1
  O  O40  1  0.99420128  0.54846661  0.84957632  1
  O  O41  1  0.99420128  0.45153339  0.34957632  1
  O  O42  1  0.89804697  0.63406226  0.94112955  1
  O  O43  1  0.89804697  0.36593774  0.44112955  1
  O  O44  1  0.81685950  0.74243793  0.75809132  1
  O  O45  1  0.81685950  0.25756207  0.25809132  1
  O  O46  1  0.84051760  0.26461279  0.81228157  1
  O  O47  1  0.84051760  0.73538721  0.31228157  1
  O  O48  1  0.52834652  0.93641295  0.92788033  1
  O  O49  1  0.52834652  0.06358705  0.42788033  1
  O  O50  1  0.64480794  0.74499637  0.86777233  1
  O  O51  1  0.64480794  0.25500363  0.36777233  1
  O  O52  1  0.71369504  0.86772830  0.04837129  1
  O  O53  1  0.71369504  0.13227170  0.54837129  1
  O  O54  1  0.66071353  0.22168466  0.91523901  1
  O  O55  1  0.66071353  0.77831534  0.41523901  1
