# generated using pymatgen
data_SiH10C2N4(OF3)2
_symmetry_space_group_name_H-M   'P 1'
_cell_length_a   9.29693206
_cell_length_b   8.33893582
_cell_length_c   12.26573772
_cell_angle_alpha   90.00000000
_cell_angle_beta   90.00000000
_cell_angle_gamma   90.00000000
_symmetry_Int_Tables_number   1
_chemical_formula_structural   SiH10C2N4(OF3)2
_chemical_formula_sum   'Si4 H40 C8 N16 O8 F24'
_cell_volume   950.91995786
_cell_formula_units_Z   4
loop_
 _symmetry_equiv_pos_site_id
 _symmetry_equiv_pos_as_xyz
  1  'x, y, z'
loop_
 _atom_site_type_symbol
 _atom_site_label
 _atom_site_symmetry_multiplicity
 _atom_site_fract_x
 _atom_site_fract_y
 _atom_site_fract_z
 _atom_site_occupancy
  Si  Si0  1  0.50000000  0.00000000  0.50000000  1
  Si  Si1  1  0.00000000  0.50000000  0.50000000  1
  Si  Si2  1  0.50000000  0.50000000  0.00000000  1
  Si  Si3  1  0.00000000  0.00000000  0.00000000  1
  H  H4  1  0.26904591  0.40924409  0.67190911  1
  H  H5  1  0.76904591  0.09075591  0.32809089  1
  H  H6  1  0.73095409  0.90924409  0.82809089  1
  H  H7  1  0.23095409  0.59075591  0.17190911  1
  H  H8  1  0.73095409  0.59075591  0.32809089  1
  H  H9  1  0.23095409  0.90924409  0.67190911  1
  H  H10  1  0.26904591  0.09075591  0.17190911  1
  H  H11  1  0.76904591  0.40924409  0.82809089  1
  H  H12  1  0.39362617  0.25737439  0.65118533  1
  H  H13  1  0.89362617  0.24262561  0.34881467  1
  H  H14  1  0.60637383  0.75737439  0.84881467  1
  H  H15  1  0.10637383  0.74262561  0.15118533  1
  H  H16  1  0.60637383  0.74262561  0.34881467  1
  H  H17  1  0.10637383  0.75737439  0.65118533  1
  H  H18  1  0.39362617  0.24262561  0.15118533  1
  H  H19  1  0.89362617  0.25737439  0.84881467  1
  H  H20  1  0.63235767  0.33805264  0.59995728  1
  H  H21  1  0.13235767  0.16194736  0.40004272  1
  H  H22  1  0.36764233  0.83805264  0.90004272  1
  H  H23  1  0.86764233  0.66194736  0.09995728  1
  H  H24  1  0.36764233  0.66194736  0.40004272  1
  H  H25  1  0.86764233  0.83805264  0.59995728  1
  H  H26  1  0.63235767  0.16194736  0.09995728  1
  H  H27  1  0.13235767  0.33805264  0.90004272  1
  H  H28  1  0.68148973  0.53943346  0.60511207  1
  H  H29  1  0.18148973  0.96056654  0.39488793  1
  H  H30  1  0.31851027  0.03943346  0.89488793  1
  H  H31  1  0.81851027  0.46056654  0.10511207  1
  H  H32  1  0.31851027  0.46056654  0.39488793  1
  H  H33  1  0.81851027  0.03943346  0.60511207  1
  H  H34  1  0.68148973  0.96056654  0.10511207  1
  H  H35  1  0.18148973  0.53943346  0.89488793  1
  H  H36  1  0.49213162  0.71743489  0.62373414  1
  H  H37  1  0.99213162  0.78256511  0.37626586  1
  H  H38  1  0.50786838  0.21743489  0.87626586  1
  H  H39  1  0.00786838  0.28256511  0.12373414  1
  H  H40  1  0.50786838  0.28256511  0.37626586  1
  H  H41  1  0.00786838  0.21743489  0.62373414  1
  H  H42  1  0.49213162  0.78256511  0.12373414  1
  H  H43  1  0.99213162  0.71743489  0.87626586  1
  C  C44  1  0.47084325  0.48833135  0.64791219  1
  C  C45  1  0.97084325  0.01166865  0.35208781  1
  C  C46  1  0.52915675  0.98833135  0.85208781  1
  C  C47  1  0.02915675  0.51166865  0.14791219  1
  C  C48  1  0.52915675  0.51166865  0.35208781  1
  C  C49  1  0.02915675  0.98833135  0.64791219  1
  C  C50  1  0.47084325  0.01166865  0.14791219  1
  C  C51  1  0.97084325  0.48833135  0.85208781  1
  N  N52  1  0.37391877  0.37509933  0.66841259  1
  N  N53  1  0.87391877  0.12490067  0.33158741  1
  N  N54  1  0.62608123  0.87509933  0.83158741  1
  N  N55  1  0.12608123  0.62490067  0.16841259  1
  N  N56  1  0.62608123  0.62490067  0.33158741  1
  N  N57  1  0.12608123  0.87509933  0.66841259  1
  N  N58  1  0.37391877  0.12490067  0.16841259  1
  N  N59  1  0.87391877  0.37509933  0.83158741  1
  N  N60  1  0.60442062  0.45382412  0.61761850  1
  N  N61  1  0.10442062  0.04617588  0.38238150  1
  N  N62  1  0.39557938  0.95382412  0.88238150  1
  N  N63  1  0.89557938  0.54617588  0.11761850  1
  N  N64  1  0.39557938  0.54617588  0.38238150  1
  N  N65  1  0.89557938  0.95382412  0.61761850  1
  N  N66  1  0.60442062  0.04617588  0.11761850  1
  N  N67  1  0.10442062  0.45382412  0.88238150  1
  O  O68  1  0.42726387  0.63766569  0.66178370  1
  O  O69  1  0.92726387  0.86233431  0.33821630  1
  O  O70  1  0.57273613  0.13766569  0.83821630  1
  O  O71  1  0.07273613  0.36233431  0.16178370  1
  O  O72  1  0.57273613  0.36233431  0.33821630  1
  O  O73  1  0.07273613  0.13766569  0.66178370  1
  O  O74  1  0.42726387  0.86233431  0.16178370  1
  O  O75  1  0.92726387  0.63766569  0.83821630  1
  F  F76  1  0.40836583  0.02844143  0.61975613  1
  F  F77  1  0.90836583  0.47155857  0.38024387  1
  F  F78  1  0.59163417  0.52844143  0.88024387  1
  F  F79  1  0.09163417  0.97155857  0.11975613  1
  F  F80  1  0.59163417  0.97155857  0.38024387  1
  F  F81  1  0.09163417  0.52844143  0.61975613  1
  F  F82  1  0.40836583  0.47155857  0.11975613  1
  F  F83  1  0.90836583  0.02844143  0.88024387  1
  F  F84  1  0.36452801  0.87898420  0.45240304  1
  F  F85  1  0.86452801  0.62101580  0.54759696  1
  F  F86  1  0.63547199  0.37898420  0.04759696  1
  F  F87  1  0.13547199  0.12101580  0.95240304  1
  F  F88  1  0.63547199  0.12101580  0.54759696  1
  F  F89  1  0.13547199  0.37898420  0.45240304  1
  F  F90  1  0.36452801  0.62101580  0.95240304  1
  F  F91  1  0.86452801  0.87898420  0.04759696  1
  F  F92  1  0.58452355  0.83408786  0.55593564  1
  F  F93  1  0.08452355  0.66591214  0.44406436  1
  F  F94  1  0.41547645  0.33408786  0.94406436  1
  F  F95  1  0.91547645  0.16591214  0.05593564  1
  F  F96  1  0.41547645  0.16591214  0.44406436  1
  F  F97  1  0.91547645  0.33408786  0.55593564  1
  F  F98  1  0.58452355  0.66591214  0.05593564  1
  F  F99  1  0.08452355  0.83408786  0.94406436  1
