# generated using pymatgen
data_Cd(FeO2)2
_symmetry_space_group_name_H-M   'P 1'
_cell_length_a   6.23952703
_cell_length_b   6.23952757
_cell_length_c   37.58487145
_cell_angle_alpha   60.12992025
_cell_angle_beta   60.12991727
_cell_angle_gamma   59.99999945
_symmetry_Int_Tables_number   1
_chemical_formula_structural   Cd(FeO2)2
_chemical_formula_sum   'Cd12 Fe24 O48'
_cell_volume   1036.69617487
_cell_formula_units_Z   12
loop_
 _symmetry_equiv_pos_site_id
 _symmetry_equiv_pos_as_xyz
  1  'x, y, z'
loop_
 _atom_site_type_symbol
 _atom_site_label
 _atom_site_symmetry_multiplicity
 _atom_site_fract_x
 _atom_site_fract_y
 _atom_site_fract_z
 _atom_site_occupancy
  Cd  Cd0  1  0.24715405  0.24715405  0.04308998  1
  Cd  Cd1  1  0.62913725  0.62913725  0.01876437  1
  Cd  Cd2  1  0.00328576  0.00328576  0.33169012  1
  Cd  Cd3  1  0.24614946  0.24614946  0.21025827  1
  Cd  Cd4  1  0.62205394  0.62205394  0.18897303  1
  Cd  Cd5  1  1.00002017  1.00002017  0.49998991  1
  Cd  Cd6  1  0.24673161  0.24673161  0.37663419  1
  Cd  Cd7  1  0.00033157  0.00033157  0.66650122  1
  Cd  Cd8  1  0.25147600  0.25147600  0.54092900  1
  Cd  Cd9  1  0.25143512  0.25143512  0.70761544  1
  Cd  Cd10  1  0.99865140  0.99865140  0.83400730  1
  Cd  Cd11  1  0.25038823  0.25038823  0.87480589  1
  Fe  Fe12  1  0.00293174  0.00293174  0.99853413  1
  Fe  Fe13  1  0.00463312  0.00463312  0.16435044  1
  Fe  Fe14  1  0.13144973  0.62136872  0.10430247  1
  Fe  Fe15  1  0.62136872  0.13144973  0.10430247  1
  Fe  Fe16  1  0.62136872  0.62136872  0.10430247  1
  Fe  Fe17  1  0.12435241  0.62023003  0.27253092  1
  Fe  Fe18  1  0.62023003  0.12435241  0.27253092  1
  Fe  Fe19  1  0.62023003  0.62023003  0.27253092  1
  Fe  Fe20  1  0.12509495  0.62549758  0.43731832  1
  Fe  Fe21  1  0.62397560  0.62397560  0.35467920  1
  Fe  Fe22  1  0.62549758  0.12509495  0.43731832  1
  Fe  Fe23  1  0.62549758  0.62549758  0.43731832  1
  Fe  Fe24  1  0.12633292  0.62540636  0.60380939  1
  Fe  Fe25  1  0.62602844  0.62602844  0.52031878  1
  Fe  Fe26  1  0.62540636  0.12633292  0.60380939  1
  Fe  Fe27  1  0.62540636  0.62540636  0.60380939  1
  Fe  Fe28  1  0.12766192  0.62566347  0.77016819  1
  Fe  Fe29  1  0.62660334  0.62660334  0.68669833  1
  Fe  Fe30  1  0.62566347  0.12766192  0.77016819  1
  Fe  Fe31  1  0.62566347  0.62566347  0.77016819  1
  Fe  Fe32  1  0.13473668  0.62428367  0.93611600  1
  Fe  Fe33  1  0.62929492  0.62929492  0.85201954  1
  Fe  Fe34  1  0.62428367  0.13473668  0.93611600  1
  Fe  Fe35  1  0.62428367  0.62428367  0.93611600  1
  O  O36  1  0.37735440  0.37735440  0.06983006  1
  O  O37  1  0.37735440  0.82631286  0.06983006  1
  O  O38  1  0.38857588  0.38857588  0.13904506  1
  O  O39  1  0.82631286  0.37735440  0.06983006  1
  O  O40  1  0.36735415  0.36735415  0.23984787  1
  O  O41  1  0.39238269  0.88325227  0.14018579  1
  O  O42  1  0.88325227  0.39238269  0.14018579  1
  O  O43  1  0.38692610  0.38692610  0.30653695  1
  O  O44  1  0.36735415  0.82620246  0.23984787  1
  O  O45  1  0.87203645  0.87203645  0.06398178  1
  O  O46  1  0.82620246  0.36735415  0.23984787  1
  O  O47  1  0.88325227  0.88325227  0.14018579  1
  O  O48  1  0.39069458  0.39069458  0.39954151  1
  O  O49  1  0.43083095  0.85294334  0.31054673  1
  O  O50  1  0.85294334  0.43083095  0.31054673  1
  O  O51  1  0.39204104  0.39204104  0.47064648  1
  O  O52  1  0.87571677  0.87571677  0.22880861  1
  O  O53  1  0.39069458  0.82136181  0.39954151  1
  O  O54  1  0.82136181  0.39069458  0.39954151  1
  O  O55  1  0.85294334  0.85294334  0.31054673  1
  O  O56  1  0.39148680  0.39148680  0.56565037  1
  O  O57  1  0.42668890  0.85690087  0.47658489  1
  O  O58  1  0.85690087  0.42668890  0.47658489  1
  O  O59  1  0.85871218  0.85871218  0.40397691  1
  O  O60  1  0.39148680  0.82312616  0.56565037  1
  O  O61  1  0.39239806  0.39239806  0.63713397  1
  O  O62  1  0.82312616  0.39148680  0.56565037  1
  O  O63  1  0.85690087  0.85690087  0.47658489  1
  O  O64  1  0.42665693  0.85718754  0.64316167  1
  O  O65  1  0.39215544  0.39215544  0.73205200  1
  O  O66  1  0.39229934  0.39229934  0.80385033  1
  O  O67  1  0.85718754  0.42665693  0.64316167  1
  O  O68  1  0.85738861  0.85738861  0.57130569  1
  O  O69  1  0.39215544  0.82337510  0.73205200  1
  O  O70  1  0.82337510  0.39215544  0.73205200  1
  O  O71  1  0.85718754  0.85718754  0.64316167  1
  O  O72  1  0.39713896  0.39713896  0.89713835  1
  O  O73  1  0.42558764  0.85943600  0.80925639  1
  O  O74  1  0.39238239  0.39238239  0.97047580  1
  O  O75  1  0.85943600  0.42558764  0.80925639  1
  O  O76  1  0.85761262  0.85761262  0.73786069  1
  O  O77  1  0.39713896  0.82289197  0.89713835  1
  O  O78  1  0.82289197  0.39713896  0.89713835  1
  O  O79  1  0.85943600  0.85943600  0.80925639  1
  O  O80  1  0.38489711  0.89163072  0.97197357  1
  O  O81  1  0.89163072  0.38489711  0.97197357  1
  O  O82  1  0.85371584  0.85371584  0.90647508  1
  O  O83  1  0.89163072  0.89163072  0.97197357  1
