# generated using pymatgen
data_K2Cu3(MoO4)4
_symmetry_space_group_name_H-M   'P 1'
_cell_length_a   5.21501270
_cell_length_b   14.94075328
_cell_length_c   20.34645017
_cell_angle_alpha   90.00000000
_cell_angle_beta   94.89361148
_cell_angle_gamma   90.00000000
_symmetry_Int_Tables_number   1
_chemical_formula_structural   K2Cu3(MoO4)4
_chemical_formula_sum   'K8 Cu12 Mo16 O64'
_cell_volume   1579.53966898
_cell_formula_units_Z   4
loop_
 _symmetry_equiv_pos_site_id
 _symmetry_equiv_pos_as_xyz
  1  'x, y, z'
loop_
 _atom_site_type_symbol
 _atom_site_label
 _atom_site_symmetry_multiplicity
 _atom_site_fract_x
 _atom_site_fract_y
 _atom_site_fract_z
 _atom_site_occupancy
  K  K0  1  0.25154235  0.12646869  0.71703252  1
  K  K1  1  0.30894177  0.47655644  0.40445124  1
  K  K2  1  0.74845765  0.62646869  0.78296748  1
  K  K3  1  0.69105823  0.52344356  0.59554876  1
  K  K4  1  0.25154235  0.37353131  0.21703252  1
  K  K5  1  0.74845765  0.87353131  0.28296748  1
  K  K6  1  0.69105823  0.97655644  0.09554876  1
  K  K7  1  0.30894177  0.02344356  0.90445124  1
  Cu  Cu8  1  0.68821802  0.82388937  0.56697836  1
  Cu  Cu9  1  0.68821802  0.67611063  0.06697836  1
  Cu  Cu10  1  0.79377588  0.43518779  0.89408992  1
  Cu  Cu11  1  0.31178198  0.32388937  0.93302164  1
  Cu  Cu12  1  0.20622412  0.56481221  0.10591008  1
  Cu  Cu13  1  0.31178198  0.17611063  0.43302164  1
  Cu  Cu14  1  0.79377588  0.06481221  0.39408992  1
  Cu  Cu15  1  0.24196851  0.70443359  0.32246898  1
  Cu  Cu16  1  0.75803149  0.20443359  0.17753102  1
  Cu  Cu17  1  0.75803149  0.29556641  0.67753102  1
  Cu  Cu18  1  0.20622412  0.93518779  0.60591008  1
  Cu  Cu19  1  0.24196851  0.79556641  0.82246898  1
  Mo  Mo20  1  0.80484474  0.67856255  0.43466526  1
  Mo  Mo21  1  0.69230308  0.41872358  0.07085104  1
  Mo  Mo22  1  0.69230308  0.08127642  0.57085104  1
  Mo  Mo23  1  0.28479667  0.39743260  0.77340528  1
  Mo  Mo24  1  0.78187179  0.22816577  0.83898484  1
  Mo  Mo25  1  0.30769692  0.91872358  0.42914896  1
  Mo  Mo26  1  0.71520333  0.60256740  0.22659472  1
  Mo  Mo27  1  0.19515526  0.32143745  0.56533474  1
  Mo  Mo28  1  0.21812821  0.72816577  0.66101516  1
  Mo  Mo29  1  0.78187179  0.27183423  0.33898484  1
  Mo  Mo30  1  0.71520333  0.89743260  0.72659472  1
  Mo  Mo31  1  0.30769692  0.58127642  0.92914896  1
  Mo  Mo32  1  0.19515526  0.17856255  0.06533474  1
  Mo  Mo33  1  0.80484474  0.82143745  0.93466526  1
  Mo  Mo34  1  0.28479667  0.10256740  0.27340528  1
  Mo  Mo35  1  0.21812821  0.77183423  0.16101516  1
  O  O36  1  0.86133519  0.15878466  0.62344996  1
  O  O37  1  0.00264039  0.63972170  0.66969510  1
  O  O38  1  0.99735961  0.36027830  0.33030490  1
  O  O39  1  0.31058168  0.07799265  0.03354135  1
  O  O40  1  0.44076192  0.68771613  0.60791866  1
  O  O41  1  0.92176788  0.81125898  0.76656572  1
  O  O42  1  0.00264039  0.86027830  0.16969510  1
  O  O43  1  0.38814051  0.75226298  0.24285133  1
  O  O44  1  0.39310155  0.87053002  0.51042929  1
  O  O45  1  0.57188066  0.72433552  0.37335488  1
  O  O46  1  0.99735961  0.13972170  0.83030490  1
  O  O47  1  0.60093705  0.54666398  0.89362522  1
  O  O48  1  0.10914424  0.01639701  0.43880638  1
  O  O49  1  0.10073047  0.64762131  0.39757615  1
  O  O50  1  0.60689845  0.12946998  0.48957071  1
  O  O51  1  0.91544655  0.98658606  0.70891870  1
  O  O52  1  0.98685268  0.17484661  0.37486329  1
  O  O53  1  0.89926953  0.35237869  0.60242385  1
  O  O54  1  0.61185949  0.25226298  0.25714867  1
  O  O55  1  0.89926953  0.14762131  0.10242385  1
  O  O56  1  0.14454063  0.25842824  0.99862882  1
  O  O57  1  0.61185949  0.24773702  0.75714867  1
  O  O58  1  0.98685268  0.32515339  0.87486329  1
  O  O59  1  0.55923808  0.31228387  0.39208134  1
  O  O60  1  0.39310155  0.62946998  0.01042929  1
  O  O61  1  0.39906295  0.45333602  0.10637478  1
  O  O62  1  0.08455345  0.01341394  0.29108130  1
  O  O63  1  0.51347249  0.86862567  0.64499894  1
  O  O64  1  0.60689845  0.37053002  0.98957071  1
  O  O65  1  0.48652751  0.36862567  0.85500106  1
  O  O66  1  0.89085576  0.51639701  0.06119362  1
  O  O67  1  0.42811934  0.27566448  0.62664512  1
  O  O68  1  0.13866481  0.65878466  0.87655004  1
  O  O69  1  0.86133519  0.34121534  0.12344996  1
  O  O70  1  0.38814051  0.74773702  0.74285133  1
  O  O71  1  0.48652751  0.13137433  0.35500106  1
  O  O72  1  0.10073047  0.85237869  0.89757615  1
  O  O73  1  0.10914424  0.48360299  0.93880638  1
  O  O74  1  0.60093705  0.95333602  0.39362522  1
  O  O75  1  0.91544655  0.51341394  0.20891870  1
  O  O76  1  0.42811934  0.22433552  0.12664512  1
  O  O77  1  0.07823212  0.31125898  0.73343428  1
  O  O78  1  0.50458959  0.94166608  0.78158483  1
  O  O79  1  0.39906295  0.04666398  0.60637478  1
  O  O80  1  0.92176788  0.68874102  0.26656572  1
  O  O81  1  0.07823212  0.18874102  0.23343428  1
  O  O82  1  0.44076192  0.81228387  0.10791866  1
  O  O83  1  0.31058168  0.42200735  0.53354135  1
  O  O84  1  0.13866481  0.84121534  0.37655004  1
  O  O85  1  0.50458959  0.55833392  0.28158483  1
  O  O86  1  0.01314732  0.82515339  0.62513671  1
  O  O87  1  0.57188066  0.77566448  0.87335488  1
  O  O88  1  0.49541041  0.44166608  0.71841517  1
  O  O89  1  0.85545937  0.74157176  0.00137118  1
  O  O90  1  0.85545937  0.75842824  0.50137118  1
  O  O91  1  0.55923808  0.18771613  0.89208134  1
  O  O92  1  0.01314732  0.67484661  0.12513671  1
  O  O93  1  0.68941832  0.57799265  0.46645865  1
  O  O94  1  0.14454063  0.24157176  0.49862882  1
  O  O95  1  0.68941832  0.92200735  0.96645865  1
  O  O96  1  0.49541041  0.05833392  0.21841517  1
  O  O97  1  0.08455345  0.48658606  0.79108130  1
  O  O98  1  0.51347249  0.63137433  0.14499894  1
  O  O99  1  0.89085576  0.98360299  0.56119362  1
