# generated using pymatgen
data_SrLaMnFeO6
_symmetry_space_group_name_H-M   'P 1'
_cell_length_a   5.53450351
_cell_length_b   22.10032930
_cell_length_c   9.56409740
_cell_angle_alpha   30.05828463
_cell_angle_beta   55.08957200
_cell_angle_gamma   60.30843518
_symmetry_Int_Tables_number   1
_chemical_formula_structural   SrLaMnFeO6
_chemical_formula_sum   'Sr4 La4 Mn4 Fe4 O24'
_cell_volume   480.50160514
_cell_formula_units_Z   4
loop_
 _symmetry_equiv_pos_site_id
 _symmetry_equiv_pos_as_xyz
  1  'x, y, z'
loop_
 _atom_site_type_symbol
 _atom_site_label
 _atom_site_symmetry_multiplicity
 _atom_site_fract_x
 _atom_site_fract_y
 _atom_site_fract_z
 _atom_site_occupancy
  Sr  Sr0  1  0.25000000  0.00401161  0.24197679  1
  Sr  Sr1  1  0.25000000  0.24377871  0.26244258  1
  Sr  Sr2  1  0.75000000  0.00622129  0.73755742  1
  Sr  Sr3  1  0.75000000  0.24598839  0.75802321  1
  La  La4  1  0.25000000  0.49848251  0.25303497  1
  La  La5  1  0.25000000  0.75628487  0.23743026  1
  La  La6  1  0.75000000  0.49371513  0.76256974  1
  La  La7  1  0.75000000  0.75151749  0.74696503  1
  Mn  Mn8  1  0.00321673  0.00163398  0.99585184  1
  Mn  Mn9  1  0.99678327  0.24836602  0.00414816  1
  Mn  Mn10  1  0.49678327  0.00163398  0.49761225  1
  Mn  Mn11  1  0.50321673  0.24836602  0.50238775  1
  Fe  Fe12  1  0.99717541  0.49755769  0.00570124  1
  Fe  Fe13  1  0.00282459  0.75244231  0.99429876  1
  Fe  Fe14  1  0.50282459  0.49755769  0.50406800  1
  Fe  Fe15  1  0.49717541  0.75244231  0.49593200  1
  O  O16  1  0.28404363  0.13386108  0.21534337  1
  O  O17  1  0.25000000  0.01061329  0.72877342  1
  O  O18  1  0.21595637  0.13386108  0.74921231  1
  O  O19  1  0.29861265  0.38708644  0.20775320  1
  O  O20  1  0.78404363  0.11613892  0.25078769  1
  O  O21  1  0.25000000  0.27450552  0.70098895  1
  O  O22  1  0.75000000  0.23938671  0.27122658  1
  O  O23  1  0.20138735  0.38708644  0.74390105  1
  O  O24  1  0.71595637  0.11613892  0.78465663  1
  O  O25  1  0.30184789  0.63686638  0.20212683  1
  O  O26  1  0.77689301  0.36825189  0.24248641  1
  O  O27  1  0.25000000  0.52472196  0.70055609  1
  O  O28  1  0.75000000  0.48163749  0.28672503  1
  O  O29  1  0.19815211  0.63686638  0.75040766  1
  O  O30  1  0.72310699  0.36825189  0.78450602  1
  O  O31  1  0.27689301  0.88174811  0.21549398  1
  O  O32  1  0.80184789  0.61313362  0.24959234  1
  O  O33  1  0.25000000  0.76836251  0.71327497  1
  O  O34  1  0.75000000  0.72527804  0.29944391  1
  O  O35  1  0.22310699  0.88174811  0.75751359  1
  O  O36  1  0.69815211  0.61313362  0.79787317  1
  O  O37  1  0.79861265  0.86291356  0.25609895  1
  O  O38  1  0.75000000  0.97549448  0.29901105  1
  O  O39  1  0.70138735  0.86291356  0.79224680  1
