# generated using pymatgen
data_LiBeH4NF4
_symmetry_space_group_name_H-M   'P 1'
_cell_length_a   9.57171038
_cell_length_b   5.08642797
_cell_length_c   9.07660200
_cell_angle_alpha   90.00000000
_cell_angle_beta   90.00000000
_cell_angle_gamma   90.00000000
_symmetry_Int_Tables_number   1
_chemical_formula_structural   LiBeH4NF4
_chemical_formula_sum   'Li4 Be4 H16 N4 F16'
_cell_volume   441.90176941
_cell_formula_units_Z   4
loop_
 _symmetry_equiv_pos_site_id
 _symmetry_equiv_pos_as_xyz
  1  'x, y, z'
loop_
 _atom_site_type_symbol
 _atom_site_label
 _atom_site_symmetry_multiplicity
 _atom_site_fract_x
 _atom_site_fract_y
 _atom_site_fract_z
 _atom_site_occupancy
  Li  Li0  1  0.89203153  0.04728666  0.32910773  1
  Li  Li1  1  0.10796847  0.95271334  0.82910773  1
  Li  Li2  1  0.60796847  0.04728666  0.82910773  1
  Li  Li3  1  0.39203153  0.95271334  0.32910773  1
  Be  Be4  1  0.59988458  0.05594742  0.19329228  1
  Be  Be5  1  0.40011542  0.94405258  0.69329228  1
  Be  Be6  1  0.90011542  0.05594742  0.69329228  1
  Be  Be7  1  0.09988458  0.94405258  0.19329228  1
  H  H8  1  0.80502220  0.63351699  0.52211109  1
  H  H9  1  0.19497780  0.36648301  0.02211109  1
  H  H10  1  0.69497780  0.63351699  0.02211109  1
  H  H11  1  0.30502220  0.36648301  0.52211109  1
  H  H12  1  0.73182562  0.33279031  0.49852173  1
  H  H13  1  0.26817438  0.66720969  0.99852173  1
  H  H14  1  0.76817438  0.33279031  0.99852173  1
  H  H15  1  0.23182562  0.66720969  0.49852173  1
  H  H16  1  0.66407427  0.60010027  0.41121362  1
  H  H17  1  0.33592573  0.39989973  0.91121362  1
  H  H18  1  0.83592573  0.60010027  0.91121362  1
  H  H19  1  0.16407427  0.39989973  0.41121362  1
  H  H20  1  0.64923859  0.57362415  0.59631647  1
  H  H21  1  0.35076141  0.42637585  0.09631647  1
  H  H22  1  0.85076141  0.57362415  0.09631647  1
  H  H23  1  0.14923859  0.42637585  0.59631647  1
  N  N24  1  0.71287114  0.53141355  0.50692152  1
  N  N25  1  0.28712886  0.46858645  0.00692152  1
  N  N26  1  0.78712886  0.53141355  0.00692152  1
  N  N27  1  0.21287114  0.46858645  0.50692152  1
  F  F28  1  0.62226386  0.98779125  0.02696714  1
  F  F29  1  0.37773614  0.01220875  0.52696714  1
  F  F30  1  0.87773614  0.98779125  0.52696714  1
  F  F31  1  0.12226386  0.01220875  0.02696714  1
  F  F32  1  0.96509422  0.76993875  0.21266887  1
  F  F33  1  0.03490578  0.23006125  0.71266887  1
  F  F34  1  0.53490578  0.76993875  0.71266887  1
  F  F35  1  0.46509422  0.23006125  0.21266887  1
  F  F36  1  0.56820925  0.79564539  0.28156923  1
  F  F37  1  0.43179075  0.20435461  0.78156923  1
  F  F38  1  0.93179075  0.79564539  0.78156923  1
  F  F39  1  0.06820925  0.20435461  0.28156923  1
  F  F40  1  0.73160085  0.19356153  0.25531033  1
  F  F41  1  0.26839915  0.80643847  0.75531033  1
  F  F42  1  0.76839915  0.19356153  0.75531033  1
  F  F43  1  0.23160085  0.80643847  0.25531033  1
