# generated using pymatgen
data_Sr4Mn2CoO9
_symmetry_space_group_name_H-M   'P 1'
_cell_length_a   9.69705004
_cell_length_b   9.69705031
_cell_length_c   7.88733435
_cell_angle_alpha   90.00000000
_cell_angle_beta   90.00000000
_cell_angle_gamma   119.99999907
_symmetry_Int_Tables_number   1
_chemical_formula_structural   Sr4Mn2CoO9
_chemical_formula_sum   'Sr12 Mn6 Co3 O27'
_cell_volume   642.30332857
_cell_formula_units_Z   3
loop_
 _symmetry_equiv_pos_site_id
 _symmetry_equiv_pos_as_xyz
  1  'x, y, z'
loop_
 _atom_site_type_symbol
 _atom_site_label
 _atom_site_symmetry_multiplicity
 _atom_site_fract_x
 _atom_site_fract_y
 _atom_site_fract_z
 _atom_site_occupancy
  Sr  Sr0  1  0.33345012  0.30954863  0.75020082  1
  Sr  Sr1  1  0.66654988  0.97609851  0.24979918  1
  Sr  Sr2  1  1.00000000  0.35751102  0.50000000  1
  Sr  Sr3  1  0.64248898  0.64248898  0.50000000  1
  Sr  Sr4  1  0.30954863  0.33345012  0.24979918  1
  Sr  Sr5  1  1.00000000  0.32759747  0.00000000  1
  Sr  Sr6  1  0.67240253  0.67240253  0.00000000  1
  Sr  Sr7  1  0.97609851  0.66654988  0.75020082  1
  Sr  Sr8  1  0.35751102  0.00000000  0.50000000  1
  Sr  Sr9  1  0.02390149  0.69045137  0.24979918  1
  Sr  Sr10  1  0.32759747  0.00000000  0.00000000  1
  Sr  Sr11  1  0.69045137  0.02390149  0.75020082  1
  Mn  Mn12  1  0.00000000  0.00000000  0.83535973  1
  Mn  Mn13  1  0.66666700  0.33333300  0.92775120  1
  Mn  Mn14  1  0.33333300  0.66666700  0.07224880  1
  Mn  Mn15  1  0.33333300  0.66666700  0.40538639  1
  Mn  Mn16  1  0.00000000  0.00000000  0.16464027  1
  Mn  Mn17  1  0.66666700  0.33333300  0.59461361  1
  Co  Co18  1  0.66666700  0.33333300  0.25897376  1
  Co  Co19  1  0.00000000  0.00000000  0.50000000  1
  Co  Co20  1  0.33333300  0.66666700  0.74102624  1
  O  O21  1  0.68219550  0.18152568  0.45565065  1
  O  O22  1  0.83507304  0.84291996  0.69785734  1
  O  O23  1  0.34871730  0.82964692  0.24044137  1
  O  O24  1  0.31780450  0.49933018  0.54434935  1
  O  O25  1  0.49933018  0.31780450  0.45565065  1
  O  O26  1  1.00000000  0.84773418  0.00000000  1
  O  O27  1  0.17035308  0.51907038  0.24044137  1
  O  O28  1  0.18295204  0.67944053  0.93412677  1
  O  O29  1  0.67944053  0.18295204  0.06587323  1
  O  O30  1  0.82964692  0.34871730  0.75955863  1
  O  O31  1  0.32055947  0.50351150  0.93412677  1
  O  O32  1  0.16492696  0.00784691  0.30214266  1
  O  O33  1  0.18152568  0.68219550  0.54434935  1
  O  O34  1  0.81847432  0.50066982  0.45565065  1
  O  O35  1  0.84773418  0.00000000  0.00000000  1
  O  O36  1  0.15226582  0.15226582  0.00000000  1
  O  O37  1  0.65128270  0.48092962  0.75955863  1
  O  O38  1  0.49648850  0.81704796  0.93412677  1
  O  O39  1  0.99215309  0.15708004  0.30214266  1
  O  O40  1  0.00784691  0.16492696  0.69785734  1
  O  O41  1  0.50351150  0.32055947  0.06587323  1
  O  O42  1  0.48092962  0.65128270  0.24044137  1
  O  O43  1  0.50066982  0.81847432  0.54434935  1
  O  O44  1  0.84291996  0.83507304  0.30214266  1
  O  O45  1  0.15708004  0.99215309  0.69785734  1
  O  O46  1  0.51907038  0.17035308  0.75955863  1
  O  O47  1  0.81704796  0.49648850  0.06587323  1
