# generated using pymatgen
data_Li3Mn8O16
_symmetry_space_group_name_H-M   'P 1'
_cell_length_a   5.97233158
_cell_length_b   23.60008721
_cell_length_c   10.14228000
_cell_angle_alpha   30.73815679
_cell_angle_beta   53.92421361
_cell_angle_gamma   59.59374980
_symmetry_Int_Tables_number   1
_chemical_formula_structural   Li3Mn8O16
_chemical_formula_sum   'Li6 Mn16 O32'
_cell_volume   590.54338803
_cell_formula_units_Z   2
loop_
 _symmetry_equiv_pos_site_id
 _symmetry_equiv_pos_as_xyz
  1  'x, y, z'
loop_
 _atom_site_type_symbol
 _atom_site_label
 _atom_site_symmetry_multiplicity
 _atom_site_fract_x
 _atom_site_fract_y
 _atom_site_fract_z
 _atom_site_occupancy
  Li  Li0  1  0.12033273  0.00000000  0.12966727  1
  Li  Li1  1  0.12176319  0.24342037  0.14139608  1
  Li  Li2  1  0.12176319  0.75657963  0.11507754  1
  Li  Li3  1  0.87823681  0.25657963  0.85860392  1
  Li  Li4  1  0.87966727  0.50000000  0.87033273  1
  Li  Li5  1  0.87823681  0.74342037  0.88492246  1
  Mn  Mn6  1  0.49772155  0.12584078  0.00059689  1
  Mn  Mn7  1  0.50242143  0.00000000  0.49926577  1
  Mn  Mn8  1  0.00000000  0.25000000  0.50000000  1
  Mn  Mn9  1  0.50227845  0.37415922  0.99940311  1
  Mn  Mn10  1  0.49839739  0.12181998  0.50796265  1
  Mn  Mn11  1  0.00095297  0.50000000  0.50073423  1
  Mn  Mn12  1  0.50000000  0.25000000  0.50000000  1
  Mn  Mn13  1  0.50160261  0.37818002  0.49203735  1
  Mn  Mn14  1  0.50160261  0.62181998  0.00475744  1
  Mn  Mn15  1  0.49757857  0.50000000  0.50073423  1
  Mn  Mn16  1  0.00000000  0.75000000  0.50000000  1
  Mn  Mn17  1  0.49839739  0.87818002  0.99524256  1
  Mn  Mn18  1  0.50227845  0.62584078  0.49604000  1
  Mn  Mn19  1  0.50000000  0.75000000  0.50000000  1
  Mn  Mn20  1  0.99904703  0.00000000  0.49926577  1
  Mn  Mn21  1  0.49772155  0.87415922  0.50396000  1
  O  O22  1  0.24528040  0.00000000  0.26791587  1
  O  O23  1  0.26287493  0.11069982  0.26572542  1
  O  O24  1  0.71888786  0.00000000  0.26791587  1
  O  O25  1  0.25937270  0.23801723  0.28873877  1
  O  O26  1  0.25666403  0.14047860  0.71237877  1
  O  O27  1  0.26853519  0.35422808  0.27300866  1
  O  O28  1  0.73385913  0.11394481  0.28825125  1
  O  O29  1  0.71108082  0.23801723  0.28873877  1
  O  O30  1  0.27490703  0.50000000  0.26185806  1
  O  O31  1  0.28891918  0.26198277  0.71126123  1
  O  O32  1  0.26614087  0.61394481  0.25596950  1
  O  O33  1  0.73146481  0.14577192  0.72699134  1
  O  O34  1  0.26614087  0.38605519  0.71174875  1
  O  O35  1  0.74333597  0.35952140  0.28762123  1
  O  O36  1  0.74062730  0.26198277  0.71126123  1
  O  O37  1  0.70137685  0.50000000  0.26185806  1
  O  O38  1  0.25937270  0.76198277  0.24080770  1
  O  O39  1  0.28111214  0.50000000  0.73208413  1
  O  O40  1  0.73712507  0.38930018  0.73427458  1
  O  O41  1  0.26853519  0.64577192  0.68992097  1
  O  O42  1  0.25666403  0.85952140  0.27429316  1
  O  O43  1  0.73712507  0.61069982  0.29147528  1
  O  O44  1  0.75471960  0.50000000  0.73208413  1
  O  O45  1  0.71108082  0.76198277  0.24080770  1
  O  O46  1  0.28891918  0.73801723  0.75919230  1
  O  O47  1  0.26287493  0.88930018  0.70852472  1
  O  O48  1  0.74333597  0.64047860  0.72570684  1
  O  O49  1  0.73146481  0.85422808  0.31007903  1
  O  O50  1  0.74062730  0.73801723  0.75919230  1
  O  O51  1  0.29862315  0.00000000  0.73814194  1
  O  O52  1  0.73385913  0.88605519  0.74403050  1
  O  O53  1  0.72509297  0.00000000  0.73814194  1
