# generated using pymatgen
data_RbCoO2
_symmetry_space_group_name_H-M   'P 1'
_cell_length_a   5.85490566
_cell_length_b   11.54196500
_cell_length_c   16.51157741
_cell_angle_alpha   90.00000000
_cell_angle_beta   90.00000000
_cell_angle_gamma   90.00000000
_symmetry_Int_Tables_number   1
_chemical_formula_structural   RbCoO2
_chemical_formula_sum   'Rb16 Co16 O32'
_cell_volume   1115.80478538
_cell_formula_units_Z   16
loop_
 _symmetry_equiv_pos_site_id
 _symmetry_equiv_pos_as_xyz
  1  'x, y, z'
loop_
 _atom_site_type_symbol
 _atom_site_label
 _atom_site_symmetry_multiplicity
 _atom_site_fract_x
 _atom_site_fract_y
 _atom_site_fract_z
 _atom_site_occupancy
  Rb  Rb0  1  0.70650811  0.74103647  0.68493998  1
  Rb  Rb1  1  0.73256968  0.99021365  0.56467289  1
  Rb  Rb2  1  0.23256968  0.99021365  0.93532711  1
  Rb  Rb3  1  0.26743032  0.00978635  0.43532711  1
  Rb  Rb4  1  0.29349189  0.24103647  0.81506002  1
  Rb  Rb5  1  0.73256968  0.50978635  0.06467289  1
  Rb  Rb6  1  0.23256968  0.50978635  0.43532711  1
  Rb  Rb7  1  0.29349189  0.25896353  0.31506002  1
  Rb  Rb8  1  0.20650811  0.74103647  0.81506002  1
  Rb  Rb9  1  0.76743032  0.49021365  0.56467289  1
  Rb  Rb10  1  0.20650811  0.75896353  0.31506002  1
  Rb  Rb11  1  0.70650811  0.75896353  0.18493998  1
  Rb  Rb12  1  0.26743032  0.49021365  0.93532711  1
  Rb  Rb13  1  0.76743032  0.00978635  0.06467289  1
  Rb  Rb14  1  0.79349189  0.25896353  0.18493998  1
  Rb  Rb15  1  0.79349189  0.24103647  0.68493998  1
  Co  Co16  1  0.79309096  0.23957895  0.93647359  1
  Co  Co17  1  0.71429457  0.99430241  0.81567717  1
  Co  Co18  1  0.28570543  0.49430241  0.68432283  1
  Co  Co19  1  0.21429457  0.50569759  0.18432283  1
  Co  Co20  1  0.28570543  0.00569759  0.18432283  1
  Co  Co21  1  0.71429457  0.50569759  0.31567717  1
  Co  Co22  1  0.29309096  0.23957895  0.56352641  1
  Co  Co23  1  0.21429457  0.99430241  0.68432283  1
  Co  Co24  1  0.20690904  0.76042105  0.06352641  1
  Co  Co25  1  0.79309096  0.26042105  0.43647359  1
  Co  Co26  1  0.70690904  0.76042105  0.43647359  1
  Co  Co27  1  0.78570543  0.00569759  0.31567717  1
  Co  Co28  1  0.29309096  0.26042105  0.06352641  1
  Co  Co29  1  0.78570543  0.49430241  0.81567717  1
  Co  Co30  1  0.70690904  0.73957895  0.93647359  1
  Co  Co31  1  0.20690904  0.73957895  0.56352641  1
  O  O32  1  0.81529427  0.91457069  0.40505225  1
  O  O33  1  0.21742394  0.66739925  0.15164418  1
  O  O34  1  0.41387494  0.48966330  0.26580863  1
  O  O35  1  0.78257606  0.33260075  0.84835582  1
  O  O36  1  0.28257606  0.16739925  0.15164418  1
  O  O37  1  0.06779766  0.28899558  0.48515049  1
  O  O38  1  0.43220234  0.78899558  0.48515049  1
  O  O39  1  0.31529427  0.58542931  0.59494775  1
  O  O40  1  0.78257606  0.16739925  0.34835582  1
  O  O41  1  0.56779766  0.28899558  0.01484951  1
  O  O42  1  0.43220234  0.71100442  0.98515049  1
  O  O43  1  0.81529427  0.58542931  0.90505225  1
  O  O44  1  0.21742394  0.83260075  0.65164418  1
  O  O45  1  0.68470573  0.41457069  0.40505225  1
  O  O46  1  0.56779766  0.21100442  0.51484951  1
  O  O47  1  0.18470573  0.41457069  0.09494775  1
  O  O48  1  0.58612506  0.98966330  0.23419137  1
  O  O49  1  0.06779766  0.21100442  0.98515049  1
  O  O50  1  0.58612506  0.51033670  0.73419137  1
  O  O51  1  0.93220234  0.71100442  0.51484951  1
  O  O52  1  0.91387494  0.01033670  0.73419137  1
  O  O53  1  0.18470573  0.08542931  0.59494775  1
  O  O54  1  0.31529427  0.91457069  0.09494775  1
  O  O55  1  0.08612506  0.98966330  0.26580863  1
  O  O56  1  0.28257606  0.33260075  0.65164418  1
  O  O57  1  0.41387494  0.01033670  0.76580863  1
  O  O58  1  0.93220234  0.78899558  0.01484951  1
  O  O59  1  0.91387494  0.48966330  0.23419137  1
  O  O60  1  0.71742394  0.83260075  0.84835582  1
  O  O61  1  0.08612506  0.51033670  0.76580863  1
  O  O62  1  0.68470573  0.08542931  0.90505225  1
  O  O63  1  0.71742394  0.66739925  0.34835582  1
