# generated using pymatgen
data_Rb2ZrO3
_symmetry_space_group_name_H-M   'P 1'
_cell_length_a   7.35007386
_cell_length_b   7.35007386
_cell_length_c   5.95713286
_cell_angle_alpha   85.91426125
_cell_angle_beta   94.08573875
_cell_angle_gamma   54.96373406
_symmetry_Int_Tables_number   1
_chemical_formula_structural   Rb2ZrO3
_chemical_formula_sum   'Rb4 Zr2 O6'
_cell_volume   260.34753243
_cell_formula_units_Z   2
loop_
 _symmetry_equiv_pos_site_id
 _symmetry_equiv_pos_as_xyz
  1  'x, y, z'
loop_
 _atom_site_type_symbol
 _atom_site_label
 _atom_site_symmetry_multiplicity
 _atom_site_fract_x
 _atom_site_fract_y
 _atom_site_fract_z
 _atom_site_occupancy
  Rb  Rb0  1  0.61538710  0.56122167  0.51721595  1
  Rb  Rb1  1  0.23725423  0.24810987  0.52191532  1
  Rb  Rb2  1  0.43877833  0.38461290  0.01721595  1
  Rb  Rb3  1  0.75189013  0.76274577  0.02191532  1
  Zr  Zr4  1  0.98804829  0.91162424  0.53722428  1
  Zr  Zr5  1  0.08837576  0.01195171  0.03722428  1
  O  O6  1  0.25908499  0.80835648  0.77259662  1
  O  O7  1  0.19164352  0.74091501  0.27259662  1
  O  O8  1  0.87123518  0.72856850  0.56828705  1
  O  O9  1  0.81879321  0.13432325  0.78056178  1
  O  O10  1  0.27143150  0.12876482  0.06828705  1
  O  O11  1  0.86567675  0.18120679  0.28056178  1
