# generated using pymatgen
data_RbSrP3(HO2)6
_symmetry_space_group_name_H-M   'P 1'
_cell_length_a   9.27780226
_cell_length_b   8.26235262
_cell_length_c   15.48121999
_cell_angle_alpha   90.00000000
_cell_angle_beta   90.00000000
_cell_angle_gamma   90.00000000
_symmetry_Int_Tables_number   1
_chemical_formula_structural   RbSrP3(HO2)6
_chemical_formula_sum   'Rb4 Sr4 P12 H24 O48'
_cell_volume   1186.73573472
_cell_formula_units_Z   4
loop_
 _symmetry_equiv_pos_site_id
 _symmetry_equiv_pos_as_xyz
  1  'x, y, z'
loop_
 _atom_site_type_symbol
 _atom_site_label
 _atom_site_symmetry_multiplicity
 _atom_site_fract_x
 _atom_site_fract_y
 _atom_site_fract_z
 _atom_site_occupancy
  Rb  Rb0  1  0.40157849  0.25000000  0.80589151  1
  Rb  Rb1  1  0.90157849  0.25000000  0.69410849  1
  Rb  Rb2  1  0.59842151  0.75000000  0.19410849  1
  Rb  Rb3  1  0.09842151  0.75000000  0.30589151  1
  Sr  Sr4  1  0.59431971  0.25000000  0.47530223  1
  Sr  Sr5  1  0.09431971  0.25000000  0.02469777  1
  Sr  Sr6  1  0.40568029  0.75000000  0.52469777  1
  Sr  Sr7  1  0.90568029  0.75000000  0.97530223  1
  P  P8  1  0.98929533  0.25000000  0.43536325  1
  P  P9  1  0.48929533  0.25000000  0.06463675  1
  P  P10  1  0.01070467  0.75000000  0.56463675  1
  P  P11  1  0.51070467  0.75000000  0.93536325  1
  P  P12  1  0.82420952  0.07517368  0.30646519  1
  P  P13  1  0.32420952  0.42482632  0.19353481  1
  P  P14  1  0.17579048  0.57517368  0.69353481  1
  P  P15  1  0.67579048  0.92482632  0.80646519  1
  P  P16  1  0.17579048  0.92482632  0.69353481  1
  P  P17  1  0.67579048  0.57517368  0.80646519  1
  P  P18  1  0.82420952  0.42482632  0.30646519  1
  P  P19  1  0.32420952  0.07517368  0.19353481  1
  H  H20  1  0.87689000  0.01160018  0.12705609  1
  H  H21  1  0.37689000  0.48839982  0.37294391  1
  H  H22  1  0.12311000  0.51160018  0.87294391  1
  H  H23  1  0.62311000  0.98839982  0.62705609  1
  H  H24  1  0.12311000  0.98839982  0.87294391  1
  H  H25  1  0.62311000  0.51160018  0.62705609  1
  H  H26  1  0.87689000  0.48839982  0.12705609  1
  H  H27  1  0.37689000  0.01160018  0.37294391  1
  H  H28  1  0.78332331  0.09879161  0.05589612  1
  H  H29  1  0.28332331  0.40120839  0.44410388  1
  H  H30  1  0.21667669  0.59879161  0.94410388  1
  H  H31  1  0.71667669  0.90120839  0.55589612  1
  H  H32  1  0.21667669  0.90120839  0.94410388  1
  H  H33  1  0.71667669  0.59879161  0.55589612  1
  H  H34  1  0.78332331  0.40120839  0.05589612  1
  H  H35  1  0.28332331  0.09879161  0.44410388  1
  H  H36  1  0.86819502  0.15230209  0.88881216  1
  H  H37  1  0.36819502  0.34769791  0.61118784  1
  H  H38  1  0.13180498  0.65230209  0.11118784  1
  H  H39  1  0.63180498  0.84769791  0.38881216  1
  H  H40  1  0.13180498  0.84769791  0.11118784  1
  H  H41  1  0.63180498  0.65230209  0.38881216  1
  H  H42  1  0.86819502  0.34769791  0.88881216  1
  H  H43  1  0.36819502  0.15230209  0.61118784  1
  O  O44  1  0.81724959  0.25000000  0.25843274  1
  O  O45  1  0.31724959  0.25000000  0.24156726  1
  O  O46  1  0.18275041  0.75000000  0.74156726  1
  O  O47  1  0.68275041  0.75000000  0.75843274  1
  O  O48  1  0.69272507  0.05256416  0.36214622  1
  O  O49  1  0.19272507  0.44743584  0.13785378  1
  O  O50  1  0.30727493  0.55256416  0.63785378  1
  O  O51  1  0.80727493  0.94743584  0.86214622  1
  O  O52  1  0.30727493  0.94743584  0.63785378  1
  O  O53  1  0.80727493  0.55256416  0.86214622  1
  O  O54  1  0.69272507  0.44743584  0.36214622  1
  O  O55  1  0.19272507  0.05256416  0.13785378  1
  O  O56  1  0.85842470  0.54819764  0.23896639  1
  O  O57  1  0.35842470  0.95180236  0.26103361  1
  O  O58  1  0.14157530  0.04819764  0.76103361  1
  O  O59  1  0.64157530  0.45180236  0.73896639  1
  O  O60  1  0.14157530  0.45180236  0.76103361  1
  O  O61  1  0.64157530  0.04819764  0.73896639  1
  O  O62  1  0.85842470  0.95180236  0.23896639  1
  O  O63  1  0.35842470  0.54819764  0.26103361  1
  O  O64  1  0.96616362  0.09737667  0.36817357  1
  O  O65  1  0.46616362  0.40262333  0.13182643  1
  O  O66  1  0.03383638  0.59737667  0.63182643  1
  O  O67  1  0.53383638  0.90262333  0.86817357  1
  O  O68  1  0.03383638  0.90262333  0.63182643  1
  O  O69  1  0.53383638  0.59737667  0.86817357  1
  O  O70  1  0.96616362  0.40262333  0.36817357  1
  O  O71  1  0.46616362  0.09737667  0.13182643  1
  O  O72  1  0.37128234  0.25000000  0.99824911  1
  O  O73  1  0.87128234  0.25000000  0.50175089  1
  O  O74  1  0.62871766  0.75000000  0.00175089  1
  O  O75  1  0.12871766  0.75000000  0.49824911  1
  O  O76  1  0.64400524  0.25000000  0.03776264  1
  O  O77  1  0.14400524  0.25000000  0.46223736  1
  O  O78  1  0.35599476  0.75000000  0.96223736  1
  O  O79  1  0.85599476  0.75000000  0.53776264  1
  O  O80  1  0.87455784  0.03789371  0.06450501  1
  O  O81  1  0.37455784  0.46210629  0.43549499  1
  O  O82  1  0.12544216  0.53789371  0.93549499  1
  O  O83  1  0.62544216  0.96210629  0.56450501  1
  O  O84  1  0.12544216  0.96210629  0.93549499  1
  O  O85  1  0.62544216  0.53789371  0.56450501  1
  O  O86  1  0.87455784  0.46210629  0.06450501  1
  O  O87  1  0.37455784  0.03789371  0.43549499  1
  O  O88  1  0.92860167  0.25000000  0.89542610  1
  O  O89  1  0.42860167  0.25000000  0.60457390  1
  O  O90  1  0.07139833  0.75000000  0.10457390  1
  O  O91  1  0.57139833  0.75000000  0.39542610  1
