# generated using pymatgen
data_Ba4La8Mn11SnO36
_symmetry_space_group_name_H-M   'P 1'
_cell_length_a   5.62733984
_cell_length_b   11.25360364
_cell_length_c   16.87007794
_cell_angle_alpha   60.26288643
_cell_angle_beta   60.27764540
_cell_angle_gamma   60.26613511
_symmetry_Int_Tables_number   1
_chemical_formula_structural   Ba4La8Mn11SnO36
_chemical_formula_sum   'Ba4 La8 Mn11 Sn1 O36'
_cell_volume   760.03208152
_cell_formula_units_Z   1
loop_
 _symmetry_equiv_pos_site_id
 _symmetry_equiv_pos_as_xyz
  1  'x, y, z'
loop_
 _atom_site_type_symbol
 _atom_site_label
 _atom_site_symmetry_multiplicity
 _atom_site_fract_x
 _atom_site_fract_y
 _atom_site_fract_z
 _atom_site_occupancy
  Ba  Ba0  1  0.74811723  0.37757240  0.58186501  1
  Ba  Ba1  1  0.74457525  0.87467071  0.25343945  1
  Ba  Ba2  1  0.75101079  0.37824114  0.91490062  1
  Ba  Ba3  1  0.75760195  0.87161719  0.91403103  1
  La  La4  1  0.23725657  0.13441879  0.08681829  1
  La  La5  1  0.25626767  0.61616237  0.08463385  1
  La  La6  1  0.24822321  0.12457636  0.41824545  1
  La  La7  1  0.24846608  0.62489484  0.41815565  1
  La  La8  1  0.25775711  0.12841535  0.74286028  1
  La  La9  1  0.74717368  0.37548252  0.25153423  1
  La  La10  1  0.25025476  0.62482176  0.74945852  1
  La  La11  1  0.75022540  0.87184105  0.58521104  1
  Mn  Mn12  1  0.99904219  0.50072304  0.00007618  1
  Mn  Mn13  1  0.99705492  0.00026751  0.33514523  1
  Mn  Mn14  1  0.00250979  0.99929022  0.66541834  1
  Mn  Mn15  1  0.00016622  0.49927152  0.33394137  1
  Mn  Mn16  1  0.49394861  0.25070333  0.17006169  1
  Mn  Mn17  1  0.00065643  0.50096995  0.66577499  1
  Mn  Mn18  1  0.50333440  0.24934229  0.49776855  1
  Mn  Mn19  1  0.50279819  0.74544535  0.16854108  1
  Mn  Mn20  1  0.49691359  0.75149912  0.50093968  1
  Mn  Mn21  1  0.50031636  0.25371432  0.83088299  1
  Mn  Mn22  1  0.50309783  0.74902272  0.83120077  1
  Sn  Sn23  1  0.00052347  0.99924891  0.00003259  1
  O  O24  1  0.20143597  0.37538144  0.10051631  1
  O  O25  1  0.26425610  0.11713366  0.25163275  1
  O  O26  1  0.25187776  0.34940741  0.26562862  1
  O  O27  1  0.74073445  0.14167137  0.07815743  1
  O  O28  1  0.23661769  0.37041527  0.42202919  1
  O  O29  1  0.22594442  0.86700241  0.09637134  1
  O  O30  1  0.69532709  0.39944374  0.09040513  1
  O  O31  1  0.30222649  0.10038539  0.58046336  1
  O  O32  1  0.30034010  0.60000607  0.25036606  1
  O  O33  1  0.79629084  0.13375153  0.23495026  1
  O  O34  1  0.25404285  0.34795392  0.59747880  1
  O  O35  1  0.24485913  0.84488047  0.27294857  1
  O  O36  1  0.75017007  0.14814989  0.40147625  1
  O  O37  1  0.75373303  0.63064125  0.07774864  1
  O  O38  1  0.23046514  0.37685976  0.75668004  1
  O  O39  1  0.19963999  0.87890625  0.43387026  1
  O  O40  1  0.70100414  0.39836828  0.41098006  1
  O  O41  1  0.68350509  0.90273115  0.08632115  1
  O  O42  1  0.28206915  0.11567298  0.91531834  1
  O  O43  1  0.26494651  0.62008418  0.58255636  1
  O  O44  1  0.80648003  0.11638542  0.56393170  1
  O  O45  1  0.80294929  0.61759142  0.23185798  1
  O  O46  1  0.24659026  0.34882666  0.93790511  1
  O  O47  1  0.24983808  0.84881918  0.60061666  1
  O  O48  1  0.75626912  0.13502656  0.73842870  1
  O  O49  1  0.74618166  0.63701154  0.41094538  1
  O  O50  1  0.23832588  0.87448009  0.75247328  1
  O  O51  1  0.69322093  0.40303617  0.74973570  1
  O  O52  1  0.68955190  0.90433444  0.42352429  1
  O  O53  1  0.27239492  0.61285545  0.91618546  1
  O  O54  1  0.79679329  0.63654551  0.56547978  1
  O  O55  1  0.81015615  0.12827496  0.89329280  1
  O  O56  1  0.25852218  0.84248859  0.93370299  1
  O  O57  1  0.74818256  0.64939369  0.73498456  1
  O  O58  1  0.70319464  0.90084993  0.74189715  1
  O  O59  1  0.80457143  0.62302122  0.89820264  1
