# generated using pymatgen
data_ZrBiO4
_symmetry_space_group_name_H-M   'P 1'
_cell_length_a   7.85883507
_cell_length_b   5.49952727
_cell_length_c   7.84413985
_cell_angle_alpha   87.19475092
_cell_angle_beta   82.16071514
_cell_angle_gamma   91.37850242
_symmetry_Int_Tables_number   1
_chemical_formula_structural   ZrBiO4
_chemical_formula_sum   'Zr4 Bi4 O16'
_cell_volume   335.29013428
_cell_formula_units_Z   4
loop_
 _symmetry_equiv_pos_site_id
 _symmetry_equiv_pos_as_xyz
  1  'x, y, z'
loop_
 _atom_site_type_symbol
 _atom_site_label
 _atom_site_symmetry_multiplicity
 _atom_site_fract_x
 _atom_site_fract_y
 _atom_site_fract_z
 _atom_site_occupancy
  Zr  Zr0  1  0.35994503  0.22105900  0.32854238  1
  Zr  Zr1  1  0.32982996  0.25711114  0.82727311  1
  Zr  Zr2  1  0.67017004  0.74288886  0.17272689  1
  Zr  Zr3  1  0.64005497  0.77894100  0.67145762  1
  Bi  Bi4  1  0.17813250  0.72325466  0.15054571  1
  Bi  Bi5  1  0.13663593  0.75476222  0.63851739  1
  Bi  Bi6  1  0.86336407  0.24523778  0.36148261  1
  Bi  Bi7  1  0.82186750  0.27674534  0.84945429  1
  O  O8  1  0.11251767  0.00852688  0.31784878  1
  O  O9  1  0.18496305  0.50023043  0.38710010  1
  O  O10  1  0.07994070  0.41072257  0.82833318  1
  O  O11  1  0.31928181  0.40268364  0.07308397  1
  O  O12  1  0.19131779  0.91801939  0.90939716  1
  O  O13  1  0.32241717  0.10188118  0.58214394  1
  O  O14  1  0.42794080  0.90536134  0.18471564  1
  O  O15  1  0.59000418  0.41533577  0.30755660  1
  O  O16  1  0.40999582  0.58466423  0.69244340  1
  O  O17  1  0.57205920  0.09463866  0.81528436  1
  O  O18  1  0.67758283  0.89811882  0.41785606  1
  O  O19  1  0.80868221  0.08198061  0.09060284  1
  O  O20  1  0.68071819  0.59731636  0.92691603  1
  O  O21  1  0.92005930  0.58927743  0.17166682  1
  O  O22  1  0.81503695  0.49976957  0.61289990  1
  O  O23  1  0.88748233  0.99147312  0.68215122  1
