# generated using pymatgen
data_CuPH6NO5
_symmetry_space_group_name_H-M   'P 1'
_cell_length_a   7.44492442
_cell_length_b   7.61870563
_cell_length_c   8.69517948
_cell_angle_alpha   90.00000000
_cell_angle_beta   94.80527068
_cell_angle_gamma   90.00000000
_symmetry_Int_Tables_number   1
_chemical_formula_structural   CuPH6NO5
_chemical_formula_sum   'Cu4 P4 H24 N4 O20'
_cell_volume   491.46305063
_cell_formula_units_Z   4
loop_
 _symmetry_equiv_pos_site_id
 _symmetry_equiv_pos_as_xyz
  1  'x, y, z'
loop_
 _atom_site_type_symbol
 _atom_site_label
 _atom_site_symmetry_multiplicity
 _atom_site_fract_x
 _atom_site_fract_y
 _atom_site_fract_z
 _atom_site_occupancy
  Cu  Cu0  1  0.57009906  0.30373025  0.03667747  1
  Cu  Cu1  1  0.92990094  0.80373025  0.96332253  1
  Cu  Cu2  1  0.42990094  0.69626975  0.96332253  1
  Cu  Cu3  1  0.07009906  0.19626975  0.03667747  1
  P  P4  1  0.67388606  0.95033151  0.19013110  1
  P  P5  1  0.82611394  0.45033151  0.80986890  1
  P  P6  1  0.32611394  0.04966849  0.80986890  1
  P  P7  1  0.17388606  0.54966849  0.19013110  1
  H  H8  1  0.64672513  0.55365959  0.20523130  1
  H  H9  1  0.85327487  0.05365959  0.79476870  1
  H  H10  1  0.35327487  0.44634041  0.79476870  1
  H  H11  1  0.14672513  0.94634041  0.20523130  1
  H  H12  1  0.82104701  0.43273970  0.20583769  1
  H  H13  1  0.67895299  0.93273970  0.79416231  1
  H  H14  1  0.17895299  0.56726030  0.79416231  1
  H  H15  1  0.32104701  0.06726030  0.20583769  1
  H  H16  1  0.60561156  0.81587688  0.46451984  1
  H  H17  1  0.89438844  0.31587688  0.53548016  1
  H  H18  1  0.39438844  0.18412312  0.53548016  1
  H  H19  1  0.10561156  0.68412312  0.46451984  1
  H  H20  1  0.42433656  0.67513384  0.44978552  1
  H  H21  1  0.07566344  0.17513384  0.55021448  1
  H  H22  1  0.57566344  0.32486616  0.55021448  1
  H  H23  1  0.92433656  0.82486616  0.44978552  1
  H  H24  1  0.47663268  0.78722651  0.61761318  1
  H  H25  1  0.02336732  0.28722651  0.38238682  1
  H  H26  1  0.52336732  0.21277349  0.38238682  1
  H  H27  1  0.97663268  0.71277349  0.61761318  1
  H  H28  1  0.61225665  0.62436386  0.56786197  1
  H  H29  1  0.88774335  0.12436386  0.43213803  1
  H  H30  1  0.38774335  0.37563614  0.43213803  1
  H  H31  1  0.11225665  0.87563614  0.56786197  1
  N  N32  1  0.52912197  0.72683593  0.52466747  1
  N  N33  1  0.97087803  0.22683593  0.47533253  1
  N  N34  1  0.47087803  0.27316407  0.47533253  1
  N  N35  1  0.02912197  0.77316407  0.52466747  1
  O  O36  1  0.68912260  0.43098554  0.22519809  1
  O  O37  1  0.81087740  0.93098554  0.77480191  1
  O  O38  1  0.31087740  0.56901446  0.77480191  1
  O  O39  1  0.18912260  0.06901446  0.22519809  1
  O  O40  1  0.52971659  0.10140595  0.16842178  1
  O  O41  1  0.97028341  0.60140595  0.83157822  1
  O  O42  1  0.47028341  0.89859405  0.83157822  1
  O  O43  1  0.02971659  0.39859405  0.16842178  1
  O  O44  1  0.74425866  0.94605627  0.36289900  1
  O  O45  1  0.75574134  0.44605627  0.63710100  1
  O  O46  1  0.25574134  0.05394373  0.63710100  1
  O  O47  1  0.24425866  0.55394373  0.36289900  1
  O  O48  1  0.67191645  0.49064622  0.91399307  1
  O  O49  1  0.82808355  0.99064622  0.08600693  1
  O  O50  1  0.32808355  0.50935378  0.08600693  1
  O  O51  1  0.17191645  0.00935378  0.91399307  1
  O  O52  1  0.41877355  0.22874436  0.85126304  1
  O  O53  1  0.08122645  0.72874436  0.14873696  1
  O  O54  1  0.58122645  0.77125564  0.14873696  1
  O  O55  1  0.91877355  0.27125564  0.85126304  1
