# generated using pymatgen
data_CoH20S2N6ClO4
_symmetry_space_group_name_H-M   'P 1'
_cell_length_a   7.19798674
_cell_length_b   13.87590212
_cell_length_c   12.88922948
_cell_angle_alpha   90.00000000
_cell_angle_beta   90.46625947
_cell_angle_gamma   90.00000000
_symmetry_Int_Tables_number   1
_chemical_formula_structural   CoH20S2N6ClO4
_chemical_formula_sum   'Co4 H80 S8 N24 Cl4 O16'
_cell_volume   1287.31504773
_cell_formula_units_Z   4
loop_
 _symmetry_equiv_pos_site_id
 _symmetry_equiv_pos_as_xyz
  1  'x, y, z'
loop_
 _atom_site_type_symbol
 _atom_site_label
 _atom_site_symmetry_multiplicity
 _atom_site_fract_x
 _atom_site_fract_y
 _atom_site_fract_z
 _atom_site_occupancy
  Co  Co0  1  0.00000000  0.00000000  0.50000000  1
  Co  Co1  1  0.00000000  0.50000000  0.00000000  1
  Co  Co2  1  0.50000000  0.50000000  0.50000000  1
  Co  Co3  1  0.50000000  0.00000000  0.00000000  1
  H  H4  1  0.02213796  0.07037709  0.67958513  1
  H  H5  1  0.97786204  0.57037709  0.82041487  1
  H  H6  1  0.97786204  0.92962291  0.32041487  1
  H  H7  1  0.02213796  0.42962291  0.17958513  1
  H  H8  1  0.12990373  0.14432739  0.59742737  1
  H  H9  1  0.87009627  0.64432739  0.90257263  1
  H  H10  1  0.87009627  0.85567261  0.40257263  1
  H  H11  1  0.12990373  0.35567261  0.09742737  1
  H  H12  1  0.90001414  0.14660191  0.60714163  1
  H  H13  1  0.09998586  0.64660191  0.89285837  1
  H  H14  1  0.09998586  0.85339809  0.39285837  1
  H  H15  1  0.90001414  0.35339809  0.10714163  1
  H  H16  1  0.30352385  0.98008414  0.60074185  1
  H  H17  1  0.69647615  0.48008414  0.89925815  1
  H  H18  1  0.69647615  0.01991586  0.39925815  1
  H  H19  1  0.30352385  0.51991586  0.10074185  1
  H  H20  1  0.27319426  0.88596666  0.52326085  1
  H  H21  1  0.72680574  0.38596666  0.97673915  1
  H  H22  1  0.72680574  0.11403334  0.47673915  1
  H  H23  1  0.27319426  0.61403334  0.02326085  1
  H  H24  1  0.15668735  0.89157647  0.63161314  1
  H  H25  1  0.84331265  0.39157647  0.86838686  1
  H  H26  1  0.84331265  0.10842353  0.36838686  1
  H  H27  1  0.15668735  0.60842353  0.13161314  1
  H  H28  1  0.74746570  0.88029412  0.54747462  1
  H  H29  1  0.25253430  0.38029412  0.95252538  1
  H  H30  1  0.25253430  0.11970588  0.45252538  1
  H  H31  1  0.74746570  0.61970588  0.04747462  1
  H  H32  1  0.86423960  0.91246559  0.65511009  1
  H  H33  1  0.13576040  0.41246559  0.84488991  1
  H  H34  1  0.13576040  0.08753441  0.34488991  1
  H  H35  1  0.86423960  0.58753441  0.15511009  1
  H  H36  1  0.70880620  0.98587534  0.60469944  1
  H  H37  1  0.29119380  0.48587534  0.89530056  1
  H  H38  1  0.29119380  0.01412466  0.39530056  1
  H  H39  1  0.70880620  0.51412466  0.10469944  1
  H  H40  1  0.50074775  0.51964133  0.69811451  1
  H  H41  1  0.49925225  0.01964133  0.80188549  1
  H  H42  1  0.49925225  0.48035867  0.30188549  1
  H  H43  1  0.50074775  0.98035867  0.19811451  1
  H  H44  1  0.66499257  0.44499654  0.66205159  1
  H  H45  1  0.33500743  0.94499654  0.83794841  1
  H  H46  1  0.33500743  0.55500346  0.33794841  1
  H  H47  1  0.66499257  0.05500346  0.16205159  1
  H  H48  1  0.44900970  0.40641364  0.67080362  1
  H  H49  1  0.55099030  0.90641364  0.82919638  1
  H  H50  1  0.55099030  0.59358636  0.32919638  1
  H  H51  1  0.44900970  0.09358636  0.17080362  1
  H  H52  1  0.19146476  0.41897062  0.53999110  1
  H  H53  1  0.80853524  0.91897062  0.96000890  1
  H  H54  1  0.80853524  0.58102938  0.46000890  1
  H  H55  1  0.19146476  0.08102938  0.03999110  1
  H  H56  1  0.33595693  0.33753757  0.49526735  1
  H  H57  1  0.66404307  0.83753757  0.00473265  1
  H  H58  1  0.66404307  0.66246243  0.50473265  1
  H  H59  1  0.33595693  0.16246243  0.99526735  1
  H  H60  1  0.22958586  0.41381980  0.41394734  1
  H  H61  1  0.77041414  0.91381980  0.08605266  1
  H  H62  1  0.77041414  0.58618020  0.58605266  1
  H  H63  1  0.22958586  0.08618020  0.91394734  1
  H  H64  1  0.70747195  0.35106033  0.52017368  1
  H  H65  1  0.29252805  0.85106033  0.97982632  1
  H  H66  1  0.29252805  0.64893967  0.47982632  1
  H  H67  1  0.70747195  0.14893967  0.02017368  1
  H  H68  1  0.62091002  0.35393464  0.40220991  1
  H  H69  1  0.37908998  0.85393464  0.09779009  1
  H  H70  1  0.37908998  0.64606536  0.59779009  1
  H  H71  1  0.62091002  0.14606536  0.90220991  1
  H  H72  1  0.79576525  0.42608629  0.43231471  1
  H  H73  1  0.20423475  0.92608629  0.06768529  1
  H  H74  1  0.20423475  0.57391371  0.56768529  1
  H  H75  1  0.79576525  0.07391371  0.93231471  1
  H  H76  1  0.06445494  0.24303620  0.79571400  1
  H  H77  1  0.93554506  0.74303620  0.70428600  1
  H  H78  1  0.93554506  0.75696380  0.20428600  1
  H  H79  1  0.06445494  0.25696380  0.29571400  1
  H  H80  1  0.85888306  0.26886647  0.77120002  1
  H  H81  1  0.14111694  0.76886647  0.72879998  1
  H  H82  1  0.14111694  0.73113353  0.22879998  1
  H  H83  1  0.85888306  0.23113353  0.27120002  1
  S  S84  1  0.42160493  0.24126412  0.77398023  1
  S  S85  1  0.57839507  0.74126412  0.72601977  1
  S  S86  1  0.57839507  0.75873588  0.22601977  1
  S  S87  1  0.42160493  0.25873588  0.27398023  1
  S  S88  1  0.50132557  0.18449780  0.63739422  1
  S  S89  1  0.49867443  0.68449780  0.86260578  1
  S  S90  1  0.49867443  0.81550220  0.36260578  1
  S  S91  1  0.50132557  0.31550220  0.13739422  1
  N  N92  1  0.01417672  0.10155186  0.60701651  1
  N  N93  1  0.98582328  0.60155186  0.89298349  1
  N  N94  1  0.98582328  0.89844814  0.39298349  1
  N  N95  1  0.01417672  0.39844814  0.10701651  1
  N  N96  1  0.20599018  0.93271661  0.57177953  1
  N  N97  1  0.79400982  0.43271661  0.92822047  1
  N  N98  1  0.79400982  0.06728339  0.42822047  1
  N  N99  1  0.20599018  0.56728339  0.07177953  1
  N  N100  1  0.81045891  0.93675000  0.58582111  1
  N  N101  1  0.18954109  0.43675000  0.91417889  1
  N  N102  1  0.18954109  0.06325000  0.41417889  1
  N  N103  1  0.81045891  0.56325000  0.08582111  1
  N  N104  1  0.52859905  0.46406116  0.64769092  1
  N  N105  1  0.47140095  0.96406116  0.85230908  1
  N  N106  1  0.47140095  0.53593884  0.35230908  1
  N  N107  1  0.52859905  0.03593884  0.14769092  1
  N  N108  1  0.29313362  0.40771689  0.48513807  1
  N  N109  1  0.70686638  0.90771689  0.01486193  1
  N  N110  1  0.70686638  0.59228311  0.51486193  1
  N  N111  1  0.29313362  0.09228311  0.98513807  1
  N  N112  1  0.67463712  0.39714725  0.46026663  1
  N  N113  1  0.32536288  0.89714725  0.03973337  1
  N  N114  1  0.32536288  0.60285275  0.53973337  1
  N  N115  1  0.67463712  0.10285275  0.96026663  1
  Cl  Cl116  1  0.99214462  0.46271414  0.67581912  1
  Cl  Cl117  1  0.00785538  0.96271414  0.82418088  1
  Cl  Cl118  1  0.00785538  0.53728586  0.32418088  1
  Cl  Cl119  1  0.99214462  0.03728586  0.17581912  1
  O  O120  1  0.51355078  0.07713524  0.64642990  1
  O  O121  1  0.48644922  0.57713524  0.85357010  1
  O  O122  1  0.48644922  0.92286476  0.35357010  1
  O  O123  1  0.51355078  0.42286476  0.14642990  1
  O  O124  1  0.36120031  0.21004475  0.55560267  1
  O  O125  1  0.63879969  0.71004475  0.94439733  1
  O  O126  1  0.63879969  0.78995525  0.44439733  1
  O  O127  1  0.36120031  0.28995525  0.05560267  1
  O  O128  1  0.68602156  0.22539064  0.60910605  1
  O  O129  1  0.31397844  0.72539064  0.89089395  1
  O  O130  1  0.31397844  0.77460936  0.39089395  1
  O  O131  1  0.68602156  0.27460936  0.10910605  1
  O  O132  1  0.94163590  0.25057246  0.82802600  1
  O  O133  1  0.05836410  0.75057246  0.67197400  1
  O  O134  1  0.05836410  0.74942754  0.17197400  1
  O  O135  1  0.94163590  0.24942754  0.32802600  1
