# generated using pymatgen
data_LiLa3Ti4O12
_symmetry_space_group_name_H-M   'P 1'
_cell_length_a   5.57009478
_cell_length_b   5.57009475
_cell_length_c   7.83156773
_cell_angle_alpha   90.46305404
_cell_angle_beta   90.46305381
_cell_angle_gamma   88.89271788
_symmetry_Int_Tables_number   1
_chemical_formula_structural   LiLa3Ti4O12
_chemical_formula_sum   'Li1 La3 Ti4 O12'
_cell_volume   242.92093296
_cell_formula_units_Z   1
loop_
 _symmetry_equiv_pos_site_id
 _symmetry_equiv_pos_as_xyz
  1  'x, y, z'
loop_
 _atom_site_type_symbol
 _atom_site_label
 _atom_site_symmetry_multiplicity
 _atom_site_fract_x
 _atom_site_fract_y
 _atom_site_fract_z
 _atom_site_occupancy
  Li  Li0  1  0.82902697  0.82902697  0.42421890  1
  La  La1  1  0.25325866  0.25325866  0.99659431  1
  La  La2  1  0.25394576  0.25394576  0.49845355  1
  La  La3  1  0.74987362  0.74987362  0.98682803  1
  Ti  Ti4  1  0.25857095  0.75033314  0.25183995  1
  Ti  Ti5  1  0.24864433  0.74849463  0.74077197  1
  Ti  Ti6  1  0.75033314  0.25857095  0.25183995  1
  Ti  Ti7  1  0.74849463  0.24864433  0.74077197  1
  O  O8  1  0.00023457  0.00023457  0.19631774  1
  O  O9  1  0.99725190  0.99725190  0.80666678  1
  O  O10  1  0.00230827  0.50040434  0.24260982  1
  O  O11  1  0.00846619  0.48655540  0.75936259  1
  O  O12  1  0.18843076  0.80220096  0.49738078  1
  O  O13  1  0.30425878  0.69939221  0.99827901  1
  O  O14  1  0.50040434  0.00230827  0.24260982  1
  O  O15  1  0.48655540  0.00846619  0.75936259  1
  O  O16  1  0.49168542  0.49168542  0.29500848  1
  O  O17  1  0.49276115  0.49276115  0.70532495  1
  O  O18  1  0.69939221  0.30425878  0.99827901  1
  O  O19  1  0.80220096  0.18843076  0.49738078  1
