# generated using pymatgen
data_BaSr2I6
_symmetry_space_group_name_H-M   'P 1'
_cell_length_a   14.47743617
_cell_length_b   14.47932776
_cell_length_c   7.53092501
_cell_angle_alpha   89.99412232
_cell_angle_beta   90.00000000
_cell_angle_gamma   119.99567856
_symmetry_Int_Tables_number   1
_chemical_formula_structural   BaSr2I6
_chemical_formula_sum   'Ba3 Sr6 I18'
_cell_volume   1367.21847968
_cell_formula_units_Z   3
loop_
 _symmetry_equiv_pos_site_id
 _symmetry_equiv_pos_as_xyz
  1  'x, y, z'
loop_
 _atom_site_type_symbol
 _atom_site_label
 _atom_site_symmetry_multiplicity
 _atom_site_fract_x
 _atom_site_fract_y
 _atom_site_fract_z
 _atom_site_occupancy
  Ba  Ba0  1  0.33338803  0.66666293  0.49421760  1
  Ba  Ba1  1  0.99995674  0.00000000  0.00000000  1
  Ba  Ba2  1  0.66672510  0.33333707  0.50578240  1
  Sr  Sr3  1  0.00006818  0.64460844  0.00004068  1
  Sr  Sr4  1  0.00003525  0.31090185  0.49991895  1
  Sr  Sr5  1  0.35545974  0.35539156  0.99995932  1
  Sr  Sr6  1  0.31080726  0.00000000  0.50000000  1
  Sr  Sr7  1  0.68913340  0.68909815  0.50008105  1
  Sr  Sr8  1  0.64450397  0.00000000  0.00000000  1
  I  I9  1  0.09458932  0.86413331  0.74853093  1
  I  I10  1  0.22103357  0.78541588  0.24265530  1
  I  I11  1  0.10560492  0.53021700  0.75159902  1
  I  I12  1  0.42435780  0.89431811  0.75175800  1
  I  I13  1  0.21476528  0.43572482  0.24264740  1
  I  I14  1  0.13592865  0.23048429  0.74841190  1
  I  I15  1  0.56435409  0.77889341  0.24258448  1
  I  I16  1  0.23045601  0.13586669  0.25146907  1
  I  I17  1  0.46983767  0.57550873  0.75192351  1
  I  I18  1  0.76945259  0.90533188  0.74862105  1
  I  I19  1  0.43561769  0.21458412  0.75734470  1
  I  I20  1  0.57538791  0.46978300  0.24840098  1
  I  I21  1  0.53003969  0.10568189  0.24824200  1
  I  I22  1  0.77904045  0.56427518  0.75735260  1
  I  I23  1  0.90544436  0.76951571  0.25158810  1
  I  I24  1  0.78546068  0.22110659  0.75741552  1
  I  I25  1  0.89432894  0.42449127  0.24807649  1
  I  I26  1  0.86412171  0.09466812  0.25137895  1
