# generated using pymatgen
data_NaV2P2(H4O7)2
_symmetry_space_group_name_H-M   'P 1'
_cell_length_a   6.36877215
_cell_length_b   6.35893928
_cell_length_c   13.44634403
_cell_angle_alpha   80.17558681
_cell_angle_beta   87.32965418
_cell_angle_gamma   89.85888896
_symmetry_Int_Tables_number   1
_chemical_formula_structural   NaV2P2(H4O7)2
_chemical_formula_sum   'Na2 V4 P4 H16 O28'
_cell_volume   535.98180741
_cell_formula_units_Z   2
loop_
 _symmetry_equiv_pos_site_id
 _symmetry_equiv_pos_as_xyz
  1  'x, y, z'
loop_
 _atom_site_type_symbol
 _atom_site_label
 _atom_site_symmetry_multiplicity
 _atom_site_fract_x
 _atom_site_fract_y
 _atom_site_fract_z
 _atom_site_occupancy
  Na  Na0  1  0.41407282  0.01140922  0.74700089  1
  Na  Na1  1  0.58592718  0.98859078  0.25299911  1
  V  V2  1  0.24103682  0.73599373  0.54640987  1
  V  V3  1  0.75896318  0.26400627  0.45359013  1
  V  V4  1  0.75595503  0.76114725  0.95238650  1
  V  V5  1  0.24404497  0.23885275  0.04761350  1
  P  P6  1  0.74845370  0.74741604  0.50204954  1
  P  P7  1  0.25154630  0.25258396  0.49795046  1
  P  P8  1  0.74982074  0.24868744  0.00185482  1
  P  P9  1  0.25017926  0.75131256  0.99814518  1
  H  H10  1  0.34861194  0.55035212  0.74240025  1
  H  H11  1  0.65138806  0.44964788  0.25759975  1
  H  H12  1  0.15751801  0.67713171  0.78543873  1
  H  H13  1  0.84248199  0.32286829  0.21456127  1
  H  H14  1  0.81962668  0.75867441  0.72876825  1
  H  H15  1  0.18037332  0.24132559  0.27123175  1
  H  H16  1  0.86485257  0.98422929  0.75586162  1
  H  H17  1  0.13514743  0.01577071  0.24413838  1
  H  H18  1  0.08002853  0.28421587  0.69282042  1
  H  H19  1  0.91997147  0.71578413  0.30717958  1
  H  H20  1  0.02033394  0.22840901  0.81117090  1
  H  H21  1  0.97966606  0.77159099  0.18882910  1
  H  H22  1  0.61721322  0.43083729  0.68969513  1
  H  H23  1  0.38278678  0.56916271  0.31030487  1
  H  H24  1  0.61576840  0.39708808  0.81000142  1
  H  H25  1  0.38423160  0.60291192  0.18999858  1
  O  O26  1  0.25198736  0.77995408  0.42352224  1
  O  O27  1  0.74801264  0.22004592  0.57647776  1
  O  O28  1  0.22114396  0.41899657  0.56990812  1
  O  O29  1  0.77885604  0.58100343  0.43009188  1
  O  O30  1  0.26316488  0.03303399  0.56887102  1
  O  O31  1  0.73683512  0.96696601  0.43112898  1
  O  O32  1  0.93325762  0.73876613  0.57448869  1
  O  O33  1  0.06674238  0.26123387  0.42551131  1
  O  O34  1  0.54624851  0.70118635  0.57101807  1
  O  O35  1  0.45375149  0.29881365  0.42898193  1
  O  O36  1  0.45069464  0.78858164  0.92788824  1
  O  O37  1  0.54930536  0.21141836  0.07211176  1
  O  O38  1  0.06677835  0.75098264  0.92642498  1
  O  O39  1  0.93322165  0.24901736  0.07357502  1
  O  O40  1  0.74840904  0.70639414  0.07395407  1
  O  O41  1  0.25159096  0.29360586  0.92604593  1
  O  O42  1  0.74065939  0.46106994  0.92464346  1
  O  O43  1  0.25934061  0.53893006  0.07535654  1
  O  O44  1  0.77654729  0.07523555  0.93482844  1
  O  O45  1  0.22345271  0.92476445  0.06517156  1
  O  O46  1  0.24895088  0.67367332  0.72495736  1
  O  O47  1  0.75104912  0.32632668  0.27504264  1
  O  O48  1  0.76982655  0.85486339  0.77440955  1
  O  O49  1  0.23017345  0.14513661  0.22559045  1
  O  O50  1  0.05230383  0.16745588  0.75031707  1
  O  O51  1  0.94769617  0.83254412  0.24968293  1
  O  O52  1  0.53624588  0.37146829  0.75172191  1
  O  O53  1  0.46375412  0.62853171  0.24827809  1
