# generated using pymatgen
data_SnP
_symmetry_space_group_name_H-M   'P 1'
_cell_length_a   3.86444752
_cell_length_b   3.86444753
_cell_length_c   4.09545913
_cell_angle_alpha   118.15098222
_cell_angle_beta   118.15098225
_cell_angle_gamma   89.99999995
_symmetry_Int_Tables_number   1
_chemical_formula_structural   SnP
_chemical_formula_sum   'Sn1 P1'
_cell_volume   45.55665988
_cell_formula_units_Z   1
loop_
 _symmetry_equiv_pos_site_id
 _symmetry_equiv_pos_as_xyz
  1  'x, y, z'
loop_
 _atom_site_type_symbol
 _atom_site_label
 _atom_site_symmetry_multiplicity
 _atom_site_fract_x
 _atom_site_fract_y
 _atom_site_fract_z
 _atom_site_occupancy
  P  P0  1  0.42995868  0.42995868  0.85991736  1
  Sn  Sn1  1  0.99804132  0.99804132  0.99608264  1
