# generated using pymatgen
data_MnO2
_symmetry_space_group_name_H-M   'P 1'
_cell_length_a   5.82339291
_cell_length_b   5.81551660
_cell_length_c   17.79260388
_cell_angle_alpha   60.58305557
_cell_angle_beta   60.66745631
_cell_angle_gamma   59.95703511
_symmetry_Int_Tables_number   1
_chemical_formula_structural   MnO2
_chemical_formula_sum   'Mn12 O24'
_cell_volume   429.91739289
_cell_formula_units_Z   12
loop_
 _symmetry_equiv_pos_site_id
 _symmetry_equiv_pos_as_xyz
  1  'x, y, z'
loop_
 _atom_site_type_symbol
 _atom_site_label
 _atom_site_symmetry_multiplicity
 _atom_site_fract_x
 _atom_site_fract_y
 _atom_site_fract_z
 _atom_site_occupancy
  Mn  Mn0  1  0.49427225  0.49614412  0.16706803  1
  Mn  Mn1  1  0.49368031  0.00413749  0.16838001  1
  Mn  Mn2  1  0.49423080  0.49551768  0.50145150  1
  Mn  Mn3  1  0.00841093  0.49750685  0.16669376  1
  Mn  Mn4  1  0.49344355  0.00705277  0.50117821  1
  Mn  Mn5  1  0.50102159  0.50399782  0.66370389  1
  Mn  Mn6  1  0.87625812  0.87792405  0.28941606  1
  Mn  Mn7  1  0.50449313  0.50462649  0.82812690  1
  Mn  Mn8  1  0.00248862  0.49623113  0.50200819  1
  Mn  Mn9  1  0.50473138  0.00575886  0.82856409  1
  Mn  Mn10  1  0.00564312  0.50469735  0.82858413  1
  Mn  Mn11  1  0.88013287  0.87776997  0.95569757  1
  O  O12  1  0.24748984  0.24905610  0.10094180  1
  O  O13  1  0.26060992  0.26227997  0.23841596  1
  O  O14  1  0.24440682  0.70557680  0.10176923  1
  O  O15  1  0.69817497  0.24912413  0.10070151  1
  O  O16  1  0.24545641  0.24976053  0.43362221  1
  O  O17  1  0.28421283  0.74778217  0.23951691  1
  O  O18  1  0.26135890  0.26364678  0.57054920  1
  O  O19  1  0.74992454  0.28382643  0.23862933  1
  O  O20  1  0.73604112  0.73746430  0.09630528  1
  O  O21  1  0.24664948  0.70322307  0.43355405  1
  O  O22  1  0.70728806  0.24373127  0.43497289  1
  O  O23  1  0.74759406  0.74865233  0.23937523  1
  O  O24  1  0.26750350  0.26766776  0.75236172  1
  O  O25  1  0.29522408  0.73599398  0.57756486  1
  O  O26  1  0.73309279  0.29689624  0.57822452  1
  O  O27  1  0.27056167  0.27065759  0.89635300  1
  O  O28  1  0.73597932  0.73806592  0.42922871  1
  O  O29  1  0.26737758  0.70844149  0.75218814  1
  O  O30  1  0.70723326  0.26865744  0.75202825  1
  O  O31  1  0.73207257  0.73602337  0.57818621  1
  O  O32  1  0.28811014  0.75637690  0.90001588  1
  O  O33  1  0.75792415  0.28636228  0.89958285  1
  O  O34  1  0.73662358  0.73696053  0.76333102  1
  O  O35  1  0.75856976  0.75802404  0.89922090  1
