# generated using pymatgen
data_MgCoSiO5
_symmetry_space_group_name_H-M   'P 1'
_cell_length_a   5.36638909
_cell_length_b   6.72849330
_cell_length_c   8.61885152
_cell_angle_alpha   89.78376040
_cell_angle_beta   36.23542877
_cell_angle_gamma   75.32392167
_symmetry_Int_Tables_number   1
_chemical_formula_structural   MgCoSiO5
_chemical_formula_sum   'Mg2 Co2 Si2 O10'
_cell_volume   166.64679334
_cell_formula_units_Z   2
loop_
 _symmetry_equiv_pos_site_id
 _symmetry_equiv_pos_as_xyz
  1  'x, y, z'
loop_
 _atom_site_type_symbol
 _atom_site_label
 _atom_site_symmetry_multiplicity
 _atom_site_fract_x
 _atom_site_fract_y
 _atom_site_fract_z
 _atom_site_occupancy
  Mg  Mg0  1  0.50679422  0.23400605  0.67251221  1
  Mg  Mg1  1  0.49957722  0.73112013  0.31505329  1
  Co  Co2  1  0.49878851  0.48631392  0.99630044  1
  Co  Co3  1  0.49891819  0.98625090  0.99551130  1
  Si  Si4  1  0.49949418  0.23525326  0.32593221  1
  Si  Si5  1  0.49684653  0.73617563  0.66654346  1
  O  O6  1  0.28183196  0.10024164  0.33079973  1
  O  O7  1  0.72669127  0.36922868  0.10931570  1
  O  O8  1  0.71377085  0.87299684  0.66076220  1
  O  O9  1  0.26890683  0.60402938  0.88486352  1
  O  O10  1  0.87389824  0.56679038  0.35232751  1
  O  O11  1  0.13491421  0.89624385  0.71423824  1
  O  O12  1  0.12462136  0.40318512  0.64015994  1
  O  O13  1  0.86378111  0.07364113  0.27594779  1
  O  O14  1  0.49777143  0.73578804  0.07906908  1
  O  O15  1  0.50012690  0.23586405  0.91267938  1
