# generated using pymatgen
data_CdCuH8(ClO)4
_symmetry_space_group_name_H-M   'P 1'
_cell_length_a   3.88422273
_cell_length_b   7.26010109
_cell_length_c   8.80244206
_cell_angle_alpha   87.42249592
_cell_angle_beta   82.39924407
_cell_angle_gamma   75.35890152
_symmetry_Int_Tables_number   1
_chemical_formula_structural   CdCuH8(ClO)4
_chemical_formula_sum   'Cd1 Cu1 H8 Cl4 O4'
_cell_volume   238.03973912
_cell_formula_units_Z   1
loop_
 _symmetry_equiv_pos_site_id
 _symmetry_equiv_pos_as_xyz
  1  'x, y, z'
loop_
 _atom_site_type_symbol
 _atom_site_label
 _atom_site_symmetry_multiplicity
 _atom_site_fract_x
 _atom_site_fract_y
 _atom_site_fract_z
 _atom_site_occupancy
  Cd  Cd0  1  0.00000000  0.00000000  0.50000000  1
  Cu  Cu1  1  0.50000000  0.00000000  0.00000000  1
  H  H2  1  0.16681231  0.32591550  0.11199676  1
  H  H3  1  0.19261556  0.43562627  0.70194664  1
  H  H4  1  0.34438999  0.34909612  0.94167731  1
  H  H5  1  0.39165521  0.57307995  0.76282221  1
  H  H6  1  0.60834479  0.42692005  0.23717779  1
  H  H7  1  0.65561001  0.65090388  0.05832269  1
  H  H8  1  0.80738444  0.56437373  0.29805336  1
  H  H9  1  0.83318769  0.67408450  0.88800324  1
  Cl  Cl10  1  0.06666785  0.94951470  0.19422662  1
  Cl  Cl11  1  0.37966239  0.25645086  0.47398540  1
  Cl  Cl12  1  0.62033761  0.74354914  0.52601460  1
  Cl  Cl13  1  0.93333215  0.05048530  0.80577338  1
  O  O14  1  0.38546813  0.27477541  0.03905968  1
  O  O15  1  0.20929626  0.50085271  0.79542824  1
  O  O16  1  0.79070374  0.49914729  0.20457176  1
  O  O17  1  0.61453187  0.72522459  0.96094032  1
