# generated using pymatgen
data_LiNb(TeO4)3
_symmetry_space_group_name_H-M   'P 1'
_cell_length_a   5.37719763
_cell_length_b   10.74643145
_cell_length_c   9.42424777
_cell_angle_alpha   28.67317056
_cell_angle_beta   52.21420785
_cell_angle_gamma   57.45395544
_symmetry_Int_Tables_number   1
_chemical_formula_structural   LiNb(TeO4)3
_chemical_formula_sum   'Li1 Nb1 Te3 O12'
_cell_volume   206.50676557
_cell_formula_units_Z   1
loop_
 _symmetry_equiv_pos_site_id
 _symmetry_equiv_pos_as_xyz
  1  'x, y, z'
loop_
 _atom_site_type_symbol
 _atom_site_label
 _atom_site_symmetry_multiplicity
 _atom_site_fract_x
 _atom_site_fract_y
 _atom_site_fract_z
 _atom_site_occupancy
  Li  Li0  1  0.76609289  0.99770792  0.77532422  1
  Nb  Nb1  1  0.98704947  0.00269295  0.00247927  1
  Te  Te2  1  0.49057751  0.50385498  0.49675483  1
  Te  Te3  1  0.50152156  0.00026911  0.49553499  1
  Te  Te4  1  0.00007794  0.49776482  0.99530184  1
  O  O5  1  0.37356470  0.31072329  0.11868794  1
  O  O6  1  0.24537264  0.10666946  0.63286105  1
  O  O7  1  0.13979386  0.31518693  0.73298686  1
  O  O8  1  0.87576864  0.18611469  0.24588878  1
  O  O9  1  0.37501499  0.80611945  0.12814327  1
  O  O10  1  0.74805559  0.37147617  0.37187384  1
  O  O11  1  0.24309401  0.62994541  0.61943379  1
  O  O12  1  0.63043225  0.19390863  0.84873856  1
  O  O13  1  0.11975252  0.80966436  0.75215521  1
  O  O14  1  0.84880037  0.69406734  0.24569995  1
  O  O15  1  0.73663765  0.88199192  0.37266338  1
  O  O16  1  0.62559439  0.69184258  0.87267324  1
