# generated using pymatgen
data_Sr2Ti6N2O11
_symmetry_space_group_name_H-M   'P 1'
_cell_length_a   3.85350246
_cell_length_b   7.80174120
_cell_length_c   9.33634344
_cell_angle_alpha   80.96620376
_cell_angle_beta   90.00968722
_cell_angle_gamma   75.77121613
_symmetry_Int_Tables_number   1
_chemical_formula_structural   Sr2Ti6N2O11
_chemical_formula_sum   'Sr2 Ti6 N2 O11'
_cell_volume   268.48190080
_cell_formula_units_Z   1
loop_
 _symmetry_equiv_pos_site_id
 _symmetry_equiv_pos_as_xyz
  1  'x, y, z'
loop_
 _atom_site_type_symbol
 _atom_site_label
 _atom_site_symmetry_multiplicity
 _atom_site_fract_x
 _atom_site_fract_y
 _atom_site_fract_z
 _atom_site_occupancy
  Sr  Sr0  1  0.54706560  0.91367216  0.77708930  1
  Sr  Sr1  1  0.44608351  0.10386605  0.24238192  1
  Ti  Ti2  1  0.12261099  0.75327920  0.09940762  1
  Ti  Ti3  1  0.16514236  0.66634285  0.42738433  1
  Ti  Ti4  1  0.23228471  0.53469110  0.76440550  1
  Ti  Ti5  1  0.76186836  0.47188203  0.23154489  1
  Ti  Ti6  1  0.83238698  0.32976993  0.56616881  1
  Ti  Ti7  1  0.87634929  0.24304704  0.92252099  1
  N  N8  1  0.23149043  0.53309369  0.24808215  1
  N  N9  1  0.83831919  0.31733610  0.09794901  1
  O  O10  1  0.06043443  0.87329157  0.29102049  1
  O  O11  1  0.12870638  0.74261288  0.61747147  1
  O  O12  1  0.16298572  0.67250535  0.90648955  1
  O  O13  1  0.63298586  0.73016883  0.10363606  1
  O  O14  1  0.69659988  0.60679353  0.43457553  1
  O  O15  1  0.75898080  0.47921044  0.75766215  1
  O  O16  1  0.29891101  0.40084075  0.57248113  1
  O  O17  1  0.36024832  0.27659429  0.87829067  1
  O  O18  1  0.86933439  0.25462671  0.38863021  1
  O  O19  1  0.93864394  0.12645368  0.69399435  1
  O  O20  1  0.99589585  0.99660083  0.99065486  1
