# generated using pymatgen
data_LaErO3
_symmetry_space_group_name_H-M   'P 1'
_cell_length_a   5.87708730
_cell_length_b   6.07692434
_cell_length_c   8.51415306
_cell_angle_alpha   90.00000000
_cell_angle_beta   90.00000000
_cell_angle_gamma   90.00000000
_symmetry_Int_Tables_number   1
_chemical_formula_structural   LaErO3
_chemical_formula_sum   'La4 Er4 O12'
_cell_volume   304.07969741
_cell_formula_units_Z   4
loop_
 _symmetry_equiv_pos_site_id
 _symmetry_equiv_pos_as_xyz
  1  'x, y, z'
loop_
 _atom_site_type_symbol
 _atom_site_label
 _atom_site_symmetry_multiplicity
 _atom_site_fract_x
 _atom_site_fract_y
 _atom_site_fract_z
 _atom_site_occupancy
  O  O0  1  0.19254618  0.69434681  0.06782820  1
  O  O1  1  0.69254618  0.80565319  0.93217180  1
  O  O2  1  0.30745382  0.19434681  0.43217180  1
  O  O3  1  0.80745382  0.30565319  0.56782820  1
  O  O4  1  0.80745382  0.30565319  0.93217180  1
  O  O5  1  0.30745382  0.19434681  0.06782820  1
  O  O6  1  0.69254618  0.80565319  0.56782820  1
  O  O7  1  0.19254618  0.69434681  0.43217180  1
  O  O8  1  0.87287100  0.05714907  0.25000000  1
  O  O9  1  0.37287100  0.44285093  0.75000000  1
  O  O10  1  0.62712900  0.55714907  0.25000000  1
  O  O11  1  0.12712900  0.94285093  0.75000000  1
  La  La12  1  0.48477038  0.95205432  0.25000000  1
  La  La13  1  0.98477038  0.54794568  0.75000000  1
  La  La14  1  0.01522962  0.45205432  0.25000000  1
  La  La15  1  0.51522962  0.04794568  0.75000000  1
  Er  Er16  1  0.00000000  0.00000000  0.00000000  1
  Er  Er17  1  0.50000000  0.50000000  0.00000000  1
  Er  Er18  1  0.50000000  0.50000000  0.50000000  1
  Er  Er19  1  0.00000000  0.00000000  0.50000000  1
