# generated using pymatgen
data_Y2HfO5
_symmetry_space_group_name_H-M   'P 1'
_cell_length_a   5.52745334
_cell_length_b   6.51959047
_cell_length_c   7.69685359
_cell_angle_alpha   69.18329222
_cell_angle_beta   90.00000000
_cell_angle_gamma   64.91824192
_symmetry_Int_Tables_number   1
_chemical_formula_structural   Y2HfO5
_chemical_formula_sum   'Y4 Hf2 O10'
_cell_volume   231.06802609
_cell_formula_units_Z   2
loop_
 _symmetry_equiv_pos_site_id
 _symmetry_equiv_pos_as_xyz
  1  'x, y, z'
loop_
 _atom_site_type_symbol
 _atom_site_label
 _atom_site_symmetry_multiplicity
 _atom_site_fract_x
 _atom_site_fract_y
 _atom_site_fract_z
 _atom_site_occupancy
  Y  Y0  1  0.63478950  0.72185846  0.74846289  1
  Y  Y1  1  0.64335204  0.72185846  0.24846289  1
  Y  Y2  1  0.35664796  0.27814154  0.75153711  1
  Y  Y3  1  0.36521050  0.27814154  0.25153711  1
  Hf  Hf4  1  0.00000000  0.00000000  0.50000000  1
  Hf  Hf5  1  0.00000000  0.00000000  0.00000000  1
  O  O6  1  0.74903306  0.85163436  0.95583882  1
  O  O7  1  0.39933258  0.85163436  0.45583882  1
  O  O8  1  0.02298920  0.65239645  0.64522615  1
  O  O9  1  0.67538564  0.34760355  0.85477385  1
  O  O10  1  0.32461436  0.65239645  0.14522615  1
  O  O11  1  0.97701080  0.34760355  0.35477385  1
  O  O12  1  0.60066742  0.14836564  0.54416118  1
  O  O13  1  0.17553409  0.00000000  0.75000000  1
  O  O14  1  0.25096694  0.14836564  0.04416118  1
  O  O15  1  0.82446591  0.00000000  0.25000000  1
