# generated using pymatgen
data_BaCaI4
_symmetry_space_group_name_H-M   'P 1'
_cell_length_a   8.03718262
_cell_length_b   8.32703182
_cell_length_c   8.34050063
_cell_angle_alpha   90.00000000
_cell_angle_beta   90.00000000
_cell_angle_gamma   100.88422408
_symmetry_Int_Tables_number   1
_chemical_formula_structural   BaCaI4
_chemical_formula_sum   'Ba2 Ca2 I8'
_cell_volume   548.15378664
_cell_formula_units_Z   2
loop_
 _symmetry_equiv_pos_site_id
 _symmetry_equiv_pos_as_xyz
  1  'x, y, z'
loop_
 _atom_site_type_symbol
 _atom_site_label
 _atom_site_symmetry_multiplicity
 _atom_site_fract_x
 _atom_site_fract_y
 _atom_site_fract_z
 _atom_site_occupancy
  Ba  Ba0  1  0.50000000  0.75000000  0.27180336  1
  Ba  Ba1  1  0.50000000  0.25000000  0.72819664  1
  Ca  Ca2  1  0.00000000  0.75000000  0.82956843  1
  Ca  Ca3  1  0.00000000  0.25000000  0.17043157  1
  I  I4  1  0.24315025  0.90730752  0.56050033  1
  I  I5  1  0.24736436  0.51108764  0.94300401  1
  I  I6  1  0.24315025  0.40730752  0.43949967  1
  I  I7  1  0.24736436  0.01108764  0.05699599  1
  I  I8  1  0.75263564  0.98891236  0.94300401  1
  I  I9  1  0.75684975  0.59269248  0.56050033  1
  I  I10  1  0.75263564  0.48891236  0.05699599  1
  I  I11  1  0.75684975  0.09269248  0.43949967  1
