# generated using pymatgen
data_YScO3
_symmetry_space_group_name_H-M   'P 1'
_cell_length_a   5.76217965
_cell_length_b   5.46844831
_cell_length_c   7.99589918
_cell_angle_alpha   90.00000000
_cell_angle_beta   90.00000000
_cell_angle_gamma   90.00000000
_symmetry_Int_Tables_number   1
_chemical_formula_structural   YScO3
_chemical_formula_sum   'Y4 Sc4 O12'
_cell_volume   251.95223497
_cell_formula_units_Z   4
loop_
 _symmetry_equiv_pos_site_id
 _symmetry_equiv_pos_as_xyz
  1  'x, y, z'
loop_
 _atom_site_type_symbol
 _atom_site_label
 _atom_site_symmetry_multiplicity
 _atom_site_fract_x
 _atom_site_fract_y
 _atom_site_fract_z
 _atom_site_occupancy
  Y  Y0  1  0.06257628  0.01965203  0.00994001  1
  Y  Y1  1  0.43742372  0.51965203  0.50994001  1
  Y  Y2  1  0.56257628  0.48034797  0.00994001  1
  Y  Y3  1  0.93742372  0.98034797  0.50994001  1
  Sc  Sc4  1  0.00055930  0.50005719  0.75932558  1
  Sc  Sc5  1  0.49944070  0.00005719  0.25932558  1
  Sc  Sc6  1  0.50055930  -0.00005719  0.75932558  1
  Sc  Sc7  1  0.99944070  0.49994281  0.25932558  1
  O  O8  1  0.05622065  0.37104958  0.50904124  1
  O  O9  1  0.19185015  0.80991460  0.32597172  1
  O  O10  1  0.19554591  0.80809563  0.69072146  1
  O  O11  1  0.30445409  0.30809563  0.19072146  1
  O  O12  1  0.30814985  0.30991460  0.82597172  1
  O  O13  1  0.44377935  0.87104958  0.00904124  1
  O  O14  1  0.55622065  0.12895042  0.50904124  1
  O  O15  1  0.69185015  0.69008540  0.32597172  1
  O  O16  1  0.69554591  0.69190437  0.69072146  1
  O  O17  1  0.80445409  0.19190437  0.19072146  1
  O  O18  1  0.80814985  0.19008540  0.82597172  1
  O  O19  1  0.94377935  0.62895042  0.00904124  1
