# generated using pymatgen
data_Zn2As2O7
_symmetry_space_group_name_H-M   'P 1'
_cell_length_a   4.86343033
_cell_length_b   5.48085855
_cell_length_c   5.48085855
_cell_angle_alpha   103.85743782
_cell_angle_beta   98.85298129
_cell_angle_gamma   98.85298129
_symmetry_Int_Tables_number   1
_chemical_formula_structural   Zn2As2O7
_chemical_formula_sum   'Zn2 As2 O7'
_cell_volume   137.35566230
_cell_formula_units_Z   1
loop_
 _symmetry_equiv_pos_site_id
 _symmetry_equiv_pos_as_xyz
  1  'x, y, z'
loop_
 _atom_site_type_symbol
 _atom_site_label
 _atom_site_symmetry_multiplicity
 _atom_site_fract_x
 _atom_site_fract_y
 _atom_site_fract_z
 _atom_site_occupancy
  Zn  Zn0  1  0.00000000  0.30733332  0.69266668  1
  Zn  Zn1  1  0.00000000  0.69266668  0.30733332  1
  As  As2  1  0.40206563  0.23146922  0.23146922  1
  As  As3  1  0.59793437  0.76853078  0.76853078  1
  O  O4  1  0.27341106  0.59350585  0.59350585  1
  O  O5  1  0.21031893  0.06594176  0.39778274  1
  O  O6  1  0.21031893  0.39778274  0.06594176  1
  O  O7  1  0.50000000  0.00000000  0.00000000  1
  O  O8  1  0.78968107  0.60221726  0.93405824  1
  O  O9  1  0.78968107  0.93405824  0.60221726  1
  O  O10  1  0.72658894  0.40649415  0.40649415  1
