# generated using pymatgen
data_Ca(ClO3)2
_symmetry_space_group_name_H-M   'P 1'
_cell_length_a   7.23157624
_cell_length_b   7.23157624
_cell_length_c   7.88822513
_cell_angle_alpha   53.71125550
_cell_angle_beta   126.28874450
_cell_angle_gamma   116.83274724
_symmetry_Int_Tables_number   1
_chemical_formula_structural   Ca(ClO3)2
_chemical_formula_sum   'Ca2 Cl4 O12'
_cell_volume   264.75314271
_cell_formula_units_Z   2
loop_
 _symmetry_equiv_pos_site_id
 _symmetry_equiv_pos_as_xyz
  1  'x, y, z'
loop_
 _atom_site_type_symbol
 _atom_site_label
 _atom_site_symmetry_multiplicity
 _atom_site_fract_x
 _atom_site_fract_y
 _atom_site_fract_z
 _atom_site_occupancy
  Ca  Ca0  1  0.83701482  0.83701482  0.75000000  1
  Ca  Ca1  1  0.16298518  0.16298518  0.25000000  1
  Cl  Cl2  1  0.30575594  0.70050433  0.79368456  1
  Cl  Cl3  1  0.29949567  0.69424406  0.29368456  1
  Cl  Cl4  1  0.70050433  0.30575594  0.70631544  1
  Cl  Cl5  1  0.69424406  0.29949567  0.20631544  1
  O  O6  1  0.08705434  0.81303051  0.62276271  1
  O  O7  1  0.23053093  0.44422525  0.87861485  1
  O  O8  1  0.40782889  0.78415117  0.63299414  1
  O  O9  1  0.18696949  0.91294566  0.12276271  1
  O  O10  1  0.55577475  0.76946907  0.37861485  1
  O  O11  1  0.21584883  0.59217111  0.13299414  1
  O  O12  1  0.78415117  0.40782889  0.86700586  1
  O  O13  1  0.44422525  0.23053093  0.62138515  1
  O  O14  1  0.81303051  0.08705434  0.87723729  1
  O  O15  1  0.59217111  0.21584883  0.36700586  1
  O  O16  1  0.76946907  0.55577475  0.12138515  1
  O  O17  1  0.91294566  0.18696949  0.37723729  1
