# generated using pymatgen
data_SrLaI5
_symmetry_space_group_name_H-M   'P 1'
_cell_length_a   9.34484715
_cell_length_b   4.68622101
_cell_length_c   15.07886088
_cell_angle_alpha   90.00000000
_cell_angle_beta   87.62173759
_cell_angle_gamma   90.00000000
_symmetry_Int_Tables_number   1
_chemical_formula_structural   SrLaI5
_chemical_formula_sum   'Sr2 La2 I10'
_cell_volume   659.76498134
_cell_formula_units_Z   2
loop_
 _symmetry_equiv_pos_site_id
 _symmetry_equiv_pos_as_xyz
  1  'x, y, z'
loop_
 _atom_site_type_symbol
 _atom_site_label
 _atom_site_symmetry_multiplicity
 _atom_site_fract_x
 _atom_site_fract_y
 _atom_site_fract_z
 _atom_site_occupancy
  Sr  Sr0  1  0.08170607  0.75000000  0.85851890  1
  Sr  Sr1  1  0.91829393  0.25000000  0.14148110  1
  La  La2  1  0.41863689  0.25000000  0.65343845  1
  La  La3  1  0.58136311  0.75000000  0.34656155  1
  I  I4  1  0.07488980  0.25000000  0.67971667  1
  I  I5  1  0.14873697  0.75000000  0.07510523  1
  I  I6  1  0.32008353  0.75000000  0.51449322  1
  I  I7  1  0.35171746  0.25000000  0.86536468  1
  I  I8  1  0.37220587  0.25000000  0.28912849  1
  I  I9  1  0.62779413  0.75000000  0.71087151  1
  I  I10  1  0.64828254  0.75000000  0.13463532  1
  I  I11  1  0.67991647  0.25000000  0.48550678  1
  I  I12  1  0.85126303  0.25000000  0.92489477  1
  I  I13  1  0.92511020  0.75000000  0.32028333  1
