# generated using pymatgen
data_LiSiBiO4
_symmetry_space_group_name_H-M   'P 1'
_cell_length_a   8.65702239
_cell_length_b   5.24969789
_cell_length_c   7.85119280
_cell_angle_alpha   90.00000000
_cell_angle_beta   90.00000000
_cell_angle_gamma   90.00000000
_symmetry_Int_Tables_number   1
_chemical_formula_structural   LiSiBiO4
_chemical_formula_sum   'Li4 Si4 Bi4 O16'
_cell_volume   356.81121346
_cell_formula_units_Z   4
loop_
 _symmetry_equiv_pos_site_id
 _symmetry_equiv_pos_as_xyz
  1  'x, y, z'
loop_
 _atom_site_type_symbol
 _atom_site_label
 _atom_site_symmetry_multiplicity
 _atom_site_fract_x
 _atom_site_fract_y
 _atom_site_fract_z
 _atom_site_occupancy
  Li  Li0  1  0.08153940  0.97468143  0.77918375  1
  Li  Li1  1  0.41846060  0.97468143  0.27918275  1
  Li  Li2  1  0.58153940  0.47468143  0.72081625  1
  Li  Li3  1  0.91846060  0.47468143  0.22081725  1
  Si  Si4  1  0.07921742  0.98634750  0.23651546  1
  Si  Si5  1  0.42078258  0.98634750  0.73651546  1
  Si  Si6  1  0.57921742  0.48634750  0.26348454  1
  Si  Si7  1  0.92078258  0.48634750  0.76348454  1
  Bi  Bi8  1  0.27139665  0.45272889  0.47538042  1
  Bi  Bi9  1  0.22860335  0.45272889  0.97538042  1
  Bi  Bi10  1  0.77139665  0.95272889  0.02461958  1
  Bi  Bi11  1  0.72860335  0.95272889  0.52461958  1
  O  O12  1  0.09133258  0.34575060  0.73146463  1
  O  O13  1  0.08074851  0.25912847  0.34331136  1
  O  O14  1  0.08176296  0.07173586  0.03283483  1
  O  O15  1  0.22105071  0.79296724  0.28038038  1
  O  O16  1  0.27894929  0.79296724  0.78038038  1
  O  O17  1  0.41823704  0.07173586  0.53283483  1
  O  O18  1  0.41925149  0.25912847  0.84331136  1
  O  O19  1  0.40866742  0.34575060  0.23146463  1
  O  O20  1  0.59133258  0.84575060  0.76853537  1
  O  O21  1  0.58074851  0.75912847  0.15668864  1
  O  O22  1  0.58176296  0.57173586  0.46716517  1
  O  O23  1  0.72105071  0.29296724  0.21961962  1
  O  O24  1  0.77894929  0.29296724  0.71961962  1
  O  O25  1  0.91823704  0.57173586  0.96716517  1
  O  O26  1  0.91925149  0.75912847  0.65668864  1
  O  O27  1  0.90866742  0.84575060  0.26853537  1
