# generated using pymatgen
data_Lu3AlO6
_symmetry_space_group_name_H-M   'P 1'
_cell_length_a   6.29869751
_cell_length_b   6.29869751
_cell_length_c   6.29869753
_cell_angle_alpha   92.01202437
_cell_angle_beta   92.01202440
_cell_angle_gamma   92.01202405
_symmetry_Int_Tables_number   1
_chemical_formula_structural   Lu3AlO6
_chemical_formula_sum   'Lu6 Al2 O12'
_cell_volume   249.41863565
_cell_formula_units_Z   2
loop_
 _symmetry_equiv_pos_site_id
 _symmetry_equiv_pos_as_xyz
  1  'x, y, z'
loop_
 _atom_site_type_symbol
 _atom_site_label
 _atom_site_symmetry_multiplicity
 _atom_site_fract_x
 _atom_site_fract_y
 _atom_site_fract_z
 _atom_site_occupancy
  Lu  Lu0  1  0.06954837  0.56246667  0.25360210  1
  Lu  Lu1  1  0.43753333  0.74639790  0.93045163  1
  Lu  Lu2  1  0.74639790  0.93045163  0.43753333  1
  Lu  Lu3  1  0.25360210  0.06954837  0.56246667  1
  Lu  Lu4  1  0.56246667  0.25360210  0.06954837  1
  Lu  Lu5  1  0.93045163  0.43753333  0.74639790  1
  Al  Al6  1  0.00000000  0.00000000  0.00000000  1
  Al  Al7  1  0.50000000  0.50000000  0.50000000  1
  O  O8  1  0.07016152  0.92383288  0.29627565  1
  O  O9  1  0.07616712  0.70372435  0.92983848  1
  O  O10  1  0.45805602  0.79509447  0.58539339  1
  O  O11  1  0.70372435  0.92983848  0.07616712  1
  O  O12  1  0.20490553  0.41460661  0.54194398  1
  O  O13  1  0.41460661  0.54194398  0.20490553  1
  O  O14  1  0.58539339  0.45805602  0.79509447  1
  O  O15  1  0.79509447  0.58539339  0.45805602  1
  O  O16  1  0.29627565  0.07016152  0.92383288  1
  O  O17  1  0.54194398  0.20490553  0.41460661  1
  O  O18  1  0.92383288  0.29627565  0.07016152  1
  O  O19  1  0.92983848  0.07616712  0.70372435  1
