# generated using pymatgen
data_Sr2Ti6N2O11
_symmetry_space_group_name_H-M   'P 1'
_cell_length_a   3.83407292
_cell_length_b   7.85381968
_cell_length_c   9.31133657
_cell_angle_alpha   82.47574919
_cell_angle_beta   89.96948929
_cell_angle_gamma   75.81715099
_symmetry_Int_Tables_number   1
_chemical_formula_structural   Sr2Ti6N2O11
_chemical_formula_sum   'Sr2 Ti6 N2 O11'
_cell_volume   269.35171158
_cell_formula_units_Z   1
loop_
 _symmetry_equiv_pos_site_id
 _symmetry_equiv_pos_as_xyz
  1  'x, y, z'
loop_
 _atom_site_type_symbol
 _atom_site_label
 _atom_site_symmetry_multiplicity
 _atom_site_fract_x
 _atom_site_fract_y
 _atom_site_fract_z
 _atom_site_occupancy
  Sr  Sr0  1  0.54611894  0.90715402  0.78019888  1
  Sr  Sr1  1  0.45261441  0.10049919  0.23060519  1
  Ti  Ti2  1  0.11776020  0.77018795  0.09141007  1
  Ti  Ti3  1  0.16933191  0.66549202  0.43705233  1
  Ti  Ti4  1  0.23936936  0.52927721  0.76504511  1
  Ti  Ti5  1  0.75744211  0.49046584  0.22315400  1
  Ti  Ti6  1  0.84153455  0.32501147  0.55715682  1
  Ti  Ti7  1  0.88574359  0.23302574  0.91114981  1
  N  N8  1  0.64668051  0.71308197  0.10960718  1
  N  N9  1  0.00257801  0.00336699  0.99887597  1
  O  O10  1  0.07134765  0.86058088  0.29927290  1
  O  O11  1  0.12562109  0.74608425  0.61434788  1
  O  O12  1  0.16473555  0.67821271  0.89923534  1
  O  O13  1  0.70610124  0.59487996  0.42806962  1
  O  O14  1  0.75861568  0.48731295  0.75150049  1
  O  O15  1  0.24987571  0.50706282  0.25505187  1
  O  O16  1  0.30334871  0.40143057  0.56947496  1
  O  O17  1  0.35882912  0.28474588  0.87940688  1
  O  O18  1  0.83956971  0.32422994  0.09403387  1
  O  O19  1  0.88811942  0.23552684  0.38930337  1
  O  O20  1  0.93126852  0.13618680  0.70353845  1
