# generated using pymatgen
data_NaMg14Sb
_symmetry_space_group_name_H-M   'P 1'
_cell_length_a   6.40629960
_cell_length_b   6.40629907
_cell_length_c   10.50391672
_cell_angle_alpha   90.00000000
_cell_angle_beta   90.00000000
_cell_angle_gamma   120.00000272
_symmetry_Int_Tables_number   1
_chemical_formula_structural   NaMg14Sb
_chemical_formula_sum   'Na1 Mg14 Sb1'
_cell_volume   373.33296920
_cell_formula_units_Z   1
loop_
 _symmetry_equiv_pos_site_id
 _symmetry_equiv_pos_as_xyz
  1  'x, y, z'
loop_
 _atom_site_type_symbol
 _atom_site_label
 _atom_site_symmetry_multiplicity
 _atom_site_fract_x
 _atom_site_fract_y
 _atom_site_fract_z
 _atom_site_occupancy
  Na  Na0  1  0.16666700  0.33333300  0.12500000  1
  Mg  Mg1  1  0.16991775  0.83495837  0.12500000  1
  Mg  Mg2  1  0.16391569  0.83195735  0.62500000  1
  Mg  Mg3  1  0.66504163  0.33008225  0.12500000  1
  Mg  Mg4  1  0.66804265  0.33608431  0.62500000  1
  Mg  Mg5  1  0.66504163  0.83495837  0.12500000  1
  Mg  Mg6  1  0.66804265  0.83195735  0.62500000  1
  Mg  Mg7  1  0.33511771  0.16488229  0.37597023  1
  Mg  Mg8  1  0.33511771  0.16488229  0.87402977  1
  Mg  Mg9  1  0.33511771  0.67023642  0.37597023  1
  Mg  Mg10  1  0.33511771  0.67023642  0.87402977  1
  Mg  Mg11  1  0.82976358  0.16488229  0.37597023  1
  Mg  Mg12  1  0.82976358  0.16488229  0.87402977  1
  Mg  Mg13  1  0.83333300  0.66666700  0.37377517  1
  Mg  Mg14  1  0.83333300  0.66666700  0.87622483  1
  Sb  Sb15  1  0.16666700  0.33333300  0.62500000  1
