# generated using pymatgen
data_Sm3Bi5O12
_symmetry_space_group_name_H-M   'P 1'
_cell_length_a   9.62744769
_cell_length_b   9.64375387
_cell_length_c   9.63233979
_cell_angle_alpha   109.48016955
_cell_angle_beta   109.40316895
_cell_angle_gamma   109.41592933
_symmetry_Int_Tables_number   1
_chemical_formula_structural   Sm3Bi5O12
_chemical_formula_sum   'Sm6 Bi10 O24'
_cell_volume   689.41167679
_cell_formula_units_Z   2
loop_
 _symmetry_equiv_pos_site_id
 _symmetry_equiv_pos_as_xyz
  1  'x, y, z'
loop_
 _atom_site_type_symbol
 _atom_site_label
 _atom_site_symmetry_multiplicity
 _atom_site_fract_x
 _atom_site_fract_y
 _atom_site_fract_z
 _atom_site_occupancy
  Sm  Sm0  1  0.96634740  0.24924321  0.21609974  1
  Sm  Sm1  1  0.00145044  0.50015413  0.99921697  1
  Sm  Sm2  1  0.78109478  0.03148253  0.75031976  1
  Sm  Sm3  1  0.50085260  0.00038107  0.00229217  1
  Sm  Sm4  1  0.49805896  0.49938746  0.49892819  1
  Sm  Sm5  1  0.00076574  0.00086708  0.49917676  1
  Bi  Bi6  1  0.72175382  0.47072737  0.24942597  1
  Bi  Bi7  1  0.75165700  0.78285397  0.03063537  1
  Bi  Bi8  1  0.75024041  0.27968119  0.52958433  1
  Bi  Bi9  1  0.47243889  0.25005331  0.72161901  1
  Bi  Bi10  1  0.53038455  0.75022648  0.28159215  1
  Bi  Bi11  1  0.25148571  0.71781995  0.47194883  1
  Bi  Bi12  1  0.24826038  0.21930568  0.97004767  1
  Bi  Bi13  1  0.21913260  0.96969514  0.25176547  1
  Bi  Bi14  1  0.28133844  0.52936849  0.74959156  1
  Bi  Bi15  1  0.02890252  0.75076434  0.77881142  1
  O  O16  1  0.01198211  0.04832504  0.27611109  1
  O  O17  1  0.76486903  0.03549136  0.49303295  1
  O  O18  1  0.74120066  0.22500005  0.26968676  1
  O  O19  1  0.98171097  0.95442772  0.72228903  1
  O  O20  1  0.51476544  0.23673304  0.96785217  1
  O  O21  1  0.76930014  0.54836435  0.53203026  1
  O  O22  1  0.73248314  0.26022640  0.77637339  1
  O  O23  1  0.45017484  0.46644853  0.22811796  1
  O  O24  1  0.46533197  0.22837412  0.45095368  1
  O  O25  1  0.78026520  0.73103638  0.26127476  1
  O  O26  1  0.72729263  0.99644480  0.95872911  1
  O  O27  1  0.23613502  0.96735092  0.51543794  1
  O  O28  1  0.48640596  0.76408254  0.03523727  1
  O  O29  1  0.22846215  0.45259740  0.46447747  1
  O  O30  1  0.27134493  0.73499383  0.22145914  1
  O  O31  1  0.54844781  0.53184358  0.76925436  1
  O  O32  1  0.96605874  0.50656501  0.23360597  1
  O  O33  1  0.53451059  0.77057867  0.55051972  1
  O  O34  1  0.27598934  0.01350150  0.04771048  1
  O  O35  1  0.22200362  0.27104549  0.73698523  1
  O  O36  1  0.03752449  0.26872230  0.00874649  1
  O  O37  1  0.03396404  0.48616214  0.76273872  1
  O  O38  1  0.26439043  0.78035908  0.73112577  1
  O  O39  1  0.95122151  0.71931333  0.98519192  1
