# generated using pymatgen
data_LiSiBiO4
_symmetry_space_group_name_H-M   'P 1'
_cell_length_a   7.96266260
_cell_length_b   18.34674031
_cell_length_c   5.03400632
_cell_angle_alpha   90.00000000
_cell_angle_beta   90.00000000
_cell_angle_gamma   90.00000000
_symmetry_Int_Tables_number   1
_chemical_formula_structural   LiSiBiO4
_chemical_formula_sum   'Li8 Si8 Bi8 O32'
_cell_volume   735.41246047
_cell_formula_units_Z   8
loop_
 _symmetry_equiv_pos_site_id
 _symmetry_equiv_pos_as_xyz
  1  'x, y, z'
loop_
 _atom_site_type_symbol
 _atom_site_label
 _atom_site_symmetry_multiplicity
 _atom_site_fract_x
 _atom_site_fract_y
 _atom_site_fract_z
 _atom_site_occupancy
  Li  Li0  1  0.01613658  0.44128417  0.72058519  1
  Li  Li1  1  0.17618682  0.85482027  0.23264831  1
  Li  Li2  1  0.32381318  0.35482027  0.73264831  1
  Li  Li3  1  0.48386342  0.94128417  0.22058519  1
  Li  Li4  1  0.51613658  0.05871583  0.72058519  1
  Li  Li5  1  0.67618682  0.64517973  0.23264831  1
  Li  Li6  1  0.82381318  0.14517973  0.73264831  1
  Li  Li7  1  0.98386342  0.55871583  0.22058519  1
  Si  Si8  1  0.21922288  0.18042173  0.71550066  1
  Si  Si9  1  0.24365219  0.43090804  0.22414053  1
  Si  Si10  1  0.25634781  0.93090804  0.72414053  1
  Si  Si11  1  0.28077712  0.68042173  0.21550066  1
  Si  Si12  1  0.71922288  0.31957827  0.71550066  1
  Si  Si13  1  0.74365219  0.06909196  0.22414053  1
  Si  Si14  1  0.75634781  0.56909196  0.72414053  1
  Si  Si15  1  0.78077712  0.81957827  0.21550066  1
  Bi  Bi16  1  0.04415876  0.26519886  0.27703904  1
  Bi  Bi17  1  0.18575596  0.04829951  0.30543310  1
  Bi  Bi18  1  0.31424404  0.54829951  0.80543310  1
  Bi  Bi19  1  0.45584124  0.76519886  0.77703904  1
  Bi  Bi20  1  0.54415876  0.23480114  0.27703904  1
  Bi  Bi21  1  0.68575596  0.45170049  0.30543310  1
  Bi  Bi22  1  0.81424404  0.95170049  0.80543310  1
  Bi  Bi23  1  0.95584124  0.73480114  0.77703904  1
  O  O24  1  0.05222371  0.14520052  0.56529283  1
  O  O25  1  0.10359105  0.47865406  0.06081251  1
  O  O26  1  0.07673135  0.96653610  0.60154325  1
  O  O27  1  0.11438699  0.63947568  0.09755228  1
  O  O28  1  0.20457689  0.18043859  0.04153926  1
  O  O29  1  0.23650414  0.44116916  0.54450330  1
  O  O30  1  0.21990766  0.26570079  0.60380298  1
  O  O31  1  0.23323462  0.34511430  0.12532477  1
  O  O32  1  0.26676538  0.84511430  0.62532477  1
  O  O33  1  0.28009234  0.76570079  0.10380298  1
  O  O34  1  0.26349586  0.94116916  0.04450330  1
  O  O35  1  0.29542311  0.68043859  0.54153926  1
  O  O36  1  0.38561301  0.13947568  0.59755228  1
  O  O37  1  0.42326865  0.46653610  0.10154325  1
  O  O38  1  0.39640895  0.97865406  0.56081251  1
  O  O39  1  0.44777629  0.64520052  0.06529283  1
  O  O40  1  0.55222371  0.35479948  0.56529283  1
  O  O41  1  0.60359105  0.02134594  0.06081251  1
  O  O42  1  0.57673135  0.53346390  0.60154325  1
  O  O43  1  0.61438699  0.86052432  0.09755228  1
  O  O44  1  0.70457689  0.31956141  0.04153926  1
  O  O45  1  0.73650414  0.05883084  0.54450330  1
  O  O46  1  0.71990766  0.23429921  0.60380298  1
  O  O47  1  0.73323462  0.15488570  0.12532477  1
  O  O48  1  0.76676538  0.65488570  0.62532477  1
  O  O49  1  0.78009234  0.73429921  0.10380298  1
  O  O50  1  0.76349586  0.55883084  0.04450330  1
  O  O51  1  0.79542311  0.81956141  0.54153926  1
  O  O52  1  0.88561301  0.36052432  0.59755228  1
  O  O53  1  0.92326865  0.03346390  0.10154325  1
  O  O54  1  0.89640895  0.52134594  0.56081251  1
  O  O55  1  0.94777629  0.85479948  0.06529283  1
