# generated using pymatgen
data_Li4Cr3Co3(SbO8)2
_symmetry_space_group_name_H-M   'P 1'
_cell_length_a   5.85456302
_cell_length_b   5.87957158
_cell_length_c   9.54492684
_cell_angle_alpha   90.00518356
_cell_angle_beta   89.39602577
_cell_angle_gamma   120.14336101
_symmetry_Int_Tables_number   1
_chemical_formula_structural   Li4Cr3Co3(SbO8)2
_chemical_formula_sum   'Li4 Cr3 Co3 Sb2 O16'
_cell_volume   284.10718346
_cell_formula_units_Z   1
loop_
 _symmetry_equiv_pos_site_id
 _symmetry_equiv_pos_as_xyz
  1  'x, y, z'
loop_
 _atom_site_type_symbol
 _atom_site_label
 _atom_site_symmetry_multiplicity
 _atom_site_fract_x
 _atom_site_fract_y
 _atom_site_fract_z
 _atom_site_occupancy
  Li  Li0  1  0.34057542  0.67028569  0.89868828  1
  Li  Li1  1  0.98851570  0.99427369  0.99183433  1
  Li  Li2  1  0.99035644  0.99519850  0.49436336  1
  Li  Li3  1  0.67219119  0.33608430  0.40295993  1
  Cr  Cr4  1  0.16962181  0.83035545  0.21458256  1
  Cr  Cr5  1  0.16968131  0.33937001  0.21455498  1
  Cr  Cr6  1  0.33889136  0.16947380  0.71424626  1
  Co  Co7  1  0.65704958  0.82853838  0.21509101  1
  Co  Co8  1  0.82858345  0.65856877  0.71452907  1
  Co  Co9  1  0.82858318  0.17000667  0.71451964  1
  Sb  Sb10  1  0.33407446  0.66704603  0.49092090  1
  Sb  Sb11  1  0.66944210  0.33471677  0.98678317  1
  O  O12  1  0.15936227  0.83521384  0.59604148  1
  O  O13  1  0.03612193  0.51808342  0.34526571  1
  O  O14  1  0.34133694  0.67068217  0.10735333  1
  O  O15  1  0.98805368  0.99407695  0.30827858  1
  O  O16  1  0.98689765  0.99346374  0.80593875  1
  O  O17  1  0.15941561  0.32420664  0.59605491  1
  O  O18  1  0.49059289  0.96628169  0.34135087  1
  O  O19  1  0.49060585  0.52434372  0.34134860  1
  O  O20  1  0.32666402  0.16333121  0.09220067  1
  O  O21  1  0.67219383  0.83607870  0.60186099  1
  O  O22  1  0.52503128  0.48856649  0.84028551  1
  O  O23  1  0.52497968  0.03643166  0.84025313  1
  O  O24  1  0.67790472  0.33893212  0.61126462  1
  O  O25  1  0.83324535  0.67106497  0.09681544  1
  O  O26  1  0.96679947  0.48341958  0.83363670  1
  O  O27  1  0.83322884  0.16220406  0.09682022  1
