# generated using pymatgen
data_Na3Cu5O4
_symmetry_space_group_name_H-M   'P 1'
_cell_length_a   8.50109424
_cell_length_b   7.02690188
_cell_length_c   13.34021139
_cell_angle_alpha   90.00000000
_cell_angle_beta   106.81183673
_cell_angle_gamma   90.00000000
_symmetry_Int_Tables_number   1
_chemical_formula_structural   Na3Cu5O4
_chemical_formula_sum   'Na12 Cu20 O16'
_cell_volume   762.83610029
_cell_formula_units_Z   4
loop_
 _symmetry_equiv_pos_site_id
 _symmetry_equiv_pos_as_xyz
  1  'x, y, z'
loop_
 _atom_site_type_symbol
 _atom_site_label
 _atom_site_symmetry_multiplicity
 _atom_site_fract_x
 _atom_site_fract_y
 _atom_site_fract_z
 _atom_site_occupancy
  Na  Na0  1  0.08969470  0.35845234  0.58194019  1
  Na  Na1  1  0.33700866  0.07914958  0.90747284  1
  Na  Na2  1  0.26137008  0.75103415  0.57318549  1
  Na  Na3  1  0.08969470  0.14154766  0.08194019  1
  Na  Na4  1  0.33700866  0.42085042  0.40747284  1
  Na  Na5  1  0.26137008  0.74896585  0.07318549  1
  Na  Na6  1  0.73862992  0.25103415  0.92681451  1
  Na  Na7  1  0.66299134  0.57914958  0.59252716  1
  Na  Na8  1  0.91030530  0.85845234  0.91805981  1
  Na  Na9  1  0.73862992  0.24896585  0.42681451  1
  Na  Na10  1  0.66299134  0.92085042  0.09252716  1
  Na  Na11  1  0.91030530  0.64154766  0.41805981  1
  Cu  Cu12  1  0.04959001  0.41725751  0.89860600  1
  Cu  Cu13  1  0.05996082  0.66454334  0.74530116  1
  Cu  Cu14  1  0.04959001  0.08274249  0.39860600  1
  Cu  Cu15  1  0.31411806  0.54198905  0.88564823  1
  Cu  Cu16  1  0.05996082  0.83545666  0.24530116  1
  Cu  Cu17  1  0.44214605  0.44925483  0.73246188  1
  Cu  Cu18  1  0.31411806  0.95801095  0.38564823  1
  Cu  Cu19  1  0.58192431  0.68728135  0.89866946  1
  Cu  Cu20  1  0.41807569  0.18728135  0.60133054  1
  Cu  Cu21  1  0.55785395  0.94925483  0.76753812  1
  Cu  Cu22  1  0.44214605  0.05074517  0.23246188  1
  Cu  Cu23  1  0.58192431  0.81271865  0.39866946  1
  Cu  Cu24  1  0.41807569  0.31271865  0.10133054  1
  Cu  Cu25  1  0.68588194  0.04198905  0.61435177  1
  Cu  Cu26  1  0.55785395  0.55074517  0.26753812  1
  Cu  Cu27  1  0.94003918  0.16454334  0.75469884  1
  Cu  Cu28  1  0.68588194  0.45801095  0.11435177  1
  Cu  Cu29  1  0.95040999  0.91725751  0.60139400  1
  Cu  Cu30  1  0.94003918  0.33545666  0.25469884  1
  Cu  Cu31  1  0.95040999  0.58274249  0.10139400  1
  O  O32  1  0.99387736  0.16534906  0.89868202  1
  O  O33  1  0.12107707  0.66788823  0.89248248  1
  O  O34  1  0.99387736  0.33465094  0.39868202  1
  O  O35  1  0.12107707  0.83211177  0.39248248  1
  O  O36  1  0.51083292  0.43434123  0.87724102  1
  O  O37  1  0.37560836  0.44592428  0.58742451  1
  O  O38  1  0.62439164  0.94592428  0.91257549  1
  O  O39  1  0.48916708  0.93434123  0.62275898  1
  O  O40  1  0.51083292  0.06565877  0.37724102  1
  O  O41  1  0.37560836  0.05407572  0.08742451  1
  O  O42  1  0.62439164  0.55407572  0.41257549  1
  O  O43  1  0.48916708  0.56565877  0.12275898  1
  O  O44  1  0.87892293  0.16788823  0.60751752  1
  O  O45  1  0.00612264  0.66534906  0.60131798  1
  O  O46  1  0.87892293  0.33211177  0.10751752  1
  O  O47  1  0.00612264  0.83465094  0.10131798  1
