# generated using pymatgen
data_Li3FeB4O9
_symmetry_space_group_name_H-M   'P 1'
_cell_length_a   5.71332487
_cell_length_b   8.71526495
_cell_length_c   6.78721050
_cell_angle_alpha   90.00000000
_cell_angle_beta   101.47918582
_cell_angle_gamma   90.00000000
_symmetry_Int_Tables_number   1
_chemical_formula_structural   Li3FeB4O9
_chemical_formula_sum   'Li6 Fe2 B8 O18'
_cell_volume   331.19640043
_cell_formula_units_Z   2
loop_
 _symmetry_equiv_pos_site_id
 _symmetry_equiv_pos_as_xyz
  1  'x, y, z'
loop_
 _atom_site_type_symbol
 _atom_site_label
 _atom_site_symmetry_multiplicity
 _atom_site_fract_x
 _atom_site_fract_y
 _atom_site_fract_z
 _atom_site_occupancy
  Li  Li0  1  0.23281918  0.56325612  0.15947560  1
  Li  Li1  1  0.23281918  0.93674388  0.15947560  1
  Li  Li2  1  0.42295905  0.25000000  0.49086361  1
  Li  Li3  1  0.57704095  0.75000000  0.50913639  1
  Li  Li4  1  0.76718082  0.06325612  0.84052440  1
  Li  Li5  1  0.76718082  0.43674388  0.84052440  1
  Fe  Fe6  1  0.24994407  0.25000000  0.87987613  1
  Fe  Fe7  1  0.75005593  0.75000000  0.12012387  1
  B  B8  1  0.02367715  0.25000000  0.22837299  1
  B  B9  1  0.13038069  0.75000000  0.46743069  1
  B  B10  1  0.27378905  0.54759801  0.72122332  1
  B  B11  1  0.27378905  0.95240199  0.72122332  1
  B  B12  1  0.72621095  0.04759801  0.27877668  1
  B  B13  1  0.72621095  0.45240199  0.27877668  1
  B  B14  1  0.86961931  0.25000000  0.53256931  1
  B  B15  1  0.97632285  0.75000000  0.77162701  1
  O  O16  1  0.12564080  0.89311861  0.84416119  1
  O  O17  1  0.12564080  0.60688139  0.84416119  1
  O  O18  1  0.08092243  0.25000000  0.44670412  1
  O  O19  1  0.07838573  0.75000000  0.24837379  1
  O  O20  1  0.28669492  0.61291810  0.53918515  1
  O  O21  1  0.28669492  0.88708190  0.53918515  1
  O  O22  1  0.24277487  0.25000000  0.15267746  1
  O  O23  1  0.41053321  0.08088167  0.78574909  1
  O  O24  1  0.41053321  0.41911833  0.78574909  1
  O  O25  1  0.58946679  0.91911833  0.21425091  1
  O  O26  1  0.58946679  0.58088167  0.21425091  1
  O  O27  1  0.75722513  0.75000000  0.84732254  1
  O  O28  1  0.71330508  0.11291810  0.46081485  1
  O  O29  1  0.71330508  0.38708190  0.46081485  1
  O  O30  1  0.92161427  0.25000000  0.75162621  1
  O  O31  1  0.91907757  0.75000000  0.55329588  1
  O  O32  1  0.87435920  0.10688139  0.15583881  1
  O  O33  1  0.87435920  0.39311861  0.15583881  1
