# generated using pymatgen
data_LiMnPO5
_symmetry_space_group_name_H-M   'P 1'
_cell_length_a   7.02799841
_cell_length_b   10.24925303
_cell_length_c   4.96714361
_cell_angle_alpha   90.00000000
_cell_angle_beta   108.40701260
_cell_angle_gamma   90.00000000
_symmetry_Int_Tables_number   1
_chemical_formula_structural   LiMnPO5
_chemical_formula_sum   'Li4 Mn4 P4 O20'
_cell_volume   339.48639010
_cell_formula_units_Z   4
loop_
 _symmetry_equiv_pos_site_id
 _symmetry_equiv_pos_as_xyz
  1  'x, y, z'
loop_
 _atom_site_type_symbol
 _atom_site_label
 _atom_site_symmetry_multiplicity
 _atom_site_fract_x
 _atom_site_fract_y
 _atom_site_fract_z
 _atom_site_occupancy
  Li  Li0  1  0.16626771  0.09678178  0.12672284  1
  Li  Li1  1  0.33373229  0.59678178  0.37327716  1
  Li  Li2  1  0.66626771  0.40321822  0.62672284  1
  Li  Li3  1  0.83373229  0.90321822  0.87327716  1
  Mn  Mn4  1  0.18065453  0.92854273  0.62698339  1
  Mn  Mn5  1  0.31934547  0.42854273  0.87301661  1
  Mn  Mn6  1  0.68065453  0.57145727  0.12698339  1
  Mn  Mn7  1  0.81934547  0.07145727  0.37301661  1
  P  P8  1  0.02951479  0.34921657  0.22072346  1
  P  P9  1  0.52951479  0.15078343  0.72072346  1
  P  P10  1  0.47048521  0.84921657  0.27927654  1
  P  P11  1  0.97048521  0.65078343  0.77927654  1
  O  O12  1  0.02405021  0.78091600  0.67061950  1
  O  O13  1  0.14432280  0.31147504  0.00910077  1
  O  O14  1  0.00007829  0.96157733  0.26759265  1
  O  O15  1  0.16340492  0.57429333  0.94591954  1
  O  O16  1  0.16312336  0.43280275  0.46609326  1
  O  O17  1  0.33659508  0.07429333  0.55408046  1
  O  O18  1  0.35567720  0.81147504  0.49089923  1
  O  O19  1  0.47594979  0.28091600  0.82938050  1
  O  O20  1  0.33687664  0.93280275  0.03390674  1
  O  O21  1  0.50007829  0.53842267  0.76759265  1
  O  O22  1  0.49992171  0.46157733  0.23240735  1
  O  O23  1  0.66312336  0.06719725  0.96609326  1
  O  O24  1  0.52405021  0.71908400  0.17061950  1
  O  O25  1  0.64432280  0.18852496  0.50910077  1
  O  O26  1  0.66340492  0.92570667  0.44591954  1
  O  O27  1  0.83687664  0.56719725  0.53390674  1
  O  O28  1  0.83659508  0.42570667  0.05408046  1
  O  O29  1  0.99992171  0.03842267  0.73240735  1
  O  O30  1  0.85567720  0.68852496  0.99089923  1
  O  O31  1  0.97594979  0.21908400  0.32938050  1
