# generated using pymatgen
data_Co2CuO4
_symmetry_space_group_name_H-M   'P 1'
_cell_length_a   5.82890580
_cell_length_b   5.82890580
_cell_length_c   5.82890580
_cell_angle_alpha   59.95147404
_cell_angle_beta   90.30833584
_cell_angle_gamma   120.30799919
_symmetry_Int_Tables_number   1
_chemical_formula_structural   Co2CuO4
_chemical_formula_sum   'Co4 Cu2 O8'
_cell_volume   139.65765260
_cell_formula_units_Z   2
loop_
 _symmetry_equiv_pos_site_id
 _symmetry_equiv_pos_as_xyz
  1  'x, y, z'
loop_
 _atom_site_type_symbol
 _atom_site_label
 _atom_site_symmetry_multiplicity
 _atom_site_fract_x
 _atom_site_fract_y
 _atom_site_fract_z
 _atom_site_occupancy
  Co  Co0  1  0.00449883  0.00000000  0.99550117  1
  Co  Co1  1  0.62500000  0.25000000  0.62500000  1
  Co  Co2  1  0.24550117  0.50000000  0.25449883  1
  Co  Co3  1  0.12500000  0.75000000  0.62500000  1
  Cu  Cu4  1  0.62500000  0.25000000  0.12500000  1
  Cu  Cu5  1  0.62500000  0.75000000  0.62500000  1
  O  O6  1  0.83947428  0.23263047  0.39315720  1
  O  O7  1  0.37965318  0.22107121  0.39927561  1
  O  O8  1  0.87034682  0.27892879  0.85072439  1
  O  O9  1  0.87034682  0.72107121  0.40858198  1
  O  O10  1  0.87578767  0.73263047  0.85684280  1
  O  O11  1  0.41052572  0.26736953  0.85684280  1
  O  O12  1  0.37421233  0.76736953  0.39315720  1
  O  O13  1  0.37965318  0.77892879  0.84141802  1
