# generated using pymatgen
data_BiOF
_symmetry_space_group_name_H-M   'P 1'
_cell_length_a   12.08676486
_cell_length_b   5.82826042
_cell_length_c   11.90167432
_cell_angle_alpha   90.00000000
_cell_angle_beta   90.00000000
_cell_angle_gamma   90.00000000
_symmetry_Int_Tables_number   1
_chemical_formula_structural   BiOF
_chemical_formula_sum   'Bi16 O16 F16'
_cell_volume   838.41122471
_cell_formula_units_Z   16
loop_
 _symmetry_equiv_pos_site_id
 _symmetry_equiv_pos_as_xyz
  1  'x, y, z'
loop_
 _atom_site_type_symbol
 _atom_site_label
 _atom_site_symmetry_multiplicity
 _atom_site_fract_x
 _atom_site_fract_y
 _atom_site_fract_z
 _atom_site_occupancy
  Bi  Bi0  1  0.11477034  0.21020931  0.01327908  1
  Bi  Bi1  1  0.11477034  0.28979069  0.51327908  1
  Bi  Bi2  1  0.14137534  0.71728081  0.72770623  1
  Bi  Bi3  1  0.14137534  0.78271919  0.22770623  1
  Bi  Bi4  1  0.35862466  0.28271919  0.22770623  1
  Bi  Bi5  1  0.35862466  0.21728081  0.72770623  1
  Bi  Bi6  1  0.38522966  0.78979069  0.51327908  1
  Bi  Bi7  1  0.38522966  0.71020931  0.01327908  1
  Bi  Bi8  1  0.61477034  0.21020931  0.48672092  1
  Bi  Bi9  1  0.61477034  0.28979069  0.98672092  1
  Bi  Bi10  1  0.64137534  0.78271919  0.27229377  1
  Bi  Bi11  1  0.64137534  0.71728081  0.77229377  1
  Bi  Bi12  1  0.85862466  0.21728081  0.77229377  1
  Bi  Bi13  1  0.85862466  0.28271919  0.27229377  1
  Bi  Bi14  1  0.88522966  0.78979069  0.98672092  1
  Bi  Bi15  1  0.88522966  0.71020931  0.48672092  1
  O  O16  1  0.04165673  0.90695524  0.08716587  1
  O  O17  1  0.04165673  0.59304476  0.58716587  1
  O  O18  1  0.23464099  0.07136098  0.14470170  1
  O  O19  1  0.23464099  0.42863902  0.64470170  1
  O  O20  1  0.26535901  0.57136098  0.14470170  1
  O  O21  1  0.26535901  0.92863902  0.64470170  1
  O  O22  1  0.45834327  0.09304476  0.58716587  1
  O  O23  1  0.45834327  0.40695524  0.08716587  1
  O  O24  1  0.54165673  0.90695524  0.41283413  1
  O  O25  1  0.54165673  0.59304476  0.91283413  1
  O  O26  1  0.73464099  0.07136098  0.35529830  1
  O  O27  1  0.73464099  0.42863902  0.85529830  1
  O  O28  1  0.76535901  0.92863902  0.85529830  1
  O  O29  1  0.76535901  0.57136098  0.35529830  1
  O  O30  1  0.95834327  0.09304476  0.91283413  1
  O  O31  1  0.95834327  0.40695524  0.41283413  1
  F  F32  1  0.02967298  0.44950350  0.15745424  1
  F  F33  1  0.02967298  0.05049650  0.65745424  1
  F  F34  1  0.22147113  0.48860519  0.38892407  1
  F  F35  1  0.22147113  0.01139481  0.88892407  1
  F  F36  1  0.27852887  0.51139481  0.88892407  1
  F  F37  1  0.27852887  0.98860519  0.38892407  1
  F  F38  1  0.47032702  0.94950350  0.15745424  1
  F  F39  1  0.47032702  0.55049650  0.65745424  1
  F  F40  1  0.52967298  0.44950350  0.34254576  1
  F  F41  1  0.52967298  0.05049650  0.84254576  1
  F  F42  1  0.72147113  0.01139481  0.61107593  1
  F  F43  1  0.72147113  0.48860519  0.11107593  1
  F  F44  1  0.77852887  0.51139481  0.61107593  1
  F  F45  1  0.77852887  0.98860519  0.11107593  1
  F  F46  1  0.97032702  0.94950350  0.34254576  1
  F  F47  1  0.97032702  0.55049650  0.84254576  1
