# generated using pymatgen
data_Bi5O4F7
_symmetry_space_group_name_H-M   'P 1'
_cell_length_a   11.69791269
_cell_length_b   14.69083715
_cell_length_c   5.77797499
_cell_angle_alpha   78.65873715
_cell_angle_beta   90.00000000
_cell_angle_gamma   90.00000000
_symmetry_Int_Tables_number   1
_chemical_formula_structural   Bi5O4F7
_chemical_formula_sum   'Bi20 O16 F28'
_cell_volume   973.56812063
_cell_formula_units_Z   4
loop_
 _symmetry_equiv_pos_site_id
 _symmetry_equiv_pos_as_xyz
  1  'x, y, z'
loop_
 _atom_site_type_symbol
 _atom_site_label
 _atom_site_symmetry_multiplicity
 _atom_site_fract_x
 _atom_site_fract_y
 _atom_site_fract_z
 _atom_site_occupancy
  Bi  Bi0  1  0.14318576  0.90172130  0.29816513  1
  Bi  Bi1  1  0.14545285  0.09938601  0.69246203  1
  Bi  Bi2  1  0.13633530  0.50041988  0.47295188  1
  Bi  Bi3  1  0.14740759  0.70184000  0.96907390  1
  Bi  Bi4  1  0.14287459  0.29531143  0.13884238  1
  Bi  Bi5  1  0.35712541  0.70468857  0.43415281  1
  Bi  Bi6  1  0.35259241  0.29816000  0.67091390  1
  Bi  Bi7  1  0.36366470  0.49958012  0.97337176  1
  Bi  Bi8  1  0.35681424  0.09827870  0.19988642  1
  Bi  Bi9  1  0.35454715  0.90061399  0.79184804  1
  Bi  Bi10  1  0.64318576  0.09827870  0.69988642  1
  Bi  Bi11  1  0.64545285  0.90061399  0.29184804  1
  Bi  Bi12  1  0.63633530  0.49958012  0.47337176  1
  Bi  Bi13  1  0.64287459  0.70468857  0.93415281  1
  Bi  Bi14  1  0.64740759  0.29816000  0.17091390  1
  Bi  Bi15  1  0.85259241  0.70184000  0.46907390  1
  Bi  Bi16  1  0.85712541  0.29531143  0.63884238  1
  Bi  Bi17  1  0.86366470  0.50041988  0.97295188  1
  Bi  Bi18  1  0.85454715  0.09938601  0.19246203  1
  Bi  Bi19  1  0.85681424  0.90172130  0.79816513  1
  O  O20  1  0.23981394  0.20096312  0.93175534  1
  O  O21  1  0.24442645  0.79515961  0.63000626  1
  O  O22  1  0.23783703  0.40425373  0.80905551  1
  O  O23  1  0.25000000  0.00000000  0.49638719  1
  O  O24  1  0.25000000  0.00000000  0.99902580  1
  O  O25  1  0.26216297  0.59574627  0.21330924  1
  O  O26  1  0.25557355  0.20484039  0.42516687  1
  O  O27  1  0.26018606  0.79903688  0.13271745  1
  O  O28  1  0.73981394  0.79903688  0.63271745  1
  O  O29  1  0.74442645  0.20484039  0.92516687  1
  O  O30  1  0.73783703  0.59574627  0.71330924  1
  O  O31  1  0.75000000  0.00000000  0.49902580  1
  O  O32  1  0.75000000  0.00000000  0.99638719  1
  O  O33  1  0.76216297  0.40425373  0.30905551  1
  O  O34  1  0.76018606  0.20096312  0.43175534  1
  O  O35  1  0.75557355  0.79515961  0.13000626  1
  F  F36  1  0.99806277  0.99971304  0.08534099  1
  F  F37  1  0.00193723  0.99971304  0.58534099  1
  F  F38  1  0.02849676  0.17338989  0.31630523  1
  F  F39  1  0.03467651  0.82840362  0.00851405  1
  F  F40  1  0.05977926  0.34406557  0.48465719  1
  F  F41  1  0.05631591  0.65729595  0.34508769  1
  F  F42  1  0.06059426  0.49900496  0.10484865  1
  F  F43  1  0.23172880  0.59830870  0.71006937  1
  F  F44  1  0.26827120  0.40169130  0.30837808  1
  F  F45  1  0.43940574  0.50099504  0.60385261  1
  F  F46  1  0.44368409  0.34270405  0.00238464  1
  F  F47  1  0.44022074  0.65593443  0.82872276  1
  F  F48  1  0.46532349  0.17159638  0.83691767  1
  F  F49  1  0.47150324  0.82661011  0.48969512  1
  F  F50  1  0.50193723  0.00028696  0.08505403  1
  F  F51  1  0.49806277  0.00028696  0.58505403  1
  F  F52  1  0.52849676  0.82661011  0.98969512  1
  F  F53  1  0.53467651  0.17159638  0.33691767  1
  F  F54  1  0.55631591  0.34270405  0.50238464  1
  F  F55  1  0.55977926  0.65593443  0.32872276  1
  F  F56  1  0.56059426  0.50099504  0.10385261  1
  F  F57  1  0.73172880  0.40169130  0.80837808  1
  F  F58  1  0.76827120  0.59830870  0.21006937  1
  F  F59  1  0.93940574  0.49900496  0.60484865  1
  F  F60  1  0.94022074  0.34406557  0.98465719  1
  F  F61  1  0.94368409  0.65729595  0.84508769  1
  F  F62  1  0.96532349  0.82840362  0.50851405  1
  F  F63  1  0.97150324  0.17338989  0.81630523  1
