# generated using pymatgen
data_Na4SnH32(SeO4)4
_symmetry_space_group_name_H-M   'P 1'
_cell_length_a   8.49651336
_cell_length_b   16.61370570
_cell_length_c   8.82256428
_cell_angle_alpha   90.00000000
_cell_angle_beta   92.05806052
_cell_angle_gamma   90.00000000
_symmetry_Int_Tables_number   1
_chemical_formula_structural   Na4SnH32(SeO4)4
_chemical_formula_sum   'Na8 Sn2 H64 Se8 O32'
_cell_volume   1244.57724466
_cell_formula_units_Z   2
loop_
 _symmetry_equiv_pos_site_id
 _symmetry_equiv_pos_as_xyz
  1  'x, y, z'
loop_
 _atom_site_type_symbol
 _atom_site_label
 _atom_site_symmetry_multiplicity
 _atom_site_fract_x
 _atom_site_fract_y
 _atom_site_fract_z
 _atom_site_occupancy
  Na  Na0  1  0.00000000  0.00000000  0.00000000  1
  Na  Na1  1  0.00000000  0.50000000  0.00000000  1
  Na  Na2  1  0.46993713  0.63567553  0.68228180  1
  Na  Na3  1  0.46993713  0.86432447  0.68228180  1
  Na  Na4  1  0.50000000  0.00000000  0.00000000  1
  Na  Na5  1  0.50000000  0.50000000  0.00000000  1
  Na  Na6  1  0.53006287  0.13567553  0.31771820  1
  Na  Na7  1  0.53006287  0.36432447  0.31771820  1
  Sn  Sn8  1  0.06253759  0.25000000  0.64538681  1
  Sn  Sn9  1  0.93746241  0.75000000  0.35461319  1
  H  H10  1  0.00668178  0.14161976  0.20391734  1
  H  H11  1  0.00668178  0.35838024  0.20391734  1
  H  H12  1  0.03649076  0.56147311  0.30936520  1
  H  H13  1  0.03649076  0.93852689  0.30936520  1
  H  H14  1  0.01934868  0.17062510  0.03486334  1
  H  H15  1  0.01934868  0.32937490  0.03486334  1
  H  H16  1  0.18412636  0.75000000  0.67072030  1
  H  H17  1  0.20644954  0.50132186  0.56808435  1
  H  H18  1  0.20644954  0.99867814  0.56808435  1
  H  H19  1  0.15919355  0.60828508  0.21882667  1
  H  H20  1  0.15919355  0.89171492  0.21882667  1
  H  H21  1  0.16095772  0.58951054  0.59850267  1
  H  H22  1  0.16095772  0.91048946  0.59850267  1
  H  H23  1  0.24916058  0.10128340  0.88043602  1
  H  H24  1  0.24916058  0.39871660  0.88043602  1
  H  H25  1  0.24897198  0.01397880  0.80593286  1
  H  H26  1  0.24897198  0.48602120  0.80593286  1
  H  H27  1  0.27191097  0.25000000  0.29755753  1
  H  H28  1  0.26976545  0.63945440  0.94395648  1
  H  H29  1  0.26976545  0.86054560  0.94395648  1
  H  H30  1  0.26849996  0.75000000  0.51691684  1
  H  H31  1  0.29289519  0.00495931  0.25189265  1
  H  H32  1  0.29289519  0.49504069  0.25189265  1
  H  H33  1  0.33755017  0.25000000  0.13452575  1
  H  H34  1  0.38526247  0.13916913  0.59741899  1
  H  H35  1  0.38526247  0.36083087  0.59741899  1
  H  H36  1  0.44798260  0.52976682  0.32310778  1
  H  H37  1  0.44798260  0.97023318  0.32310778  1
  H  H38  1  0.44148774  0.66880587  0.35168425  1
  H  H39  1  0.44148774  0.83119413  0.35168425  1
  H  H40  1  0.42445306  0.82855866  0.02332216  1
  H  H41  1  0.42445306  0.67144134  0.02332216  1
  H  H42  1  0.57554694  0.17144134  0.97667784  1
  H  H43  1  0.57554694  0.32855866  0.97667784  1
  H  H44  1  0.55851226  0.16880587  0.64831575  1
  H  H45  1  0.55851226  0.33119413  0.64831575  1
  H  H46  1  0.55201740  0.02976682  0.67689222  1
  H  H47  1  0.55201740  0.47023318  0.67689222  1
  H  H48  1  0.61473753  0.63916913  0.40258101  1
  H  H49  1  0.61473753  0.86083087  0.40258101  1
  H  H50  1  0.66244983  0.75000000  0.86547425  1
  H  H51  1  0.70710481  0.50495931  0.74810735  1
  H  H52  1  0.70710481  0.99504069  0.74810735  1
  H  H53  1  0.73150004  0.25000000  0.48308316  1
  H  H54  1  0.73023455  0.13945440  0.05604352  1
  H  H55  1  0.73023455  0.36054560  0.05604352  1
  H  H56  1  0.72808903  0.75000000  0.70244247  1
  H  H57  1  0.75102802  0.51397880  0.19406714  1
  H  H58  1  0.75102802  0.98602120  0.19406714  1
  H  H59  1  0.75083942  0.60128340  0.11956398  1
  H  H60  1  0.75083942  0.89871660  0.11956398  1
  H  H61  1  0.83904228  0.08951054  0.40149733  1
  H  H62  1  0.83904228  0.41048946  0.40149733  1
  H  H63  1  0.84080645  0.10828508  0.78117333  1
  H  H64  1  0.84080645  0.39171492  0.78117333  1
  H  H65  1  0.79355046  0.00132186  0.43191565  1
  H  H66  1  0.79355046  0.49867814  0.43191565  1
  H  H67  1  0.81587364  0.25000000  0.32927970  1
  H  H68  1  0.98065132  0.67062510  0.96513666  1
  H  H69  1  0.98065132  0.82937490  0.96513666  1
  H  H70  1  0.96350924  0.06147311  0.69063480  1
  H  H71  1  0.96350924  0.43852689  0.69063480  1
  H  H72  1  0.99331822  0.64161976  0.79608266  1
  H  H73  1  0.99331822  0.85838024  0.79608266  1
  Se  Se74  1  0.10977952  0.12844696  0.47764266  1
  Se  Se75  1  0.10977952  0.37155304  0.47764266  1
  Se  Se76  1  0.22048426  0.75000000  0.25433637  1
  Se  Se77  1  0.25276158  0.25000000  0.87633508  1
  Se  Se78  1  0.74723842  0.75000000  0.12366492  1
  Se  Se79  1  0.77951574  0.25000000  0.74566363  1
  Se  Se80  1  0.89022048  0.62844696  0.52235734  1
  Se  Se81  1  0.89022048  0.87155304  0.52235734  1
  O  O82  1  0.03952257  0.63427794  0.89960793  1
  O  O83  1  0.03952257  0.86572206  0.89960793  1
  O  O84  1  0.10786384  0.55499043  0.22360160  1
  O  O85  1  0.10786384  0.94500957  0.22360160  1
  O  O86  1  0.25504857  0.04325825  0.90384112  1
  O  O87  1  0.25504857  0.45674175  0.90384112  1
  O  O88  1  0.24154046  0.54887962  0.62772827  1
  O  O89  1  0.24154046  0.95112038  0.62772827  1
  O  O90  1  0.28882954  0.75000000  0.62915846  1
  O  O91  1  0.37030563  0.25000000  0.24300242  1
  O  O92  1  0.38546074  0.63384136  0.94559569  1
  O  O93  1  0.38546074  0.86615864  0.94559569  1
  O  O94  1  0.40751760  0.01509238  0.25898038  1
  O  O95  1  0.40751760  0.48490762  0.25898038  1
  O  O96  1  0.49878208  0.12665034  0.59254753  1
  O  O97  1  0.49878208  0.37334966  0.59254753  1
  O  O98  1  0.50121792  0.87334966  0.40745247  1
  O  O99  1  0.50121792  0.62665034  0.40745247  1
  O  O100  1  0.59248240  0.51509238  0.74101962  1
  O  O101  1  0.59248240  0.98490762  0.74101962  1
  O  O102  1  0.61453926  0.13384136  0.05440431  1
  O  O103  1  0.61453926  0.36615864  0.05440431  1
  O  O104  1  0.62969437  0.75000000  0.75699758  1
  O  O105  1  0.71117046  0.25000000  0.37084154  1
  O  O106  1  0.75845954  0.04887962  0.37227173  1
  O  O107  1  0.75845954  0.45112038  0.37227173  1
  O  O108  1  0.74495143  0.54325825  0.09615888  1
  O  O109  1  0.74495143  0.95674175  0.09615888  1
  O  O110  1  0.89213616  0.05499043  0.77639840  1
  O  O111  1  0.89213616  0.44500957  0.77639840  1
  O  O112  1  0.96047743  0.13427794  0.10039207  1
  O  O113  1  0.96047743  0.36572206  0.10039207  1
