# generated using pymatgen
data_Mn6OF11
_symmetry_space_group_name_H-M   'P 1'
_cell_length_a   7.78554418
_cell_length_b   5.93216497
_cell_length_c   5.93216497
_cell_angle_alpha   70.72726803
_cell_angle_beta   72.81080511
_cell_angle_gamma   72.81080511
_symmetry_Int_Tables_number   1
_chemical_formula_structural   Mn6OF11
_chemical_formula_sum   'Mn6 O1 F11'
_cell_volume   241.04399252
_cell_formula_units_Z   1
loop_
 _symmetry_equiv_pos_site_id
 _symmetry_equiv_pos_as_xyz
  1  'x, y, z'
loop_
 _atom_site_type_symbol
 _atom_site_label
 _atom_site_symmetry_multiplicity
 _atom_site_fract_x
 _atom_site_fract_y
 _atom_site_fract_z
 _atom_site_occupancy
  Mn  Mn0  1  0.84233565  0.64702091  0.66783242  1
  Mn  Mn1  1  0.66813399  0.32760602  0.33777571  1
  Mn  Mn2  1  0.33186601  0.66222429  0.67239398  1
  Mn  Mn3  1  0.15766435  0.33216758  0.35297909  1
  Mn  Mn4  1  0.50000000  0.99845586  0.00154414  1
  Mn  Mn5  1  0.00000000  0.02592916  0.97407084  1
  O  O6  1  0.00000000  0.30063436  0.69936564  1
  F  F7  1  0.67253198  0.01282596  0.63744408  1
  F  F8  1  0.32746802  0.36255592  0.98717404  1
  F  F9  1  0.29287732  0.90334176  0.89881559  1
  F  F10  1  0.62940760  0.56298020  0.56737672  1
  F  F11  1  0.96668347  0.23162647  0.22282476  1
  F  F12  1  0.70712268  0.10118441  0.09665824  1
  F  F13  1  0.03331653  0.77717524  0.76837353  1
  F  F14  1  0.37059240  0.43262328  0.43701980  1
  F  F15  1  0.33431830  0.96912889  0.36532507  1
  F  F16  1  0.66568170  0.63467493  0.03087111  1
  F  F17  1  0.00000000  0.71784475  0.28215525  1
