# generated using pymatgen
data_LiV(OF)2
_symmetry_space_group_name_H-M   'P 1'
_cell_length_a   5.29834262
_cell_length_b   5.50543821
_cell_length_c   5.36666633
_cell_angle_alpha   90.00000000
_cell_angle_beta   118.06134834
_cell_angle_gamma   90.00000000
_symmetry_Int_Tables_number   1
_chemical_formula_structural   LiV(OF)2
_chemical_formula_sum   'Li2 V2 O4 F4'
_cell_volume   138.14140900
_cell_formula_units_Z   2
loop_
 _symmetry_equiv_pos_site_id
 _symmetry_equiv_pos_as_xyz
  1  'x, y, z'
loop_
 _atom_site_type_symbol
 _atom_site_label
 _atom_site_symmetry_multiplicity
 _atom_site_fract_x
 _atom_site_fract_y
 _atom_site_fract_z
 _atom_site_occupancy
  Li  Li0  1  0.25000000  0.59457775  0.50000000  1
  Li  Li1  1  0.75000000  0.40542225  0.50000000  1
  V  V2  1  0.25000000  0.90137514  0.00000000  1
  V  V3  1  0.75000000  0.09862486  0.00000000  1
  O  O4  1  0.02676169  0.88968571  0.20039019  1
  O  O5  1  0.47323831  0.88968571  0.79960981  1
  O  O6  1  0.52676169  0.11031429  0.20039019  1
  O  O7  1  0.97323831  0.11031429  0.79960981  1
  F  F8  1  0.05453421  0.64149799  0.73666307  1
  F  F9  1  0.55453421  0.35850201  0.73666307  1
  F  F10  1  0.44546579  0.64149799  0.26333693  1
  F  F11  1  0.94546579  0.35850201  0.26333693  1
