# generated using pymatgen
data_Li6MnNi7O16
_symmetry_space_group_name_H-M   'P 1'
_cell_length_a   7.63188715
_cell_length_b   6.44983382
_cell_length_c   12.60467905
_cell_angle_alpha   99.61440201
_cell_angle_beta   86.27764124
_cell_angle_gamma   65.84003565
_symmetry_Int_Tables_number   1
_chemical_formula_structural   Li6MnNi7O16
_chemical_formula_sum   'Li12 Mn2 Ni14 O32'
_cell_volume   551.99832864
_cell_formula_units_Z   2
loop_
 _symmetry_equiv_pos_site_id
 _symmetry_equiv_pos_as_xyz
  1  'x, y, z'
loop_
 _atom_site_type_symbol
 _atom_site_label
 _atom_site_symmetry_multiplicity
 _atom_site_fract_x
 _atom_site_fract_y
 _atom_site_fract_z
 _atom_site_occupancy
  Li  Li0  1  0.00560899  0.00296010  0.99522526  1
  Li  Li1  1  0.00649432  0.50624196  0.50115819  1
  Li  Li2  1  0.13005361  0.31823689  0.68936881  1
  Li  Li3  1  0.25656013  0.63048853  0.36942505  1
  Li  Li4  1  0.49494639  0.24426311  0.74813119  1
  Li  Li5  1  0.36843987  0.93201147  0.06807495  1
  Li  Li6  1  0.61850568  0.05625804  0.93634181  1
  Li  Li7  1  0.61939101  0.55953990  0.44227474  1
  Li  Li8  1  0.74120382  0.37592838  0.62495125  1
  Li  Li9  1  0.88379618  0.18657162  0.81254875  1
  Li  Li10  1  0.75332262  0.86851055  0.12742584  1
  Li  Li11  1  0.87167738  0.69398945  0.31007416  1
  Mn  Mn12  1  0.31550985  0.03264519  0.47169710  1
  Mn  Mn13  1  0.30949015  0.52985481  0.96580290  1
  Ni  Ni14  1  0.06136183  0.40581387  0.09399399  1
  Ni  Ni15  1  0.19023583  0.21761395  0.28134365  1
  Ni  Ni16  1  0.06565768  0.89945456  0.59034886  1
  Ni  Ni17  1  0.18986796  0.72036473  0.78137790  1
  Ni  Ni18  1  0.43476417  0.34488605  0.15615635  1
  Ni  Ni19  1  0.56363817  0.15668613  0.34350601  1
  Ni  Ni20  1  0.43513204  0.84213527  0.65612210  1
  Ni  Ni21  1  0.68094026  0.46943615  0.03116482  1
  Ni  Ni22  1  0.55934232  0.66304544  0.84715114  1
  Ni  Ni23  1  0.81250000  0.28125000  0.21875000  1
  Ni  Ni24  1  0.94405974  0.09306385  0.40633518  1
  Ni  Ni25  1  0.68721858  0.97752854  0.53407581  1
  Ni  Ni26  1  0.81250000  0.78125000  0.71875000  1
  Ni  Ni27  1  0.93778142  0.58497146  0.90342419  1
  O  O28  1  0.08402016  0.14637093  0.15488858  1
  O  O29  1  0.05591587  0.17836539  0.54525111  1
  O  O30  1  0.03461881  0.66777471  0.03197325  1
  O  O31  1  0.18086963  0.47935501  0.23340055  1
  O  O32  1  0.06463433  0.64039327  0.64291480  1
  O  O33  1  0.33286619  0.26374179  0.03121597  1
  O  O34  1  0.29213381  0.29875821  0.40628403  1
  O  O35  1  0.22367352  0.44803418  0.83237868  1
  O  O36  1  0.44413037  0.08314499  0.20409945  1
  O  O37  1  0.40132648  0.11446582  0.60512132  1
  O  O38  1  0.20800997  0.96149960  0.34076147  1
  O  O39  1  0.16414200  0.97801715  0.71832954  1
  O  O40  1  0.41699003  0.60100040  0.09673853  1
  O  O41  1  0.34576570  0.75419173  0.50684574  1
  O  O42  1  0.27923430  0.80830827  0.93065426  1
  O  O43  1  0.54097984  0.41612907  0.28261142  1
  O  O44  1  0.46085800  0.58448285  0.71917046  1
  O  O45  1  0.69331227  0.19649098  0.08086277  1
  O  O46  1  0.68840575  0.23948219  0.47811481  1
  O  O47  1  0.56908413  0.38413461  0.89224889  1
  O  O48  1  0.81959980  0.01589911  0.26951652  1
  O  O49  1  0.77336646  0.06659308  0.66317482  1
  O  O50  1  0.59038119  0.89472529  0.40552675  1
  O  O51  1  0.56036567  0.92210673  0.79458520  1
  O  O52  1  0.80540020  0.54660089  0.16798348  1
  O  O53  1  0.69791084  0.70140962  0.58476099  1
  O  O54  1  0.65148521  0.74338708  0.97936348  1
  O  O55  1  0.93168773  0.36600902  0.35663723  1
  O  O56  1  0.85163354  0.49590692  0.77432518  1
  O  O57  1  0.93659425  0.32301781  0.95938519  1
  O  O58  1  0.97351479  0.81911292  0.45813652  1
  O  O59  1  0.92708916  0.86109038  0.85273901  1
