# generated using pymatgen
data_Na2CrO4
_symmetry_space_group_name_H-M   'P 1'
_cell_length_a   8.94371247
_cell_length_b   6.15183880
_cell_length_c   5.56375244
_cell_angle_alpha   58.69342353
_cell_angle_beta   109.53083915
_cell_angle_gamma   100.03955317
_symmetry_Int_Tables_number   1
_chemical_formula_structural   Na2CrO4
_chemical_formula_sum   'Na4 Cr2 O8'
_cell_volume   246.49889743
_cell_formula_units_Z   2
loop_
 _symmetry_equiv_pos_site_id
 _symmetry_equiv_pos_as_xyz
  1  'x, y, z'
loop_
 _atom_site_type_symbol
 _atom_site_label
 _atom_site_symmetry_multiplicity
 _atom_site_fract_x
 _atom_site_fract_y
 _atom_site_fract_z
 _atom_site_occupancy
  Na  Na0  1  0.14524704  0.27998311  0.46224380  1
  Na  Na1  1  0.43725150  0.75370540  0.45551310  1
  Na  Na2  1  0.56274850  0.24629460  0.54448690  1
  Na  Na3  1  0.85475296  0.72001689  0.53775620  1
  Cr  Cr4  1  0.25419805  0.70397088  0.84736886  1
  Cr  Cr5  1  0.74580195  0.29602912  0.15263114  1
  O  O6  1  0.08894526  0.81639670  0.81395881  1
  O  O7  1  0.21538065  0.53667242  0.67635373  1
  O  O8  1  0.36797468  0.95099273  0.68640923  1
  O  O9  1  0.34712724  0.52382250  0.20633949  1
  O  O10  1  0.65287276  0.47617750  0.79366051  1
  O  O11  1  0.63202532  0.04900727  0.31359077  1
  O  O12  1  0.78461935  0.46332758  0.32364627  1
  O  O13  1  0.91105474  0.18360330  0.18604119  1
