# generated using pymatgen
data_Li9V3P8O29
_symmetry_space_group_name_H-M   'P 1'
_cell_length_a   9.91623501
_cell_length_b   9.91484089
_cell_length_c   13.75402774
_cell_angle_alpha   90.02389069
_cell_angle_beta   89.80292826
_cell_angle_gamma   60.08978524
_symmetry_Int_Tables_number   1
_chemical_formula_structural   Li9V3P8O29
_chemical_formula_sum   'Li18 V6 P16 O58'
_cell_volume   1172.14520638
_cell_formula_units_Z   2
loop_
 _symmetry_equiv_pos_site_id
 _symmetry_equiv_pos_as_xyz
  1  'x, y, z'
loop_
 _atom_site_type_symbol
 _atom_site_label
 _atom_site_symmetry_multiplicity
 _atom_site_fract_x
 _atom_site_fract_y
 _atom_site_fract_z
 _atom_site_occupancy
  Li  Li0  1  0.90181853  0.76030645  0.07356343  1
  Li  Li1  1  0.75717731  0.90580862  0.56316430  1
  Li  Li2  1  0.89977879  0.33622191  0.56218729  1
  Li  Li3  1  0.68340864  0.65685253  0.37676729  1
  Li  Li4  1  0.66506514  0.66654843  0.88050337  1
  Li  Li5  1  0.77127374  0.33309068  0.06645108  1
  Li  Li6  1  0.33380628  0.89861780  0.06526240  1
  Li  Li7  1  0.67030988  0.23657382  0.43315035  1
  Li  Li8  1  0.34038887  0.77009462  0.56784380  1
  Li  Li9  1  0.66817266  0.09833701  0.93791847  1
  Li  Li10  1  0.23470168  0.66834177  0.93794872  1
  Li  Li11  1  0.33941339  0.32523403  0.62545665  1
  Li  Li12  1  0.31638605  0.34422343  0.12090127  1
  Li  Li13  1  0.22612580  0.10419422  0.43336922  1
  Li  Li14  1  0.98850432  0.55995506  0.23396430  1
  Li  Li15  1  0.09748231  0.23375514  0.93999836  1
  Li  Li16  1  0.00171845  0.00385528  0.00737074  1
  Li  Li17  1  0.98296611  0.04689531  0.49820736  1
  V  V18  1  0.56857570  0.43449676  0.24626429  1
  V  V19  1  0.43636541  0.56478321  0.75039614  1
  V  V20  1  0.56478420  0.99987503  0.75090954  1
  V  V21  1  0.43480940  0.99826310  0.24853132  1
  V  V22  1  0.10483269  0.65545768  0.43073615  1
  V  V23  1  -0.00007525  0.43238613  0.75174711  1
  P  P24  1  0.90970224  0.77417653  0.84380609  1
  P  P25  1  0.77088992  0.91621188  0.34623963  1
  P  P26  1  0.90835885  0.32005315  0.34472285  1
  P  P27  1  0.66194614  0.67158262  0.12230510  1
  P  P28  1  0.66816271  0.66655031  0.62304537  1
  P  P29  1  0.77334847  0.31549557  0.84557510  1
  P  P30  1  0.68529234  0.22590737  0.65585277  1
  P  P31  1  0.31549024  0.91058824  0.84443293  1
  P  P32  1  0.68513277  0.08814793  0.15510998  1
  P  P33  1  0.31942827  0.77256462  0.33988330  1
  P  P34  1  0.22600757  0.68185451  0.15268078  1
  P  P35  1  0.34124264  0.32965062  0.38093053  1
  P  P36  1  0.33315297  0.33366998  0.87599887  1
  P  P37  1  0.09354782  0.67675839  0.65634691  1
  P  P38  1  0.22529888  0.08969630  0.65477523  1
  P  P39  1  0.09275008  0.22609126  0.15511425  1
  O  O40  1  0.00152279  0.75334763  0.56093178  1
  O  O41  1  0.92187942  0.75622656  0.34964631  1
  O  O42  1  0.77644503  0.99349581  0.06670170  1
  O  O43  1  0.75048634  0.92241765  0.84467172  1
  O  O44  1  0.89059273  0.62983316  0.83324375  1
  O  O45  1  0.79921623  0.68488041  0.15832221  1
  O  O46  1  0.89199244  0.47960121  0.34330698  1
  O  O47  1  0.99910756  0.22162220  0.06741160  1
  O  O48  1  0.92258259  0.32591697  0.84581818  1
  O  O49  1  0.67586052  0.81082556  0.66260523  1
  O  O50  1  0.63087381  0.89154043  0.33586009  1
  O  O51  1  0.81206687  0.51422105  0.66153036  1
  O  O52  1  0.64916745  0.67050157  0.01257227  1
  O  O53  1  0.66564795  0.66897190  0.51335968  1
  O  O54  1  0.67347079  0.51502106  0.16175487  1
  O  O55  1  0.47949794  0.89045112  0.83309127  1
  O  O56  1  0.50509546  0.81135305  0.16448416  1
  O  O57  1  0.74940046  0.32616803  0.34147884  1
  O  O58  1  0.78620290  0.21390744  0.75008715  1
  O  O59  1  0.77727627  0.22723234  0.56682534  1
  O  O60  1  0.76945696  0.22571304  0.93402106  1
  O  O61  1  0.63044156  0.47917746  0.83418533  1
  O  O62  1  0.51572462  0.67439937  0.66313849  1
  O  O63  1  0.67429618  0.24744893  0.15325788  1
  O  O64  1  0.48079311  0.62919455  0.33536126  1
  O  O65  1  0.32496250  0.92296587  0.34811579  1
  O  O66  1  0.78681365  0.00064335  0.25094685  1
  O  O67  1  0.76636314  0.01042819  0.43552400  1
  O  O68  1  0.22586110  0.99746238  0.56548540  1
  O  O69  1  0.67234599  0.07805155  0.65549738  1
  O  O70  1  0.52212459  0.37026842  0.66509184  1
  O  O71  1  0.32680747  0.75060240  0.84364668  1
  O  O72  1  0.49045939  0.32199786  0.33969500  1
  O  O73  1  0.37252278  0.51961658  0.16742840  1
  O  O74  1  0.23727709  0.77047191  0.06523096  1
  O  O75  1  0.22641722  0.76395956  0.43100664  1
  O  O76  1  0.21490031  0.78616024  0.24938399  1
  O  O77  1  0.24922182  0.67318004  0.65245985  1
  O  O78  1  0.48515001  0.18918990  0.83581389  1
  O  O79  1  0.52152645  0.10732143  0.16691122  1
  O  O80  1  0.32480265  0.48555974  0.83528582  1
  O  O81  1  0.33547199  0.33399403  0.98543908  1
  O  O82  1  0.33151337  0.34590332  0.49106713  1
  O  O83  1  0.19415579  0.48440267  0.34315449  1
  O  O84  1  0.36993012  0.10827696  0.66379349  1
  O  O85  1  0.32855848  0.18818543  0.34475102  1
  O  O86  1  0.08033671  0.67132595  0.15327048  1
  O  O87  1  0.99364555  0.78796993  0.74350231  1
  O  O88  1  0.00714276  0.77057282  0.92942787  1
  O  O89  1  0.11532800  0.51376517  0.66777724  1
  O  O90  1  0.18869064  0.32478000  0.83779019  1
  O  O91  1  0.11674989  0.36459028  0.16050487  1
  O  O92  1  0.24878171  0.07101371  0.15805977  1
  O  O93  1  0.22577967  0.00396212  0.93309752  1
  O  O94  1  0.21431204  0.99951141  0.74919139  1
  O  O95  1  0.07668281  0.24958990  0.65471138  1
  O  O96  1  0.99820577  0.21896475  0.43319367  1
  O  O97  1  0.00021654  0.21867234  0.25064427  1
