# generated using pymatgen
data_LiCr(PO3)4
_symmetry_space_group_name_H-M   'P 1'
_cell_length_a   7.19520966
_cell_length_b   7.19231685
_cell_length_c   9.73038347
_cell_angle_alpha   70.80345534
_cell_angle_beta   80.77538736
_cell_angle_gamma   109.83413638
_symmetry_Int_Tables_number   1
_chemical_formula_structural   LiCr(PO3)4
_chemical_formula_sum   'Li2 Cr2 P8 O24'
_cell_volume   425.87738444
_cell_formula_units_Z   2
loop_
 _symmetry_equiv_pos_site_id
 _symmetry_equiv_pos_as_xyz
  1  'x, y, z'
loop_
 _atom_site_type_symbol
 _atom_site_label
 _atom_site_symmetry_multiplicity
 _atom_site_fract_x
 _atom_site_fract_y
 _atom_site_fract_z
 _atom_site_occupancy
  Li  Li0  1  0.99910185  0.00120149  0.99789862  1
  Li  Li1  1  0.50110233  0.00176242  0.49941396  1
  Cr  Cr2  1  0.05466464  0.80426067  0.75004691  1
  Cr  Cr3  1  0.94474512  0.19483289  0.24997250  1
  P  P4  1  0.26835529  0.72713411  0.02068008  1
  P  P5  1  0.69045944  0.98615356  0.80063618  1
  P  P6  1  0.28848510  0.49243681  0.69890582  1
  P  P7  1  0.25021641  0.29106499  0.47790609  1
  P  P8  1  0.75277704  0.71018237  0.52112617  1
  P  P9  1  0.71427199  0.50905853  0.30079842  1
  P  P10  1  0.30743909  0.01305969  0.19854905  1
  P  P11  1  0.73004764  0.27220346  0.97938139  1
  O  O12  1  0.19052581  0.86148884  0.90897857  1
  O  O13  1  0.34929058  0.96631711  0.34628140  1
  O  O14  1  0.26502388  0.69999007  0.68181430  1
  O  O15  1  0.29528072  0.81441318  0.15086433  1
  O  O16  1  0.50118033  0.77390521  0.93901338  1
  O  O17  1  0.14982392  0.48696224  0.09449987  1
  O  O18  1  0.21798250  0.44304310  0.55942886  1
  O  O19  1  0.18914723  0.30194061  0.84635574  1
  O  O20  1  0.73097366  0.90014202  0.40920163  1
  O  O21  1  0.08388888  0.24848170  0.40379987  1
  O  O22  1  0.88185660  0.94722487  0.81714686  1
  O  O23  1  0.53528751  0.55569243  0.65156319  1
  O  O24  1  0.46806132  0.44817307  0.34783365  1
  O  O25  1  0.11660961  0.05218110  0.18060512  1
  O  O26  1  0.91922802  0.75386874  0.59483771  1
  O  O27  1  0.27170185  0.10050158  0.58940678  1
  O  O28  1  0.81554552  0.70046097  0.15402220  1
  O  O29  1  0.78510820  0.55685508  0.44090744  1
  O  O30  1  0.84754455  0.51268564  0.90535505  1
  O  O31  1  0.49645183  0.22385531  0.05914536  1
  O  O32  1  0.70510194  0.18357897  0.84986128  1
  O  O33  1  0.73466942  0.30021228  0.31719351  1
  O  O34  1  0.64792742  0.03599600  0.65314528  1
  O  O35  1  0.80781379  0.13853189  0.09148442  1
