# generated using pymatgen
data_Li2CuF4
_symmetry_space_group_name_H-M   'P 1'
_cell_length_a   5.59585321
_cell_length_b   5.60216706
_cell_length_c   10.45416458
_cell_angle_alpha   90.00000000
_cell_angle_beta   80.97253096
_cell_angle_gamma   90.00000000
_symmetry_Int_Tables_number   1
_chemical_formula_structural   Li2CuF4
_chemical_formula_sum   'Li8 Cu4 F16'
_cell_volume   323.66713283
_cell_formula_units_Z   4
loop_
 _symmetry_equiv_pos_site_id
 _symmetry_equiv_pos_as_xyz
  1  'x, y, z'
loop_
 _atom_site_type_symbol
 _atom_site_label
 _atom_site_symmetry_multiplicity
 _atom_site_fract_x
 _atom_site_fract_y
 _atom_site_fract_z
 _atom_site_occupancy
  Li  Li0  1  0.07775007  0.37798119  0.27182636  1
  Li  Li1  1  0.15966694  0.24093899  0.00225869  1
  Li  Li2  1  0.34033306  0.74093899  0.49774131  1
  Li  Li3  1  0.42224993  0.87798119  0.22817364  1
  Li  Li4  1  0.57775007  0.12201881  0.77182636  1
  Li  Li5  1  0.65966694  0.25906101  0.50225869  1
  Li  Li6  1  0.84033306  0.75906101  0.99774131  1
  Li  Li7  1  0.92224993  0.62201881  0.72817364  1
  Cu  Cu8  1  0.13549602  0.16998828  0.62042055  1
  Cu  Cu9  1  0.36450398  0.66998828  0.87957945  1
  Cu  Cu10  1  0.63549602  0.33001172  0.12042055  1
  Cu  Cu11  1  0.86450398  0.83001172  0.37957945  1
  F  F12  1  0.00539986  0.86016486  0.60188707  1
  F  F13  1  0.17758023  0.67733892  0.34289159  1
  F  F14  1  0.05722387  0.52085197  0.87802862  1
  F  F15  1  0.32241977  0.17733892  0.15710841  1
  F  F16  1  0.19977384  0.96588731  0.89094818  1
  F  F17  1  0.30022616  0.46588731  0.60905182  1
  F  F18  1  0.50539986  0.63983514  0.10188707  1
  F  F19  1  0.44277613  0.02085197  0.62197138  1
  F  F20  1  0.55722387  0.97914803  0.37802862  1
  F  F21  1  0.49460014  0.36016486  0.89811293  1
  F  F22  1  0.69977384  0.53411269  0.39094818  1
  F  F23  1  0.80022616  0.03411269  0.10905182  1
  F  F24  1  0.67758023  0.82266108  0.84289159  1
  F  F25  1  0.94277613  0.47914803  0.12197138  1
  F  F26  1  0.82241977  0.32266108  0.65710841  1
  F  F27  1  0.99460014  0.13983514  0.39811293  1
