# generated using pymatgen
data_V6O5F19
_symmetry_space_group_name_H-M   'P 1'
_cell_length_a   5.49728862
_cell_length_b   5.35724535
_cell_length_c   14.92364567
_cell_angle_alpha   89.65687274
_cell_angle_beta   100.56613654
_cell_angle_gamma   92.05213432
_symmetry_Int_Tables_number   1
_chemical_formula_structural   V6O5F19
_chemical_formula_sum   'V6 O5 F19'
_cell_volume   431.77671804
_cell_formula_units_Z   1
loop_
 _symmetry_equiv_pos_site_id
 _symmetry_equiv_pos_as_xyz
  1  'x, y, z'
loop_
 _atom_site_type_symbol
 _atom_site_label
 _atom_site_symmetry_multiplicity
 _atom_site_fract_x
 _atom_site_fract_y
 _atom_site_fract_z
 _atom_site_occupancy
  V  V0  1  0.04886448  0.96772576  0.00430147  1
  V  V1  1  0.19804561  0.45998059  0.32972568  1
  V  V2  1  0.34614864  0.05041189  0.66181653  1
  V  V3  1  0.51368610  0.48486005  0.99829374  1
  V  V4  1  0.70826174  0.96691742  0.33640815  1
  V  V5  1  0.80747151  0.55709608  0.67251734  1
  O  O6  1  0.36962490  0.23044552  0.31395942  1
  O  O7  1  0.54642708  0.28052399  0.64831448  1
  O  O8  1  0.29955775  0.80257453  0.02528676  1
  O  O9  1  0.62332572  0.78164954  0.69020269  1
  O  O10  1  0.94568883  0.79131867  0.35178154  1
  F  F11  1  0.05608754  0.20655402  0.64027423  1
  F  F12  1  0.19468256  0.28529484  0.97562600  1
  F  F13  1  0.11574575  0.71199266  0.68780521  1
  F  F14  1  0.02069539  0.09530097  0.11087323  1
  F  F15  1  0.18767224  0.43625384  0.44738411  1
  F  F16  1  0.36627768  0.05587860  0.78138847  1
  F  F17  1  0.12321652  0.59441922  0.21959826  1
  F  F18  1  0.28681774  0.90615526  0.55290770  1
  F  F19  1  0.45121323  0.59903331  0.88551797  1
  F  F20  1  0.67783244  0.20710097  0.97309842  1
  F  F21  1  0.46121304  0.71683122  0.36161326  1
  F  F22  1  0.53567962  0.42768667  0.11613663  1
  F  F23  1  0.71476256  0.09093978  0.44677626  1
  F  F24  1  0.89263096  0.40760675  0.77955050  1
  F  F25  1  0.58415775  0.92967114  0.21883802  1
  F  F26  1  0.78454891  0.55994808  0.55283728  1
  F  F27  1  0.94094306  0.92268447  0.88669834  1
  F  F28  1  0.87816250  0.27518899  0.30540548  1
  F  F29  1  0.82055914  0.69795518  0.02505984  1
