# generated using pymatgen
data_Li6V3P8O29
_symmetry_space_group_name_H-M   'P 1'
_cell_length_a   9.80799780
_cell_length_b   9.80242056
_cell_length_c   13.84811331
_cell_angle_alpha   89.78780293
_cell_angle_beta   89.78790060
_cell_angle_gamma   60.08199874
_symmetry_Int_Tables_number   1
_chemical_formula_structural   Li6V3P8O29
_chemical_formula_sum   'Li12 V6 P16 O58'
_cell_volume   1153.95590010
_cell_formula_units_Z   2
loop_
 _symmetry_equiv_pos_site_id
 _symmetry_equiv_pos_as_xyz
  1  'x, y, z'
loop_
 _atom_site_type_symbol
 _atom_site_label
 _atom_site_symmetry_multiplicity
 _atom_site_fract_x
 _atom_site_fract_y
 _atom_site_fract_z
 _atom_site_occupancy
  Li  Li0  1  0.89801700  0.76364461  0.06365107  1
  Li  Li1  1  0.77091084  0.91025279  0.55897728  1
  Li  Li2  1  0.90316903  0.32337971  0.55680009  1
  Li  Li3  1  0.76319419  0.33757578  0.06382196  1
  Li  Li4  1  0.33790039  0.89803822  0.06312718  1
  Li  Li5  1  0.32456654  0.77108689  0.55869740  1
  Li  Li6  1  0.66272371  0.10144744  0.93923436  1
  Li  Li7  1  0.23666149  0.66186251  0.93881775  1
  Li  Li8  1  0.09419786  0.67751995  0.43883848  1
  Li  Li9  1  0.22755285  0.09652914  0.43875964  1
  Li  Li10  1  0.10154810  0.23587848  0.93868644  1
  Li  Li11  1  0.99867453  0.00076069  0.00262401  1
  V  V12  1  0.56523630  0.43222015  0.25356431  1
  V  V13  1  0.43475392  0.56449594  0.74819087  1
  V  V14  1  0.56668489  0.00152593  0.74886308  1
  V  V15  1  0.43578624  0.99906370  0.25143293  1
  V  V16  1  0.99872289  0.56613961  0.25127504  1
  V  V17  1  -0.00029020  0.43310349  0.74897746  1
  P  P18  1  0.91199069  0.77174803  0.84299821  1
  P  P19  1  0.77031854  0.91233093  0.34336050  1
  P  P20  1  0.91120206  0.31648821  0.34203085  1
  P  P21  1  0.66555618  0.66599089  0.12639020  1
  P  P22  1  0.66718256  0.66766945  0.62739088  1
  P  P23  1  0.77133088  0.31523694  0.84371044  1
  P  P24  1  0.68502021  0.23010148  0.65681597  1
  P  P25  1  0.31602596  0.91130371  0.84263494  1
  P  P26  1  0.68651946  0.08728077  0.15723209  1
  P  P27  1  0.31874904  0.76945512  0.34210099  1
  P  P28  1  0.22771877  0.68478712  0.15764186  1
  P  P29  1  0.33124542  0.33488252  0.37260376  1
  P  P30  1  0.33266164  0.33275282  0.87409768  1
  P  P31  1  0.08803270  0.68153602  0.65779130  1
  P  P32  1  0.23070723  0.08817073  0.65757380  1
  P  P33  1  0.08967345  0.22665451  0.15749429  1
  O  O34  1  0.99784765  0.75785891  0.56728577  1
  O  O35  1  0.91753735  0.74532932  0.34066377  1
  O  O36  1  0.77714186  0.99854295  0.06707967  1
  O  O37  1  0.74512784  0.91893405  0.84120891  1
  O  O38  1  0.90813278  0.61947167  0.83074355  1
  O  O39  1  0.81036793  0.67558385  0.16629453  1
  O  O40  1  0.90513024  0.47627778  0.32221862  1
  O  O41  1  0.00370192  0.22092985  0.06743109  1
  O  O42  1  0.91888837  0.33505776  0.84062706  1
  O  O43  1  0.67468404  0.81390589  0.66914065  1
  O  O44  1  0.61945836  0.90201813  0.32216306  1
  O  O45  1  0.81336219  0.51341517  0.66869510  1
  O  O46  1  0.66602579  0.66310041  0.01822707  1
  O  O47  1  0.66812237  0.66861139  0.51971196  1
  O  O48  1  0.67253349  0.51181590  0.16842730  1
  O  O49  1  0.47213261  0.90825732  0.82996846  1
  O  O50  1  0.51087568  0.81115994  0.16636030  1
  O  O51  1  0.74677068  0.33908897  0.34062419  1
  O  O52  1  0.78963676  0.20483261  0.75365058  1
  O  O53  1  0.76920047  0.24018161  0.57092600  1
  O  O54  1  0.77678667  0.22590262  0.93511459  1
  O  O55  1  0.62000133  0.47203792  0.83058364  1
  O  O56  1  0.51262058  0.67470536  0.66785108  1
  O  O57  1  0.66838702  0.25212207  0.15734208  1
  O  O58  1  0.47965297  0.62282667  0.32518886  1
  O  O59  1  0.33277753  0.91979170  0.34219912  1
  O  O60  1  0.79378361  0.99837277  0.25021377  1
  O  O61  1  0.75835366  0.99620413  0.43447806  1
  O  O62  1  0.24389041  0.99817516  0.56719919  1
  O  O63  1  0.66307943  0.08403264  0.65803629  1
  O  O64  1  0.52345126  0.38101750  0.67622603  1
  O  O65  1  0.33643261  0.74421237  0.84031140  1
  O  O66  1  0.47858022  0.33451726  0.32480965  1
  O  O67  1  0.38080387  0.52906379  0.16785973  1
  O  O68  1  0.22089604  0.77717980  0.06724413  1
  O  O69  1  0.23990151  0.75751009  0.43242751  1
  O  O70  1  0.20659187  0.79331230  0.25017306  1
  O  O71  1  0.25276250  0.66530804  0.65743144  1
  O  O72  1  0.48855400  0.18857789  0.83316356  1
  O  O73  1  0.52981259  0.09134490  0.16957480  1
  O  O74  1  0.32267372  0.48790286  0.83339509  1
  O  O75  1  0.33262566  0.33118080  0.98225079  1
  O  O76  1  0.32998729  0.33674962  0.47998084  1
  O  O77  1  0.18423408  0.48898116  0.33209424  1
  O  O78  1  0.38020019  0.09888454  0.67657373  1
  O  O79  1  0.32703317  0.18658947  0.33224298  1
  O  O80  1  0.08078278  0.66396850  0.15948582  1
  O  O81  1  0.99994353  0.79275364  0.74972863  1
  O  O82  1  0.99842329  0.77612030  0.93281497  1
  O  O83  1  0.09914439  0.52095945  0.67722126  1
  O  O84  1  0.18845042  0.32202955  0.83302945  1
  O  O85  1  0.09301930  0.37930529  0.16889768  1
  O  O86  1  0.25705932  0.08046841  0.15915588  1
  O  O87  1  0.22538381  0.99705991  0.93276929  1
  O  O88  1  0.20735688  0.99985995  0.74979207  1
  O  O89  1  0.08270680  0.25313862  0.65729161  1
  O  O90  1  0.00415650  0.24270043  0.43181627  1
  O  O91  1  0.00266344  0.20518378  0.25027263  1
