# generated using pymatgen
data_Li2(CoO2)3
_symmetry_space_group_name_H-M   'P 1'
_cell_length_a   4.87797241
_cell_length_b   4.87697382
_cell_length_c   10.11220742
_cell_angle_alpha   76.18641118
_cell_angle_beta   76.03065205
_cell_angle_gamma   59.99089989
_symmetry_Int_Tables_number   1
_chemical_formula_structural   Li2(CoO2)3
_chemical_formula_sum   'Li4 Co6 O12'
_cell_volume   200.15291109
_cell_formula_units_Z   2
loop_
 _symmetry_equiv_pos_site_id
 _symmetry_equiv_pos_as_xyz
  1  'x, y, z'
loop_
 _atom_site_type_symbol
 _atom_site_label
 _atom_site_symmetry_multiplicity
 _atom_site_fract_x
 _atom_site_fract_y
 _atom_site_fract_z
 _atom_site_occupancy
  Li  Li0  1  0.08072846  0.74955790  0.75649723  1
  Li  Li1  1  0.24696678  0.58053881  0.25660898  1
  Li  Li2  1  0.41598234  0.08063015  0.75648237  1
  Li  Li3  1  0.91320716  0.24945002  0.25657761  1
  Co  Co4  1  0.99942169  0.33357085  0.99801164  1
  Co  Co5  1  0.16898865  0.83362683  0.49800764  1
  Co  Co6  1  0.33519703  0.66567946  0.99798447  1
  Co  Co7  1  0.50112642  0.16573863  0.49797427  1
  Co  Co8  1  0.66451530  0.99947085  0.00635653  1
  Co  Co9  1  0.82963710  0.49951384  0.50637579  1
  O  O10  1  0.03168169  0.02765468  0.89715197  1
  O  O11  1  0.13673977  0.46608908  0.60351501  1
  O  O12  1  0.18618074  0.21538968  0.39729442  1
  O  O13  1  0.29360258  0.96601304  0.10352821  1
  O  O14  1  0.37071940  0.35805297  0.89710101  1
  O  O15  1  0.46063573  0.80325563  0.60475383  1
  O  O16  1  0.54362132  0.52769152  0.39715937  1
  O  O17  1  0.63131128  0.30318792  0.10477234  1
  O  O18  1  0.70128021  0.71534069  0.89726576  1
  O  O19  1  0.87421756  0.85806361  0.39711728  1
  O  O20  1  0.79862226  0.12803688  0.60314423  1
  O  O21  1  0.97012951  0.62796097  0.10315701  1
