# generated using pymatgen
data_Mg7Mn5O12
_symmetry_space_group_name_H-M   'P 1'
_cell_length_a   3.08715506
_cell_length_b   3.08715506
_cell_length_c   30.38798341
_cell_angle_alpha   90.00000000
_cell_angle_beta   90.00000000
_cell_angle_gamma   120.00000000
_symmetry_Int_Tables_number   1
_chemical_formula_structural   Mg7Mn5O12
_chemical_formula_sum   'Mg7 Mn5 O12'
_cell_volume   250.81262895
_cell_formula_units_Z   1
loop_
 _symmetry_equiv_pos_site_id
 _symmetry_equiv_pos_as_xyz
  1  'x, y, z'
loop_
 _atom_site_type_symbol
 _atom_site_label
 _atom_site_symmetry_multiplicity
 _atom_site_fract_x
 _atom_site_fract_y
 _atom_site_fract_z
 _atom_site_occupancy
  Mg  Mg0  1  0.33333300  0.66666700  0.16648443  1
  Mg  Mg1  1  0.33333300  0.66666700  0.41855194  1
  Mg  Mg2  1  0.33333300  0.66666700  0.66809464  1
  Mg  Mg3  1  0.66666700  0.33333300  0.58664006  1
  Mg  Mg4  1  0.00000000  0.00000000  0.74977894  1
  Mg  Mg5  1  0.33333300  0.66666700  0.91234933  1
  Mg  Mg6  1  0.66666700  0.33333300  0.83128711  1
  Mn  Mn7  1  0.00000000  0.00000000  0.99636653  1
  Mn  Mn8  1  0.66666700  0.33333300  0.08389293  1
  Mn  Mn9  1  0.00000000  0.00000000  0.24878391  1
  Mn  Mn10  1  0.66666700  0.33333300  0.33553520  1
  Mn  Mn11  1  0.00000000  0.00000000  0.50223558  1
  O  O12  1  0.33333300  0.66666700  0.04029380  1
  O  O13  1  0.00000000  0.00000000  0.12785767  1
  O  O14  1  0.66666700  0.33333300  0.20505296  1
  O  O15  1  0.33333300  0.66666700  0.29207526  1
  O  O16  1  0.00000000  0.00000000  0.37952218  1
  O  O17  1  0.66666700  0.33333300  0.45768157  1
  O  O18  1  0.33333300  0.66666700  0.54691402  1
  O  O19  1  0.00000000  0.00000000  0.62731076  1
  O  O20  1  0.66666700  0.33333300  0.70893770  1
  O  O21  1  0.33333300  0.66666700  0.79060317  1
  O  O22  1  0.00000000  0.00000000  0.87189437  1
  O  O23  1  0.66666700  0.33333300  0.95185794  1
