# generated using pymatgen
data_MnFeCo(PO4)3
_symmetry_space_group_name_H-M   'P 1'
_cell_length_a   9.88512758
_cell_length_b   5.95246713
_cell_length_c   14.60889495
_cell_angle_alpha   90.00000000
_cell_angle_beta   89.93072920
_cell_angle_gamma   90.00000000
_symmetry_Int_Tables_number   1
_chemical_formula_structural   MnFeCo(PO4)3
_chemical_formula_sum   'Mn4 Fe4 Co4 P12 O48'
_cell_volume   859.59985542
_cell_formula_units_Z   4
loop_
 _symmetry_equiv_pos_site_id
 _symmetry_equiv_pos_as_xyz
  1  'x, y, z'
loop_
 _atom_site_type_symbol
 _atom_site_label
 _atom_site_symmetry_multiplicity
 _atom_site_fract_x
 _atom_site_fract_y
 _atom_site_fract_z
 _atom_site_occupancy
  Mn  Mn0  1  0.21612549  0.75000000  0.81293522  1
  Mn  Mn1  1  0.21679349  0.75000000  0.48172885  1
  Mn  Mn2  1  0.28432124  0.25000000  0.64788524  1
  Mn  Mn3  1  0.71523230  0.75000000  0.02109637  1
  Fe  Fe4  1  0.22546085  0.75000000  0.15473147  1
  Fe  Fe5  1  0.27547667  0.25000000  0.98727084  1
  Fe  Fe6  1  0.27553984  0.25000000  0.32173484  1
  Fe  Fe7  1  0.72893549  0.75000000  0.34447613  1
  Co  Co8  1  0.72114837  0.75000000  0.68362301  1
  Co  Co9  1  0.77814076  0.25000000  0.51740050  1
  Co  Co10  1  0.78256806  0.25000000  0.84967517  1
  Co  Co11  1  0.77200023  0.25000000  0.17671527  1
  P  P12  1  0.09825849  0.25000000  0.80423565  1
  P  P13  1  0.09732788  0.25000000  0.47343939  1
  P  P14  1  0.09678725  0.25000000  0.13946902  1
  P  P15  1  0.40146104  0.75000000  0.97251904  1
  P  P16  1  0.40068544  0.75000000  0.30732797  1
  P  P17  1  0.40073008  0.75000000  0.63912460  1
  P  P18  1  0.60239216  0.25000000  0.36232984  1
  P  P19  1  0.59711443  0.25000000  0.02705604  1
  P  P20  1  0.59851587  0.25000000  0.69389491  1
  P  P21  1  0.90243992  0.75000000  0.85815734  1
  P  P22  1  0.90180343  0.75000000  0.52826023  1
  P  P23  1  0.89986987  0.75000000  0.19407259  1
  O  O24  1  0.05350584  0.75000000  0.88266944  1
  O  O25  1  0.05370507  0.75000000  0.55124439  1
  O  O26  1  0.05148169  0.75000000  0.21323552  1
  O  O27  1  0.12168348  0.25000000  0.57662626  1
  O  O28  1  0.11890139  0.25000000  0.90800734  1
  O  O29  1  0.12026690  0.25000000  0.24259595  1
  O  O30  1  0.17271306  0.04861412  0.75662211  1
  O  O31  1  0.17271306  0.45138588  0.75662211  1
  O  O32  1  0.17214510  0.05012776  0.42382565  1
  O  O33  1  0.17214510  0.44987224  0.42382565  1
  O  O34  1  0.16985380  0.04859491  0.09051400  1
  O  O35  1  0.16985380  0.45140509  0.09051400  1
  O  O36  1  0.32990685  0.54604490  0.92598437  1
  O  O37  1  0.32990685  0.95395510  0.92598437  1
  O  O38  1  0.32645523  0.54884070  0.25884950  1
  O  O39  1  0.32645523  0.95115930  0.25884950  1
  O  O40  1  0.32787304  0.54849299  0.59101391  1
  O  O41  1  0.32787304  0.95150701  0.59101391  1
  O  O42  1  0.37914589  0.75000000  0.74315706  1
  O  O43  1  0.38154950  0.75000000  0.07691826  1
  O  O44  1  0.37802207  0.75000000  0.41135239  1
  O  O45  1  0.44741827  0.25000000  0.05189299  1
  O  O46  1  0.45014116  0.25000000  0.38081817  1
  O  O47  1  0.44694590  0.25000000  0.71790934  1
  O  O48  1  0.55463567  0.75000000  0.95098335  1
  O  O49  1  0.55122933  0.75000000  0.28654250  1
  O  O50  1  0.55270482  0.75000000  0.61684201  1
  O  O51  1  0.61884288  0.25000000  0.92407131  1
  O  O52  1  0.61471700  0.25000000  0.58952841  1
  O  O53  1  0.62523194  0.25000000  0.25754857  1
  O  O54  1  0.67152171  0.04927104  0.07691903  1
  O  O55  1  0.67152171  0.45072896  0.07691903  1
  O  O56  1  0.67384679  0.04678857  0.40974053  1
  O  O57  1  0.67384679  0.45321143  0.40974053  1
  O  O58  1  0.67184890  0.04681660  0.74174154  1
  O  O59  1  0.67184890  0.45318340  0.74174154  1
  O  O60  1  0.82857474  0.54610258  0.57600667  1
  O  O61  1  0.82857474  0.95389742  0.57600667  1
  O  O62  1  0.82917012  0.54573145  0.90519368  1
  O  O63  1  0.82917012  0.95426855  0.90519368  1
  O  O64  1  0.82831229  0.54945427  0.24388352  1
  O  O65  1  0.82831229  0.95054573  0.24388352  1
  O  O66  1  0.88559177  0.75000000  0.75358075  1
  O  O67  1  0.88369054  0.75000000  0.42492248  1
  O  O68  1  0.87778008  0.75000000  0.08999862  1
  O  O69  1  0.94736244  0.25000000  0.77883174  1
  O  O70  1  0.94745900  0.25000000  0.45000291  1
  O  O71  1  0.94370852  0.25000000  0.11937068  1
