# generated using pymatgen
data_Fe(Bi5O8)5
_symmetry_space_group_name_H-M   'P 1'
_cell_length_a   10.36248543
_cell_length_b   10.36248543
_cell_length_c   10.36248543
_cell_angle_alpha   90.00000000
_cell_angle_beta   90.00000000
_cell_angle_gamma   90.00000000
_symmetry_Int_Tables_number   1
_chemical_formula_structural   Fe(Bi5O8)5
_chemical_formula_sum   'Fe1 Bi25 O40'
_cell_volume   1112.73512863
_cell_formula_units_Z   1
loop_
 _symmetry_equiv_pos_site_id
 _symmetry_equiv_pos_as_xyz
  1  'x, y, z'
loop_
 _atom_site_type_symbol
 _atom_site_label
 _atom_site_symmetry_multiplicity
 _atom_site_fract_x
 _atom_site_fract_y
 _atom_site_fract_z
 _atom_site_occupancy
  Fe  Fe0  1  0.00000000  0.00000000  0.00000000  1
  Bi  Bi1  1  0.98687156  0.31467726  0.17451971  1
  Bi  Bi2  1  0.98687156  0.68532274  0.82548029  1
  Bi  Bi3  1  0.82548029  0.01312844  0.31467726  1
  Bi  Bi4  1  0.82548029  0.98687156  0.68532274  1
  Bi  Bi5  1  0.82368988  0.68072195  0.48487074  1
  Bi  Bi6  1  0.82368988  0.31927805  0.51512926  1
  Bi  Bi7  1  0.68532274  0.17451971  0.01312844  1
  Bi  Bi8  1  0.68532274  0.82548029  0.98687156  1
  Bi  Bi9  1  0.68072195  0.51512926  0.17631012  1
  Bi  Bi10  1  0.68072195  0.48487074  0.82368988  1
  Bi  Bi11  1  0.51512926  0.17631012  0.68072195  1
  Bi  Bi12  1  0.51512926  0.82368988  0.31927805  1
  Bi  Bi13  1  0.50000000  0.50000000  0.50000000  1
  Bi  Bi14  1  0.48487074  0.82368988  0.68072195  1
  Bi  Bi15  1  0.48487074  0.17631012  0.31927805  1
  Bi  Bi16  1  0.31927805  0.51512926  0.82368988  1
  Bi  Bi17  1  0.31927805  0.48487074  0.17631012  1
  Bi  Bi18  1  0.31467726  0.82548029  0.01312844  1
  Bi  Bi19  1  0.31467726  0.17451971  0.98687156  1
  Bi  Bi20  1  0.17631012  0.31927805  0.48487074  1
  Bi  Bi21  1  0.17631012  0.68072195  0.51512926  1
  Bi  Bi22  1  0.17451971  0.98687156  0.31467726  1
  Bi  Bi23  1  0.17451971  0.01312844  0.68532274  1
  Bi  Bi24  1  0.01312844  0.68532274  0.17451971  1
  Bi  Bi25  1  0.01312844  0.31467726  0.82548029  1
  O  O26  1  0.98944793  0.24768977  0.63291174  1
  O  O27  1  0.98944793  0.75231023  0.36708826  1
  O  O28  1  0.89228916  0.89228916  0.10771084  1
  O  O29  1  0.89228916  0.10771084  0.89228916  1
  O  O30  1  0.86927169  0.48844374  0.24663545  1
  O  O31  1  0.86927169  0.51155626  0.75336455  1
  O  O32  1  0.80892768  0.80892768  0.80892768  1
  O  O33  1  0.80892768  0.19107232  0.19107232  1
  O  O34  1  0.75231023  0.63291174  0.01055207  1
  O  O35  1  0.75231023  0.36708826  0.98944793  1
  O  O36  1  0.75336455  0.13072831  0.48844374  1
  O  O37  1  0.75336455  0.86927169  0.51155626  1
  O  O38  1  0.68567587  0.68567587  0.31432413  1
  O  O39  1  0.68567587  0.31432413  0.68567587  1
  O  O40  1  0.63291174  0.98944793  0.24768977  1
  O  O41  1  0.63291174  0.01055207  0.75231023  1
  O  O42  1  0.61385777  0.38614223  0.38614223  1
  O  O43  1  0.61385777  0.61385777  0.61385777  1
  O  O44  1  0.51155626  0.24663545  0.13072831  1
  O  O45  1  0.51155626  0.75336455  0.86927169  1
  O  O46  1  0.48844374  0.75336455  0.13072831  1
  O  O47  1  0.48844374  0.24663545  0.86927169  1
  O  O48  1  0.38614223  0.61385777  0.38614223  1
  O  O49  1  0.38614223  0.38614223  0.61385777  1
  O  O50  1  0.36708826  0.98944793  0.75231023  1
  O  O51  1  0.36708826  0.01055207  0.24768977  1
  O  O52  1  0.31432413  0.31432413  0.31432413  1
  O  O53  1  0.31432413  0.68567587  0.68567587  1
  O  O54  1  0.24663545  0.13072831  0.51155626  1
  O  O55  1  0.24663545  0.86927169  0.48844374  1
  O  O56  1  0.24768977  0.36708826  0.01055207  1
  O  O57  1  0.24768977  0.63291174  0.98944793  1
  O  O58  1  0.19107232  0.80892768  0.19107232  1
  O  O59  1  0.19107232  0.19107232  0.80892768  1
  O  O60  1  0.13072831  0.51155626  0.24663545  1
  O  O61  1  0.13072831  0.48844374  0.75336455  1
  O  O62  1  0.10771084  0.10771084  0.10771084  1
  O  O63  1  0.10771084  0.89228916  0.89228916  1
  O  O64  1  0.01055207  0.75231023  0.63291174  1
  O  O65  1  0.01055207  0.24768977  0.36708826  1
