# generated using pymatgen
data_V6O5F19
_symmetry_space_group_name_H-M   'P 1'
_cell_length_a   5.51959892
_cell_length_b   5.37477287
_cell_length_c   14.72553974
_cell_angle_alpha   89.63774304
_cell_angle_beta   100.67000751
_cell_angle_gamma   92.34100219
_symmetry_Int_Tables_number   1
_chemical_formula_structural   V6O5F19
_chemical_formula_sum   'V6 O5 F19'
_cell_volume   428.94461341
_cell_formula_units_Z   1
loop_
 _symmetry_equiv_pos_site_id
 _symmetry_equiv_pos_as_xyz
  1  'x, y, z'
loop_
 _atom_site_type_symbol
 _atom_site_label
 _atom_site_symmetry_multiplicity
 _atom_site_fract_x
 _atom_site_fract_y
 _atom_site_fract_z
 _atom_site_occupancy
  V  V0  1  0.01404814  0.05280233  0.99461682  1
  V  V1  1  0.19826725  0.45663044  0.32937247  1
  V  V2  1  0.38498381  0.96556612  0.67084314  1
  V  V3  1  0.47300605  0.56071282  0.00627083  1
  V  V4  1  0.70964880  0.96576262  0.33681906  1
  V  V5  1  0.84721002  0.48588604  0.66494699  1
  O  O6  1  0.21083738  0.28367458  0.97952626  1
  O  O7  1  0.36310904  0.22756714  0.31219919  1
  O  O8  1  0.29136516  0.78387398  0.02370999  1
  O  O9  1  0.63076457  0.79940766  0.69169028  1
  O  O10  1  0.94805665  0.79713803  0.35407448  1
  F  F11  1  0.01425166  0.21297637  0.64069591  1
  F  F12  1  0.15068756  0.70077562  0.69083254  1
  F  F13  1  0.04200063  0.05412190  0.11619264  1
  F  F14  1  0.18799059  0.43629528  0.44888365  1
  F  F15  1  0.35952837  0.08873062  0.77972631  1
  F  F16  1  0.11995249  0.59306583  0.21831379  1
  F  F17  1  0.27420965  0.92714346  0.55123113  1
  F  F18  1  0.45178631  0.55907142  0.88491835  1
  F  F19  1  0.53172854  0.28225523  0.64243356  1
  F  F20  1  0.72509058  0.20463790  0.97399041  1
  F  F21  1  0.46486221  0.71125015  0.36124197  1
  F  F22  1  0.55260798  0.40610254  0.11396174  1
  F  F23  1  0.70805836  0.09580922  0.44722976  1
  F  F24  1  0.86845683  0.42958495  0.78446021  1
  F  F25  1  0.58788404  0.92582033  0.21738826  1
  F  F26  1  0.77879720  0.60221586  0.55094477  1
  F  F27  1  0.95518278  0.90143354  0.88559677  1
  F  F28  1  0.87529824  0.27692445  0.30519210  1
  F  F29  1  0.78033210  0.71276356  0.02269961  1
