# generated using pymatgen
data_MnFeCo(PO4)3
_symmetry_space_group_name_H-M   'P 1'
_cell_length_a   9.90339511
_cell_length_b   5.95322843
_cell_length_c   14.59200341
_cell_angle_alpha   90.00000000
_cell_angle_beta   90.05930287
_cell_angle_gamma   90.00000000
_symmetry_Int_Tables_number   1
_chemical_formula_structural   MnFeCo(PO4)3
_chemical_formula_sum   'Mn4 Fe4 Co4 P12 O48'
_cell_volume   860.30281354
_cell_formula_units_Z   4
loop_
 _symmetry_equiv_pos_site_id
 _symmetry_equiv_pos_as_xyz
  1  'x, y, z'
loop_
 _atom_site_type_symbol
 _atom_site_label
 _atom_site_symmetry_multiplicity
 _atom_site_fract_x
 _atom_site_fract_y
 _atom_site_fract_z
 _atom_site_occupancy
  Mn  Mn0  1  0.21933395  0.75000000  0.14833556  1
  Mn  Mn1  1  0.28288648  0.25000000  0.64648498  1
  Mn  Mn2  1  0.28351508  0.25000000  0.31379479  1
  Mn  Mn3  1  0.71946784  0.75000000  0.01866405  1
  Fe  Fe4  1  0.22165197  0.75000000  0.81957213  1
  Fe  Fe5  1  0.22339836  0.75000000  0.48828446  1
  Fe  Fe6  1  0.27313792  0.25000000  0.98698640  1
  Fe  Fe7  1  0.72642319  0.75000000  0.34508391  1
  Co  Co8  1  0.71866142  0.75000000  0.68445454  1
  Co  Co9  1  0.78660652  0.25000000  0.85278836  1
  Co  Co10  1  0.77021921  0.25000000  0.17804906  1
  Co  Co11  1  0.78101839  0.25000000  0.51862554  1
  P  P12  1  0.09658474  0.25000000  0.80400859  1
  P  P13  1  0.09906693  0.25000000  0.47221872  1
  P  P14  1  0.09547198  0.25000000  0.13962420  1
  P  P15  1  0.40063202  0.75000000  0.97351711  1
  P  P16  1  0.40415311  0.75000000  0.63914266  1
  P  P17  1  0.40211759  0.75000000  0.30529296  1
  P  P18  1  0.59817939  0.25000000  0.69288913  1
  P  P19  1  0.59915166  0.25000000  0.02592164  1
  P  P20  1  0.60014171  0.25000000  0.36322397  1
  P  P21  1  0.90212561  0.75000000  0.85858792  1
  P  P22  1  0.90182246  0.75000000  0.52967100  1
  P  P23  1  0.90137011  0.75000000  0.19393737  1
  O  O24  1  0.05068619  0.75000000  0.88583656  1
  O  O25  1  0.05123534  0.75000000  0.55431145  1
  O  O26  1  0.05392625  0.75000000  0.21487279  1
  O  O27  1  0.11617751  0.25000000  0.90856684  1
  O  O28  1  0.11872856  0.25000000  0.57762750  1
  O  O29  1  0.11815798  0.25000000  0.24348325  1
  O  O30  1  0.16984328  0.04513711  0.75842359  1
  O  O31  1  0.16984328  0.45486289  0.75842359  1
  O  O32  1  0.17107948  0.04515389  0.42611855  1
  O  O33  1  0.17107948  0.45484611  0.42611855  1
  O  O34  1  0.17018839  0.05153752  0.08891316  1
  O  O35  1  0.17018839  0.44846248  0.08891316  1
  O  O36  1  0.32737659  0.54851909  0.92514401  1
  O  O37  1  0.32737659  0.95148091  0.92514401  1
  O  O38  1  0.32869063  0.55120669  0.58934034  1
  O  O39  1  0.32869063  0.94879331  0.58934034  1
  O  O40  1  0.32857305  0.54846650  0.25645904  1
  O  O41  1  0.32857305  0.95153350  0.25645904  1
  O  O42  1  0.38234831  0.75000000  0.74241787  1
  O  O43  1  0.38074337  0.75000000  0.40889713  1
  O  O44  1  0.38210828  0.75000000  0.07826454  1
  O  O45  1  0.44723306  0.25000000  0.71846762  1
  O  O46  1  0.44871646  0.25000000  0.04873115  1
  O  O47  1  0.44790942  0.25000000  0.38389560  1
  O  O48  1  0.55248668  0.75000000  0.95199339  1
  O  O49  1  0.55324935  0.75000000  0.28257052  1
  O  O50  1  0.55444086  0.75000000  0.61411686  1
  O  O51  1  0.61975173  0.25000000  0.92252413  1
  O  O52  1  0.61463772  0.25000000  0.58880828  1
  O  O53  1  0.62315211  0.25000000  0.25784868  1
  O  O54  1  0.67134993  0.04537401  0.74086389  1
  O  O55  1  0.67134993  0.45462599  0.74086389  1
  O  O56  1  0.67204820  0.04662451  0.40990773  1
  O  O57  1  0.67204820  0.45337549  0.40990773  1
  O  O58  1  0.67368082  0.05038163  0.07730836  1
  O  O59  1  0.67368082  0.44961837  0.07730836  1
  O  O60  1  0.82637629  0.54616651  0.57737846  1
  O  O61  1  0.82637629  0.95383349  0.57737846  1
  O  O62  1  0.82596370  0.54710781  0.90591818  1
  O  O63  1  0.82596370  0.95289219  0.90591818  1
  O  O64  1  0.83012928  0.54909761  0.24345372  1
  O  O65  1  0.83012928  0.95090239  0.24345372  1
  O  O66  1  0.88534508  0.75000000  0.75406342  1
  O  O67  1  0.88108848  0.75000000  0.42630643  1
  O  O68  1  0.88309187  0.75000000  0.08869717  1
  O  O69  1  0.94557936  0.25000000  0.77938439  1
  O  O70  1  0.94728429  0.25000000  0.45089948  1
  O  O71  1  0.94350585  0.25000000  0.11934291  1
