# generated using pymatgen
data_Na9Mn21O40
_symmetry_space_group_name_H-M   'P 1'
_cell_length_a   6.24338332
_cell_length_b   6.25296796
_cell_length_c   21.46067936
_cell_angle_alpha   97.22888879
_cell_angle_beta   82.66117681
_cell_angle_gamma   85.22777792
_symmetry_Int_Tables_number   1
_chemical_formula_structural   Na9Mn21O40
_chemical_formula_sum   'Na9 Mn21 O40'
_cell_volume   820.14353588
_cell_formula_units_Z   1
loop_
 _symmetry_equiv_pos_site_id
 _symmetry_equiv_pos_as_xyz
  1  'x, y, z'
loop_
 _atom_site_type_symbol
 _atom_site_label
 _atom_site_symmetry_multiplicity
 _atom_site_fract_x
 _atom_site_fract_y
 _atom_site_fract_z
 _atom_site_occupancy
  Na  Na0  1  0.96901150  0.76317757  0.04858823  1
  Na  Na1  1  0.36360515  0.36467836  0.25032354  1
  Na  Na2  1  0.83632047  0.43532120  0.34973188  1
  Na  Na3  1  0.43666144  0.83516408  0.14996502  1
  Na  Na4  1  0.23629946  0.03529481  0.54945299  1
  Na  Na5  1  0.76357746  0.96460972  0.45000426  1
  Na  Na6  1  0.16227744  0.57032669  0.65181739  1
  Na  Na7  1  0.62549671  0.63414193  0.74835383  1
  Na  Na8  1  0.03497308  0.22367103  0.95141325  1
  Mn  Mn9  1  0.50603239  0.00274090  0.99978211  1
  Mn  Mn10  1  0.90033427  0.09983616  0.20012245  1
  Mn  Mn11  1  0.70005259  0.29999481  0.10063688  1
  Mn  Mn12  1  0.50206670  0.50023706  0.00064562  1
  Mn  Mn13  1  0.19952988  0.29907739  0.09986560  1
  Mn  Mn14  1  0.90061384  0.60024524  0.19995079  1
  Mn  Mn15  1  0.29995261  0.19995820  0.39991565  1
  Mn  Mn16  1  0.60020668  0.89992398  0.29997004  1
  Mn  Mn17  1  0.49981232  0.50006319  0.49974658  1
  Mn  Mn18  1  0.90004539  0.10207427  0.69940910  1
  Mn  Mn19  1  0.10021554  0.89995487  0.30000975  1
  Mn  Mn20  1  0.29995995  0.70002984  0.39987409  1
  Mn  Mn21  1  0.70007847  0.29992272  0.59928486  1
  Mn  Mn22  1  0.00024247  0.50047235  0.49994218  1
  Mn  Mn23  1  0.69903508  0.79944333  0.59997013  1
  Mn  Mn24  1  0.40234727  0.10552086  0.70026062  1
  Mn  Mn25  1  0.57160681  0.17226888  0.85029408  1
  Mn  Mn26  1  0.79996332  0.69480599  0.89938902  1
  Mn  Mn27  1  0.09479817  0.40050298  0.80092114  1
  Mn  Mn28  1  0.09466903  0.89615883  0.80114606  1
  Mn  Mn29  1  0.29566131  0.69494117  0.89920324  1
  O  O30  1  0.92989853  0.07854348  0.10789613  1
  O  O31  1  0.72138643  0.27029750  0.00911449  1
  O  O32  1  0.30035942  0.27236242  0.00695233  1
  O  O33  1  0.47001751  0.09889568  0.09339914  1
  O  O34  1  0.92923204  0.50151166  0.10693064  1
  O  O35  1  0.46899877  0.52113862  0.09248046  1
  O  O36  1  0.86963615  0.12037334  0.29218769  1
  O  O37  1  0.67935045  0.33046455  0.19257043  1
  O  O38  1  0.69927988  0.87091173  0.20701162  1
  O  O39  1  0.87117601  0.69900621  0.29307591  1
  O  O40  1  0.32919029  0.10086368  0.30688655  1
  O  O41  1  0.10120512  0.32916905  0.19303456  1
  O  O42  1  0.33086446  0.67961015  0.30782398  1
  O  O43  1  0.12127105  0.86993741  0.20792120  1
  O  O44  1  0.73125868  0.27980627  0.50737346  1
  O  O45  1  0.92207301  0.06976649  0.60757697  1
  O  O46  1  0.52086395  0.46990496  0.40766171  1
  O  O47  1  0.90136388  0.52981100  0.59304467  1
  O  O48  1  0.50087346  0.92935679  0.39302621  1
  O  O49  1  0.49948194  0.06940671  0.60631896  1
  O  O50  1  0.09901703  0.47060534  0.40682780  1
  O  O51  1  0.72878935  0.70089509  0.50677715  1
  O  O52  1  0.27121437  0.29911652  0.49289896  1
  O  O53  1  0.47805083  0.52917064  0.59201985  1
  O  O54  1  0.07908317  0.93011472  0.39210997  1
  O  O55  1  0.66920991  0.32079592  0.69089890  1
  O  O56  1  0.26932463  0.72040413  0.49196395  1
  O  O57  1  0.86478639  0.13582193  0.79462516  1
  O  O58  1  0.32621288  0.15152205  0.79555345  1
  O  O59  1  0.88310140  0.65397042  0.80707005  1
  O  O60  1  0.67192161  0.90061191  0.69302736  1
  O  O61  1  0.12786326  0.30167912  0.70761984  1
  O  O62  1  0.53843463  0.46626451  0.90516769  1
  O  O63  1  0.13401069  0.88855573  0.70909113  1
  O  O64  1  0.31379644  0.66192855  0.80732856  1
  O  O65  1  0.05189061  0.48145407  0.89293482  1
  O  O66  1  0.55282179  0.92834134  0.90513876  1
  O  O67  1  0.70156285  0.72764071  0.99257938  1
  O  O68  1  0.05793270  0.91250727  0.89298785  1
  O  O69  1  0.28774766  0.73290688  0.99109988  1
