# generated using pymatgen
data_NaLi2CoPCO7
_symmetry_space_group_name_H-M   'P 1'
_cell_length_a   5.08343692
_cell_length_b   6.56375351
_cell_length_c   8.55594412
_cell_angle_alpha   89.99993500
_cell_angle_beta   84.97116873
_cell_angle_gamma   89.97971278
_symmetry_Int_Tables_number   1
_chemical_formula_structural   NaLi2CoPCO7
_chemical_formula_sum   'Na2 Li4 Co2 P2 C2 O14'
_cell_volume   284.38236752
_cell_formula_units_Z   2
loop_
 _symmetry_equiv_pos_site_id
 _symmetry_equiv_pos_as_xyz
  1  'x, y, z'
loop_
 _atom_site_type_symbol
 _atom_site_label
 _atom_site_symmetry_multiplicity
 _atom_site_fract_x
 _atom_site_fract_y
 _atom_site_fract_z
 _atom_site_occupancy
  Na  Na0  1  0.26698001  0.48150877  0.26691195  1
  Na  Na1  1  0.73306662  0.98146992  0.73301544  1
  Li  Li2  1  0.77476986  0.22682807  0.10545102  1
  Li  Li3  1  0.24556666  0.99167222  0.25938420  1
  Li  Li4  1  0.75431655  0.49166344  0.74058624  1
  Li  Li5  1  0.22527072  0.72685323  0.89447637  1
  Co  Co6  1  0.78322408  0.75327354  0.33739481  1
  Co  Co7  1  0.21673192  0.25323324  0.66277727  1
  P  P8  1  0.72669263  0.25184814  0.41293032  1
  P  P9  1  0.27326014  0.75173525  0.58716085  1
  C  C10  1  0.69983650  0.74020242  0.04315638  1
  C  C11  1  0.30000894  0.24024790  0.95642464  1
  O  O12  1  0.37586542  0.20955178  0.09497670  1
  O  O13  1  0.94713851  0.74959058  0.07008499  1
  O  O14  1  0.52192554  0.76249343  0.16317390  1
  O  O15  1  0.83563354  0.06788901  0.31011799  1
  O  O16  1  0.79856864  0.43844865  0.30357163  1
  O  O17  1  0.15161061  0.76429642  0.42807577  1
  O  O18  1  0.42155973  0.23469754  0.44239036  1
  O  O19  1  0.57835141  0.73459464  0.55758134  1
  O  O20  1  0.84823761  0.26440038  0.57186415  1
  O  O21  1  0.20132955  0.93848042  0.69635241  1
  O  O22  1  0.16439721  0.56795797  0.68988518  1
  O  O23  1  0.47818588  0.26230089  0.83701688  1
  O  O24  1  0.05326142  0.24946735  0.92985109  1
  O  O25  1  0.62420131  0.70953583  0.90538811  1
