# generated using pymatgen
data_Li3VCr(P2O7)2
_symmetry_space_group_name_H-M   'P 1'
_cell_length_a   5.00027632
_cell_length_b   7.06173723
_cell_length_c   8.31591310
_cell_angle_alpha   89.61767355
_cell_angle_beta   90.41186835
_cell_angle_gamma   71.20825183
_symmetry_Int_Tables_number   1
_chemical_formula_structural   Li3VCr(P2O7)2
_chemical_formula_sum   'Li3 V1 Cr1 P4 O14'
_cell_volume   277.96818404
_cell_formula_units_Z   1
loop_
 _symmetry_equiv_pos_site_id
 _symmetry_equiv_pos_as_xyz
  1  'x, y, z'
loop_
 _atom_site_type_symbol
 _atom_site_label
 _atom_site_symmetry_multiplicity
 _atom_site_fract_x
 _atom_site_fract_y
 _atom_site_fract_z
 _atom_site_occupancy
  Li  Li0  1  0.17399888  0.34174875  0.85855648  1
  Li  Li1  1  0.72429020  0.09180286  0.66250030  1
  Li  Li2  1  0.82455956  0.66386294  0.35300062  1
  V  V3  1  0.20707826  0.27591415  0.49403251  1
  Cr  Cr4  1  0.78619951  0.72529723  0.00493858  1
  P  P5  1  0.39610306  0.47955508  0.17942771  1
  P  P6  1  0.21339957  0.90949682  0.79315277  1
  P  P7  1  0.78291594  0.08393234  0.28190223  1
  P  P8  1  0.60693895  0.52330936  0.68374413  1
  O  O9  1  0.04093039  0.14465982  0.30978459  1
  O  O10  1  0.13067744  0.10908352  0.69999788  1
  O  O11  1  0.18933111  0.52669884  0.03465239  1
  O  O12  1  0.24276200  0.50631335  0.33932513  1
  O  O13  1  0.44429856  0.37187143  0.68913342  1
  O  O14  1  0.62191560  0.07597448  0.43863162  1
  O  O15  1  0.57068657  0.24485226  0.15673501  1
  O  O16  1  0.38145479  0.74508587  0.66308098  1
  O  O17  1  0.40294537  0.90829994  0.93635099  1
  O  O18  1  0.60910993  0.59554808  0.17440171  1
  O  O19  1  0.76592176  0.51582581  0.84413567  1
  O  O20  1  0.80007573  0.49906651  0.53973027  1
  O  O21  1  0.84658125  0.88349997  0.19343784  1
  O  O22  1  0.93220857  0.87339561  0.83045217  1
