# generated using pymatgen
data_Li9V3P8O29
_symmetry_space_group_name_H-M   'P 1'
_cell_length_a   9.92534831
_cell_length_b   9.92451221
_cell_length_c   13.77357969
_cell_angle_alpha   89.81092965
_cell_angle_beta   89.99617135
_cell_angle_gamma   59.94622373
_symmetry_Int_Tables_number   1
_chemical_formula_structural   Li9V3P8O29
_chemical_formula_sum   'Li18 V6 P16 O58'
_cell_volume   1174.33957832
_cell_formula_units_Z   2
loop_
 _symmetry_equiv_pos_site_id
 _symmetry_equiv_pos_as_xyz
  1  'x, y, z'
loop_
 _atom_site_type_symbol
 _atom_site_label
 _atom_site_symmetry_multiplicity
 _atom_site_fract_x
 _atom_site_fract_y
 _atom_site_fract_z
 _atom_site_occupancy
  Li  Li0  1  0.90414520  0.76591931  0.06178708  1
  Li  Li1  1  0.76140779  0.90946190  0.57341814  1
  Li  Li2  1  0.90829187  0.31834943  0.56397865  1
  Li  Li3  1  0.66850552  0.66439977  0.37744045  1
  Li  Li4  1  0.66789891  0.69535329  0.88089941  1
  Li  Li5  1  0.77109840  0.32937771  0.06092086  1
  Li  Li6  1  0.32932865  0.90420325  0.06467992  1
  Li  Li7  1  0.65305553  0.24346402  0.43443508  1
  Li  Li8  1  0.66876169  0.09475408  0.92501044  1
  Li  Li9  1  0.23075818  0.66575701  0.93988549  1
  Li  Li10  1  0.56242004  0.00999307  0.75643061  1
  Li  Li11  1  0.36674363  0.30240667  0.62178495  1
  Li  Li12  1  0.33223371  0.33331294  0.12017898  1
  Li  Li13  1  0.09973693  0.66439830  0.43738996  1
  Li  Li14  1  0.23171340  0.10220791  0.43543027  1
  Li  Li15  1  0.10267478  0.23050397  0.93346042  1
  Li  Li16  1  0.99455993  0.00280105  0.98676674  1
  Li  Li17  1  0.92432248  0.03909020  0.50390227  1
  V  V18  1  0.56991443  0.43094984  0.24589263  1
  V  V19  1  0.43237480  0.56099496  0.76119859  1
  V  V20  1  0.36554272  0.75330176  0.56260912  1
  V  V21  1  0.43675933  0.00067903  0.25059516  1
  V  V22  1  0.99871694  0.56529275  0.25073566  1
  V  V23  1  0.00484986  0.43221107  0.74710849  1
  P  P24  1  0.91204639  0.77440782  0.84204236  1
  P  P25  1  0.77503124  0.91201278  0.34398566  1
  P  P26  1  0.91035682  0.31447741  0.34575449  1
  P  P27  1  0.66734345  0.66627514  0.12325984  1
  P  P28  1  0.66071746  0.66550431  0.62087889  1
  P  P29  1  0.77737876  0.31267380  0.84308360  1
  P  P30  1  0.68096314  0.22926681  0.65475460  1
  P  P31  1  0.32044234  0.90595490  0.84961172  1
  P  P32  1  0.68588330  0.08752459  0.15271827  1
  P  P33  1  0.32998897  0.76533244  0.34229902  1
  P  P34  1  0.22614873  0.68250450  0.15856396  1
  P  P35  1  0.33355924  0.33494079  0.37762422  1
  P  P36  1  0.32733851  0.33771633  0.88030174  1
  P  P37  1  0.08907238  0.68781644  0.65300709  1
  P  P38  1  0.23675747  0.08717599  0.66158403  1
  P  P39  1  0.09053016  0.22718866  0.15679818  1
  O  O40  1  0.99785551  0.78297639  0.56447179  1
  O  O41  1  0.92176948  0.75077813  0.34679685  1
  O  O42  1  0.77587143  0.99444938  0.06479684  1
  O  O43  1  0.75409305  0.91782314  0.84209629  1
  O  O44  1  0.89570591  0.62777420  0.82532183  1
  O  O45  1  0.81198680  0.67344976  0.16335013  1
  O  O46  1  0.88906838  0.47934904  0.33796912  1
  O  O47  1  0.99836843  0.23141372  0.06781521  1
  O  O48  1  0.92173937  0.33097178  0.84240944  1
  O  O49  1  0.68180349  0.80237313  0.63968571  1
  O  O50  1  0.63079935  0.89245022  0.33664912  1
  O  O51  1  0.80900769  0.50821484  0.64020391  1
  O  O52  1  0.66676569  0.66696707  0.01405433  1
  O  O53  1  0.58563476  0.67536142  0.51546174  1
  O  O54  1  0.67807895  0.51113913  0.16058555  1
  O  O55  1  0.48031185  0.88727295  0.84254219  1
  O  O56  1  0.51643314  0.81034131  0.16413114  1
  O  O57  1  0.75090707  0.32495724  0.34432468  1
  O  O58  1  0.78890808  0.21595338  0.74667973  1
  O  O59  1  0.76764798  0.23638295  0.56369185  1
  O  O60  1  0.78377154  0.21504811  0.93121637  1
  O  O61  1  0.62932320  0.47342083  0.83808456  1
  O  O62  1  0.51513735  0.68054032  0.67998006  1
  O  O63  1  0.67382632  0.24772555  0.15225947  1
  O  O64  1  0.49437844  0.63015036  0.32395293  1
  O  O65  1  0.32929405  0.91957518  0.34728680  1
  O  O66  1  0.78789668  0.99820323  0.24835006  1
  O  O67  1  0.77109831  0.00885163  0.43130129  1
  O  O68  1  0.24987126  0.98083872  0.57082364  1
  O  O69  1  0.66466805  0.08680576  0.65280848  1
  O  O70  1  0.52074387  0.37957313  0.66595827  1
  O  O71  1  0.32069657  0.75024956  0.84770169  1
  O  O72  1  0.48363202  0.32955891  0.33675959  1
  O  O73  1  0.37011762  0.51860807  0.16769017  1
  O  O74  1  0.22957551  0.77647888  0.07276172  1
  O  O75  1  0.26051597  0.74136857  0.43706178  1
  O  O76  1  0.21425623  0.77761801  0.25798611  1
  O  O77  1  0.25508619  0.67467721  0.65005343  1
  O  O78  1  0.48159206  0.20015703  0.84954295  1
  O  O79  1  0.52201692  0.10831981  0.16518215  1
  O  O80  1  0.31208705  0.49472155  0.83929592  1
  O  O81  1  0.29928344  0.35731156  0.98883997  1
  O  O82  1  0.33597910  0.33668850  0.48718785  1
  O  O83  1  0.18727571  0.48555538  0.33876768  1
  O  O84  1  0.37385139  0.11109293  0.66642896  1
  O  O85  1  0.32813500  0.18831225  0.33990385  1
  O  O86  1  0.07686843  0.67329047  0.15780720  1
  O  O87  1  0.00958572  0.78572217  0.74865248  1
  O  O88  1  0.00674945  0.76397698  0.93224715  1
  O  O89  1  0.11075324  0.52494886  0.66086959  1
  O  O90  1  0.18630036  0.32608914  0.83388496  1
  O  O91  1  0.11007333  0.37083169  0.16938703  1
  O  O92  1  0.25073928  0.07886647  0.15792873  1
  O  O93  1  0.21861438  0.00141074  0.93520414  1
  O  O94  1  0.21950777  0.99631912  0.75204358  1
  O  O95  1  0.08001012  0.23970576  0.65313983  1
  O  O96  1  0.00310036  0.22268357  0.43467800  1
  O  O97  1  0.00116021  0.21434884  0.25172607  1
