# generated using pymatgen
data_TiCr7O12
_symmetry_space_group_name_H-M   'P 1'
_cell_length_a   5.46695766
_cell_length_b   5.08819989
_cell_length_c   7.47557800
_cell_angle_alpha   89.95176361
_cell_angle_beta   95.67222565
_cell_angle_gamma   89.99730365
_symmetry_Int_Tables_number   1
_chemical_formula_structural   TiCr7O12
_chemical_formula_sum   'Ti1 Cr7 O12'
_cell_volume   206.92968222
_cell_formula_units_Z   1
loop_
 _symmetry_equiv_pos_site_id
 _symmetry_equiv_pos_as_xyz
  1  'x, y, z'
loop_
 _atom_site_type_symbol
 _atom_site_label
 _atom_site_symmetry_multiplicity
 _atom_site_fract_x
 _atom_site_fract_y
 _atom_site_fract_z
 _atom_site_occupancy
  Ti  Ti0  1  0.70491238  0.99960387  0.14663138  1
  Cr  Cr1  1  0.80222334  0.49915383  0.84785142  1
  Cr  Cr2  1  0.29950159  0.00073026  0.84931378  1
  Cr  Cr3  1  0.69856121  0.00013855  0.64990399  1
  Cr  Cr4  1  0.20005270  0.50015529  0.65023653  1
  Cr  Cr5  1  0.79931964  0.49910587  0.35135479  1
  Cr  Cr6  1  0.30143835  0.00074943  0.35035296  1
  Cr  Cr7  1  0.20001611  0.49992181  0.15065872  1
  O  O8  1  0.50018535  0.30067489  0.75011613  1
  O  O9  1  0.65220330  0.85050756  0.90552243  1
  O  O10  1  0.85073548  0.65074266  0.59868781  1
  O  O11  1  0.15007733  0.65098835  0.89964898  1
  O  O12  1  0.65031526  0.15047299  0.39948155  1
  O  O13  1  0.00069441  0.19843141  0.74930135  1
  O  O14  1  0.35013037  0.84931757  0.60016652  1
  O  O15  1  0.84360980  0.34289695  0.09961677  1
  O  O16  1  0.14995081  0.35031016  0.40060789  1
  O  O17  1  0.35002283  0.14672866  0.10023321  1
  O  O18  1  0.50218781  0.70253452  0.25127240  1
  O  O19  1  0.99386390  0.80683338  0.24904238  1
