# generated using pymatgen
data_Na5V7O14
_symmetry_space_group_name_H-M   'P 1'
_cell_length_a   8.39236101
_cell_length_b   7.26682945
_cell_length_c   5.20066350
_cell_angle_alpha   98.17344884
_cell_angle_beta   102.66111688
_cell_angle_gamma   90.59617121
_symmetry_Int_Tables_number   1
_chemical_formula_structural   Na5V7O14
_chemical_formula_sum   'Na5 V7 O14'
_cell_volume   306.02732278
_cell_formula_units_Z   1
loop_
 _symmetry_equiv_pos_site_id
 _symmetry_equiv_pos_as_xyz
  1  'x, y, z'
loop_
 _atom_site_type_symbol
 _atom_site_label
 _atom_site_symmetry_multiplicity
 _atom_site_fract_x
 _atom_site_fract_y
 _atom_site_fract_z
 _atom_site_occupancy
  Na  Na0  1  0.13410576  0.13086280  0.56500697  1
  Na  Na1  1  0.28571400  0.28571400  0.14285700  1
  Na  Na2  1  0.43732324  0.44056620  0.72070703  1
  Na  Na3  1  0.71779409  0.71820378  0.85762712  1
  Na  Na4  1  0.85363391  0.85322422  0.42808688  1
  V  V5  1  0.07351840  0.57291740  0.78987346  1
  V  V6  1  0.49790960  0.99851060  0.49584154  1
  V  V7  1  0.63940647  0.14489704  0.06687873  1
  V  V8  1  0.21703292  0.71241841  0.35714861  1
  V  V9  1  0.78571400  0.28571400  0.64285700  1
  V  V10  1  0.35439608  0.85900959  0.92856639  1
  V  V11  1  0.93202253  0.42653196  0.21883627  1
  O  O12  1  0.01112478  0.31999753  0.88629928  1
  O  O13  1  0.16006035  0.45484365  0.46356335  1
  O  O14  1  0.41136865  0.11658535  0.82215165  1
  O  O15  1  0.29746289  0.60598150  0.03744051  1
  O  O16  1  0.56030422  0.25143147  0.39941472  1
  O  O17  1  0.13622030  0.82487754  0.67491256  1
  O  O18  1  0.72284223  0.03386542  0.74065178  1
  O  O19  1  0.27396611  0.96544650  0.24827349  1
  O  O20  1  0.43520870  0.74655146  0.61080144  1
  O  O21  1  0.70838148  0.39530779  0.94531236  1
  O  O22  1  0.86304752  0.17612121  0.34040164  1
  O  O23  1  0.84858577  0.53756358  0.54506322  1
  O  O24  1  0.57925020  0.88992726  0.15994604  1
  O  O25  1  0.99217780  0.68150174  0.12576796  1
