# generated using pymatgen
data_Li7Mn4(PO4)6
_symmetry_space_group_name_H-M   'P 1'
_cell_length_a   8.46204417
_cell_length_b   8.53935301
_cell_length_c   8.98024265
_cell_angle_alpha   89.25471170
_cell_angle_beta   64.18738902
_cell_angle_gamma   120.68566537
_symmetry_Int_Tables_number   1
_chemical_formula_structural   Li7Mn4(PO4)6
_chemical_formula_sum   'Li7 Mn4 P6 O24'
_cell_volume   478.62408067
_cell_formula_units_Z   1
loop_
 _symmetry_equiv_pos_site_id
 _symmetry_equiv_pos_as_xyz
  1  'x, y, z'
loop_
 _atom_site_type_symbol
 _atom_site_label
 _atom_site_symmetry_multiplicity
 _atom_site_fract_x
 _atom_site_fract_y
 _atom_site_fract_z
 _atom_site_occupancy
  Li  Li0  1  0.93371204  0.26955293  0.14565566  1
  Li  Li1  1  0.59652843  0.66659697  0.13949775  1
  Li  Li2  1  0.90784999  0.45935117  0.63082032  1
  Li  Li3  1  0.80744540  0.07554429  0.86273253  1
  Li  Li4  1  0.19269353  0.92191283  0.13954060  1
  Li  Li5  1  0.39987193  0.33017801  0.86315098  1
  Li  Li6  1  0.05993951  0.73090578  0.86250681  1
  Mn  Mn7  1  0.30584194  0.65219527  0.04307687  1
  Mn  Mn8  1  0.67740013  0.33725068  0.97875347  1
  Mn  Mn9  1  0.30105970  0.15233717  0.55792618  1
  Mn  Mn10  1  0.70353569  0.84842896  0.43874397  1
  P  P11  1  0.79721321  0.54568024  0.25027936  1
  P  P12  1  0.20448170  0.24677246  0.25387189  1
  P  P13  1  0.50155311  0.04450394  0.74244743  1
  P  P14  1  0.50282794  0.95093966  0.25162033  1
  P  P15  1  0.79479129  0.75408539  0.74395888  1
  P  P16  1  0.20613958  0.46177258  0.74917030  1
  O  O17  1  0.97922734  0.13009754  0.27608429  1
  O  O18  1  0.69746472  0.13721001  0.09734984  1
  O  O19  1  0.96900731  0.50352176  0.20085901  1
  O  O20  1  0.75934754  0.55247747  0.09451001  1
  O  O21  1  0.34276529  0.20075707  0.10237247  1
  O  O22  1  0.60424675  0.00184249  0.57941843  1
  O  O23  1  0.88315722  0.74880247  0.26858959  1
  O  O24  1  0.59084886  0.39312324  0.41653209  1
  O  O25  1  0.30315443  0.46385749  0.20053335  1
  O  O26  1  0.67243750  0.18181822  0.78745705  1
  O  O27  1  0.19130701  0.19077831  0.42406670  1
  O  O28  1  0.60324711  0.84849415  0.27670000  1
  O  O29  1  0.39405435  0.14401341  0.72507696  1
  O  O30  1  0.81189593  0.81891846  0.57516945  1
  O  O31  1  0.34138687  0.82080464  0.19234146  1
  O  O32  1  0.71227370  0.53989320  0.78253072  1
  O  O33  1  0.41605194  0.60349500  0.58413675  1
  O  O34  1  0.11962540  0.25395240  0.74552832  1
  O  O35  1  0.38326581  0.98737876  0.41182190  1
  O  O36  1  0.64547660  0.78738060  0.90077250  1
  O  O37  1  0.24057377  0.46514502  0.91242294  1
  O  O38  1  0.03653423  0.50322923  0.78454099  1
  O  O39  1  0.31036948  0.85868038  0.90246111  1
  O  O40  1  0.01870570  0.87585635  0.72608570  1
