# generated using pymatgen
data_VOF2
_symmetry_space_group_name_H-M   'P 1'
_cell_length_a   5.17174510
_cell_length_b   9.35071735
_cell_length_c   5.24718653
_cell_angle_alpha   104.96014285
_cell_angle_beta   120.18887008
_cell_angle_gamma   73.99886583
_symmetry_Int_Tables_number   1
_chemical_formula_structural   VOF2
_chemical_formula_sum   'V4 O4 F8'
_cell_volume   208.64469699
_cell_formula_units_Z   4
loop_
 _symmetry_equiv_pos_site_id
 _symmetry_equiv_pos_as_xyz
  1  'x, y, z'
loop_
 _atom_site_type_symbol
 _atom_site_label
 _atom_site_symmetry_multiplicity
 _atom_site_fract_x
 _atom_site_fract_y
 _atom_site_fract_z
 _atom_site_occupancy
  V  V0  1  0.00000000  0.00000000  0.00000000  1
  V  V1  1  0.71198624  0.75030817  0.26605852  1
  V  V2  1  0.50000000  0.50000000  0.50000000  1
  V  V3  1  0.28801376  0.24969183  0.73394148  1
  O  O4  1  0.38238066  0.87077523  0.20893098  1
  O  O5  1  0.29307646  0.37227578  0.54859544  1
  O  O6  1  0.70692354  0.62772422  0.45140456  1
  O  O7  1  0.61761934  0.12922477  0.79106902  1
  F  F8  1  0.11159924  0.62746382  0.27734527  1
  F  F9  1  0.03213701  0.12876716  0.39060119  1
  F  F10  1  0.47142249  0.36976265  0.11649970  1
  F  F11  1  0.78333071  0.87005289  0.03267871  1
  F  F12  1  0.21666929  0.12994711  0.96732129  1
  F  F13  1  0.52857751  0.63023735  0.88350030  1
  F  F14  1  0.96786299  0.87123284  0.60939881  1
  F  F15  1  0.88840076  0.37253618  0.72265473  1
