# generated using pymatgen
data_V6O5F19
_symmetry_space_group_name_H-M   'P 1'
_cell_length_a   5.55107096
_cell_length_b   5.32856355
_cell_length_c   14.72219420
_cell_angle_alpha   89.70356051
_cell_angle_beta   100.39211020
_cell_angle_gamma   92.18668368
_symmetry_Int_Tables_number   1
_chemical_formula_structural   V6O5F19
_chemical_formula_sum   'V6 O5 F19'
_cell_volume   428.01535065
_cell_formula_units_Z   1
loop_
 _symmetry_equiv_pos_site_id
 _symmetry_equiv_pos_as_xyz
  1  'x, y, z'
loop_
 _atom_site_type_symbol
 _atom_site_label
 _atom_site_symmetry_multiplicity
 _atom_site_fract_x
 _atom_site_fract_y
 _atom_site_fract_z
 _atom_site_occupancy
  V  V0  1  0.04462225  0.96596487  0.00402779  1
  V  V1  1  0.11185345  0.48259166  0.33159976  1
  V  V2  1  0.28164651  0.03388597  0.66256595  1
  V  V3  1  0.53342787  0.45729815  0.99613776  1
  V  V4  1  0.60277341  0.02903899  0.32976285  1
  V  V5  1  0.81902663  0.51319321  0.66822727  1
  O  O6  1  0.03715706  0.20237928  0.64242674  1
  O  O7  1  0.36377585  0.20764758  0.30825788  1
  O  O8  1  0.69788074  0.22636096  0.97821983  1
  O  O9  1  0.28128200  0.79449363  0.02217318  1
  O  O10  1  0.86561854  0.29196661  0.30974103  1
  F  F11  1  0.21405461  0.27528969  0.97316730  1
  F  F12  1  0.13399014  0.71710560  0.69083666  1
  F  F13  1  0.04170219  0.09706155  0.11456365  1
  F  F14  1  0.23627669  0.41124939  0.44780848  1
  F  F15  1  0.39111703  0.07327755  0.78211633  1
  F  F16  1  0.14488661  0.58306002  0.21938227  1
  F  F17  1  0.30791147  0.90953217  0.55367888  1
  F  F18  1  0.45173508  0.59379601  0.88523077  1
  F  F19  1  0.51822972  0.29796262  0.64294986  1
  F  F20  1  0.47286604  0.72517239  0.35731400  1
  F  F21  1  0.64935430  0.78691443  0.69192017  1
  F  F22  1  0.52450739  0.43546314  0.11586037  1
  F  F23  1  0.73153770  0.08303114  0.44732222  1
  F  F24  1  0.88675559  0.40433849  0.78327860  1
  F  F25  1  0.64461118  0.92239134  0.22009259  1
  F  F26  1  0.80169861  0.56987023  0.54892987  1
  F  F27  1  0.92889909  0.92756124  0.88447985  1
  F  F28  1  0.79734194  0.71299793  0.02740497  1
  F  F29  1  0.98346130  0.76910514  0.36052114  1
