# generated using pymatgen
data_LiMn8F33
_symmetry_space_group_name_H-M   'P 1'
_cell_length_a   8.61907671
_cell_length_b   8.61920197
_cell_length_c   18.40142625
_cell_angle_alpha   89.99967760
_cell_angle_beta   90.00016141
_cell_angle_gamma   120.00048372
_symmetry_Int_Tables_number   1
_chemical_formula_structural   LiMn8F33
_chemical_formula_sum   'Li2 Mn16 F66'
_cell_volume   1183.88032620
_cell_formula_units_Z   2
loop_
 _symmetry_equiv_pos_site_id
 _symmetry_equiv_pos_as_xyz
  1  'x, y, z'
loop_
 _atom_site_type_symbol
 _atom_site_label
 _atom_site_symmetry_multiplicity
 _atom_site_fract_x
 _atom_site_fract_y
 _atom_site_fract_z
 _atom_site_occupancy
  Li  Li0  1  0.33332885  0.66667089  0.06634480  1
  Li  Li1  1  0.66667115  0.33334204  0.56634480  1
  Mn  Mn2  1  0.00717179  0.66947758  0.25131052  1
  Mn  Mn3  1  0.00738913  0.33902592  0.87572281  1
  Mn  Mn4  1  0.33164005  0.99261416  0.87572038  1
  Mn  Mn5  1  0.99999957  0.00000075  0.99608093  1
  Mn  Mn6  1  0.00000043  0.00000118  0.49608093  1
  Mn  Mn7  1  0.33332906  0.66666061  0.63028308  1
  Mn  Mn8  1  0.33051862  0.33769022  0.25131004  1
  Mn  Mn9  1  0.33769640  0.33052321  0.75131031  1
  Mn  Mn10  1  0.66230360  0.99282681  0.25131031  1
  Mn  Mn11  1  0.66097470  0.66836297  0.87572309  1
  Mn  Mn12  1  0.66835995  0.66097512  0.37572038  1
  Mn  Mn13  1  0.33902530  0.00738827  0.37572309  1
  Mn  Mn14  1  0.66667094  0.33333154  0.13028308  1
  Mn  Mn15  1  0.99282821  0.66230579  0.75131052  1
  Mn  Mn16  1  0.66948138  0.00717160  0.75131004  1
  Mn  Mn17  1  0.99261087  0.33163678  0.37572281  1
  F  F18  1  0.06802677  0.86907805  0.04437957  1
  F  F19  1  0.07482075  0.85804806  0.19714054  1
  F  F20  1  0.12650809  0.92266408  0.42775334  1
  F  F21  1  0.12695228  0.87296943  0.81126430  1
  F  F22  1  0.20508670  0.79145070  0.31467519  1
  F  F23  1  0.08366472  0.54049360  0.81464680  1
  F  F24  1  0.12393503  0.59040878  0.19820359  1
  F  F25  1  0.20407514  0.74230700  0.69831020  1
  F  F26  1  0.25088264  0.79819670  0.92959344  1
  F  F27  1  0.11412133  0.52120841  0.42956306  1
  F  F28  1  0.13440379  0.53560471  0.58194333  1
  F  F29  1  0.40708365  0.88587972  0.42956511  1
  F  F30  1  0.07733552  0.20384894  0.42775593  1
  F  F31  1  0.40120808  0.86559408  0.58194457  1
  F  F32  1  0.20180514  0.45268779  0.92959846  1
  F  F33  1  0.12703452  0.25398512  0.81126714  1
  F  F34  1  0.45682934  0.91633545  0.81464611  1
  F  F35  1  0.20854827  0.41363663  0.31467342  1
  F  F36  1  0.46646963  0.87606468  0.19820340  1
  F  F37  1  0.13092598  0.19895429  0.04437766  1
  F  F38  1  0.14194823  0.21676728  0.19713893  1
  F  F39  1  0.25768879  0.46176117  0.69831021  1
  F  F40  1  0.53823817  0.79592670  0.69831033  1
  F  F41  1  0.19895817  0.13092279  0.54437684  1
  F  F42  1  0.21677092  0.14195466  0.69713980  1
  F  F43  1  0.40958716  0.53352357  0.19820289  1
  F  F44  1  0.20384742  0.07733582  0.92775230  1
  F  F45  1  0.46439280  0.59879520  0.58194457  1
  F  F46  1  0.54730924  0.74911182  0.92959801  1
  F  F47  1  0.47878888  0.59291169  0.42956327  1
  F  F48  1  0.45950531  0.54317112  0.81464736  1
  F  F49  1  0.58635831  0.79491351  0.31467533  1
  F  F50  1  0.25398366  0.12703345  0.31126704  1
  F  F51  1  0.41364169  0.20855519  0.81467533  1
  F  F52  1  0.74601634  0.87304879  0.81126704  1
  F  F53  1  0.54317066  0.45950511  0.31464611  1
  F  F54  1  0.78322908  0.92518374  0.19713980  1
  F  F55  1  0.53353037  0.40959505  0.69820340  1
  F  F56  1  0.80104183  0.93196562  0.04437684  1
  F  F57  1  0.46176183  0.25768753  0.19831033  1
  F  F58  1  0.45269076  0.20180257  0.42959801  1
  F  F59  1  0.59291635  0.47879607  0.92956511  1
  F  F60  1  0.59879192  0.46438601  0.08194457  1
  F  F61  1  0.79615258  0.87348839  0.42775230  1
  F  F62  1  0.52121112  0.11412281  0.92956327  1
  F  F63  1  0.87349191  0.79615699  0.92775334  1
  F  F64  1  0.53560720  0.13440340  0.08194457  1
  F  F65  1  0.74911736  0.54731405  0.42959344  1
  F  F66  1  0.87304772  0.74601615  0.31126430  1
  F  F67  1  0.54049469  0.08366582  0.31464736  1
  F  F68  1  0.79491330  0.58636300  0.81467519  1
  F  F69  1  0.59041284  0.12393641  0.69820289  1
  F  F70  1  0.93197323  0.80105128  0.54437957  1
  F  F71  1  0.92517925  0.78322730  0.69714054  1
  F  F72  1  0.79592486  0.53823186  0.19831020  1
  F  F73  1  0.74231121  0.20407338  0.19831021  1
  F  F74  1  0.87606497  0.46647275  0.69820359  1
  F  F75  1  0.86559621  0.40120192  0.08194333  1
  F  F76  1  0.79819486  0.25088165  0.42959846  1
  F  F77  1  0.88587867  0.40708608  0.92956306  1
  F  F78  1  0.91633528  0.45682889  0.31464680  1
  F  F79  1  0.79145173  0.20508836  0.81467342  1
  F  F80  1  0.87296548  0.12695060  0.31126714  1
  F  F81  1  0.85805177  0.07481905  0.69713893  1
  F  F82  1  0.86907402  0.06802831  0.54437766  1
  F  F83  1  0.92266448  0.12651343  0.92775593  1
