# generated using pymatgen
data_Li3V2F12
_symmetry_space_group_name_H-M   'P 1'
_cell_length_a   9.72815637
_cell_length_b   8.84241076
_cell_length_c   5.03045531
_cell_angle_alpha   90.00000000
_cell_angle_beta   88.37122997
_cell_angle_gamma   90.00000000
_symmetry_Int_Tables_number   1
_chemical_formula_structural   Li3V2F12
_chemical_formula_sum   'Li6 V4 F24'
_cell_volume   432.54671616
_cell_formula_units_Z   2
loop_
 _symmetry_equiv_pos_site_id
 _symmetry_equiv_pos_as_xyz
  1  'x, y, z'
loop_
 _atom_site_type_symbol
 _atom_site_label
 _atom_site_symmetry_multiplicity
 _atom_site_fract_x
 _atom_site_fract_y
 _atom_site_fract_z
 _atom_site_occupancy
  Li  Li0  1  0.10828503  0.85715356  0.01594396  1
  Li  Li1  1  0.38231260  0.39991112  0.49650905  1
  Li  Li2  1  0.39770183  0.93503070  0.98202755  1
  Li  Li3  1  0.60828503  0.64284644  0.01594396  1
  Li  Li4  1  0.88231260  0.10008888  0.49650905  1
  Li  Li5  1  0.89770183  0.56496930  0.98202755  1
  V  V6  1  0.13159627  0.24283877  0.99765807  1
  V  V7  1  0.36697078  0.74383727  0.50273655  1
  V  V8  1  0.63159627  0.25716123  0.99765807  1
  V  V9  1  0.86697078  0.75616273  0.50273655  1
  F  F10  1  0.02139741  0.11077307  0.82271080  1
  F  F11  1  0.01658012  0.23147648  0.28822362  1
  F  F12  1  0.03093086  0.39835934  0.87508731  1
  F  F13  1  0.22563344  0.07713558  0.11492428  1
  F  F14  1  0.24806765  0.25335415  0.71032748  1
  F  F15  1  0.24351489  0.36454765  0.17817846  1
  F  F16  1  0.24951779  0.75606038  0.21407857  1
  F  F17  1  0.25877058  0.88134990  0.71066953  1
  F  F18  1  0.28302813  0.57639282  0.64787101  1
  F  F19  1  0.46271792  0.89840419  0.33701628  1
  F  F20  1  0.48798741  0.75889704  0.79810025  1
  F  F21  1  0.47977229  0.59454647  0.32088025  1
  F  F22  1  0.52139741  0.38922693  0.82271080  1
  F  F23  1  0.51658012  0.26852352  0.28822362  1
  F  F24  1  0.53093086  0.10164066  0.87508731  1
  F  F25  1  0.72563344  0.42286442  0.11492428  1
  F  F26  1  0.74806765  0.24664585  0.71032748  1
  F  F27  1  0.74351489  0.13545235  0.17817846  1
  F  F28  1  0.74951779  0.74393962  0.21407857  1
  F  F29  1  0.75877058  0.61865010  0.71066953  1
  F  F30  1  0.78302813  0.92360718  0.64787101  1
  F  F31  1  0.96271792  0.60159581  0.33701628  1
  F  F32  1  0.98798741  0.74110296  0.79810025  1
  F  F33  1  0.97977229  0.90545353  0.32088025  1
