# generated using pymatgen
data_Na4Ti5Mn4O18
_symmetry_space_group_name_H-M   'P 1'
_cell_length_a   9.42692261
_cell_length_b   26.49639471
_cell_length_c   2.94337450
_cell_angle_alpha   90.00000000
_cell_angle_beta   90.00000000
_cell_angle_gamma   90.00000000
_symmetry_Int_Tables_number   1
_chemical_formula_structural   Na4Ti5Mn4O18
_chemical_formula_sum   'Na8 Ti10 Mn8 O36'
_cell_volume   735.19450018
_cell_formula_units_Z   2
loop_
 _symmetry_equiv_pos_site_id
 _symmetry_equiv_pos_as_xyz
  1  'x, y, z'
loop_
 _atom_site_type_symbol
 _atom_site_label
 _atom_site_symmetry_multiplicity
 _atom_site_fract_x
 _atom_site_fract_y
 _atom_site_fract_z
 _atom_site_occupancy
  Na  Na0  1  0.17028500  0.99328993  0.00000000  1
  Na  Na1  1  0.21042482  0.20281622  0.00000000  1
  Na  Na2  1  0.28957518  0.70281622  0.00000000  1
  Na  Na3  1  0.32971500  0.49328993  0.00000000  1
  Na  Na4  1  0.67028500  0.50671007  0.00000000  1
  Na  Na5  1  0.71042482  0.29718378  0.00000000  1
  Na  Na6  1  0.78957518  0.79718378  0.00000000  1
  Na  Na7  1  0.82971500  0.00671007  0.00000000  1
  Ti  Ti8  1  0.00000000  0.50000000  0.00000000  1
  Ti  Ti9  1  0.01513208  0.10489933  0.00000000  1
  Ti  Ti10  1  0.13746418  0.80917804  0.50000000  1
  Ti  Ti11  1  0.36253582  0.30917804  0.50000000  1
  Ti  Ti12  1  0.48486792  0.60489933  0.00000000  1
  Ti  Ti13  1  0.50000000  0.00000000  0.00000000  1
  Ti  Ti14  1  0.51513208  0.39510067  0.00000000  1
  Ti  Ti15  1  0.63746418  0.69082196  0.50000000  1
  Ti  Ti16  1  0.86253582  0.19082196  0.50000000  1
  Ti  Ti17  1  0.98486792  0.89510067  0.00000000  1
  Mn  Mn18  1  0.02894586  0.30724804  0.00000000  1
  Mn  Mn19  1  0.14139807  0.59019838  0.50000000  1
  Mn  Mn20  1  0.35860193  0.09019838  0.50000000  1
  Mn  Mn21  1  0.47105414  0.80724804  0.00000000  1
  Mn  Mn22  1  0.52894586  0.19275196  0.00000000  1
  Mn  Mn23  1  0.64139807  0.90980162  0.50000000  1
  Mn  Mn24  1  0.85860193  0.40980162  0.50000000  1
  Mn  Mn25  1  0.97105414  0.69275196  0.00000000  1
  O  O26  1  0.98875303  0.42383712  0.00000000  1
  O  O27  1  0.01124697  0.57616288  0.00000000  1
  O  O28  1  0.02613214  0.94006820  0.50000000  1
  O  O29  1  0.05315857  0.15701085  0.50000000  1
  O  O30  1  0.09080977  0.66958463  0.50000000  1
  O  O31  1  0.08575536  0.76509269  0.00000000  1
  O  O32  1  0.13907763  0.50088819  0.50000000  1
  O  O33  1  0.16030093  0.28793995  0.50000000  1
  O  O34  1  0.16964519  0.85899468  0.00000000  1
  O  O35  1  0.21856615  0.09152083  0.00000000  1
  O  O36  1  0.28143385  0.59152083  0.00000000  1
  O  O37  1  0.33035481  0.35899468  0.00000000  1
  O  O38  1  0.33969907  0.78793995  0.50000000  1
  O  O39  1  0.36092237  0.00088819  0.50000000  1
  O  O40  1  0.41424464  0.26509269  0.00000000  1
  O  O41  1  0.40919023  0.16958463  0.50000000  1
  O  O42  1  0.44684143  0.65701085  0.50000000  1
  O  O43  1  0.47386786  0.44006820  0.50000000  1
  O  O44  1  0.48875303  0.07616288  0.00000000  1
  O  O45  1  0.51124697  0.92383712  0.00000000  1
  O  O46  1  0.52613214  0.55993180  0.50000000  1
  O  O47  1  0.55315857  0.34298915  0.50000000  1
  O  O48  1  0.59080977  0.83041537  0.50000000  1
  O  O49  1  0.58575536  0.73490731  0.00000000  1
  O  O50  1  0.63907763  0.99911181  0.50000000  1
  O  O51  1  0.66030093  0.21206005  0.50000000  1
  O  O52  1  0.66964519  0.64100532  0.00000000  1
  O  O53  1  0.71856615  0.40847917  0.00000000  1
  O  O54  1  0.78143385  0.90847917  0.00000000  1
  O  O55  1  0.83035481  0.14100532  0.00000000  1
  O  O56  1  0.83969907  0.71206005  0.50000000  1
  O  O57  1  0.86092237  0.49911181  0.50000000  1
  O  O58  1  0.91424464  0.23490731  0.00000000  1
  O  O59  1  0.90919023  0.33041537  0.50000000  1
  O  O60  1  0.94684143  0.84298915  0.50000000  1
  O  O61  1  0.97386786  0.05993180  0.50000000  1
