# generated using pymatgen
data_Li2SiNiO4
_symmetry_space_group_name_H-M   'P 1'
_cell_length_a   6.36259848
_cell_length_b   10.71008417
_cell_length_c   5.05084190
_cell_angle_alpha   90.00000000
_cell_angle_beta   91.55603815
_cell_angle_gamma   90.00000000
_symmetry_Int_Tables_number   1
_chemical_formula_structural   Li2SiNiO4
_chemical_formula_sum   'Li8 Si4 Ni4 O16'
_cell_volume   344.05747488
_cell_formula_units_Z   4
loop_
 _symmetry_equiv_pos_site_id
 _symmetry_equiv_pos_as_xyz
  1  'x, y, z'
loop_
 _atom_site_type_symbol
 _atom_site_label
 _atom_site_symmetry_multiplicity
 _atom_site_fract_x
 _atom_site_fract_y
 _atom_site_fract_z
 _atom_site_occupancy
  Li  Li0  1  0.00545519  0.83672718  0.69207484  1
  Li  Li1  1  0.24055527  0.07839836  0.70417264  1
  Li  Li2  1  0.25944473  0.57839836  0.79582736  1
  Li  Li3  1  0.49454481  0.33672718  0.80792516  1
  Li  Li4  1  0.50545519  0.66327282  0.19207484  1
  Li  Li5  1  0.74055527  0.42160164  0.20417264  1
  Li  Li6  1  0.75944473  0.92160164  0.29582736  1
  Li  Li7  1  0.99454481  0.16327282  0.30792516  1
  Si  Si8  1  0.24561121  0.41371200  0.31051649  1
  Si  Si9  1  0.25438879  0.91371200  0.18948351  1
  Si  Si10  1  0.74561121  0.08628800  0.81051649  1
  Si  Si11  1  0.75438879  0.58628800  0.68948351  1
  Ni  Ni12  1  0.00023183  0.66365970  0.19386756  1
  Ni  Ni13  1  0.49976817  0.16365970  0.30613244  1
  Ni  Ni14  1  0.50023183  0.83634030  0.69386756  1
  Ni  Ni15  1  0.99976817  0.33634030  0.80613244  1
  O  O16  1  0.02954634  0.34030196  0.20398099  1
  O  O17  1  0.04426205  0.83935132  0.29192151  1
  O  O18  1  0.24639577  0.05805754  0.30069086  1
  O  O19  1  0.24735128  0.41340723  0.63741330  1
  O  O20  1  0.25264872  0.91340723  0.86258670  1
  O  O21  1  0.25360423  0.55805754  0.19930914  1
  O  O22  1  0.45573795  0.33935132  0.20807849  1
  O  O23  1  0.47045366  0.84030196  0.29601901  1
  O  O24  1  0.52954634  0.15969804  0.70398099  1
  O  O25  1  0.54426205  0.66064868  0.79192151  1
  O  O26  1  0.74639577  0.44194246  0.80069086  1
  O  O27  1  0.74735128  0.08659277  0.13741330  1
  O  O28  1  0.75264872  0.58659277  0.36258670  1
  O  O29  1  0.75360423  0.94194246  0.69930914  1
  O  O30  1  0.95573795  0.16064868  0.70807849  1
  O  O31  1  0.97045366  0.65969804  0.79601901  1
