# generated using pymatgen
data_Li5Mn5(FeO6)2
_symmetry_space_group_name_H-M   'P 1'
_cell_length_a   5.24372903
_cell_length_b   5.24265555
_cell_length_c   9.92287043
_cell_angle_alpha   85.16759205
_cell_angle_beta   80.30237751
_cell_angle_gamma   59.99322543
_symmetry_Int_Tables_number   1
_chemical_formula_structural   Li5Mn5(FeO6)2
_chemical_formula_sum   'Li5 Mn5 Fe2 O12'
_cell_volume   232.85160336
_cell_formula_units_Z   1
loop_
 _symmetry_equiv_pos_site_id
 _symmetry_equiv_pos_as_xyz
  1  'x, y, z'
loop_
 _atom_site_type_symbol
 _atom_site_label
 _atom_site_symmetry_multiplicity
 _atom_site_fract_x
 _atom_site_fract_y
 _atom_site_fract_z
 _atom_site_occupancy
  Li  Li0  1  0.32100285  0.84339823  0.00917892  1
  Li  Li1  1  0.16745657  0.16938651  0.49669456  1
  Li  Li2  1  0.83559892  0.84339823  0.49082108  1
  Li  Li3  1  0.66315692  0.16938651  0.00330544  1
  Li  Li4  1  0.91587868  0.16824364  0.25000000  1
  Mn  Mn5  1  0.99401796  0.49508803  0.00546481  1
  Mn  Mn6  1  0.51089402  0.49508803  0.49453519  1
  Mn  Mn7  1  0.07284302  0.85431496  0.75000000  1
  Mn  Mn8  1  0.57670963  0.84658074  0.25000000  1
  Mn  Mn9  1  0.41312930  0.17374140  0.75000000  1
  Fe  Fe10  1  0.25034312  0.49931475  0.25000000  1
  Fe  Fe11  1  0.74358106  0.51283688  0.75000000  1
  O  O12  1  0.22522440  0.79268033  0.37759434  1
  O  O13  1  0.44675515  0.86156323  0.63705934  1
  O  O14  1  0.16587353  0.48741220  0.62413506  1
  O  O15  1  0.62654675  0.52648429  0.12787603  1
  O  O16  1  0.30271904  0.16603366  0.13747113  1
  O  O17  1  0.69168163  0.86156323  0.86294066  1
  O  O18  1  0.98209527  0.79268033  0.12240566  1
  O  O19  1  0.01741650  0.19362733  0.88436769  1
  O  O20  1  0.34671427  0.48741220  0.87586494  1
  O  O21  1  0.84696895  0.52648429  0.37212397  1
  O  O22  1  0.53124730  0.16603366  0.36252887  1
  O  O23  1  0.78895617  0.19362733  0.61563231  1
