# generated using pymatgen
data_Na2ErPCO7
_symmetry_space_group_name_H-M   'P 1'
_cell_length_a   9.20723618
_cell_length_b   6.95251629
_cell_length_c   5.33177120
_cell_angle_alpha   90.00000000
_cell_angle_beta   91.11824209
_cell_angle_gamma   90.00000000
_symmetry_Int_Tables_number   1
_chemical_formula_structural   Na2ErPCO7
_chemical_formula_sum   'Na4 Er2 P2 C2 O14'
_cell_volume   341.24011843
_cell_formula_units_Z   2
loop_
 _symmetry_equiv_pos_site_id
 _symmetry_equiv_pos_as_xyz
  1  'x, y, z'
loop_
 _atom_site_type_symbol
 _atom_site_label
 _atom_site_symmetry_multiplicity
 _atom_site_fract_x
 _atom_site_fract_y
 _atom_site_fract_z
 _atom_site_occupancy
  Na  Na0  1  0.22283474  0.49552595  0.23398280  1
  Na  Na1  1  0.22283474  0.00447405  0.23398280  1
  Na  Na2  1  0.77716526  0.50447405  0.76601720  1
  Na  Na3  1  0.77716526  0.99552595  0.76601720  1
  Er  Er4  1  0.35933388  0.75000000  0.77226021  1
  Er  Er5  1  0.64066612  0.25000000  0.22773979  1
  P  P6  1  0.41829985  0.25000000  0.70878118  1
  P  P7  1  0.58170015  0.75000000  0.29121882  1
  C  C8  1  0.06680085  0.75000000  0.73139328  1
  C  C9  1  0.93319915  0.25000000  0.26860672  1
  O  O10  1  0.06901552  0.25000000  0.29208716  1
  O  O11  1  0.13515307  0.75000000  0.95131524  1
  O  O12  1  0.15466599  0.75000000  0.53494979  1
  O  O13  1  0.33955655  0.06728300  0.79758354  1
  O  O14  1  0.33955655  0.43271700  0.79758354  1
  O  O15  1  0.42080514  0.75000000  0.18497696  1
  O  O16  1  0.42613364  0.25000000  0.41604158  1
  O  O17  1  0.57386636  0.75000000  0.58395842  1
  O  O18  1  0.57919486  0.25000000  0.81502304  1
  O  O19  1  0.66044345  0.56728300  0.20241646  1
  O  O20  1  0.66044345  0.93271700  0.20241646  1
  O  O21  1  0.84533401  0.25000000  0.46505021  1
  O  O22  1  0.86484693  0.25000000  0.04868476  1
  O  O23  1  0.93098448  0.75000000  0.70791284  1
