# generated using pymatgen
data_Na2YPCO7
_symmetry_space_group_name_H-M   'P 1'
_cell_length_a   9.28664889
_cell_length_b   7.00359684
_cell_length_c   5.22591741
_cell_angle_alpha   90.00000000
_cell_angle_beta   90.68082857
_cell_angle_gamma   90.00000000
_symmetry_Int_Tables_number   1
_chemical_formula_structural   Na2YPCO7
_chemical_formula_sum   'Na4 Y2 P2 C2 O14'
_cell_volume   339.86938395
_cell_formula_units_Z   2
loop_
 _symmetry_equiv_pos_site_id
 _symmetry_equiv_pos_as_xyz
  1  'x, y, z'
loop_
 _atom_site_type_symbol
 _atom_site_label
 _atom_site_symmetry_multiplicity
 _atom_site_fract_x
 _atom_site_fract_y
 _atom_site_fract_z
 _atom_site_occupancy
  Na  Na0  1  0.20774755  0.49983928  0.23115759  1
  Na  Na1  1  0.20774755  0.00016072  0.23115759  1
  Na  Na2  1  0.79225245  0.50016072  0.76884241  1
  Na  Na3  1  0.79225245  -0.00016072  0.76884241  1
  Y  Y4  1  0.37013847  0.75000000  0.77625149  1
  Y  Y5  1  0.62986153  0.25000000  0.22374851  1
  P  P6  1  0.41753651  0.25000000  0.70535970  1
  P  P7  1  0.58246349  0.75000000  0.29464030  1
  C  C8  1  0.07232508  0.75000000  0.73108831  1
  C  C9  1  0.92767492  0.25000000  0.26891169  1
  O  O10  1  0.06231640  0.25000000  0.29978600  1
  O  O11  1  0.13588937  0.75000000  0.95746885  1
  O  O12  1  0.16245537  0.75000000  0.53579125  1
  O  O13  1  0.34731795  0.06896724  0.81729364  1
  O  O14  1  0.34731795  0.43103276  0.81729364  1
  O  O15  1  0.41651130  0.75000000  0.22431827  1
  O  O16  1  0.40669248  0.25000000  0.40649578  1
  O  O17  1  0.59330752  0.75000000  0.59350422  1
  O  O18  1  0.58348870  0.25000000  0.77568173  1
  O  O19  1  0.65268205  0.56896724  0.18270636  1
  O  O20  1  0.65268205  0.93103276  0.18270636  1
  O  O21  1  0.83754463  0.25000000  0.46420875  1
  O  O22  1  0.86411063  0.25000000  0.04253115  1
  O  O23  1  0.93768360  0.75000000  0.70021400  1
