# generated using pymatgen
data_LiCa2Nb3O10
_symmetry_space_group_name_H-M   'P 1'
_cell_length_a   5.54267469
_cell_length_b   5.54247244
_cell_length_c   27.39909411
_cell_angle_alpha   89.98202083
_cell_angle_beta   90.49253902
_cell_angle_gamma   89.99994297
_symmetry_Int_Tables_number   1
_chemical_formula_structural   LiCa2Nb3O10
_chemical_formula_sum   'Li4 Ca8 Nb12 O40'
_cell_volume   841.67236423
_cell_formula_units_Z   4
loop_
 _symmetry_equiv_pos_site_id
 _symmetry_equiv_pos_as_xyz
  1  'x, y, z'
loop_
 _atom_site_type_symbol
 _atom_site_label
 _atom_site_symmetry_multiplicity
 _atom_site_fract_x
 _atom_site_fract_y
 _atom_site_fract_z
 _atom_site_occupancy
  Li  Li0  1  0.25372767  0.24098799  0.74124711  1
  Li  Li1  1  0.25034867  0.25637606  0.24120468  1
  Li  Li2  1  0.74965133  0.74362394  0.75879532  1
  Li  Li3  1  0.74627233  0.75901201  0.25875289  1
  Ca  Ca4  1  0.01142268  0.00988188  0.58377034  1
  Ca  Ca5  1  0.01123916  0.49003758  0.08380715  1
  Ca  Ca6  1  0.48499539  0.48344579  0.58006860  1
  Ca  Ca7  1  0.51514057  0.98350493  0.91994037  1
  Ca  Ca8  1  0.48485943  0.01649507  0.08005963  1
  Ca  Ca9  1  0.51500461  0.51655421  0.41993140  1
  Ca  Ca10  1  0.98876084  0.50996242  0.91619285  1
  Ca  Ca11  1  0.98857732  0.99011812  0.41622966  1
  Nb  Nb12  1  0.00762418  0.00170425  0.84341989  1
  Nb  Nb13  1  0.00000000  0.50000000  0.50000000  1
  Nb  Nb14  1  0.00716990  0.49887045  0.34345541  1
  Nb  Nb15  1  0.00000000  0.00000000  0.00000000  1
  Nb  Nb16  1  0.49529381  0.48944029  0.84346126  1
  Nb  Nb17  1  0.49487709  0.01111873  0.34357342  1
  Nb  Nb18  1  0.50000000  0.00000000  0.50000000  1
  Nb  Nb19  1  0.50512291  0.98888127  0.65642658  1
  Nb  Nb20  1  0.50000000  0.50000000  0.00000000  1
  Nb  Nb21  1  0.50470619  0.51055971  0.15653874  1
  Nb  Nb22  1  0.99283010  0.50112955  0.65654459  1
  Nb  Nb23  1  0.99237582  0.99829575  0.15658011  1
  O  O24  1  0.03944142  0.03440828  0.77869974  1
  O  O25  1  0.03889057  0.46543990  0.27876929  1
  O  O26  1  0.05245137  0.43376772  0.56989548  1
  O  O27  1  0.05266470  0.06602832  0.06990288  1
  O  O28  1  0.18904506  0.31042681  0.98291282  1
  O  O29  1  0.18893493  0.18947403  0.48295260  1
  O  O30  1  0.24750188  0.74471533  0.63788326  1
  O  O31  1  0.25214400  0.74451819  0.86211450  1
  O  O32  1  0.24861103  0.24455919  0.65839937  1
  O  O33  1  0.25388418  0.24381449  0.86926153  1
  O  O34  1  0.24712625  0.75479717  0.13802017  1
  O  O35  1  0.25214366  0.75558200  0.36215751  1
  O  O36  1  0.24839368  0.25481717  0.15854631  1
  O  O37  1  0.25346887  0.25633178  0.36929954  1
  O  O38  1  0.31745577  0.81748919  0.99987620  1
  O  O39  1  0.31763458  0.68233462  0.49996939  1
  O  O40  1  0.43538619  0.05035362  0.56986113  1
  O  O41  1  0.43503924  0.44964833  0.06986380  1
  O  O42  1  0.46124326  0.45704256  0.77865327  1
  O  O43  1  0.46086614  0.04277087  0.27871020  1
  O  O44  1  0.53913386  0.95722913  0.72128980  1
  O  O45  1  0.53875674  0.54295744  0.22134673  1
  O  O46  1  0.56496076  0.55035167  0.93013620  1
  O  O47  1  0.56461381  0.94964638  0.43013887  1
  O  O48  1  0.68236542  0.31766538  0.50003061  1
  O  O49  1  0.68254423  0.18251081  0.00012380  1
  O  O50  1  0.74653113  0.74366822  0.63070046  1
  O  O51  1  0.75160632  0.74518283  0.84145369  1
  O  O52  1  0.74785634  0.24441800  0.63784249  1
  O  O53  1  0.75287375  0.24520283  0.86197983  1
  O  O54  1  0.74611582  0.75618551  0.13073747  1
  O  O55  1  0.75138897  0.75544081  0.34160063  1
  O  O56  1  0.74785600  0.25548181  0.13788550  1
  O  O57  1  0.75249812  0.25528467  0.36211674  1
  O  O58  1  0.81106507  0.81052597  0.51704740  1
  O  O59  1  0.81095494  0.68957319  0.01708718  1
  O  O60  1  0.94733530  0.93397168  0.93009712  1
  O  O61  1  0.94754863  0.56623228  0.43010452  1
  O  O62  1  0.96110943  0.53456010  0.72123071  1
  O  O63  1  0.96055858  0.96559172  0.22130026  1
