# generated using pymatgen
data_LiSiBiO4
_symmetry_space_group_name_H-M   'P 1'
_cell_length_a   5.62430780
_cell_length_b   10.33348243
_cell_length_c   6.40243894
_cell_angle_alpha   90.00000000
_cell_angle_beta   90.00000000
_cell_angle_gamma   83.40104541
_symmetry_Int_Tables_number   1
_chemical_formula_structural   LiSiBiO4
_chemical_formula_sum   'Li4 Si4 Bi4 O16'
_cell_volume   369.63611470
_cell_formula_units_Z   4
loop_
 _symmetry_equiv_pos_site_id
 _symmetry_equiv_pos_as_xyz
  1  'x, y, z'
loop_
 _atom_site_type_symbol
 _atom_site_label
 _atom_site_symmetry_multiplicity
 _atom_site_fract_x
 _atom_site_fract_y
 _atom_site_fract_z
 _atom_site_occupancy
  Li  Li0  1  0.14970566  0.92811987  0.63533412  1
  Li  Li1  1  0.35029434  0.57188013  0.13533412  1
  Li  Li2  1  0.64970566  0.42811987  0.86466588  1
  Li  Li3  1  0.85029434  0.07188013  0.36466588  1
  Si  Si4  1  0.26618897  0.64078165  0.65232232  1
  Si  Si5  1  0.23381103  0.85921835  0.15232232  1
  Si  Si6  1  0.76618897  0.14078165  0.84767768  1
  Si  Si7  1  0.73381103  0.35921835  0.34767768  1
  Bi  Bi8  1  0.20676008  0.34900984  0.61391531  1
  Bi  Bi9  1  0.29323992  0.15099016  0.11391531  1
  Bi  Bi10  1  0.70676008  0.84900984  0.88608469  1
  Bi  Bi11  1  0.79323992  0.65099016  0.38608469  1
  O  O12  1  0.02149955  0.74685344  0.66041076  1
  O  O13  1  0.00049642  0.77716479  0.13757788  1
  O  O14  1  0.22717590  0.55595364  0.43355427  1
  O  O15  1  0.29556136  0.52971262  0.83777377  1
  O  O16  1  0.20443864  0.97028738  0.33777377  1
  O  O17  1  0.27282410  0.94404636  0.93355427  1
  O  O18  1  0.52149955  0.24685344  0.83958924  1
  O  O19  1  0.50049642  0.27716479  0.36242212  1
  O  O20  1  0.49950358  0.72283521  0.63757788  1
  O  O21  1  0.47850045  0.75314656  0.16041076  1
  O  O22  1  0.72717590  0.05595364  0.06644573  1
  O  O23  1  0.79556136  0.02971262  0.66222623  1
  O  O24  1  0.70443864  0.47028738  0.16222623  1
  O  O25  1  0.77282410  0.44404636  0.56644573  1
  O  O26  1  0.99950358  0.22283521  0.86242212  1
  O  O27  1  0.97850045  0.25314656  0.33958924  1
