# generated using pymatgen
data_Bi12Cl5O16
_symmetry_space_group_name_H-M   'P 1'
_cell_length_a   10.06109893
_cell_length_b   15.50029811
_cell_length_c   3.95916490
_cell_angle_alpha   97.33742683
_cell_angle_beta   90.00000000
_cell_angle_gamma   89.23595254
_symmetry_Int_Tables_number   1
_chemical_formula_structural   Bi12Cl5O16
_chemical_formula_sum   'Bi12 Cl5 O16'
_cell_volume   612.32053734
_cell_formula_units_Z   1
loop_
 _symmetry_equiv_pos_site_id
 _symmetry_equiv_pos_as_xyz
  1  'x, y, z'
loop_
 _atom_site_type_symbol
 _atom_site_label
 _atom_site_symmetry_multiplicity
 _atom_site_fract_x
 _atom_site_fract_y
 _atom_site_fract_z
 _atom_site_occupancy
  Bi  Bi0  1  0.07648697  0.11793447  0.05896723  1
  Bi  Bi1  1  0.07099873  0.69655378  0.34827739  1
  Bi  Bi2  1  0.23798176  0.34858034  0.17429017  1
  Bi  Bi3  1  0.23585827  0.93306138  0.46653069  1
  Bi  Bi4  1  0.40029492  0.17074764  0.58537382  1
  Bi  Bi5  1  0.43731234  0.59264616  0.29632308  1
  Bi  Bi6  1  0.56268766  0.40735384  0.70367692  1
  Bi  Bi7  1  0.59970508  0.82925236  0.41462618  1
  Bi  Bi8  1  0.76414173  0.06693862  0.53346931  1
  Bi  Bi9  1  0.76201824  0.65141966  0.82570983  1
  Bi  Bi10  1  0.92900127  0.30344622  0.65172261  1
  Bi  Bi11  1  0.92351303  0.88206553  0.94103277  1
  Cl  Cl12  1  0.19581746  0.56023751  0.78011876  1
  Cl  Cl13  1  0.34634854  0.77491592  0.88745796  1
  Cl  Cl14  1  0.50000000  0.00000000  0.00000000  1
  Cl  Cl15  1  0.65365146  0.22508408  0.11254204  1
  Cl  Cl16  1  0.80418254  0.43976249  0.21988124  1
  O  O17  1  0.02784441  0.26907073  0.13453537  1
  O  O18  1  0.05401833  0.85000723  0.42500361  1
  O  O19  1  0.12145804  0.36107956  0.68054028  1
  O  O20  1  0.13418057  0.96099245  0.98049672  1
  O  O21  1  0.21938209  0.08256113  0.54128006  1
  O  O22  1  0.29746512  0.20508362  0.10254181  1
  O  O23  1  0.38736946  0.31670866  0.65835383  1
  O  O24  1  0.46265040  0.44549966  0.22274933  1
  O  O25  1  0.53734960  0.55450034  0.77725067  1
  O  O26  1  0.61263054  0.68329134  0.34164617  1
  O  O27  1  0.70253488  0.79491638  0.89745819  1
  O  O28  1  0.78061791  0.91743887  0.45871994  1
  O  O29  1  0.86581943  0.03900755  0.01950328  1
  O  O30  1  0.87854196  0.63892044  0.31945972  1
  O  O31  1  0.94598167  0.14999277  0.57499639  1
  O  O32  1  0.97215559  0.73092927  0.86546463  1
