# generated using pymatgen
data_Li3VSi2O7
_symmetry_space_group_name_H-M   'P 1'
_cell_length_a   8.62937439
_cell_length_b   8.64258464
_cell_length_c   13.08343325
_cell_angle_alpha   90.06388195
_cell_angle_beta   89.95265906
_cell_angle_gamma   119.85962117
_symmetry_Int_Tables_number   1
_chemical_formula_structural   Li3VSi2O7
_chemical_formula_sum   'Li18 V6 Si12 O42'
_cell_volume   846.22842924
_cell_formula_units_Z   6
loop_
 _symmetry_equiv_pos_site_id
 _symmetry_equiv_pos_as_xyz
  1  'x, y, z'
loop_
 _atom_site_type_symbol
 _atom_site_label
 _atom_site_symmetry_multiplicity
 _atom_site_fract_x
 _atom_site_fract_y
 _atom_site_fract_z
 _atom_site_occupancy
  Li  Li0  1  0.02336284  0.69072628  0.89650317  1
  Li  Li1  1  0.02303966  0.69187988  0.56664861  1
  Li  Li2  1  0.33275991  0.66684351  0.21813343  1
  Li  Li3  1  0.33330442  0.66774642  0.73430250  1
  Li  Li4  1  0.99956343  0.99938716  0.46280456  1
  Li  Li5  1  0.99950098  0.99887758  0.96277714  1
  Li  Li6  1  0.30993240  0.33310894  0.56550361  1
  Li  Li7  1  0.31032333  0.33452191  0.89858844  1
  Li  Li8  1  0.66550958  0.97495775  0.89788898  1
  Li  Li9  1  0.66803279  0.97590016  0.56607525  1
  Li  Li10  1  0.33284334  0.02358092  0.06536519  1
  Li  Li11  1  0.33439625  0.02448029  0.39832333  1
  Li  Li12  1  0.68952831  0.66610554  0.39740173  1
  Li  Li13  1  0.69066813  0.66765237  0.06595273  1
  Li  Li14  1  0.66650141  0.33361959  0.23438924  1
  Li  Li15  1  0.66604191  0.33224803  0.71806859  1
  Li  Li16  1  0.97630547  0.30726069  0.06692389  1
  Li  Li17  1  0.97526640  0.30851354  0.39724255  1
  V  V18  1  0.00403417  0.99968584  0.23129267  1
  V  V19  1  0.99963215  0.00394898  0.73129729  1
  V  V20  1  0.33335998  0.66731419  0.50946551  1
  V  V21  1  0.33322839  0.66711767  0.95594426  1
  V  V22  1  0.66681869  0.33299491  0.45595008  1
  V  V23  1  0.66659639  0.33287993  0.00948443  1
  Si  Si24  1  0.02519977  0.67405506  0.34521946  1
  Si  Si25  1  0.02234724  0.67296897  0.12013915  1
  Si  Si26  1  0.32745679  0.35068926  0.12074459  1
  Si  Si27  1  0.32612028  0.35256888  0.34519598  1
  Si  Si28  1  0.65046222  0.97629304  0.12074611  1
  Si  Si29  1  0.64901325  0.97349809  0.34470718  1
  Si  Si30  1  0.35038924  0.02590933  0.84474907  1
  Si  Si31  1  0.34888548  0.02328392  0.62070148  1
  Si  Si32  1  0.67470986  0.64771912  0.84501902  1
  Si  Si33  1  0.67317556  0.64943518  0.62073756  1
  Si  Si34  1  0.97769006  0.32776789  0.62027643  1
  Si  Si35  1  0.97463299  0.32662660  0.84532868  1
  O  O36  1  0.13278423  0.93081106  0.84157459  1
  O  O37  1  0.13214477  0.92684328  0.62627725  1
  O  O38  1  0.12733356  0.69530617  0.23239822  1
  O  O39  1  0.18696939  0.75622222  0.03687079  1
  O  O40  1  0.18763950  0.75815513  0.42923731  1
  O  O41  1  0.11862099  0.53954313  0.60541248  1
  O  O42  1  0.11862449  0.53756252  0.85997774  1
  O  O43  1  0.07017037  0.20375629  0.84272824  1
  O  O44  1  0.41804225  0.88107530  0.85963836  1
  O  O45  1  0.07476398  0.20717159  0.62543634  1
  O  O46  1  0.41991990  0.88159783  0.60504822  1
  O  O47  1  0.24394132  0.43152585  0.03682117  1
  O  O48  1  0.24241260  0.43139071  0.42953203  1
  O  O49  1  0.30543588  0.43411019  0.23263037  1
  O  O50  1  0.20322847  0.13508136  0.34256345  1
  O  O51  1  0.56517782  0.87145636  0.23256098  1
  O  O52  1  0.20660578  0.13406670  0.12604826  1
  O  O53  1  0.57003729  0.81204967  0.42950632  1
  O  O54  1  0.56885657  0.81305223  0.03665475  1
  O  O55  1  0.46173415  0.58069459  0.60510768  1
  O  O56  1  0.46289022  0.58169682  0.86051511  1
  O  O57  1  0.53772029  0.41869368  0.35977522  1
  O  O58  1  0.53912936  0.42029401  0.10539625  1
  O  O59  1  0.43112345  0.18694897  0.53683977  1
  O  O60  1  0.42941496  0.18740154  0.92970608  1
  O  O61  1  0.79473283  0.86580686  0.62665471  1
  O  O62  1  0.43282658  0.12823288  0.73258793  1
  O  O63  1  0.79760896  0.86492347  0.84169990  1
  O  O64  1  0.69342993  0.56471855  0.73244498  1
  O  O65  1  0.75757645  0.56850286  0.92913952  1
  O  O66  1  0.75584866  0.56746652  0.53679323  1
  O  O67  1  0.58059117  0.11865293  0.10513211  1
  O  O68  1  0.92550188  0.79351319  0.12550061  1
  O  O69  1  0.58214575  0.11878316  0.36041133  1
  O  O70  1  0.92953265  0.79674606  0.34233167  1
  O  O71  1  0.88144907  0.46266810  0.35994413  1
  O  O72  1  0.88158137  0.46108221  0.10502042  1
  O  O73  1  0.81195215  0.24176004  0.92940243  1
  O  O74  1  0.81380524  0.24359086  0.53670133  1
  O  O75  1  0.87251825  0.30508739  0.73254275  1
  O  O76  1  0.86721677  0.07186011  0.12694131  1
  O  O77  1  0.86632763  0.06793023  0.34110073  1
