# generated using pymatgen
data_Ba2Zr7O16
_symmetry_space_group_name_H-M   'P 1'
_cell_length_a   6.56559293
_cell_length_b   9.91868814
_cell_length_c   6.56559342
_cell_angle_alpha   109.32771242
_cell_angle_beta   60.00000618
_cell_angle_gamma   109.32771293
_symmetry_Int_Tables_number   1
_chemical_formula_structural   Ba2Zr7O16
_chemical_formula_sum   'Ba2 Zr7 O16'
_cell_volume   342.17448798
_cell_formula_units_Z   1
loop_
 _symmetry_equiv_pos_site_id
 _symmetry_equiv_pos_as_xyz
  1  'x, y, z'
loop_
 _atom_site_type_symbol
 _atom_site_label
 _atom_site_symmetry_multiplicity
 _atom_site_fract_x
 _atom_site_fract_y
 _atom_site_fract_z
 _atom_site_occupancy
  Ba  Ba0  1  0.33354470  0.00063309  0.33354470  1
  Ba  Ba1  1  0.66645530  0.99936691  0.66645530  1
  Zr  Zr2  1  0.00000000  0.00000000  0.00000000  1
  Zr  Zr3  1  0.25188099  0.65057654  0.51333939  1
  Zr  Zr4  1  0.11464384  0.34942346  0.74811901  1
  Zr  Zr5  1  0.48666061  0.34942346  0.11464384  1
  Zr  Zr6  1  0.51333939  0.65057654  0.88535616  1
  Zr  Zr7  1  0.88535616  0.65057654  0.25188099  1
  Zr  Zr8  1  0.74811901  0.34942346  0.48666061  1
  O  O9  1  0.23394353  0.70183158  0.23394353  1
  O  O10  1  0.21854738  0.86514906  0.68508859  1
  O  O11  1  0.14983153  0.41190639  0.41537524  1
  O  O12  1  0.15329937  0.58809361  0.85016847  1
  O  O13  1  0.03848692  0.13485094  0.78145262  1
  O  O14  1  0.31491141  0.13485094  0.03848692  1
  O  O15  1  0.58462476  0.58809361  0.15329937  1
  O  O16  1  0.43156339  0.29469117  0.43156339  1
  O  O17  1  0.56843661  0.70530883  0.56843661  1
  O  O18  1  0.41537524  0.41190639  0.84670063  1
  O  O19  1  0.68508859  0.86514906  0.96151308  1
  O  O20  1  0.96151308  0.86514906  0.21854738  1
  O  O21  1  0.84670063  0.41190639  0.14983153  1
  O  O22  1  0.85016847  0.58809361  0.58462476  1
  O  O23  1  0.78145262  0.13485094  0.31491141  1
  O  O24  1  0.76605647  0.29816842  0.76605647  1
