# generated using pymatgen
data_Y2Ge2O7
_symmetry_space_group_name_H-M   'P 1'
_cell_length_a   12.40636927
_cell_length_b   6.86897767
_cell_length_c   6.84745221
_cell_angle_alpha   92.61606128
_cell_angle_beta   92.96792060
_cell_angle_gamma   93.85185924
_symmetry_Int_Tables_number   1
_chemical_formula_structural   Y2Ge2O7
_chemical_formula_sum   'Y8 Ge8 O28'
_cell_volume   580.72746338
_cell_formula_units_Z   4
loop_
 _symmetry_equiv_pos_site_id
 _symmetry_equiv_pos_as_xyz
  1  'x, y, z'
loop_
 _atom_site_type_symbol
 _atom_site_label
 _atom_site_symmetry_multiplicity
 _atom_site_fract_x
 _atom_site_fract_y
 _atom_site_fract_z
 _atom_site_occupancy
  Y  Y0  1  0.11886646  0.83162598  0.31474613  1
  Y  Y1  1  0.11264159  0.33188198  0.04555730  1
  Y  Y2  1  0.36934682  0.76996545  0.63365564  1
  Y  Y3  1  0.35643317  0.08083231  0.11096349  1
  Y  Y4  1  0.64356683  0.91916769  0.88903651  1
  Y  Y5  1  0.63065318  0.23003455  0.36634436  1
  Y  Y6  1  0.88735841  0.66811802  0.95444270  1
  Y  Y7  1  0.88113354  0.16837402  0.68525387  1
  Ge  Ge8  1  0.11357042  0.85303820  0.83145895  1
  Ge  Ge9  1  0.16383463  0.33234366  0.51399342  1
  Ge  Ge10  1  0.37766653  0.61419266  0.14471164  1
  Ge  Ge11  1  0.39725019  0.26489870  0.61013399  1
  Ge  Ge12  1  0.60274981  0.73510130  0.38986601  1
  Ge  Ge13  1  0.62233347  0.38580734  0.85528836  1
  Ge  Ge14  1  0.83616537  0.66765634  0.48600658  1
  Ge  Ge15  1  0.88642958  0.14696180  0.16854105  1
  O  O16  1  0.01818266  0.09649402  0.24462923  1
  O  O17  1  0.08242144  0.66365013  0.99901100  1
  O  O18  1  0.08148657  0.28324362  0.70854383  1
  O  O19  1  0.11740343  0.49223160  0.34106371  1
  O  O20  1  0.18774949  0.78870176  0.63358777  1
  O  O21  1  0.18327027  0.02026049  0.00811068  1
  O  O22  1  0.22325140  0.13118625  0.39941646  1
  O  O23  1  0.29938830  0.44614624  0.60906270  1
  O  O24  1  0.31130797  0.78679883  0.29359498  1
  O  O25  1  0.30331129  0.39584304  0.07039815  1
  O  O26  1  0.37752375  0.08098316  0.77486139  1
  O  O27  1  0.41772482  0.77503410  0.96144835  1
  O  O28  1  0.45096131  0.16354881  0.39744397  1
  O  O29  1  0.49299149  0.55956891  0.29565419  1
  O  O30  1  0.50700851  0.44043109  0.70434581  1
  O  O31  1  0.54903869  0.83645119  0.60255603  1
  O  O32  1  0.58227518  0.22496590  0.03855165  1
  O  O33  1  0.62247625  0.91901684  0.22513861  1
  O  O34  1  0.69668871  0.60415696  0.92960185  1
  O  O35  1  0.68869203  0.21320117  0.70640502  1
  O  O36  1  0.70061170  0.55385376  0.39093730  1
  O  O37  1  0.77674860  0.86881375  0.60058354  1
  O  O38  1  0.81672973  0.97973951  0.99188932  1
  O  O39  1  0.81225051  0.21129824  0.36641223  1
  O  O40  1  0.88259657  0.50776840  0.65893629  1
  O  O41  1  0.91851343  0.71675638  0.29145617  1
  O  O42  1  0.91757856  0.33634987  0.00098900  1
  O  O43  1  0.98181734  0.90350598  0.75537077  1
