# generated using pymatgen
data_GdTa3O9
_symmetry_space_group_name_H-M   'P 1'
_cell_length_a   7.35447785
_cell_length_b   7.35447785
_cell_length_c   6.55455672
_cell_angle_alpha   86.14826333
_cell_angle_beta   93.85173667
_cell_angle_gamma   117.43354223
_symmetry_Int_Tables_number   1
_chemical_formula_structural   GdTa3O9
_chemical_formula_sum   'Gd2 Ta6 O18'
_cell_volume   313.68374328
_cell_formula_units_Z   2
loop_
 _symmetry_equiv_pos_site_id
 _symmetry_equiv_pos_as_xyz
  1  'x, y, z'
loop_
 _atom_site_type_symbol
 _atom_site_label
 _atom_site_symmetry_multiplicity
 _atom_site_fract_x
 _atom_site_fract_y
 _atom_site_fract_z
 _atom_site_occupancy
  Gd  Gd0  1  0.26821956  0.73178044  0.94598473  1
  Gd  Gd1  1  0.73178044  0.26821956  0.05401527  1
  Ta  Ta2  1  0.00000000  0.50000000  0.50000000  1
  Ta  Ta3  1  0.21698894  0.28600661  0.23605681  1
  Ta  Ta4  1  0.71399339  0.78301106  0.23605681  1
  Ta  Ta5  1  0.28600661  0.21698894  0.76394319  1
  Ta  Ta6  1  0.78301106  0.71399339  0.76394319  1
  Ta  Ta7  1  0.50000000  0.00000000  0.50000000  1
  O  O8  1  0.07383062  0.92616938  0.80999306  1
  O  O9  1  0.27039107  0.72960893  0.58379021  1
  O  O10  1  0.50065700  0.91908344  0.21765766  1
  O  O11  1  0.08091656  0.49934300  0.21765766  1
  O  O12  1  0.62673799  0.80793631  0.93020840  1
  O  O13  1  0.19206369  0.37326201  0.93020840  1
  O  O14  1  0.69488706  0.87784093  0.54549852  1
  O  O15  1  0.12215907  0.30511294  0.54549852  1
  O  O16  1  0.46035199  0.53964801  0.28250783  1
  O  O17  1  0.53964801  0.46035199  0.71749217  1
  O  O18  1  0.87784093  0.69488706  0.45450148  1
  O  O19  1  0.30511294  0.12215907  0.45450148  1
  O  O20  1  0.80793631  0.62673799  0.06979160  1
  O  O21  1  0.37326201  0.19206369  0.06979160  1
  O  O22  1  0.49934300  0.08091656  0.78234234  1
  O  O23  1  0.91908344  0.50065700  0.78234234  1
  O  O24  1  0.72960893  0.27039107  0.41620979  1
  O  O25  1  0.92616938  0.07383062  0.19000694  1
