# generated using pymatgen
data_Li4CoO3
_symmetry_space_group_name_H-M   'P 1'
_cell_length_a   6.95633143
_cell_length_b   5.61397601
_cell_length_c   5.09640453
_cell_angle_alpha   116.98972639
_cell_angle_beta   90.00905792
_cell_angle_gamma   109.51227476
_symmetry_Int_Tables_number   1
_chemical_formula_structural   Li4CoO3
_chemical_formula_sum   'Li8 Co2 O6'
_cell_volume   164.41562194
_cell_formula_units_Z   2
loop_
 _symmetry_equiv_pos_site_id
 _symmetry_equiv_pos_as_xyz
  1  'x, y, z'
loop_
 _atom_site_type_symbol
 _atom_site_label
 _atom_site_symmetry_multiplicity
 _atom_site_fract_x
 _atom_site_fract_y
 _atom_site_fract_z
 _atom_site_occupancy
  Li  Li0  1  0.09106341  0.64739427  0.18755543  1
  Li  Li1  1  0.28115945  0.78286111  0.70243030  1
  Li  Li2  1  0.18529458  0.26853236  0.63913158  1
  Li  Li3  1  0.39015024  0.48751491  0.24336945  1
  Li  Li4  1  0.59125162  0.64774000  0.76671554  1
  Li  Li5  1  0.78108841  0.78283231  0.38708669  1
  Li  Li6  1  0.68502137  0.26862859  0.93600090  1
  Li  Li7  1  0.89016926  0.48737527  0.55086651  1
  Co  Co8  1  0.00469324  0.01249101  0.01664650  1
  Co  Co9  1  0.50452339  0.01240701  0.30239506  1
  O  O10  1  0.05548635  0.90399571  0.62308736  1
  O  O11  1  0.10677667  0.36648221  0.34465729  1
  O  O12  1  0.34361098  0.64004396  0.97547267  1
  O  O13  1  0.55544731  0.90403349  0.58759304  1
  O  O14  1  0.60673248  0.36647825  0.32849133  1
  O  O15  1  0.84360123  0.64011953  0.97128134  1
