# generated using pymatgen
data_LiCo(CO3)2
_symmetry_space_group_name_H-M   'P 1'
_cell_length_a   4.68535594
_cell_length_b   5.78941108
_cell_length_c   4.68535686
_cell_angle_alpha   66.13088444
_cell_angle_beta   119.99999239
_cell_angle_gamma   113.86911056
_symmetry_Int_Tables_number   1
_chemical_formula_structural   LiCo(CO3)2
_chemical_formula_sum   'Li1 Co1 C2 O6'
_cell_volume   97.31159907
_cell_formula_units_Z   1
loop_
 _symmetry_equiv_pos_site_id
 _symmetry_equiv_pos_as_xyz
  1  'x, y, z'
loop_
 _atom_site_type_symbol
 _atom_site_label
 _atom_site_symmetry_multiplicity
 _atom_site_fract_x
 _atom_site_fract_y
 _atom_site_fract_z
 _atom_site_occupancy
  Li  Li0  1  0.00000000  0.00000000  0.00000000  1
  Co  Co1  1  0.50000000  0.50000000  0.50000000  1
  C  C2  1  0.24388147  0.73164442  0.75611853  1
  C  C3  1  0.75611853  0.26835558  0.24388147  1
  O  O4  1  0.03616052  0.26660474  0.25566630  1
  O  O5  1  0.51388948  0.73339526  0.03616052  1
  O  O6  1  0.25566630  0.73339526  0.48611052  1
  O  O7  1  0.74433370  0.26660474  0.51388948  1
  O  O8  1  0.48611052  0.26660474  0.96383948  1
  O  O9  1  0.96383948  0.73339526  0.74433370  1
