# generated using pymatgen
data_LiCo2(PO4)2
_symmetry_space_group_name_H-M   'P 1'
_cell_length_a   8.43344418
_cell_length_b   5.28068647
_cell_length_c   16.56874366
_cell_angle_alpha   90.00000000
_cell_angle_beta   105.26015907
_cell_angle_gamma   90.00000000
_symmetry_Int_Tables_number   1
_chemical_formula_structural   LiCo2(PO4)2
_chemical_formula_sum   'Li4 Co8 P8 O32'
_cell_volume   711.86153080
_cell_formula_units_Z   4
loop_
 _symmetry_equiv_pos_site_id
 _symmetry_equiv_pos_as_xyz
  1  'x, y, z'
loop_
 _atom_site_type_symbol
 _atom_site_label
 _atom_site_symmetry_multiplicity
 _atom_site_fract_x
 _atom_site_fract_y
 _atom_site_fract_z
 _atom_site_occupancy
  Li  Li0  1  0.08032053  0.85244105  0.48434120  1
  Li  Li1  1  0.58032053  0.14755895  0.98434120  1
  Li  Li2  1  0.28059759  0.33929776  0.25036801  1
  Li  Li3  1  0.78059759  0.66070224  0.75036801  1
  Co  Co4  1  0.20549578  0.31457175  0.93770360  1
  Co  Co5  1  0.22159715  0.33582251  0.43350743  1
  Co  Co6  1  0.37737697  0.81608106  0.68757598  1
  Co  Co7  1  0.72159715  0.66417749  0.93350743  1
  Co  Co8  1  0.37843113  0.82552406  0.18005210  1
  Co  Co9  1  0.70549578  0.68542825  0.43770360  1
  Co  Co10  1  0.87843113  0.17447594  0.68005210  1
  Co  Co11  1  0.87737697  0.18391894  0.18757598  1
  P  P12  1  0.00212238  0.66957049  0.62039485  1
  P  P13  1  0.33809809  0.81664006  0.87439124  1
  P  P14  1  0.00576816  0.67750895  0.12131415  1
  P  P15  1  0.33193805  0.83084449  0.36784384  1
  P  P16  1  0.50576816  0.32249105  0.62131415  1
  P  P17  1  0.83193805  0.16915551  0.86784384  1
  P  P18  1  0.50212238  0.33042951  0.12039485  1
  P  P19  1  0.83809809  0.18335994  0.37439124  1
  O  O20  1  0.00099251  0.19200577  0.93597717  1
  O  O21  1  0.03078464  0.39123151  0.64394423  1
  O  O22  1  0.21369628  0.65166764  0.90566625  1
  O  O23  1  0.00916366  0.18942798  0.43858070  1
  O  O24  1  0.16491813  0.79459107  0.61096543  1
  O  O25  1  0.27430088  0.09391330  0.86243643  1
  O  O26  1  0.03865653  0.41114442  0.16742301  1
  O  O27  1  0.35144130  0.70751856  0.78972778  1
  O  O28  1  0.20226222  0.70470302  0.40650920  1
  O  O29  1  0.50916366  0.81057202  0.93858070  1
  O  O30  1  0.16558269  0.76773384  0.10400978  1
  O  O31  1  0.45456078  0.14093407  0.68564339  1
  O  O32  1  0.28806951  0.11549478  0.34936403  1
  O  O33  1  0.36503146  0.33526544  0.54263769  1
  O  O34  1  0.34447965  0.69034181  0.28802057  1
  O  O35  1  0.53865653  0.58885558  0.66742301  1
  O  O36  1  0.70226222  0.29529698  0.90650920  1
  O  O37  1  0.50099251  0.80799423  0.43597717  1
  O  O38  1  0.42787562  0.19092263  0.18431208  1
  O  O39  1  0.39079431  0.28850113  0.02908687  1
  O  O40  1  0.66558269  0.23226616  0.60400978  1
  O  O41  1  0.78806951  0.88450522  0.84936403  1
  O  O42  1  0.53078464  0.60876849  0.14394423  1
  O  O43  1  0.84447965  0.30965819  0.78802057  1
  O  O44  1  0.71369628  0.34833236  0.40566625  1
  O  O45  1  0.66491813  0.20540893  0.11096543  1
  O  O46  1  0.92787562  0.80907737  0.68431208  1
  O  O47  1  0.77430088  0.90608670  0.36243643  1
  O  O48  1  0.89079431  0.71149887  0.52908687  1
  O  O49  1  0.85144130  0.29248144  0.28972778  1
  O  O50  1  0.95456078  0.85906593  0.18564339  1
  O  O51  1  0.86503146  0.66473456  0.04263769  1
