# generated using pymatgen
data_K2Mg2O3
_symmetry_space_group_name_H-M   'P 1'
_cell_length_a   6.49053735
_cell_length_b   6.49053735
_cell_length_c   10.39352904
_cell_angle_alpha   90.00000000
_cell_angle_beta   90.00000000
_cell_angle_gamma   90.00000000
_symmetry_Int_Tables_number   1
_chemical_formula_structural   K2Mg2O3
_chemical_formula_sum   'K8 Mg8 O12'
_cell_volume   437.84897834
_cell_formula_units_Z   4
loop_
 _symmetry_equiv_pos_site_id
 _symmetry_equiv_pos_as_xyz
  1  'x, y, z'
loop_
 _atom_site_type_symbol
 _atom_site_label
 _atom_site_symmetry_multiplicity
 _atom_site_fract_x
 _atom_site_fract_y
 _atom_site_fract_z
 _atom_site_occupancy
  K  K0  1  0.93286524  0.73674367  0.36208312  1
  K  K1  1  0.26325633  0.06713476  0.13791688  1
  K  K2  1  0.23674367  0.56713476  0.61208312  1
  K  K3  1  0.56713476  0.23674367  0.38791688  1
  K  K4  1  0.43286524  0.76325633  0.88791688  1
  K  K5  1  0.76325633  0.43286524  0.11208312  1
  K  K6  1  0.73674367  0.93286524  0.63791688  1
  K  K7  1  0.06713476  0.26325633  0.86208312  1
  Mg  Mg8  1  0.92717349  0.77769554  0.88231426  1
  Mg  Mg9  1  0.22230446  0.07282651  0.61768574  1
  Mg  Mg10  1  0.27769554  0.57282651  0.13231426  1
  Mg  Mg11  1  0.57282651  0.27769554  0.86768574  1
  Mg  Mg12  1  0.42717349  0.72230446  0.36768574  1
  Mg  Mg13  1  0.72230446  0.42717349  0.63231426  1
  Mg  Mg14  1  0.77769554  0.92717349  0.11768574  1
  Mg  Mg15  1  0.07282651  0.22230446  0.38231426  1
  O  O16  1  0.97138859  0.26442822  0.56470082  1
  O  O17  1  0.38316823  0.38316823  0.00000000  1
  O  O18  1  0.23557178  0.47138859  0.31470082  1
  O  O19  1  0.26442822  0.97138859  0.43529918  1
  O  O20  1  0.11683177  0.88316823  0.75000000  1
  O  O21  1  0.52861141  0.76442822  0.18529918  1
  O  O22  1  0.47138859  0.23557178  0.68529918  1
  O  O23  1  0.88316823  0.11683177  0.25000000  1
  O  O24  1  0.73557178  0.02861141  0.93529918  1
  O  O25  1  0.76442822  0.52861141  0.81470082  1
  O  O26  1  0.61683177  0.61683177  0.50000000  1
  O  O27  1  0.02861141  0.73557178  0.06470082  1
