# generated using pymatgen
data_Li2Mn5(FeO6)2
_symmetry_space_group_name_H-M   'P 1'
_cell_length_a   5.98121139
_cell_length_b   5.97744036
_cell_length_c   13.71329242
_cell_angle_alpha   102.76874138
_cell_angle_beta   102.44088220
_cell_angle_gamma   90.05219263
_symmetry_Int_Tables_number   1
_chemical_formula_structural   Li2Mn5(FeO6)2
_chemical_formula_sum   'Li4 Mn10 Fe4 O24'
_cell_volume   466.32337619
_cell_formula_units_Z   2
loop_
 _symmetry_equiv_pos_site_id
 _symmetry_equiv_pos_as_xyz
  1  'x, y, z'
loop_
 _atom_site_type_symbol
 _atom_site_label
 _atom_site_symmetry_multiplicity
 _atom_site_fract_x
 _atom_site_fract_y
 _atom_site_fract_z
 _atom_site_occupancy
  Li  Li0  1  0.79482452  0.04839847  0.08523055  1
  Li  Li1  1  0.86382147  0.61730954  0.24592239  1
  Li  Li2  1  0.53829222  0.29076456  0.58613155  1
  Li  Li3  1  0.12825682  0.38169735  0.74505873  1
  Mn  Mn4  1  0.00111243  0.50350746  0.99632965  1
  Mn  Mn5  1  0.33583852  0.83277488  0.16764231  1
  Mn  Mn6  1  0.33590196  0.33308021  0.16634688  1
  Mn  Mn7  1  0.67039125  0.17103845  0.33844434  1
  Mn  Mn8  1  0.16345457  0.16531530  0.33601147  1
  Mn  Mn9  1  0.99320469  -0.00318058  0.49686795  1
  Mn  Mn10  1  0.33480294  0.83114599  0.66617797  1
  Mn  Mn11  1  0.83602527  0.83169957  0.66778998  1
  Mn  Mn12  1  0.67224605  0.17203538  0.83565006  1
  Mn  Mn13  1  0.66734533  0.66837159  0.83776983  1
  Fe  Fe14  1  0.50879764  0.49969268  0.99871284  1
  Fe  Fe15  1  0.46793299  0.70994894  0.41642567  1
  Fe  Fe16  1  0.99897637  0.49149383  0.49827962  1
  Fe  Fe17  1  0.20765145  0.94854340  0.91686215  1
  O  O18  1  0.27165054  0.24910439  0.99639759  1
  O  O19  1  0.24485796  0.72726039  -0.00126640  1
  O  O20  1  0.54847799  0.57801165  0.15351440  1
  O  O21  1  0.10922018  0.57418558  0.15230579  1
  O  O22  1  0.56532043  0.09060727  0.18581361  1
  O  O23  1  0.12434907  0.09138496  0.18334726  1
  O  O24  1  0.41868433  0.94860932  0.33869466  1
  O  O25  1  0.44232782  0.40947516  0.33379187  1
  O  O26  1  0.88783855  0.93805995  0.34470727  1
  O  O27  1  0.91525790  0.38138972  0.33824589  1
  O  O28  1  0.74786563  0.26149829  0.48617696  1
  O  O29  1  0.21171134  0.22998376  0.48778831  1
  O  O30  1  0.24592843  0.72712043  0.49551929  1
  O  O31  1  0.77144863  0.75580635  0.49968696  1
  O  O32  1  0.07750255  0.60670019  0.65322843  1
  O  O33  1  0.07832964  0.04485315  0.65183474  1
  O  O34  1  0.59209427  0.05913820  0.68325957  1
  O  O35  1  0.59685228  0.62031909  0.68546765  1
  O  O36  1  0.89186821  0.92153514  0.83877238  1
  O  O37  1  0.42615437  0.89179262  0.83306029  1
  O  O38  1  0.90731582  0.45707272  0.84361124  1
  O  O39  1  0.45774921  0.42196006  0.83819520  1
  O  O40  1  0.76002085  0.27660784  0.98819676  1
  O  O41  1  0.72526751  0.73920078  0.98572229  1
