# generated using pymatgen
data_Li3Al2VO6
_symmetry_space_group_name_H-M   'P 1'
_cell_length_a   4.99622394
_cell_length_b   4.99622394
_cell_length_c   5.12663026
_cell_angle_alpha   80.20874217
_cell_angle_beta   99.79125783
_cell_angle_gamma   60.57600899
_symmetry_Int_Tables_number   1
_chemical_formula_structural   Li3Al2VO6
_chemical_formula_sum   'Li3 Al2 V1 O6'
_cell_volume   104.93723682
_cell_formula_units_Z   1
loop_
 _symmetry_equiv_pos_site_id
 _symmetry_equiv_pos_as_xyz
  1  'x, y, z'
loop_
 _atom_site_type_symbol
 _atom_site_label
 _atom_site_symmetry_multiplicity
 _atom_site_fract_x
 _atom_site_fract_y
 _atom_site_fract_z
 _atom_site_occupancy
  Li  Li0  1  0.16785566  0.16785566  0.50000000  1
  Li  Li1  1  0.50000000  0.50000000  0.50000000  1
  Li  Li2  1  0.83214434  0.83214434  0.50000000  1
  Al  Al3  1  0.33500213  0.33500213  0.00000000  1
  Al  Al4  1  0.66499787  0.66499787  0.00000000  1
  V  V5  1  0.00000000  0.00000000  0.00000000  1
  O  O6  1  0.27767995  0.72232005  0.77808062  1
  O  O7  1  0.42114964  0.92577927  0.21552351  1
  O  O8  1  0.07422073  0.57885036  0.21552351  1
  O  O9  1  0.92577927  0.42114964  0.78447649  1
  O  O10  1  0.57885036  0.07422073  0.78447649  1
  O  O11  1  0.72232005  0.27767995  0.22191938  1
