# generated using pymatgen
data_Li3Mn4FeO8
_symmetry_space_group_name_H-M   'P 1'
_cell_length_a   6.20024190
_cell_length_b   6.20024183
_cell_length_c   6.20344393
_cell_angle_alpha   86.07456971
_cell_angle_beta   57.73626864
_cell_angle_gamma   57.69672908
_symmetry_Int_Tables_number   1
_chemical_formula_structural   Li3Mn4FeO8
_chemical_formula_sum   'Li3 Mn4 Fe1 O8'
_cell_volume   162.41576280
_cell_formula_units_Z   1
loop_
 _symmetry_equiv_pos_site_id
 _symmetry_equiv_pos_as_xyz
  1  'x, y, z'
loop_
 _atom_site_type_symbol
 _atom_site_label
 _atom_site_symmetry_multiplicity
 _atom_site_fract_x
 _atom_site_fract_y
 _atom_site_fract_z
 _atom_site_occupancy
  Li  Li0  1  0.00000000  0.00000000  0.50000000  1
  Li  Li1  1  0.50000000  0.00000000  0.50000000  1
  Li  Li2  1  0.50000000  0.50000000  0.50000000  1
  Mn  Mn3  1  0.00000000  0.50000000  0.50000000  1
  Mn  Mn4  1  0.00000000  0.00000000  0.00000000  1
  Mn  Mn5  1  0.50000000  0.00000000  0.00000000  1
  Mn  Mn6  1  0.00000000  0.50000000  0.00000000  1
  Fe  Fe7  1  0.50000000  0.50000000  0.00000000  1
  O  O8  1  0.48050996  0.27132401  0.79081405  1
  O  O9  1  0.98520263  0.25393962  0.75280062  1
  O  O10  1  0.50113799  0.73800425  0.75280062  1
  O  O11  1  0.98115729  0.75206761  0.77091033  1
  O  O12  1  0.01884271  0.24793239  0.22908967  1
  O  O13  1  0.49886201  0.26199575  0.24719938  1
  O  O14  1  0.01479737  0.74606038  0.24719938  1
  O  O15  1  0.51949004  0.72867599  0.20918595  1
