# generated using pymatgen
data_Mn2PO5
_symmetry_space_group_name_H-M   'P 1'
_cell_length_a   5.57308323
_cell_length_b   7.32119109
_cell_length_c   5.57308323
_cell_angle_alpha   67.62833643
_cell_angle_beta   90.00000000
_cell_angle_gamma   112.37166357
_symmetry_Int_Tables_number   1
_chemical_formula_structural   Mn2PO5
_chemical_formula_sum   'Mn4 P2 O10'
_cell_volume   191.63892686
_cell_formula_units_Z   2
loop_
 _symmetry_equiv_pos_site_id
 _symmetry_equiv_pos_as_xyz
  1  'x, y, z'
loop_
 _atom_site_type_symbol
 _atom_site_label
 _atom_site_symmetry_multiplicity
 _atom_site_fract_x
 _atom_site_fract_y
 _atom_site_fract_z
 _atom_site_occupancy
  Mn  Mn0  1  0.50000000  0.50000000  0.00000000  1
  Mn  Mn1  1  0.50000000  0.00000000  0.50000000  1
  Mn  Mn2  1  0.00000000  0.00000000  0.50000000  1
  Mn  Mn3  1  0.50000000  0.50000000  0.50000000  1
  P  P4  1  0.12500000  0.75000000  0.12500000  1
  P  P5  1  0.87500000  0.25000000  0.87500000  1
  O  O6  1  0.80656667  0.11313334  0.17714914  1
  O  O7  1  0.29028248  0.61313334  0.19343333  1
  O  O8  1  0.37500000  0.25000000  0.37500000  1
  O  O9  1  0.82285086  0.61313334  0.19343333  1
  O  O10  1  0.19343333  0.88686666  0.29028248  1
  O  O11  1  0.80656667  0.11313334  0.70971752  1
  O  O12  1  0.70971752  0.38686666  0.80656667  1
  O  O13  1  0.17714914  0.38686666  0.80656667  1
  O  O14  1  0.62500000  0.75000000  0.62500000  1
  O  O15  1  0.19343333  0.88686666  0.82285086  1
