# generated using pymatgen
data_LiCo2(SO4)3
_symmetry_space_group_name_H-M   'P 1'
_cell_length_a   8.61020389
_cell_length_b   8.61020389
_cell_length_c   8.61020417
_cell_angle_alpha   59.93091469
_cell_angle_beta   59.93091469
_cell_angle_gamma   59.93090914
_symmetry_Int_Tables_number   1
_chemical_formula_structural   LiCo2(SO4)3
_chemical_formula_sum   'Li2 Co4 S6 O24'
_cell_volume   450.65503235
_cell_formula_units_Z   2
loop_
 _symmetry_equiv_pos_site_id
 _symmetry_equiv_pos_as_xyz
  1  'x, y, z'
loop_
 _atom_site_type_symbol
 _atom_site_label
 _atom_site_symmetry_multiplicity
 _atom_site_fract_x
 _atom_site_fract_y
 _atom_site_fract_z
 _atom_site_occupancy
  Li  Li0  1  0.00000000  0.00000000  0.00000000  1
  Li  Li1  1  0.50000000  0.50000000  0.50000000  1
  Co  Co2  1  0.35605855  0.35605855  0.35605855  1
  Co  Co3  1  0.14394145  0.14394145  0.14394145  1
  Co  Co4  1  0.64394145  0.64394145  0.64394145  1
  Co  Co5  1  0.85605855  0.85605855  0.85605855  1
  S  S6  1  0.04472979  0.75000000  0.45527021  1
  S  S7  1  0.54472979  0.95527021  0.25000000  1
  S  S8  1  0.25000000  0.54472979  0.95527021  1
  S  S9  1  0.75000000  0.45527021  0.04472979  1
  S  S10  1  0.45527021  0.04472979  0.75000000  1
  S  S11  1  0.95527021  0.25000000  0.54472979  1
  O  O12  1  0.06028626  0.90909174  0.26918228  1
  O  O13  1  0.09090826  0.73081772  0.93971374  1
  O  O14  1  0.49279815  0.89253328  0.69037684  1
  O  O15  1  0.60746672  0.00720185  0.80962316  1
  O  O16  1  0.23081772  0.59090826  0.43971374  1
  O  O17  1  0.56028626  0.76918228  0.40909174  1
  O  O18  1  0.73081772  0.93971374  0.09090826  1
  O  O19  1  0.99279815  0.19037684  0.39253328  1
  O  O20  1  0.30962316  0.50720185  0.10746672  1
  O  O21  1  0.10746672  0.30962316  0.50720185  1
  O  O22  1  0.19037684  0.39253328  0.99279815  1
  O  O23  1  0.40909174  0.56028626  0.76918228  1
  O  O24  1  0.59090826  0.43971374  0.23081772  1
  O  O25  1  0.89253328  0.69037684  0.49279815  1
  O  O26  1  0.80962316  0.60746672  0.00720185  1
  O  O27  1  0.00720185  0.80962316  0.60746672  1
  O  O28  1  0.69037684  0.49279815  0.89253328  1
  O  O29  1  0.26918228  0.06028626  0.90909174  1
  O  O30  1  0.43971374  0.23081772  0.59090826  1
  O  O31  1  0.76918228  0.40909174  0.56028626  1
  O  O32  1  0.50720185  0.10746672  0.30962316  1
  O  O33  1  0.39253328  0.99279815  0.19037684  1
  O  O34  1  0.90909174  0.26918228  0.06028626  1
  O  O35  1  0.93971374  0.09090826  0.73081772  1
