# generated using pymatgen
data_Li4MnV(PO4)3
_symmetry_space_group_name_H-M   'P 1'
_cell_length_a   9.24522632
_cell_length_b   8.45104984
_cell_length_c   8.43967398
_cell_angle_alpha   60.76000606
_cell_angle_beta   63.27029417
_cell_angle_gamma   90.79336874
_symmetry_Int_Tables_number   1
_chemical_formula_structural   Li4MnV(PO4)3
_chemical_formula_sum   'Li8 Mn2 V2 P6 O24'
_cell_volume   490.28099527
_cell_formula_units_Z   2
loop_
 _symmetry_equiv_pos_site_id
 _symmetry_equiv_pos_as_xyz
  1  'x, y, z'
loop_
 _atom_site_type_symbol
 _atom_site_label
 _atom_site_symmetry_multiplicity
 _atom_site_fract_x
 _atom_site_fract_y
 _atom_site_fract_z
 _atom_site_occupancy
  Li  Li0  1  0.86053857  0.26948429  0.80915519  1
  Li  Li1  1  0.89877971  0.93251223  0.37702869  1
  Li  Li2  1  0.85373030  0.66101872  0.06278478  1
  Li  Li3  1  0.58715477  0.79102907  0.67417544  1
  Li  Li4  1  0.41284523  0.20897093  0.32582456  1
  Li  Li5  1  0.14626970  0.33898128  0.93721522  1
  Li  Li6  1  0.10122029  0.06748777  0.62297131  1
  Li  Li7  1  0.13946143  0.73051571  0.19084481  1
  Mn  Mn8  1  0.96531143  0.64875554  0.69041020  1
  Mn  Mn9  1  0.03468857  0.35124446  0.30958980  1
  V  V10  1  0.44095959  0.15020571  0.70667358  1
  V  V11  1  0.55904041  0.84979429  0.29332642  1
  P  P12  1  0.74345194  0.95310844  0.79529730  1
  P  P13  1  0.74806072  0.54409020  0.50087614  1
  P  P14  1  0.75618400  0.24218836  0.20499272  1
  P  P15  1  0.24381600  0.75781164  0.79500728  1
  P  P16  1  0.25193928  0.45590980  0.49912386  1
  P  P17  1  0.25654806  0.04689156  0.20470270  1
  O  O18  1  0.89147190  0.14153117  0.65859739  1
  O  O19  1  0.80102169  0.49705834  0.66332948  1
  O  O20  1  0.79370483  0.83613338  0.69226242  1
  O  O21  1  0.89749675  0.56912601  0.29538327  1
  O  O22  1  0.90282242  0.19614582  0.24854642  1
  O  O23  1  0.70995100  0.74205916  0.43087622  1
  O  O24  1  0.57907249  0.99069460  0.80257048  1
  O  O25  1  0.58717437  0.39000829  0.60142098  1
  O  O26  1  0.80732165  0.45410577  0.03294102  1
  O  O27  1  0.72974710  0.11685234  0.12593079  1
  O  O28  1  0.58661676  0.18754086  0.40683204  1
  O  O29  1  0.71860291  0.84200045  0.02050609  1
  O  O30  1  0.28139709  0.15799955  0.97949391  1
  O  O31  1  0.41338324  0.81245914  0.59316796  1
  O  O32  1  0.27025290  0.88314766  0.87406921  1
  O  O33  1  0.19267835  0.54589423  0.96705898  1
  O  O34  1  0.41282563  0.60999171  0.39857902  1
  O  O35  1  0.42092751  0.00930540  0.19742952  1
  O  O36  1  0.29004900  0.25794084  0.56912378  1
  O  O37  1  0.09717758  0.80385418  0.75145358  1
  O  O38  1  0.10250325  0.43087399  0.70461673  1
  O  O39  1  0.20629517  0.16386662  0.30773758  1
  O  O40  1  0.19897831  0.50294166  0.33667052  1
  O  O41  1  0.10852810  0.85846883  0.34140261  1
