# generated using pymatgen
data_Li5Fe2P2(CO7)2
_symmetry_space_group_name_H-M   'P 1'
_cell_length_a   8.47081684
_cell_length_b   7.93076874
_cell_length_c   9.61351185
_cell_angle_alpha   77.52988619
_cell_angle_beta   68.45033192
_cell_angle_gamma   103.05238689
_symmetry_Int_Tables_number   1
_chemical_formula_structural   Li5Fe2P2(CO7)2
_chemical_formula_sum   'Li10 Fe4 P4 C4 O28'
_cell_volume   552.41885058
_cell_formula_units_Z   2
loop_
 _symmetry_equiv_pos_site_id
 _symmetry_equiv_pos_as_xyz
  1  'x, y, z'
loop_
 _atom_site_type_symbol
 _atom_site_label
 _atom_site_symmetry_multiplicity
 _atom_site_fract_x
 _atom_site_fract_y
 _atom_site_fract_z
 _atom_site_occupancy
  Li  Li0  1  0.41940622  0.02901228  0.19669922  1
  Li  Li1  1  0.19930975  0.33667073  0.21672618  1
  Li  Li2  1  0.26698648  0.31041909  0.71428260  1
  Li  Li3  1  0.03165019  0.60720955  0.72895424  1
  Li  Li4  1  0.87090252  0.23731430  0.08495149  1
  Li  Li5  1  0.54247271  0.11401816  0.75185309  1
  Li  Li6  1  0.08858574  0.90532802  0.86472723  1
  Li  Li7  1  0.93030243  0.53561704  0.22015260  1
  Li  Li8  1  0.69314605  0.83317183  0.23498466  1
  Li  Li9  1  0.76135358  0.80603879  0.73298419  1
  Fe  Fe10  1  0.02965792  0.87314281  0.31721508  1
  Fe  Fe11  1  0.52690856  0.37592971  0.32090698  1
  Fe  Fe12  1  0.43537285  0.76766237  0.62809606  1
  Fe  Fe13  1  0.93205503  0.26977819  0.63169744  1
  P  P14  1  0.17852435  0.01068243  0.55163946  1
  P  P15  1  0.28600204  0.63366514  0.39183345  1
  P  P16  1  0.78337640  0.13215218  0.39722979  1
  P  P17  1  0.67499609  0.50924569  0.55715625  1
  C  C18  1  0.21356992  0.05902641  0.01930691  1
  C  C19  1  0.73569180  0.57470838  0.03473530  1
  C  C20  1  0.22651829  0.56929102  0.91432310  1
  C  C21  1  0.74842824  0.08478344  0.92960072  1
  O  O22  1  0.24878622  0.12388539  0.12279402  1
  O  O23  1  0.11278179  0.46692765  0.05637182  1
  O  O24  1  0.12184554  0.13545991  0.65012947  1
  O  O25  1  0.34313691  0.12485669  0.38782377  1
  O  O26  1  0.07728699  0.90852619  0.07246704  1
  O  O27  1  0.12101657  0.52669796  0.55166259  1
  O  O28  1  0.34712440  0.49584691  0.30697928  1
  O  O29  1  0.61675211  0.41775836  0.07224206  1
  O  O30  1  0.61880578  0.01827080  0.56118230  1
  O  O31  1  0.83839054  0.00704258  0.29878424  1
  O  O32  1  0.24857313  0.77553334  0.28353830  1
  O  O33  1  0.73215875  0.27409602  0.29507399  1
  O  O34  1  0.30704020  0.13684828  0.86825358  1
  O  O35  1  0.01577960  0.89905927  0.53496716  1
  O  O36  1  0.22263721  0.52058035  0.79159746  1
  O  O37  1  0.51492182  0.40594208  0.52570671  1
  O  O38  1  0.71356774  0.01967105  0.82599141  1
  O  O39  1  0.44530943  0.73709985  0.42402529  1
  O  O40  1  0.73943702  0.62370421  0.15734104  1
  O  O41  1  0.94661806  0.24284543  0.41351573  1
  O  O42  1  0.65457886  0.00686605  0.08065251  1
  O  O43  1  0.22974867  0.86950861  0.65434045  1
  O  O44  1  0.71293304  0.36768751  0.66550413  1
  O  O45  1  0.34575593  0.72594344  0.87699332  1
  O  O46  1  0.61444950  0.64704840  0.64232728  1
  O  O47  1  0.83960728  0.61579482  0.39720288  1
  O  O48  1  0.88451576  0.23517258  0.87675040  1
  O  O49  1  0.84937200  0.67691172  0.89264376  1
