# generated using pymatgen
data_Li4TiFe3O8
_symmetry_space_group_name_H-M   'P 1'
_cell_length_a   10.37177998
_cell_length_b   10.34110129
_cell_length_c   14.65353569
_cell_angle_alpha   19.49178608
_cell_angle_beta   19.50152423
_cell_angle_gamma   33.55671653
_symmetry_Int_Tables_number   1
_chemical_formula_structural   Li4TiFe3O8
_chemical_formula_sum   'Li4 Ti1 Fe3 O8'
_cell_volume   151.99761878
_cell_formula_units_Z   1
loop_
 _symmetry_equiv_pos_site_id
 _symmetry_equiv_pos_as_xyz
  1  'x, y, z'
loop_
 _atom_site_type_symbol
 _atom_site_label
 _atom_site_symmetry_multiplicity
 _atom_site_fract_x
 _atom_site_fract_y
 _atom_site_fract_z
 _atom_site_occupancy
  Li  Li0  1  0.00000043  0.00000005  0.49999965  1
  Li  Li1  1  -0.00000010  0.49999965  0.50000029  1
  Li  Li2  1  0.50000012  -0.00000040  0.50000023  1
  Li  Li3  1  0.49999917  0.49999903  0.50000098  1
  Ti  Ti4  1  -0.00000097  -0.00000167  0.00000165  1
  Fe  Fe5  1  0.00000070  0.50000131  -0.00000120  1
  Fe  Fe6  1  0.49999970  0.00000069  -0.00000026  1
  Fe  Fe7  1  0.50000014  0.50000008  0.00000026  1
  O  O8  1  0.99953643  0.98820085  0.26667018  1
  O  O9  1  -0.00159528  0.51262542  0.24871766  1
  O  O10  1  0.53863044  0.02235601  0.21583952  1
  O  O11  1  0.00046401  0.01180018  0.73332932  1
  O  O12  1  0.46141039  0.48254228  0.29397948  1
  O  O13  1  0.00159550  0.48737347  0.75128291  1
  O  O14  1  0.46136985  0.97764336  0.78416051  1
  O  O15  1  0.53858948  0.51745766  0.70602083  1
