# generated using pymatgen
data_Li2Cr3SnO8
_symmetry_space_group_name_H-M   'P 1'
_cell_length_a   6.11797791
_cell_length_b   6.11797859
_cell_length_c   6.11797869
_cell_angle_alpha   58.51400937
_cell_angle_beta   58.51400766
_cell_angle_gamma   58.51400877
_symmetry_Int_Tables_number   1
_chemical_formula_structural   Li2Cr3SnO8
_chemical_formula_sum   'Li2 Cr3 Sn1 O8'
_cell_volume   156.41923104
_cell_formula_units_Z   1
loop_
 _symmetry_equiv_pos_site_id
 _symmetry_equiv_pos_as_xyz
  1  'x, y, z'
loop_
 _atom_site_type_symbol
 _atom_site_label
 _atom_site_symmetry_multiplicity
 _atom_site_fract_x
 _atom_site_fract_y
 _atom_site_fract_z
 _atom_site_occupancy
  Li  Li0  1  0.12008458  0.12008458  0.12008458  1
  Li  Li1  1  0.87991542  0.87991542  0.87991542  1
  Cr  Cr2  1  0.00000000  0.50000000  0.50000000  1
  Cr  Cr3  1  0.50000000  0.00000000  0.50000000  1
  Cr  Cr4  1  0.50000000  0.50000000  0.00000000  1
  Sn  Sn5  1  0.50000000  0.50000000  0.50000000  1
  O  O6  1  0.26903355  0.26903355  0.26903355  1
  O  O7  1  0.25618759  0.25618759  0.71630004  1
  O  O8  1  0.25618759  0.71630004  0.25618759  1
  O  O9  1  0.71630004  0.25618759  0.25618759  1
  O  O10  1  0.28369996  0.74381241  0.74381241  1
  O  O11  1  0.74381241  0.28369996  0.74381241  1
  O  O12  1  0.74381241  0.74381241  0.28369996  1
  O  O13  1  0.73096645  0.73096645  0.73096645  1
