# generated using pymatgen
data_LiMnPCO7
_symmetry_space_group_name_H-M   'P 1'
_cell_length_a   16.70919064
_cell_length_b   5.11569565
_cell_length_c   6.24042652
_cell_angle_alpha   90.00000000
_cell_angle_beta   90.00000000
_cell_angle_gamma   85.84321293
_symmetry_Int_Tables_number   1
_chemical_formula_structural   LiMnPCO7
_chemical_formula_sum   'Li4 Mn4 P4 C4 O28'
_cell_volume   532.02303876
_cell_formula_units_Z   4
loop_
 _symmetry_equiv_pos_site_id
 _symmetry_equiv_pos_as_xyz
  1  'x, y, z'
loop_
 _atom_site_type_symbol
 _atom_site_label
 _atom_site_symmetry_multiplicity
 _atom_site_fract_x
 _atom_site_fract_y
 _atom_site_fract_z
 _atom_site_occupancy
  Li  Li0  1  0.13180246  0.24181451  0.47121936  1
  Li  Li1  1  0.36819754  0.75818549  0.97121936  1
  Li  Li2  1  0.63180246  0.24181451  0.02878064  1
  Li  Li3  1  0.86819754  0.75818549  0.52878064  1
  Mn  Mn4  1  0.16487373  0.79456328  0.76042651  1
  Mn  Mn5  1  0.33512627  0.20543672  0.26042651  1
  Mn  Mn6  1  0.66487373  0.79456328  0.73957349  1
  Mn  Mn7  1  0.83512627  0.20543672  0.23957349  1
  P  P8  1  0.21287027  0.72304123  0.25426005  1
  P  P9  1  0.28712973  0.27695877  0.75426005  1
  P  P10  1  0.71287027  0.72304123  0.24573995  1
  P  P11  1  0.78712973  0.27695877  0.74573995  1
  C  C12  1  0.02574350  0.71039042  0.73403433  1
  C  C13  1  0.47425650  0.28960958  0.23403433  1
  C  C14  1  0.52574350  0.71039042  0.76596567  1
  C  C15  1  0.97425650  0.28960958  0.26596567  1
  O  O16  1  0.05296583  0.94546995  0.74972220  1
  O  O17  1  0.04518069  0.33720371  0.27951921  1
  O  O18  1  0.08707363  0.52832454  0.73523104  1
  O  O19  1  0.15700293  0.79228636  0.06289564  1
  O  O20  1  0.16187367  0.82527126  0.44803750  1
  O  O21  1  0.20759431  0.14284631  0.73872281  1
  O  O22  1  0.23261736  0.42146121  0.27465200  1
  O  O23  1  0.26738264  0.57853879  0.77465200  1
  O  O24  1  0.29240569  0.85715369  0.23872281  1
  O  O25  1  0.33812633  0.17472874  0.94803750  1
  O  O26  1  0.34299707  0.20771364  0.56289564  1
  O  O27  1  0.41292637  0.47167546  0.23523104  1
  O  O28  1  0.45481931  0.66279629  0.77951921  1
  O  O29  1  0.44703417  0.05453005  0.24972220  1
  O  O30  1  0.55296583  0.94546995  0.75027780  1
  O  O31  1  0.54518069  0.33720371  0.22048079  1
  O  O32  1  0.58707363  0.52832454  0.76476896  1
  O  O33  1  0.66187367  0.82527126  0.05196250  1
  O  O34  1  0.65700293  0.79228636  0.43710436  1
  O  O35  1  0.70759431  0.14284631  0.76127719  1
  O  O36  1  0.73261736  0.42146121  0.22534800  1
  O  O37  1  0.76738264  0.57853879  0.72534800  1
  O  O38  1  0.79240569  0.85715369  0.26127719  1
  O  O39  1  0.84299707  0.20771364  0.93710436  1
  O  O40  1  0.83812633  0.17472874  0.55196250  1
  O  O41  1  0.91292637  0.47167546  0.26476896  1
  O  O42  1  0.95481931  0.66279629  0.72048079  1
  O  O43  1  0.94703417  0.05453005  0.25027780  1
