# generated using pymatgen
data_LiMnPCO7
_symmetry_space_group_name_H-M   'P 1'
_cell_length_a   16.67242962
_cell_length_b   5.11668129
_cell_length_c   6.23710413
_cell_angle_alpha   90.27143187
_cell_angle_beta   89.03988616
_cell_angle_gamma   85.74101945
_symmetry_Int_Tables_number   1
_chemical_formula_structural   LiMnPCO7
_chemical_formula_sum   'Li4 Mn4 P4 C4 O28'
_cell_volume   530.51848622
_cell_formula_units_Z   4
loop_
 _symmetry_equiv_pos_site_id
 _symmetry_equiv_pos_as_xyz
  1  'x, y, z'
loop_
 _atom_site_type_symbol
 _atom_site_label
 _atom_site_symmetry_multiplicity
 _atom_site_fract_x
 _atom_site_fract_y
 _atom_site_fract_z
 _atom_site_occupancy
  Li  Li0  1  0.13070105  0.24401247  0.03293194  1
  Li  Li1  1  0.36901838  0.75762019  0.52757304  1
  Li  Li2  1  0.63081961  0.24628620  0.47199194  1
  Li  Li3  1  0.87139343  0.75220455  0.53116508  1
  Mn  Mn4  1  0.16467781  0.79385602  0.74592539  1
  Mn  Mn5  1  0.33536355  0.20561534  0.23813568  1
  Mn  Mn6  1  0.66468525  0.79381880  0.75230734  1
  Mn  Mn7  1  0.83508974  0.20586375  0.25288811  1
  P  P8  1  0.21265792  0.72343890  0.24853474  1
  P  P9  1  0.28744792  0.27645419  0.74698785  1
  P  P10  1  0.71315304  0.72370022  0.25575640  1
  P  P11  1  0.78682903  0.27615084  0.74806180  1
  C  C12  1  0.02479384  0.71040177  0.75463493  1
  C  C13  1  0.47474015  0.28936452  0.26349714  1
  C  C14  1  0.52481712  0.70996351  0.73918699  1
  C  C15  1  0.97491579  0.29088822  0.24876948  1
  O  O16  1  0.05212557  0.94559237  0.75321724  1
  O  O17  1  0.04609191  0.33954798  0.23687564  1
  O  O18  1  0.08588216  0.52883967  0.77075704  1
  O  O19  1  0.16131143  0.82515043  0.05721404  1
  O  O20  1  0.15690678  0.79205283  0.44324823  1
  O  O21  1  0.20759369  0.14335505  0.76603561  1
  O  O22  1  0.23248319  0.42178468  0.22647981  1
  O  O23  1  0.26764766  0.57789716  0.72695723  1
  O  O24  1  0.29239849  0.85687250  0.26033867  1
  O  O25  1  0.34359317  0.20825577  0.93564534  1
  O  O26  1  0.33834172  0.17310654  0.55041998  1
  O  O27  1  0.41345897  0.47151528  0.26410755  1
  O  O28  1  0.45395469  0.66305044  0.72296923  1
  O  O29  1  0.44791067  0.05481028  0.24577668  1
  O  O30  1  0.55205276  0.94421048  0.75904424  1
  O  O31  1  0.54592909  0.33759618  0.27758824  1
  O  O32  1  0.58626255  0.52763405  0.73765463  1
  O  O33  1  0.66505045  0.79274285  0.05517568  1
  O  O34  1  0.65513783  0.82425298  0.44217801  1
  O  O35  1  0.70709046  0.14192119  0.73543030  1
  O  O36  1  0.73251122  0.42238740  0.28031684  1
  O  O37  1  0.76734604  0.57713784  0.72243285  1
  O  O38  1  0.79295928  0.85755995  0.26773787  1
  O  O39  1  0.83479622  0.20868656  0.94903097  1
  O  O40  1  0.84495837  0.17445423  0.56187687  1
  O  O41  1  0.91359945  0.47214726  0.26853353  1
  O  O42  1  0.95388287  0.66186739  0.73760100  1
  O  O43  1  0.94762369  0.05593218  0.23937983  1
