# generated using pymatgen
data_Li4MnV(PO4)3
_symmetry_space_group_name_H-M   'P 1'
_cell_length_a   9.27267206
_cell_length_b   8.45098611
_cell_length_c   8.45237487
_cell_angle_alpha   60.61342098
_cell_angle_beta   63.21085475
_cell_angle_gamma   90.55454800
_symmetry_Int_Tables_number   1
_chemical_formula_structural   Li4MnV(PO4)3
_chemical_formula_sum   'Li8 Mn2 V2 P6 O24'
_cell_volume   491.97488156
_cell_formula_units_Z   2
loop_
 _symmetry_equiv_pos_site_id
 _symmetry_equiv_pos_as_xyz
  1  'x, y, z'
loop_
 _atom_site_type_symbol
 _atom_site_label
 _atom_site_symmetry_multiplicity
 _atom_site_fract_x
 _atom_site_fract_y
 _atom_site_fract_z
 _atom_site_occupancy
  Li  Li0  1  0.86380960  0.26384943  0.81017121  1
  Li  Li1  1  0.89923867  0.93759525  0.36945725  1
  Li  Li2  1  0.85513488  0.66449702  0.06676083  1
  Li  Li3  1  0.59295166  0.78991721  0.66691730  1
  Li  Li4  1  0.41276645  0.20001531  0.32486328  1
  Li  Li5  1  0.14770219  0.34347229  0.92820977  1
  Li  Li6  1  0.09725189  0.06066609  0.63132612  1
  Li  Li7  1  0.13701524  0.73174307  0.19730223  1
  Mn  Mn8  1  0.96622291  0.64858857  0.69001458  1
  Mn  Mn9  1  0.56210137  0.85144057  0.28654373  1
  V  V10  1  0.44086464  0.15139041  0.70609940  1
  V  V11  1  0.03494563  0.35163765  0.30819144  1
  P  P12  1  0.74894898  0.95754918  0.78163176  1
  P  P13  1  0.75023079  0.53762659  0.50853528  1
  P  P14  1  0.75838261  0.25190070  0.20233276  1
  P  P15  1  0.24189766  0.75351603  0.80633061  1
  P  P16  1  0.24950556  0.44784059  0.49802943  1
  P  P17  1  0.25181123  0.05552813  0.20247648  1
  O  O18  1  0.89371713  0.15349960  0.63618167  1
  O  O19  1  0.80388390  0.48562667  0.67105243  1
  O  O20  1  0.79888226  0.84207693  0.67751592  1
  O  O21  1  0.89816257  0.55114923  0.30558917  1
  O  O22  1  0.90090946  0.20741254  0.25988402  1
  O  O23  1  0.72489518  0.73859849  0.43048840  1
  O  O24  1  0.58006806  0.98924057  0.80119149  1
  O  O25  1  0.58702357  0.38861856  0.60674929  1
  O  O26  1  0.81055029  0.46541206  0.03390480  1
  O  O27  1  0.74857323  0.13092287  0.11607409  1
  O  O28  1  0.58640240  0.19071261  0.40389986  1
  O  O29  1  0.73970511  0.85553246  0.99612262  1
  O  O30  1  0.27570873  0.16078780  0.97718349  1
  O  O31  1  0.41004519  0.79278979  0.61694390  1
  O  O32  1  0.26478251  0.87823949  0.88664900  1
  O  O33  1  0.18009670  0.53712697  0.98721680  1
  O  O34  1  0.40863682  0.60154390  0.38325157  1
  O  O35  1  0.41444282  0.03503178  0.20280723  1
  O  O36  1  0.28200191  0.24569419  0.57283069  1
  O  O37  1  0.10030362  0.80082319  0.75387775  1
  O  O38  1  0.10242740  0.42752660  0.70236920  1
  O  O39  1  0.18692060  0.17274064  0.30667727  1
  O  O40  1  0.18121417  0.48761338  0.34652203  1
  O  O41  1  0.10986341  0.86250859  0.33982187  1
