# generated using pymatgen
data_La2HfO5
_symmetry_space_group_name_H-M   'P 1'
_cell_length_a   7.82530341
_cell_length_b   3.90899766
_cell_length_c   16.48753197
_cell_angle_alpha   90.00000000
_cell_angle_beta   90.00000000
_cell_angle_gamma   90.00000000
_symmetry_Int_Tables_number   1
_chemical_formula_structural   La2HfO5
_chemical_formula_sum   'La8 Hf4 O20'
_cell_volume   504.33864413
_cell_formula_units_Z   4
loop_
 _symmetry_equiv_pos_site_id
 _symmetry_equiv_pos_as_xyz
  1  'x, y, z'
loop_
 _atom_site_type_symbol
 _atom_site_label
 _atom_site_symmetry_multiplicity
 _atom_site_fract_x
 _atom_site_fract_y
 _atom_site_fract_z
 _atom_site_occupancy
  La  La0  1  0.10603730  0.25000000  0.08332456  1
  La  La1  1  0.15334935  0.25000000  0.74212005  1
  La  La2  1  0.34665065  0.75000000  0.24212005  1
  La  La3  1  0.39396270  0.75000000  0.58332456  1
  La  La4  1  0.60603730  0.25000000  0.41667544  1
  La  La5  1  0.65334935  0.25000000  0.75787995  1
  La  La6  1  0.84665065  0.75000000  0.25787995  1
  La  La7  1  0.89396270  0.75000000  0.91667544  1
  Hf  Hf8  1  0.11016382  0.25000000  0.42771472  1
  Hf  Hf9  1  0.38983618  0.75000000  0.92771472  1
  Hf  Hf10  1  0.61016382  0.25000000  0.07228528  1
  Hf  Hf11  1  0.88983618  0.75000000  0.57228528  1
  O  O12  1  0.08475278  0.75000000  0.17244588  1
  O  O13  1  0.07597784  0.75000000  0.45978100  1
  O  O14  1  0.10899154  0.75000000  0.64879444  1
  O  O15  1  0.15872633  0.75000000  0.99576669  1
  O  O16  1  0.25919855  0.25000000  0.32720299  1
  O  O17  1  0.24080145  0.75000000  0.82720299  1
  O  O18  1  0.34127367  0.25000000  0.49576669  1
  O  O19  1  0.39100846  0.25000000  0.14879444  1
  O  O20  1  0.42402216  0.25000000  0.95978100  1
  O  O21  1  0.41524722  0.25000000  0.67244588  1
  O  O22  1  0.58475278  0.75000000  0.32755412  1
  O  O23  1  0.57597784  0.75000000  0.04021900  1
  O  O24  1  0.60899154  0.75000000  0.85120556  1
  O  O25  1  0.65872633  0.75000000  0.50423331  1
  O  O26  1  0.75919855  0.25000000  0.17279701  1
  O  O27  1  0.74080145  0.75000000  0.67279701  1
  O  O28  1  0.84127367  0.25000000  0.00423331  1
  O  O29  1  0.89100846  0.25000000  0.35120556  1
  O  O30  1  0.92402216  0.25000000  0.54021900  1
  O  O31  1  0.91524722  0.25000000  0.82755412  1
