# generated using pymatgen
data_Li2FeBO4
_symmetry_space_group_name_H-M   'P 1'
_cell_length_a   6.44545836
_cell_length_b   5.20657438
_cell_length_c   10.71563136
_cell_angle_alpha   90.00000000
_cell_angle_beta   94.77523614
_cell_angle_gamma   90.00000000
_symmetry_Int_Tables_number   1
_chemical_formula_structural   Li2FeBO4
_chemical_formula_sum   'Li8 Fe4 B4 O16'
_cell_volume   358.35507631
_cell_formula_units_Z   4
loop_
 _symmetry_equiv_pos_site_id
 _symmetry_equiv_pos_as_xyz
  1  'x, y, z'
loop_
 _atom_site_type_symbol
 _atom_site_label
 _atom_site_symmetry_multiplicity
 _atom_site_fract_x
 _atom_site_fract_y
 _atom_site_fract_z
 _atom_site_occupancy
  Li  Li0  1  0.09541804  0.35125713  0.79063104  1
  Li  Li1  1  0.09541804  0.14874287  0.29063104  1
  Li  Li2  1  0.21640225  0.17305234  0.57195256  1
  Li  Li3  1  0.21640225  0.32694766  0.07195256  1
  Li  Li4  1  0.78359775  0.67305234  0.92804744  1
  Li  Li5  1  0.78359775  0.82694766  0.42804744  1
  Li  Li6  1  0.90458196  0.85125713  0.70936896  1
  Li  Li7  1  0.90458196  0.64874287  0.20936896  1
  Fe  Fe8  1  0.50515946  0.14714851  0.84729993  1
  Fe  Fe9  1  0.49484054  0.64714851  0.65270007  1
  Fe  Fe10  1  0.50515946  0.35285149  0.34729993  1
  Fe  Fe11  1  0.49484054  0.85285149  0.15270007  1
  B  B12  1  0.19469764  0.81618993  0.93916410  1
  B  B13  1  0.19469764  0.68381007  0.43916410  1
  B  B14  1  0.80530236  0.31618993  0.56083590  1
  B  B15  1  0.80530236  0.18381007  0.06083590  1
  O  O16  1  0.05774073  0.69659222  0.85537457  1
  O  O17  1  0.05774073  0.80340778  0.35537457  1
  O  O18  1  0.24895612  0.07987934  0.92626693  1
  O  O19  1  0.24895612  0.42012066  0.42626693  1
  O  O20  1  0.28774853  0.81467049  0.54368089  1
  O  O21  1  0.38351773  0.34048449  0.71134941  1
  O  O22  1  0.28774853  0.68532951  0.04368089  1
  O  O23  1  0.38351773  0.15951551  0.21134941  1
  O  O24  1  0.61648227  0.84048449  0.78865059  1
  O  O25  1  0.71225147  0.31467049  0.95631911  1
  O  O26  1  0.61648227  0.65951551  0.28865059  1
  O  O27  1  0.71225147  0.18532951  0.45631911  1
  O  O28  1  0.75104388  0.57987934  0.57373307  1
  O  O29  1  0.75104388  0.92012066  0.07373307  1
  O  O30  1  0.94225927  0.19659222  0.64462543  1
  O  O31  1  0.94225927  0.30340778  0.14462543  1
