# generated using pymatgen
data_LiMnPCO7
_symmetry_space_group_name_H-M   'P 1'
_cell_length_a   8.34594032
_cell_length_b   10.22515521
_cell_length_c   6.23686941
_cell_angle_alpha   90.28515172
_cell_angle_beta   89.03086411
_cell_angle_gamma   85.76761398
_symmetry_Int_Tables_number   1
_chemical_formula_structural   LiMnPCO7
_chemical_formula_sum   'Li4 Mn4 P4 C4 O28'
_cell_volume   530.70755231
_cell_formula_units_Z   4
loop_
 _symmetry_equiv_pos_site_id
 _symmetry_equiv_pos_as_xyz
  1  'x, y, z'
loop_
 _atom_site_type_symbol
 _atom_site_label
 _atom_site_symmetry_multiplicity
 _atom_site_fract_x
 _atom_site_fract_y
 _atom_site_fract_z
 _atom_site_occupancy
  Li  Li0  1  0.25877083  0.12390501  0.03275816  1
  Li  Li1  1  0.26000929  0.62425601  0.47118322  1
  Li  Li2  1  0.74219044  0.37740839  0.52837039  1
  Li  Li3  1  0.73963467  0.87706811  0.52812957  1
  Mn  Mn4  1  0.32938179  0.39673122  0.75002817  1
  Mn  Mn5  1  0.32960281  0.89663188  0.74821384  1
  Mn  Mn6  1  0.67024215  0.10309766  0.24693320  1
  Mn  Mn7  1  0.67095350  0.60266721  0.24426672  1
  P  P8  1  0.42629981  0.36200659  0.25014293  1
  P  P9  1  0.42598518  0.86167039  0.25392724  1
  P  P10  1  0.57459505  0.13811500  0.75239378  1
  P  P11  1  0.57410392  0.63766504  0.74274072  1
  C  C12  1  0.04922906  0.35487527  0.74969048  1
  C  C13  1  0.04950017  0.85512623  0.74472433  1
  C  C14  1  0.94995516  0.14529020  0.25402569  1
  C  C15  1  0.95022777  0.64487894  0.25831014  1
  O  O16  1  0.10401267  0.47251503  0.74693766  1
  O  O17  1  0.09173344  0.16985667  0.24134236  1
  O  O18  1  0.10422800  0.97206336  0.76504375  1
  O  O19  1  0.17116389  0.26423179  0.76917845  1
  O  O20  1  0.09184771  0.66887360  0.27316553  1
  O  O21  1  0.17171204  0.76366961  0.73971076  1
  O  O22  1  0.32742308  0.40468870  0.05412808  1
  O  O23  1  0.31200044  0.40554349  0.44093649  1
  O  O24  1  0.32479305  0.90445127  0.05826411  1
  O  O25  1  0.31302318  0.90429053  0.44466548  1
  O  O26  1  0.41494458  0.07168111  0.77373501  1
  O  O27  1  0.46527643  0.21060340  0.24483767  1
  O  O28  1  0.41439803  0.57125976  0.72824101  1
  O  O29  1  0.46576231  0.71042406  0.26395564  1
  O  O30  1  0.53472766  0.28844628  0.72560714  1
  O  O31  1  0.58576578  0.42848109  0.26613344  1
  O  O32  1  0.53515876  0.78872701  0.72399500  1
  O  O33  1  0.58567303  0.92835079  0.25984408  1
  O  O34  1  0.68514203  0.10714184  0.94321357  1
  O  O35  1  0.67725887  0.08392131  0.55765396  1
  O  O36  1  0.68937644  0.58935587  0.55479073  1
  O  O37  1  0.67170276  0.60046417  0.94118352  1
  O  O38  1  0.82720985  0.23589764  0.27315517  1
  O  O39  1  0.90795795  0.33054986  0.73284559  1
  O  O40  1  0.82756384  0.73600234  0.25952539  1
  O  O41  1  0.89556002  0.02765814  0.24530385  1
  O  O42  1  0.90760432  0.83193301  0.72924088  1
  O  O43  1  0.89629522  0.52752312  0.23989912  1
