# generated using pymatgen
data_LiMnPCO7
_symmetry_space_group_name_H-M   'P 1'
_cell_length_a   8.37365919
_cell_length_b   10.22981889
_cell_length_c   6.23225445
_cell_angle_alpha   90.00000000
_cell_angle_beta   90.00000000
_cell_angle_gamma   85.80593314
_symmetry_Int_Tables_number   1
_chemical_formula_structural   LiMnPCO7
_chemical_formula_sum   'Li4 Mn4 P4 C4 O28'
_cell_volume   532.43160327
_cell_formula_units_Z   4
loop_
 _symmetry_equiv_pos_site_id
 _symmetry_equiv_pos_as_xyz
  1  'x, y, z'
loop_
 _atom_site_type_symbol
 _atom_site_label
 _atom_site_symmetry_multiplicity
 _atom_site_fract_x
 _atom_site_fract_y
 _atom_site_fract_z
 _atom_site_occupancy
  Li  Li0  1  0.25669997  0.12347455  0.46942983  1
  Li  Li1  1  0.25669997  0.62347455  0.03057017  1
  Li  Li2  1  0.74330003  0.37652545  0.96942983  1
  Li  Li3  1  0.74330003  0.87652545  0.53057017  1
  Mn  Mn4  1  0.32995626  0.39709090  0.74773005  1
  Mn  Mn5  1  0.32995626  0.89709090  0.75226995  1
  Mn  Mn6  1  0.67004374  0.10290910  0.24773005  1
  Mn  Mn7  1  0.67004374  0.60290910  0.25226995  1
  P  P8  1  0.42620108  0.36216059  0.24680842  1
  P  P9  1  0.42620108  0.86216059  0.25319158  1
  P  P10  1  0.57379892  0.13783941  0.74680842  1
  P  P11  1  0.57379892  0.63783941  0.75319158  1
  C  C12  1  0.05062244  0.35507272  0.74951350  1
  C  C13  1  0.05062244  0.85507272  0.75048650  1
  C  C14  1  0.94937756  0.14492728  0.24951350  1
  C  C15  1  0.94937756  0.64492728  0.25048650  1
  O  O16  1  0.10520366  0.47252160  0.75643888  1
  O  O17  1  0.09054241  0.16945740  0.26435490  1
  O  O18  1  0.10520366  0.97252160  0.74356112  1
  O  O19  1  0.17220754  0.26461946  0.72754280  1
  O  O20  1  0.09054241  0.66945740  0.23564510  1
  O  O21  1  0.17220754  0.76461946  0.77245720  1
  O  O22  1  0.31201173  0.40223570  0.05767067  1
  O  O23  1  0.32767094  0.40910291  0.44396335  1
  O  O24  1  0.32767094  0.90910291  0.05603665  1
  O  O25  1  0.31201173  0.90223570  0.44232933  1
  O  O26  1  0.41464422  0.07155973  0.72270259  1
  O  O27  1  0.46552948  0.21097496  0.25916945  1
  O  O28  1  0.41464422  0.57155973  0.77729741  1
  O  O29  1  0.46552948  0.71097496  0.24083055  1
  O  O30  1  0.53447052  0.28902504  0.75916945  1
  O  O31  1  0.58535578  0.42844027  0.22270259  1
  O  O32  1  0.53447052  0.78902504  0.74083055  1
  O  O33  1  0.58535578  0.92844027  0.27729741  1
  O  O34  1  0.67232906  0.09089709  0.94396335  1
  O  O35  1  0.68798827  0.09776430  0.55767067  1
  O  O36  1  0.67232906  0.59089709  0.55603665  1
  O  O37  1  0.68798827  0.59776430  0.94232933  1
  O  O38  1  0.82779246  0.23538054  0.22754280  1
  O  O39  1  0.90945759  0.33054260  0.76435490  1
  O  O40  1  0.82779246  0.73538054  0.27245720  1
  O  O41  1  0.89479634  0.02747840  0.25643888  1
  O  O42  1  0.90945759  0.83054260  0.73564510  1
  O  O43  1  0.89479634  0.52747840  0.24356112  1
