# generated using pymatgen
data_Li3Mn4CrO8
_symmetry_space_group_name_H-M   'P 1'
_cell_length_a   6.16641218
_cell_length_b   6.16641188
_cell_length_c   6.15049843
_cell_angle_alpha   86.98724853
_cell_angle_beta   58.29006270
_cell_angle_gamma   58.11878918
_symmetry_Int_Tables_number   1
_chemical_formula_structural   Li3Mn4CrO8
_chemical_formula_sum   'Li3 Mn4 Cr1 O8'
_cell_volume   160.53647979
_cell_formula_units_Z   1
loop_
 _symmetry_equiv_pos_site_id
 _symmetry_equiv_pos_as_xyz
  1  'x, y, z'
loop_
 _atom_site_type_symbol
 _atom_site_label
 _atom_site_symmetry_multiplicity
 _atom_site_fract_x
 _atom_site_fract_y
 _atom_site_fract_z
 _atom_site_occupancy
  Li  Li0  1  0.00000000  0.00000000  0.50000000  1
  Li  Li1  1  0.50000000  0.00000000  0.50000000  1
  Li  Li2  1  0.50000000  0.50000000  0.50000000  1
  Mn  Mn3  1  0.00000000  0.50000000  0.50000000  1
  Mn  Mn4  1  0.00000000  0.00000000  0.00000000  1
  Mn  Mn5  1  0.50000000  0.00000000  0.00000000  1
  Mn  Mn6  1  0.00000000  0.50000000  0.00000000  1
  Cr  Cr7  1  0.50000000  0.50000000  0.00000000  1
  O  O8  1  0.48006856  0.26960887  0.78954031  1
  O  O9  1  0.98380366  0.25285856  0.75228518  1
  O  O10  1  0.50057238  0.73608884  0.75228518  1
  O  O11  1  0.98101660  0.75115374  0.77013714  1
  O  O12  1  0.01898340  0.24884626  0.22986286  1
  O  O13  1  0.49942762  0.26391116  0.24771482  1
  O  O14  1  0.01619634  0.74714144  0.24771482  1
  O  O15  1  0.51993144  0.73039113  0.21045969  1
