# generated using pymatgen
data_Li5TaO5
_symmetry_space_group_name_H-M   'P 1'
_cell_length_a   5.49199124
_cell_length_b   5.49199124
_cell_length_c   9.09551738
_cell_angle_alpha   82.38589281
_cell_angle_beta   97.61410719
_cell_angle_gamma   62.98283057
_symmetry_Int_Tables_number   1
_chemical_formula_structural   Li5TaO5
_chemical_formula_sum   'Li10 Ta2 O10'
_cell_volume   236.40725749
_cell_formula_units_Z   2
loop_
 _symmetry_equiv_pos_site_id
 _symmetry_equiv_pos_as_xyz
  1  'x, y, z'
loop_
 _atom_site_type_symbol
 _atom_site_label
 _atom_site_symmetry_multiplicity
 _atom_site_fract_x
 _atom_site_fract_y
 _atom_site_fract_z
 _atom_site_occupancy
  Li  Li0  1  0.45688355  0.77600788  0.95921870  1
  Li  Li1  1  0.30174910  0.04618369  0.56045464  1
  Li  Li2  1  0.22399212  0.54311645  0.45921870  1
  Li  Li3  1  0.95381631  0.69825090  0.06045464  1
  Li  Li4  1  0.32696950  0.32696950  0.75000000  1
  Li  Li5  1  0.67303050  0.67303050  0.25000000  1
  Li  Li6  1  0.04618369  0.30174910  0.93954536  1
  Li  Li7  1  0.77600788  0.45688355  0.54078130  1
  Li  Li8  1  0.69825090  0.95381631  0.43954536  1
  Li  Li9  1  0.54311645  0.22399212  0.04078130  1
  Ta  Ta10  1  0.91164651  0.91164651  0.75000000  1
  Ta  Ta11  1  0.08835349  0.08835349  0.25000000  1
  O  O12  1  0.19989992  0.57343741  0.91048854  1
  O  O13  1  0.67412259  0.98709741  0.89365474  1
  O  O14  1  0.42656259  0.80010008  0.41048854  1
  O  O15  1  0.11324436  0.11324436  0.75000000  1
  O  O16  1  0.01290259  0.32587741  0.39365474  1
  O  O17  1  0.98709741  0.67412259  0.60634526  1
  O  O18  1  0.88675564  0.88675564  0.25000000  1
  O  O19  1  0.57343741  0.19989992  0.58951146  1
  O  O20  1  0.32587741  0.01290259  0.10634526  1
  O  O21  1  0.80010008  0.42656259  0.08951146  1
