# generated using pymatgen
data_Mg3(AsO4)2
_symmetry_space_group_name_H-M   'P 1'
_cell_length_a   6.48700937
_cell_length_b   6.48700937
_cell_length_c   8.30616359
_cell_angle_alpha   90.00000000
_cell_angle_beta   90.00000000
_cell_angle_gamma   56.29809238
_symmetry_Int_Tables_number   1
_chemical_formula_structural   Mg3(AsO4)2
_chemical_formula_sum   'Mg6 As4 O16'
_cell_volume   290.78986415
_cell_formula_units_Z   2
loop_
 _symmetry_equiv_pos_site_id
 _symmetry_equiv_pos_as_xyz
  1  'x, y, z'
loop_
 _atom_site_type_symbol
 _atom_site_label
 _atom_site_symmetry_multiplicity
 _atom_site_fract_x
 _atom_site_fract_y
 _atom_site_fract_z
 _atom_site_occupancy
  Mg  Mg0  1  0.38929795  0.88929795  0.25000000  1
  Mg  Mg1  1  0.11070205  0.61070205  0.75000000  1
  Mg  Mg2  1  0.00000000  0.00000000  0.00000000  1
  Mg  Mg3  1  0.50000000  0.50000000  0.50000000  1
  Mg  Mg4  1  0.61070205  0.11070205  0.75000000  1
  Mg  Mg5  1  0.88929795  0.38929795  0.25000000  1
  As  As6  1  0.12042766  0.12042766  0.61525070  1
  As  As7  1  0.87957234  0.87957234  0.38474930  1
  As  As8  1  0.37957234  0.37957234  0.11525070  1
  As  As9  1  0.62042766  0.62042766  0.88474930  1
  O  O10  1  0.11365477  0.64866709  0.50025458  1
  O  O11  1  0.35133291  0.88634523  0.49974542  1
  O  O12  1  0.14866709  0.61365477  0.99974542  1
  O  O13  1  0.38634523  0.85133291  0.00025458  1
  O  O14  1  0.00053487  0.00053487  0.24984383  1
  O  O15  1  0.49946513  0.49946513  0.74984383  1
  O  O16  1  0.25331889  0.25331889  0.22730431  1
  O  O17  1  0.24668111  0.24668111  0.72730431  1
  O  O18  1  0.74668111  0.74668111  0.77269569  1
  O  O19  1  0.75331889  0.75331889  0.27269569  1
  O  O20  1  0.50053487  0.50053487  0.25015617  1
  O  O21  1  0.99946513  0.99946513  0.75015617  1
  O  O22  1  0.61365477  0.14866709  0.99974542  1
  O  O23  1  0.85133291  0.38634523  0.00025458  1
  O  O24  1  0.64866709  0.11365477  0.50025458  1
  O  O25  1  0.88634523  0.35133291  0.49974542  1
