# generated using pymatgen
data_NiSnO3
_symmetry_space_group_name_H-M   'P 1'
_cell_length_a   5.61267158
_cell_length_b   5.61267179
_cell_length_c   5.61267127
_cell_angle_alpha   56.50909519
_cell_angle_beta   56.50909786
_cell_angle_gamma   56.50909963
_symmetry_Int_Tables_number   1
_chemical_formula_structural   NiSnO3
_chemical_formula_sum   'Ni2 Sn2 O6'
_cell_volume   114.93672860
_cell_formula_units_Z   2
loop_
 _symmetry_equiv_pos_site_id
 _symmetry_equiv_pos_as_xyz
  1  'x, y, z'
loop_
 _atom_site_type_symbol
 _atom_site_label
 _atom_site_symmetry_multiplicity
 _atom_site_fract_x
 _atom_site_fract_y
 _atom_site_fract_z
 _atom_site_occupancy
  Ni  Ni0  1  0.35370475  0.35370475  0.35370475  1
  Ni  Ni1  1  0.64629525  0.64629525  0.64629525  1
  Sn  Sn2  1  0.14641680  0.14641680  0.14641680  1
  Sn  Sn3  1  0.85358320  0.85358320  0.85358320  1
  O  O4  1  0.04977491  0.75220022  0.44897246  1
  O  O5  1  0.44897246  0.04977491  0.75220022  1
  O  O6  1  0.24779978  0.55102754  0.95022509  1
  O  O7  1  0.75220022  0.44897246  0.04977491  1
  O  O8  1  0.55102754  0.95022509  0.24779978  1
  O  O9  1  0.95022509  0.24779978  0.55102754  1
