# generated using pymatgen
data_Li2CrO3
_symmetry_space_group_name_H-M   'P 1'
_cell_length_a   5.03894019
_cell_length_b   5.03098949
_cell_length_c   9.74544180
_cell_angle_alpha   94.71697555
_cell_angle_beta   80.54877917
_cell_angle_gamma   120.05229232
_symmetry_Int_Tables_number   1
_chemical_formula_structural   Li2CrO3
_chemical_formula_sum   'Li8 Cr4 O12'
_cell_volume   210.94056108
_cell_formula_units_Z   4
loop_
 _symmetry_equiv_pos_site_id
 _symmetry_equiv_pos_as_xyz
  1  'x, y, z'
loop_
 _atom_site_type_symbol
 _atom_site_label
 _atom_site_symmetry_multiplicity
 _atom_site_fract_x
 _atom_site_fract_y
 _atom_site_fract_z
 _atom_site_occupancy
  Li  Li0  1  0.16246075  0.84171798  0.49848645  1
  Li  Li1  1  0.00000000  0.50000000  0.00000000  1
  Li  Li2  1  0.08191396  0.16382791  0.75000000  1
  Li  Li3  1  0.50000000  0.50000000  0.50000000  1
  Li  Li4  1  0.32074277  0.15828202  0.99848645  1
  Li  Li5  1  0.67925723  0.84171798  0.00151355  1
  Li  Li6  1  0.91808604  0.83617209  0.25000000  1
  Li  Li7  1  0.83753925  0.15828202  0.50151355  1
  Cr  Cr8  1  0.41412954  0.82825908  0.75000000  1
  Cr  Cr9  1  0.25117418  0.50234837  0.25000000  1
  Cr  Cr10  1  0.74882582  0.49765163  0.75000000  1
  Cr  Cr11  1  0.58587046  0.17174092  0.25000000  1
  O  O12  1  0.04410132  0.81182927  0.86590164  1
  O  O13  1  0.12064944  0.53204713  0.63848620  1
  O  O14  1  0.41139769  0.53204713  0.86151380  1
  O  O15  1  0.31298177  0.83375737  0.13829385  1
  O  O16  1  0.23227205  0.18817073  0.36590164  1
  O  O17  1  0.52077561  0.83375737  0.36170615  1
  O  O18  1  0.47922439  0.16624263  0.63829385  1
  O  O19  1  0.76772795  0.81182927  0.63409836  1
  O  O20  1  0.68701823  0.16624263  0.86170615  1
  O  O21  1  0.58860231  0.46795287  0.13848620  1
  O  O22  1  0.87935056  0.46795287  0.36151380  1
  O  O23  1  0.95589868  0.18817073  0.13409836  1
