# generated using pymatgen
data_Ca(Cu2O3)2
_symmetry_space_group_name_H-M   'P 1'
_cell_length_a   3.10252023
_cell_length_b   5.18600280
_cell_length_c   14.74326499
_cell_angle_alpha   90.00000000
_cell_angle_beta   90.00000000
_cell_angle_gamma   107.40502656
_symmetry_Int_Tables_number   1
_chemical_formula_structural   Ca(Cu2O3)2
_chemical_formula_sum   'Ca2 Cu8 O12'
_cell_volume   226.35331814
_cell_formula_units_Z   2
loop_
 _symmetry_equiv_pos_site_id
 _symmetry_equiv_pos_as_xyz
  1  'x, y, z'
loop_
 _atom_site_type_symbol
 _atom_site_label
 _atom_site_symmetry_multiplicity
 _atom_site_fract_x
 _atom_site_fract_y
 _atom_site_fract_z
 _atom_site_occupancy
  Ca  Ca0  1  0.66059611  0.32119421  0.75000000  1
  Ca  Ca1  1  0.33940389  0.67880579  0.25000000  1
  Cu  Cu2  1  0.86180557  0.72361413  0.04079677  1
  Cu  Cu3  1  0.40999793  0.81999486  0.63160960  1
  Cu  Cu4  1  0.13819243  0.27638487  0.95920323  1
  Cu  Cu5  1  0.59000207  0.18000514  0.36839140  1
  Cu  Cu6  1  0.86180557  0.72361413  0.45920323  1
  Cu  Cu7  1  0.13819243  0.27638487  0.54079677  1
  Cu  Cu8  1  0.59000207  0.18000514  0.13160860  1
  Cu  Cu9  1  0.40999793  0.81999486  0.86839040  1
  O  O10  1  0.49999900  0.00000000  0.50000000  1
  O  O11  1  0.49999900  0.00000000  -0.00000000  1
  O  O12  1  0.04419348  0.08838497  0.84914431  1
  O  O13  1  0.95580652  0.91161503  0.15085669  1
  O  O14  1  0.95580652  0.91161503  0.34914331  1
  O  O15  1  0.04419348  0.08838497  0.65085669  1
  O  O16  1  0.78187634  0.56375367  0.92156813  1
  O  O17  1  0.21812266  0.43624733  0.07843187  1
  O  O18  1  0.21812266  0.43624733  0.42156813  1
  O  O19  1  0.78187634  0.56375367  0.57843187  1
  O  O20  1  0.32721955  0.65444011  0.75000000  1
  O  O21  1  0.67277845  0.34555889  0.25000000  1
