# generated using pymatgen
data_Li6V3P8O29
_symmetry_space_group_name_H-M   'P 1'
_cell_length_a   9.78729446
_cell_length_b   9.80118559
_cell_length_c   13.95027384
_cell_angle_alpha   90.22164438
_cell_angle_beta   90.53861547
_cell_angle_gamma   60.08505855
_symmetry_Int_Tables_number   1
_chemical_formula_structural   Li6V3P8O29
_chemical_formula_sum   'Li12 V6 P16 O58'
_cell_volume   1159.86340708
_cell_formula_units_Z   2
loop_
 _symmetry_equiv_pos_site_id
 _symmetry_equiv_pos_as_xyz
  1  'x, y, z'
loop_
 _atom_site_type_symbol
 _atom_site_label
 _atom_site_symmetry_multiplicity
 _atom_site_fract_x
 _atom_site_fract_y
 _atom_site_fract_z
 _atom_site_occupancy
  Li  Li0  1  0.76246412  0.90179415  0.55434357  1
  Li  Li1  1  0.90555306  0.33268070  0.55826548  1
  Li  Li2  1  0.67927967  0.66394917  0.88936044  1
  Li  Li3  1  0.76754408  0.32824645  0.06456197  1
  Li  Li4  1  0.32790247  0.90724178  0.06453785  1
  Li  Li5  1  0.66324497  0.23532876  0.43566084  1
  Li  Li6  1  0.33182629  0.76046063  0.55893215  1
  Li  Li7  1  0.66996581  0.09619378  0.94237492  1
  Li  Li8  1  0.23356074  0.66547317  0.94718174  1
  Li  Li9  1  0.23434782  0.10042574  0.43712718  1
  Li  Li10  1  0.99938806  0.99765226  0.01103455  1
  Li  Li11  1  0.01434819  0.94916175  0.48692512  1
  V  V12  1  0.56392211  0.43682406  0.25171829  1
  V  V13  1  0.43437994  0.56245624  0.74777558  1
  V  V14  1  0.56333539  0.99903758  0.75056113  1
  V  V15  1  0.43459556  0.00251602  0.24854187  1
  V  V16  1  0.99977199  0.56426198  0.24831645  1
  V  V17  1  0.00380121  0.43784052  0.75245968  1
  P  P18  1  0.91548189  0.78040174  0.84448968  1
  P  P19  1  0.77723748  0.91270562  0.33849680  1
  P  P20  1  0.91548639  0.31263616  0.34428814  1
  P  P21  1  0.66657157  0.66468605  0.12959657  1
  P  P22  1  0.66524310  0.66675331  0.62997291  1
  P  P23  1  0.77679920  0.31614659  0.84137895  1
  P  P24  1  0.68727186  0.22560781  0.65614484  1
  P  P25  1  0.31502058  0.90658561  0.84463108  1
  P  P26  1  0.68603494  0.09119032  0.15564739  1
  P  P27  1  0.31422215  0.77715993  0.34361328  1
  P  P28  1  0.22275151  0.68921879  0.16003313  1
  P  P29  1  0.33127240  0.33290305  0.36909366  1
  P  P30  1  0.33721636  0.33268805  0.87064263  1
  P  P31  1  0.07906798  0.69590492  0.65453478  1
  P  P32  1  0.22439180  0.08579818  0.65912722  1
  P  P33  1  0.08218776  0.22153137  0.15840858  1
  O  O34  1  0.98907787  0.79881304  0.57085029  1
  O  O35  1  0.91426265  0.74638318  0.33788316  1
  O  O36  1  0.77587752  0.01665030  0.06554900  1
  O  O37  1  0.74537561  0.92244169  0.84456767  1
  O  O38  1  0.90034186  0.62935292  0.83335570  1
  O  O39  1  0.81014116  0.66848204  0.17538546  1
  O  O40  1  0.91126573  0.46869829  0.33239298  1
  O  O41  1  0.99328548  0.19788706  0.07736164  1
  O  O42  1  0.91817524  0.34173214  0.84045155  1
  O  O43  1  0.67211187  0.81372271  0.67298770  1
  O  O44  1  0.61730187  0.91749456  0.32617359  1
  O  O45  1  0.81064244  0.51557939  0.67264092  1
  O  O46  1  0.66878106  0.65859068  0.02145446  1
  O  O47  1  0.66275736  0.67151576  0.52315558  1
  O  O48  1  0.67475303  0.51059162  0.16833400  1
  O  O49  1  0.48105468  0.89047356  0.83001413  1
  O  O50  1  0.51241717  0.81133955  0.16532090  1
  O  O51  1  0.74639359  0.33521888  0.34137637  1
  O  O52  1  0.79401443  0.20636347  0.74993617  1
  O  O53  1  0.77225920  0.22894045  0.56704992  1
  O  O54  1  0.76873053  0.23281463  0.93034046  1
  O  O55  1  0.62601291  0.48018980  0.82705413  1
  O  O56  1  0.51048687  0.67521521  0.66977244  1
  O  O57  1  0.65773033  0.26204625  0.16182175  1
  O  O58  1  0.46982992  0.62084334  0.33218331  1
  O  O59  1  0.34230892  0.91933517  0.34023066  1
  O  O60  1  0.79572805  0.00395180  0.24799493  1
  O  O61  1  0.77745012  0.00136023  0.42878238  1
  O  O62  1  0.22676415  0.99639337  0.56992350  1
  O  O63  1  0.66251075  0.08266602  0.65663089  1
  O  O64  1  0.53009107  0.38104404  0.66923902  1
  O  O65  1  0.33657857  0.73881987  0.84011723  1
  O  O66  1  0.48652585  0.32419229  0.33078377  1
  O  O67  1  0.38001989  0.53435968  0.17254492  1
  O  O68  1  0.22300143  0.77866329  0.07098931  1
  O  O69  1  0.22526290  0.78843655  0.43348165  1
  O  O70  1  0.20498099  0.79931950  0.25166906  1
  O  O71  1  0.25001229  0.66489681  0.65683303  1
  O  O72  1  0.48714162  0.18211075  0.82911039  1
  O  O73  1  0.53123965  0.09093261  0.16717103  1
  O  O74  1  0.33372189  0.48332655  0.82817386  1
  O  O75  1  0.34387297  0.33407588  0.97695517  1
  O  O76  1  0.33226088  0.32765629  0.47612416  1
  O  O77  1  0.18796948  0.47799478  0.32052897  1
  O  O78  1  0.37945704  0.08900216  0.67187587  1
  O  O79  1  0.32295799  0.18612096  0.32873071  1
  O  O80  1  0.08364097  0.66231460  0.16102931  1
  O  O81  1  0.99637468  0.79866183  0.74946007  1
  O  O82  1  0.00983045  0.78436346  0.92831072  1
  O  O83  1  0.07426149  0.54201602  0.66481456  1
  O  O84  1  0.18979926  0.33499875  0.82361336  1
  O  O85  1  0.07821628  0.37845951  0.16365367  1
  O  O86  1  0.25556411  0.08147310  0.16005899  1
  O  O87  1  0.23594399  0.98572045  0.93580011  1
  O  O88  1  0.20627506  0.99857646  0.75278603  1
  O  O89  1  0.08117562  0.25319574  0.65914047  1
  O  O90  1  0.99917470  0.22365874  0.43512295  1
  O  O91  1  0.00857304  0.19756001  0.25686449  1
