# generated using pymatgen
data_LiMnH4(SO5)2
_symmetry_space_group_name_H-M   'P 1'
_cell_length_a   5.54271945
_cell_length_b   12.84485967
_cell_length_c   5.33400901
_cell_angle_alpha   90.00000000
_cell_angle_beta   100.46482742
_cell_angle_gamma   90.00000000
_symmetry_Int_Tables_number   1
_chemical_formula_structural   LiMnH4(SO5)2
_chemical_formula_sum   'Li2 Mn2 H8 S4 O20'
_cell_volume   373.44053458
_cell_formula_units_Z   2
loop_
 _symmetry_equiv_pos_site_id
 _symmetry_equiv_pos_as_xyz
  1  'x, y, z'
loop_
 _atom_site_type_symbol
 _atom_site_label
 _atom_site_symmetry_multiplicity
 _atom_site_fract_x
 _atom_site_fract_y
 _atom_site_fract_z
 _atom_site_occupancy
  Li  Li0  1  0.41746551  0.61637359  0.23950989  1
  Li  Li1  1  0.58253449  0.11637359  0.26049011  1
  Mn  Mn2  1  0.00514680  0.49763352  0.50494423  1
  Mn  Mn3  1  0.99485320  0.99763352  0.99505577  1
  H  H4  1  0.09698214  0.70386247  0.49000666  1
  H  H5  1  0.08778568  0.79868217  0.99172855  1
  H  H6  1  0.31795687  0.65068314  0.67976093  1
  H  H7  1  0.31313559  0.85332029  0.17663380  1
  H  H8  1  0.68204313  0.15068314  0.82023907  1
  H  H9  1  0.68686441  0.35332029  0.32336620  1
  H  H10  1  0.90301786  0.20386247  0.00999334  1
  H  H11  1  0.91221432  0.29868217  0.50827145  1
  S  S12  1  0.22612165  0.11593294  0.56691333  1
  S  S13  1  0.22848844  0.38102117  0.06855072  1
  S  S14  1  0.77387835  0.61593294  0.93308667  1
  S  S15  1  0.77151156  0.88102117  0.43144928  1
  O  O16  1  0.00724282  0.67331753  0.98523847  1
  O  O17  1  0.00103215  0.82237657  0.47597792  1
  O  O18  1  0.23518382  0.45836939  0.86210508  1
  O  O19  1  0.19798567  0.63771261  0.51631567  1
  O  O20  1  0.24653080  0.05944000  0.82185091  1
  O  O21  1  0.23941278  0.04079005  0.35571000  1
  O  O22  1  0.18141874  0.86510367  0.02230353  1
  O  O23  1  0.24804325  0.44870640  0.31435135  1
  O  O24  1  0.44720396  0.18198961  0.59032508  1
  O  O25  1  0.55279604  0.68198961  0.90967492  1
  O  O26  1  0.44644763  0.31449389  0.11201075  1
  O  O27  1  0.55355237  0.81449389  0.38798925  1
  O  O28  1  0.75346920  0.55944000  0.67814909  1
  O  O29  1  0.80201433  0.13771261  0.98368433  1
  O  O30  1  0.76481618  0.95836939  0.63789492  1
  O  O31  1  0.75195675  0.94870640  0.18564865  1
  O  O32  1  0.81858126  0.36510367  0.47769647  1
  O  O33  1  0.76058722  0.54079005  0.14429000  1
  O  O34  1  0.99275718  0.17331753  0.51476153  1
  O  O35  1  0.99896785  0.32237657  0.02402208  1
