# generated using pymatgen
data_NaSnAsCO7
_symmetry_space_group_name_H-M   'P 1'
_cell_length_a   9.53067804
_cell_length_b   6.83700029
_cell_length_c   5.43786739
_cell_angle_alpha   90.00000000
_cell_angle_beta   87.11377789
_cell_angle_gamma   90.00000000
_symmetry_Int_Tables_number   1
_chemical_formula_structural   NaSnAsCO7
_chemical_formula_sum   'Na2 Sn2 As2 C2 O14'
_cell_volume   353.88874831
_cell_formula_units_Z   2
loop_
 _symmetry_equiv_pos_site_id
 _symmetry_equiv_pos_as_xyz
  1  'x, y, z'
loop_
 _atom_site_type_symbol
 _atom_site_label
 _atom_site_symmetry_multiplicity
 _atom_site_fract_x
 _atom_site_fract_y
 _atom_site_fract_z
 _atom_site_occupancy
  Na  Na0  1  0.18827384  0.49858508  0.22470683  1
  Na  Na1  1  0.81172616  0.99858508  0.77529317  1
  Sn  Sn2  1  0.34020509  0.75979100  0.78777018  1
  Sn  Sn3  1  0.65979491  0.25979100  0.21222982  1
  As  As4  1  0.43255954  0.25341905  0.72366493  1
  As  As5  1  0.56744046  0.75341905  0.27633507  1
  C  C6  1  0.07782811  0.74035629  0.72061662  1
  C  C7  1  0.92217189  0.24035629  0.27938338  1
  O  O8  1  0.04842756  0.24825129  0.31546638  1
  O  O9  1  0.13286106  0.74406843  0.94344374  1
  O  O10  1  0.17974181  0.73082599  0.53806715  1
  O  O11  1  0.32527746  0.06056710  0.79857086  1
  O  O12  1  0.33513511  0.45057902  0.82237375  1
  O  O13  1  0.40650867  0.74207827  0.14628420  1
  O  O14  1  0.46772474  0.26932848  0.40669208  1
  O  O15  1  0.53227526  0.76932848  0.59330792  1
  O  O16  1  0.59349133  0.24207827  0.85371580  1
  O  O17  1  0.66486489  0.95057902  0.17762625  1
  O  O18  1  0.67472254  0.56056710  0.20142914  1
  O  O19  1  0.82025819  0.23082599  0.46193185  1
  O  O20  1  0.86713894  0.24406843  0.05655626  1
  O  O21  1  0.95157244  0.74825129  0.68453362  1
