# generated using pymatgen
data_LiSi6Bi9O26
_symmetry_space_group_name_H-M   'P 1'
_cell_length_a   9.71820639
_cell_length_b   9.71818434
_cell_length_c   14.14931913
_cell_angle_alpha   89.99998077
_cell_angle_beta   90.00027493
_cell_angle_gamma   120.00006320
_symmetry_Int_Tables_number   1
_chemical_formula_structural   LiSi6Bi9O26
_chemical_formula_sum   'Li2 Si12 Bi18 O52'
_cell_volume   1157.27653610
_cell_formula_units_Z   2
loop_
 _symmetry_equiv_pos_site_id
 _symmetry_equiv_pos_as_xyz
  1  'x, y, z'
loop_
 _atom_site_type_symbol
 _atom_site_label
 _atom_site_symmetry_multiplicity
 _atom_site_fract_x
 _atom_site_fract_y
 _atom_site_fract_z
 _atom_site_occupancy
  Li  Li0  1  0.33329458  0.66670056  0.74215524  1
  Li  Li1  1  0.66660246  0.33330225  0.25784381  1
  Si  Si2  1  0.02944149  0.62782158  0.87237371  1
  Si  Si3  1  0.02444583  0.62415933  0.37443870  1
  Si  Si4  1  0.59972122  0.97555861  0.37443928  1
  Si  Si5  1  0.59837989  0.97055396  0.87237292  1
  Si  Si6  1  0.37584261  0.40028211  0.37444078  1
  Si  Si7  1  0.37216796  0.40161305  0.87237230  1
  Si  Si8  1  0.62783327  0.59836261  0.12762870  1
  Si  Si9  1  0.62416222  0.59970129  0.62555821  1
  Si  Si10  1  0.40163485  0.02947189  0.12762516  1
  Si  Si11  1  0.40029753  0.02446999  0.62556120  1
  Si  Si12  1  0.97052873  0.37216661  0.12762366  1
  Si  Si13  1  0.97552790  0.37583164  0.62556008  1
  Bi  Bi14  1  0.98783418  0.75901830  0.12675574  1
  Bi  Bi15  1  0.98898677  0.75871690  0.62602958  1
  Bi  Bi16  1  0.33333766  0.66666748  0.24473020  1
  Bi  Bi17  1  0.33333381  0.66666842  0.51969790  1
  Bi  Bi18  1  0.33333095  0.66665708  0.98647570  1
  Bi  Bi19  1  0.24098031  0.22881779  0.12675372  1
  Bi  Bi20  1  0.24127787  0.23027191  0.62602954  1
  Bi  Bi21  1  0.22881812  0.98783621  0.87324472  1
  Bi  Bi22  1  0.23027292  0.98899715  0.37397134  1
  Bi  Bi23  1  0.77118103  0.01216735  0.12675653  1
  Bi  Bi24  1  0.76972546  0.01100591  0.62603045  1
  Bi  Bi25  1  0.75872599  0.76972793  0.37397143  1
  Bi  Bi26  1  0.75901762  0.77118184  0.87324804  1
  Bi  Bi27  1  0.66667146  0.33333683  0.48030037  1
  Bi  Bi28  1  0.66666486  0.33333435  0.01352130  1
  Bi  Bi29  1  0.66665649  0.33332969  0.75526620  1
  Bi  Bi30  1  0.01100427  0.24128023  0.37396890  1
  Bi  Bi31  1  0.01215588  0.24097684  0.87324213  1
  O  O32  1  0.07936262  0.75928817  0.78601440  1
  O  O33  1  0.08993765  0.75052547  0.28407181  1
  O  O34  1  0.08969211  0.74837928  0.46545888  1
  O  O35  1  0.09581978  0.74912827  0.96538536  1
  O  O36  1  0.13216906  0.53469131  0.87088744  1
  O  O37  1  0.12144155  0.52566707  0.37186407  1
  O  O38  1  0.33569179  0.83821955  0.12631515  1
  O  O39  1  0.32443699  0.83150397  0.62785419  1
  O  O40  1  0.16848840  0.49294529  0.62785118  1
  O  O41  1  0.16178223  0.49747799  0.12631588  1
  O  O42  1  0.40251208  0.86781883  0.87088131  1
  O  O43  1  0.40422987  0.87856360  0.37186567  1
  O  O44  1  0.00000283  0.00000466  0.37314439  1
  O  O45  1  0.99999972  0.00000395  0.12224894  1
  O  O46  1  -0.00000030  0.99999879  0.87776677  1
  O  O47  1  0.99999549  0.99999532  0.62685551  1
  O  O48  1  0.25086838  0.34670488  0.96538799  1
  O  O49  1  0.24947797  0.33941840  0.28407265  1
  O  O50  1  0.25162843  0.34131051  0.46546191  1
  O  O51  1  0.24069489  0.32006252  0.78601873  1
  O  O52  1  0.50252812  0.66430251  0.12631954  1
  O  O53  1  0.50707375  0.67556959  0.62784522  1
  O  O54  1  0.46531090  0.59748146  0.87089261  1
  O  O55  1  0.47434087  0.59577407  0.37187048  1
  O  O56  1  0.65329601  0.90417215  0.96538833  1
  O  O57  1  0.65869426  0.91031904  0.46545855  1
  O  O58  1  0.66059092  0.91006619  0.28407306  1
  O  O59  1  0.67993990  0.92064444  0.78602165  1
  O  O60  1  0.34670829  0.09583007  0.03461173  1
  O  O61  1  0.32006801  0.07936535  0.21398117  1
  O  O62  1  0.34131280  0.08968527  0.53453997  1
  O  O63  1  0.33941450  0.08994011  0.71592535  1
  O  O64  1  0.53469042  0.40251431  0.12912169  1
  O  O65  1  0.52565107  0.40422883  0.62813400  1
  O  O66  1  0.49292491  0.32444351  0.37214434  1
  O  O67  1  0.49744758  0.33568221  0.87368106  1
  O  O68  1  0.74836786  0.65867574  0.53453622  1
  O  O69  1  0.75051841  0.66057577  0.71592456  1
  O  O70  1  0.74911749  0.65328790  0.03461472  1
  O  O71  1  0.75929801  0.67993195  0.21398277  1
  O  O72  1  0.59747872  0.13217704  0.12912017  1
  O  O73  1  0.59576606  0.12143084  0.62813629  1
  O  O74  1  0.83152635  0.50707853  0.37215230  1
  O  O75  1  0.83822379  0.50253281  0.87368186  1
  O  O76  1  0.67555373  0.16848246  0.37214566  1
  O  O77  1  0.66429672  0.16176820  0.87368402  1
  O  O78  1  0.86783448  0.46531435  0.12910790  1
  O  O79  1  0.87855613  0.47433200  0.62813411  1
  O  O80  1  0.91031078  0.25163274  0.53453836  1
  O  O81  1  0.90416868  0.25087475  0.03461367  1
  O  O82  1  0.92064179  0.24071020  0.21398144  1
  O  O83  1  0.91006095  0.24948114  0.71592543  1
