# generated using pymatgen
data_Li4Ti9O20
_symmetry_space_group_name_H-M   'P 1'
_cell_length_a   10.54412534
_cell_length_b   10.54412534
_cell_length_c   10.54412534
_cell_angle_alpha   99.05350247
_cell_angle_beta   99.05350247
_cell_angle_gamma   133.25815167
_symmetry_Int_Tables_number   1
_chemical_formula_structural   Li4Ti9O20
_chemical_formula_sum   'Li8 Ti18 O40'
_cell_volume   783.69677838
_cell_formula_units_Z   2
loop_
 _symmetry_equiv_pos_site_id
 _symmetry_equiv_pos_as_xyz
  1  'x, y, z'
loop_
 _atom_site_type_symbol
 _atom_site_label
 _atom_site_symmetry_multiplicity
 _atom_site_fract_x
 _atom_site_fract_y
 _atom_site_fract_z
 _atom_site_occupancy
  Li  Li0  1  0.80037870  0.14102371  0.06722853  1
  Li  Li1  1  0.64102371  0.07379418  0.34064501  1
  Li  Li2  1  0.23315017  0.30037870  0.15935499  1
  Li  Li3  1  0.42620582  0.26684983  0.56722853  1
  Li  Li4  1  0.57379418  0.73315017  0.43277147  1
  Li  Li5  1  0.76684983  0.69962130  0.84064501  1
  Li  Li6  1  0.35897629  0.92620582  0.65935499  1
  Li  Li7  1  0.19962130  0.85897629  0.93277147  1
  Ti  Ti8  1  0.79565931  0.38704008  0.21543974  1
  Ti  Ti9  1  0.91978044  0.70434069  0.09138077  1
  Ti  Ti10  1  0.88704008  0.17160034  0.59138077  1
  Ti  Ti11  1  0.37500000  0.12500000  0.25000000  1
  Ti  Ti12  1  0.67160034  0.58021956  0.28456026  1
  Ti  Ti13  1  0.78945903  0.37139366  0.69120235  1
  Ti  Ti14  1  0.81980969  0.90174332  0.19120235  1
  Ti  Ti15  1  0.40174332  0.71054097  0.08193463  1
  Ti  Ti16  1  0.87139366  0.68019031  0.58193463  1
  Ti  Ti17  1  0.12860634  0.31980969  0.41806537  1
  Ti  Ti18  1  0.59825668  0.28945903  0.91806537  1
  Ti  Ti19  1  0.21054097  0.62860634  0.30879765  1
  Ti  Ti20  1  0.18019031  0.09825668  0.80879765  1
  Ti  Ti21  1  0.32839966  0.41978044  0.71543974  1
  Ti  Ti22  1  0.62500000  0.87500000  0.75000000  1
  Ti  Ti23  1  0.08021956  0.29565931  0.90861923  1
  Ti  Ti24  1  0.11295992  0.82839966  0.40861923  1
  Ti  Ti25  1  0.20434069  0.61295992  0.78456026  1
  O  O26  1  0.04837197  0.15449534  0.24460548  1
  O  O27  1  0.71168158  0.24865594  0.02484706  1
  O  O28  1  0.95602703  0.37035478  0.27447583  1
  O  O29  1  0.87035478  0.09587894  0.41432875  1
  O  O30  1  0.58015152  0.18023391  0.24401004  1
  O  O31  1  0.68135194  0.46580605  0.11247346  1
  O  O32  1  0.74865594  0.22380989  0.53697436  1
  O  O33  1  0.81316547  0.78831842  0.03697436  1
  O  O34  1  0.85333260  0.56887848  0.38752654  1
  O  O35  1  0.31976609  0.06377613  0.39991861  1
  O  O36  1  0.83614147  0.08015152  0.89991861  1
  O  O37  1  0.96580605  0.35333260  0.78445412  1
  O  O38  1  0.93112152  0.81864806  0.28445412  1
  O  O39  1  0.43622387  0.33614247  0.25598996  1
  O  O40  1  0.18155019  0.45602703  0.08567125  1
  O  O41  1  0.59587894  0.68155019  0.22552417  1
  O  O42  1  0.65449534  0.90988986  0.10612237  1
  O  O43  1  0.69623251  0.45162803  0.60612237  1
  O  O44  1  0.59011014  0.19623251  0.74460548  1
  O  O45  1  0.72380989  0.68683453  0.47515294  1
  O  O46  1  0.27619011  0.31316547  0.52484706  1
  O  O47  1  0.40988986  0.80376749  0.25539452  1
  O  O48  1  0.30376749  0.54837197  0.39387763  1
  O  O49  1  0.34550466  0.09011014  0.89387763  1
  O  O50  1  0.40412106  0.31844981  0.77447583  1
  O  O51  1  0.81844981  0.54397297  0.91432875  1
  O  O52  1  0.56377613  0.66385853  0.74401004  1
  O  O53  1  0.03419395  0.64666740  0.21554588  1
  O  O54  1  0.06887848  0.18135194  0.71554588  1
  O  O55  1  0.16385753  0.91984848  0.10008139  1
  O  O56  1  0.68023391  0.93622387  0.60008139  1
  O  O57  1  0.14666740  0.43112152  0.61247346  1
  O  O58  1  0.25134406  0.77619011  0.46302564  1
  O  O59  1  0.18683453  0.21168158  0.96302564  1
  O  O60  1  0.31864806  0.53419395  0.88752654  1
  O  O61  1  0.41984848  0.81976609  0.75598996  1
  O  O62  1  0.12964522  0.90412106  0.58567125  1
  O  O63  1  0.04397297  0.62964522  0.72552417  1
  O  O64  1  0.28831842  0.75134406  0.97515294  1
  O  O65  1  0.95162803  0.84550466  0.75539452  1
