# generated using pymatgen
data_MnCo5O12
_symmetry_space_group_name_H-M   'P 1'
_cell_length_a   4.92111319
_cell_length_b   4.92743623
_cell_length_c   9.48269715
_cell_angle_alpha   90.04952830
_cell_angle_beta   90.09917449
_cell_angle_gamma   60.04242942
_symmetry_Int_Tables_number   1
_chemical_formula_structural   MnCo5O12
_chemical_formula_sum   'Mn1 Co5 O12'
_cell_volume   199.21945628
_cell_formula_units_Z   1
loop_
 _symmetry_equiv_pos_site_id
 _symmetry_equiv_pos_as_xyz
  1  'x, y, z'
loop_
 _atom_site_type_symbol
 _atom_site_label
 _atom_site_symmetry_multiplicity
 _atom_site_fract_x
 _atom_site_fract_y
 _atom_site_fract_z
 _atom_site_occupancy
  Mn  Mn0  1  0.00000000  0.00000000  0.00000000  1
  Co  Co1  1  0.16669279  0.66661342  0.50000000  1
  Co  Co2  1  0.66665527  0.66668947  0.00000000  1
  Co  Co3  1  0.33334473  0.33331053  1.00000000  1
  Co  Co4  1  0.83330721  0.33338658  0.50000000  1
  Co  Co5  1  0.50000000  0.00000000  0.50000000  1
  O  O6  1  0.00036617  0.66138436  0.10047268  1
  O  O7  1  0.33824946  0.66138436  0.89952732  1
  O  O8  1  0.16644783  0.33323881  0.40154749  1
  O  O9  1  0.49968664  0.66676119  0.40154749  1
  O  O10  1  0.50031336  0.33323881  0.59845251  1
  O  O11  1  0.16693935  0.00000000  0.59852337  1
  O  O12  1  0.83355217  0.66676119  0.59845251  1
  O  O13  1  0.66175054  0.33861564  0.10047268  1
  O  O14  1  0.33909174  1.00000000  0.10052265  1
  O  O15  1  0.99963383  0.33861564  0.89952732  1
  O  O16  1  0.66090826  0.00000000  0.89947735  1
  O  O17  1  0.83306065  1.00000000  0.40147663  1
