# generated using pymatgen
data_K3CuPCO7
_symmetry_space_group_name_H-M   'P 1'
_cell_length_a   9.54061063
_cell_length_b   7.28983327
_cell_length_c   5.52469936
_cell_angle_alpha   90.00000000
_cell_angle_beta   89.19339976
_cell_angle_gamma   90.00000000
_symmetry_Int_Tables_number   1
_chemical_formula_structural   K3CuPCO7
_chemical_formula_sum   'K6 Cu2 P2 C2 O14'
_cell_volume   384.20178672
_cell_formula_units_Z   2
loop_
 _symmetry_equiv_pos_site_id
 _symmetry_equiv_pos_as_xyz
  1  'x, y, z'
loop_
 _atom_site_type_symbol
 _atom_site_label
 _atom_site_symmetry_multiplicity
 _atom_site_fract_x
 _atom_site_fract_y
 _atom_site_fract_z
 _atom_site_occupancy
  K  K0  1  0.07821384  0.25000000  0.75882227  1
  K  K1  1  0.27977583  0.01552463  0.25131768  1
  K  K2  1  0.27977583  0.48447537  0.25131768  1
  K  K3  1  0.72022417  0.51552463  0.74868232  1
  K  K4  1  0.72022417  0.98447537  0.74868232  1
  K  K5  1  0.92178616  0.75000000  0.24117773  1
  Cu  Cu6  1  0.35914825  0.75000000  0.76595138  1
  Cu  Cu7  1  0.64085175  0.25000000  0.23404862  1
  P  P8  1  0.42500575  0.25000000  0.71219677  1
  P  P9  1  0.57499425  0.75000000  0.28780323  1
  C  C10  1  0.09098387  0.75000000  0.73261433  1
  C  C11  1  0.90901613  0.25000000  0.26738567  1
  O  O12  1  0.04405276  0.25000000  0.24668449  1
  O  O13  1  0.16943790  0.75000000  0.92643079  1
  O  O14  1  0.15490718  0.75000000  0.52508804  1
  O  O15  1  0.33042642  0.07767693  0.74987081  1
  O  O16  1  0.33042642  0.42232307  0.74987081  1
  O  O17  1  0.47771820  0.25000000  0.43964519  1
  O  O18  1  0.44724312  0.75000000  0.11781558  1
  O  O19  1  0.55275688  0.25000000  0.88218442  1
  O  O20  1  0.52228180  0.75000000  0.56035481  1
  O  O21  1  0.66957358  0.57767693  0.25012919  1
  O  O22  1  0.66957358  0.92232307  0.25012919  1
  O  O23  1  0.84509282  0.25000000  0.47491196  1
  O  O24  1  0.83056210  0.25000000  0.07356921  1
  O  O25  1  0.95594724  0.75000000  0.75331551  1
