# generated using pymatgen
data_Li2Co3SnO8
_symmetry_space_group_name_H-M   'P 1'
_cell_length_a   5.76176170
_cell_length_b   5.76032694
_cell_length_c   9.47280781
_cell_angle_alpha   90.06700697
_cell_angle_beta   89.96650760
_cell_angle_gamma   119.99176103
_symmetry_Int_Tables_number   1
_chemical_formula_structural   Li2Co3SnO8
_chemical_formula_sum   'Li4 Co6 Sn2 O16'
_cell_volume   272.29993436
_cell_formula_units_Z   2
loop_
 _symmetry_equiv_pos_site_id
 _symmetry_equiv_pos_as_xyz
  1  'x, y, z'
loop_
 _atom_site_type_symbol
 _atom_site_label
 _atom_site_symmetry_multiplicity
 _atom_site_fract_x
 _atom_site_fract_y
 _atom_site_fract_z
 _atom_site_occupancy
  Li  Li0  1  0.33505546  0.66646413  0.89069948  1
  Li  Li1  1  0.99865904  0.99758658  0.99628767  1
  Li  Li2  1  0.00134096  0.99892754  0.49628767  1
  Li  Li3  1  0.66494454  0.33140867  0.39069948  1
  Co  Co4  1  0.16844774  0.82928152  0.21576198  1
  Co  Co5  1  0.16786021  0.33718843  0.21400426  1
  Co  Co6  1  0.66012492  0.82965797  0.21573006  1
  Co  Co7  1  0.33987508  0.16953305  0.71573006  1
  Co  Co8  1  0.83155226  0.66083378  0.71576198  1
  Co  Co9  1  0.83213979  0.16932822  0.71400426  1
  Sn  Sn10  1  0.33268380  0.67205639  0.49285390  1
  Sn  Sn11  1  0.66731620  0.33937260  0.99285390  1
  O  O12  1  0.15690090  0.84194145  0.60350532  1
  O  O13  1  0.03144657  0.51291671  0.32981272  1
  O  O14  1  0.33178984  0.66448999  0.11244894  1
  O  O15  1  0.00024692  0.00189213  0.30854879  1
  O  O16  1  -0.00024692  0.00164521  0.80854879  1
  O  O17  1  0.15442932  0.31432658  0.60518080  1
  O  O18  1  0.48345720  0.96713631  0.33236375  1
  O  O19  1  0.48065322  0.51378284  0.33077411  1
  O  O20  1  0.31371923  0.15916565  0.10594922  1
  O  O21  1  0.68628077  0.84544642  0.60594922  1
  O  O22  1  0.51654280  0.48367911  0.83236375  1
  O  O23  1  0.51934678  0.03313061  0.83077411  1
  O  O24  1  0.66821016  0.33270015  0.61244894  1
  O  O25  1  0.84309910  0.68504056  0.10350532  1
  O  O26  1  0.96855343  0.48146914  0.82981272  1
  O  O27  1  0.84557068  0.15989726  0.10518080  1
