# generated using pymatgen
data_Te2MoWSeS
_symmetry_space_group_name_H-M   'P 1'
_cell_length_a   3.40133307
_cell_length_b   3.40132960
_cell_length_c   38.79183644
_cell_angle_alpha   89.99921843
_cell_angle_beta   90.00000000
_cell_angle_gamma   120.00003389
_symmetry_Int_Tables_number   1
_chemical_formula_structural   Te2MoWSeS
_chemical_formula_sum   'Te4 Mo2 W2 Se2 S2'
_cell_volume   388.65897665
_cell_formula_units_Z   2
loop_
 _symmetry_equiv_pos_site_id
 _symmetry_equiv_pos_as_xyz
  1  'x, y, z'
loop_
 _atom_site_type_symbol
 _atom_site_label
 _atom_site_symmetry_multiplicity
 _atom_site_fract_x
 _atom_site_fract_y
 _atom_site_fract_z
 _atom_site_occupancy
  Te  Te0  1  0.33335413  0.66670926  0.33020575  1
  Te  Te1  1  0.66663503  0.33326907  0.42121207  1
  Te  Te2  1  0.66664852  0.33329605  0.51819040  1
  Te  Te3  1  0.33335940  0.66671980  0.23323907  1
  Mo  Mo4  1  0.33331107  0.66662214  0.09395190  1
  Mo  Mo5  1  0.66669163  0.33338326  0.65753628  1
  W  W6  1  0.33330848  0.66661695  0.46972683  1
  W  W7  1  0.66669270  0.33338540  0.28173282  1
  Se  Se8  1  0.33335418  0.66670936  0.69997722  1
  Se  Se9  1  0.33335387  0.66670874  0.61510003  1
  S  S10  1  0.66664424  0.33328749  0.05516328  1
  S  S11  1  0.66664674  0.33329248  0.13271234  1
