# generated using pymatgen
data_Te2MoWS2
_symmetry_space_group_name_H-M   'P 1'
_cell_length_a   3.36114409
_cell_length_b   3.36120967
_cell_length_c   38.30634561
_cell_angle_alpha   89.99985163
_cell_angle_beta   90.00000000
_cell_angle_gamma   119.99935454
_symmetry_Int_Tables_number   1
_chemical_formula_structural   Te2MoWS2
_chemical_formula_sum   'Te4 Mo2 W2 S4'
_cell_volume   374.78906693
_cell_formula_units_Z   2
loop_
 _symmetry_equiv_pos_site_id
 _symmetry_equiv_pos_as_xyz
  1  'x, y, z'
loop_
 _atom_site_type_symbol
 _atom_site_label
 _atom_site_symmetry_multiplicity
 _atom_site_fract_x
 _atom_site_fract_y
 _atom_site_fract_z
 _atom_site_occupancy
  Te  Te0  1  0.33335505  0.66671110  0.33139296  1
  Te  Te1  1  0.33335348  0.66670795  0.70680408  1
  Te  Te2  1  0.33335757  0.66671614  0.23214543  1
  Te  Te3  1  0.33335735  0.66671571  0.60827055  1
  Mo  Mo4  1  0.33331186  0.66662373  0.09391860  1
  Mo  Mo5  1  0.66668630  0.33337260  0.65756167  1
  W  W6  1  0.33330838  0.66661676  0.46968167  1
  W  W7  1  0.66668655  0.33337310  0.28179910  1
  S  S8  1  0.66664653  0.33329207  0.05441047  1
  S  S9  1  0.66664399  0.33328698  0.43004133  1
  S  S10  1  0.66664862  0.33329624  0.13343710  1
  S  S11  1  0.66664431  0.33328762  0.50928503  1
