# generated using pymatgen
data_Er2P4O13
_symmetry_space_group_name_H-M   'P 1'
_cell_length_a   8.69087944
_cell_length_b   9.73301551
_cell_length_c   14.03224811
_cell_angle_alpha   90.00000000
_cell_angle_beta   105.16834614
_cell_angle_gamma   90.00000000
_symmetry_Int_Tables_number   1
_chemical_formula_structural   Er2P4O13
_chemical_formula_sum   'Er8 P16 O52'
_cell_volume   1145.61383365
_cell_formula_units_Z   4
loop_
 _symmetry_equiv_pos_site_id
 _symmetry_equiv_pos_as_xyz
  1  'x, y, z'
loop_
 _atom_site_type_symbol
 _atom_site_label
 _atom_site_symmetry_multiplicity
 _atom_site_fract_x
 _atom_site_fract_y
 _atom_site_fract_z
 _atom_site_occupancy
  Er  Er0  1  0.28454625  0.00083090  0.98964649  1
  Er  Er1  1  0.21319608  0.00411178  0.51224444  1
  Er  Er2  1  0.28454625  0.49916910  0.48964649  1
  Er  Er3  1  0.21319608  0.49588822  0.01224444  1
  Er  Er4  1  0.78680392  0.50411178  0.98775556  1
  Er  Er5  1  0.71545375  0.50083090  0.51035351  1
  Er  Er6  1  0.78680392  0.99588822  0.48775556  1
  Er  Er7  1  0.71545375  0.99916910  0.01035351  1
  P  P8  1  0.03029002  0.28077210  0.59520132  1
  P  P9  1  0.11443089  0.24527781  0.81418806  1
  P  P10  1  0.23632649  0.73140079  0.68397751  1
  P  P11  1  0.03029002  0.21922790  0.09520132  1
  P  P12  1  0.11443089  0.25472219  0.31418806  1
  P  P13  1  0.45961608  0.71893395  0.90141083  1
  P  P14  1  0.23632649  0.76859921  0.18397751  1
  P  P15  1  0.54038392  0.21893395  0.59858917  1
  P  P16  1  0.45961608  0.78106605  0.40141083  1
  P  P17  1  0.76367351  0.23140079  0.81602249  1
  P  P18  1  0.54038392  0.28106605  0.09858917  1
  P  P19  1  0.88556911  0.74527781  0.68581194  1
  P  P20  1  0.96970998  0.78077210  0.90479868  1
  P  P21  1  0.76367351  0.26859921  0.31602249  1
  P  P22  1  0.88556911  0.75472219  0.18581194  1
  P  P23  1  0.96970998  0.71922790  0.40479868  1
  O  O24  1  0.06836461  0.69067778  0.70673950  1
  O  O25  1  0.12608866  0.84765332  0.90199719  1
  O  O26  1  0.01130980  0.12895044  0.55931516  1
  O  O27  1  0.13900387  0.37558990  0.87351411  1
  O  O28  1  0.13901661  0.27747427  0.70797420  1
  O  O29  1  0.12473235  0.36272715  0.53823238  1
  O  O30  1  0.22559974  0.12790208  0.85486948  1
  O  O31  1  0.06836461  0.80932222  0.20673950  1
  O  O32  1  0.12608866  0.65234668  0.40199719  1
  O  O33  1  0.01130980  0.37104956  0.05931516  1
  O  O34  1  0.36299682  0.63218861  0.95456525  1
  O  O35  1  0.22820603  0.87463218  0.64299955  1
  O  O36  1  0.13900387  0.12441010  0.37351411  1
  O  O37  1  0.13901661  0.22252573  0.20797420  1
  O  O38  1  0.28085254  0.61891112  0.62255344  1
  O  O39  1  0.36255848  0.72943188  0.78745266  1
  O  O40  1  0.12473235  0.13727285  0.03823238  1
  O  O41  1  0.38187313  0.15310671  0.59789294  1
  O  O42  1  0.48167162  0.87043592  0.94068921  1
  O  O43  1  0.22559974  0.37209792  0.35486948  1
  O  O44  1  0.36299682  0.86781139  0.45456525  1
  O  O45  1  0.22820603  0.62536782  0.14299955  1
  O  O46  1  0.28085254  0.88108888  0.12255344  1
  O  O47  1  0.36255848  0.77056812  0.28745266  1
  O  O48  1  0.51832838  0.37043592  0.55931079  1
  O  O49  1  0.61812687  0.65310671  0.90210706  1
  O  O50  1  0.38187313  0.34689329  0.09789294  1
  O  O51  1  0.48167162  0.62956408  0.44068921  1
  O  O52  1  0.63744152  0.22943188  0.71254734  1
  O  O53  1  0.71914746  0.11891112  0.87744656  1
  O  O54  1  0.77179397  0.37463218  0.85700045  1
  O  O55  1  0.63700318  0.13218861  0.54543475  1
  O  O56  1  0.77440026  0.62790208  0.64513052  1
  O  O57  1  0.51832838  0.12956408  0.05931079  1
  O  O58  1  0.61812687  0.84689329  0.40210706  1
  O  O59  1  0.87526765  0.86272715  0.96176762  1
  O  O60  1  0.63744152  0.27056812  0.21254734  1
  O  O61  1  0.71914746  0.38108888  0.37744656  1
  O  O62  1  0.86098339  0.77747427  0.79202580  1
  O  O63  1  0.86099613  0.87558990  0.62648589  1
  O  O64  1  0.77179397  0.12536782  0.35700045  1
  O  O65  1  0.63700318  0.36781139  0.04543475  1
  O  O66  1  0.98869020  0.62895044  0.94068484  1
  O  O67  1  0.87391134  0.34765332  0.59800281  1
  O  O68  1  0.93163539  0.19067778  0.79326050  1
  O  O69  1  0.77440026  0.87209792  0.14513052  1
  O  O70  1  0.87526765  0.63727285  0.46176762  1
  O  O71  1  0.86098339  0.72252573  0.29202580  1
  O  O72  1  0.86099613  0.62441010  0.12648589  1
  O  O73  1  0.98869020  0.87104956  0.44068484  1
  O  O74  1  0.87391134  0.15234668  0.09800281  1
  O  O75  1  0.93163539  0.30932222  0.29326050  1
