# generated using pymatgen
data_Li3Fe2CuO6
_symmetry_space_group_name_H-M   'P 1'
_cell_length_a   15.58820281
_cell_length_b   9.94981377
_cell_length_c   9.94981375
_cell_angle_alpha   17.22034191
_cell_angle_beta   16.61101019
_cell_angle_gamma   16.61101032
_symmetry_Int_Tables_number   1
_chemical_formula_structural   Li3Fe2CuO6
_chemical_formula_sum   'Li3 Fe2 Cu1 O6'
_cell_volume   112.53103691
_cell_formula_units_Z   1
loop_
 _symmetry_equiv_pos_site_id
 _symmetry_equiv_pos_as_xyz
  1  'x, y, z'
loop_
 _atom_site_type_symbol
 _atom_site_label
 _atom_site_symmetry_multiplicity
 _atom_site_fract_x
 _atom_site_fract_y
 _atom_site_fract_z
 _atom_site_occupancy
  Li  Li0  1  0.16666700  0.50000000  0.50000000  1
  Li  Li1  1  0.50652054  0.49667855  0.49667855  1
  Li  Li2  1  0.82681346  0.50332145  0.50332145  1
  Fe  Fe3  1  0.00528223  0.99627876  0.99627876  1
  Fe  Fe4  1  0.32805177  0.00372124  0.00372124  1
  Cu  Cu5  1  0.66666700  0.00000000  0.00000000  1
  O  O6  1  0.25026199  0.25521726  0.25521726  1
  O  O7  1  0.57939718  0.25756794  0.25756794  1
  O  O8  1  0.08307101  0.74478274  0.74478274  1
  O  O9  1  0.90990127  0.25989881  0.25989881  1
  O  O10  1  0.42343173  0.74010119  0.74010119  1
  O  O11  1  0.75393582  0.74243206  0.74243206  1
