# generated using pymatgen
data_V3(O2F)2
_symmetry_space_group_name_H-M   'P 1'
_cell_length_a   4.71693259
_cell_length_b   4.71693259
_cell_length_c   9.02389883
_cell_angle_alpha   90.75942005
_cell_angle_beta   90.75942005
_cell_angle_gamma   90.10767884
_symmetry_Int_Tables_number   1
_chemical_formula_structural   V3(O2F)2
_chemical_formula_sum   'V6 O8 F4'
_cell_volume   200.74111927
_cell_formula_units_Z   2
loop_
 _symmetry_equiv_pos_site_id
 _symmetry_equiv_pos_as_xyz
  1  'x, y, z'
loop_
 _atom_site_type_symbol
 _atom_site_label
 _atom_site_symmetry_multiplicity
 _atom_site_fract_x
 _atom_site_fract_y
 _atom_site_fract_z
 _atom_site_occupancy
  V  V0  1  0.98482973  0.95915970  0.01314296  1
  V  V1  1  0.04084030  0.01517027  0.32019004  1
  V  V2  1  0.01068652  0.98931348  0.66666700  1
  V  V3  1  0.50905553  0.49094447  0.16666700  1
  V  V4  1  0.48438905  0.53455128  0.82089787  1
  V  V5  1  0.46544872  0.51561095  0.51243513  1
  O  O6  1  0.21316376  0.78683624  0.16666700  1
  O  O7  1  0.19471968  0.80914384  0.49464367  1
  O  O8  1  0.19085616  0.80528032  0.83868933  1
  O  O9  1  0.31675918  0.30710822  0.33703450  1
  O  O10  1  0.29069564  0.30175854  0.66944299  1
  O  O11  1  0.69289178  0.68324082  0.99629950  1
  O  O12  1  0.69824146  0.70930436  0.66389001  1
  O  O13  1  0.80847736  0.19152264  0.16666700  1
  F  F14  1  0.29448289  0.29294576  0.99558707  1
  F  F15  1  0.70705424  0.70551711  0.33774693  1
  F  F16  1  0.79322204  0.19581504  0.83682924  1
  F  F17  1  0.80418496  0.20677796  0.49650376  1
