# generated using pymatgen
data_Li8VO6
_symmetry_space_group_name_H-M   'P 1'
_cell_length_a   5.34164409
_cell_length_b   5.85563062
_cell_length_c   5.43543066
_cell_angle_alpha   116.88715444
_cell_angle_beta   119.30089256
_cell_angle_gamma   63.89858726
_symmetry_Int_Tables_number   1
_chemical_formula_structural   Li8VO6
_chemical_formula_sum   'Li8 V1 O6'
_cell_volume   126.90267182
_cell_formula_units_Z   1
loop_
 _symmetry_equiv_pos_site_id
 _symmetry_equiv_pos_as_xyz
  1  'x, y, z'
loop_
 _atom_site_type_symbol
 _atom_site_label
 _atom_site_symmetry_multiplicity
 _atom_site_fract_x
 _atom_site_fract_y
 _atom_site_fract_z
 _atom_site_occupancy
  Li  Li0  1  0.23559925  0.35586020  0.49196964  1
  Li  Li1  1  0.10156761  0.64848001  0.24009011  1
  Li  Li2  1  0.48755689  0.64472263  0.89864809  1
  Li  Li3  1  0.34511623  0.97601757  0.65603631  1
  Li  Li4  1  0.65488377  0.02398243  0.34396369  1
  Li  Li5  1  0.51244311  0.35527737  0.10135191  1
  Li  Li6  1  0.89843239  0.35151999  0.75990989  1
  Li  Li7  1  0.76440075  0.64413980  0.50803036  1
  V  V8  1  0.00000000  0.00000000  0.00000000  1
  O  O9  1  0.09303021  0.76389417  0.62450416  1
  O  O10  1  0.22273862  0.23114900  0.08643074  1
  O  O11  1  0.62016716  0.23303907  0.76708848  1
  O  O12  1  0.37983284  0.76696093  0.23291152  1
  O  O13  1  0.77726138  0.76885100  0.91356926  1
  O  O14  1  0.90696979  0.23610583  0.37549584  1
