# generated using pymatgen
data_Na2LiMnPCO7
_symmetry_space_group_name_H-M   'P 1'
_cell_length_a   8.88558249
_cell_length_b   6.78714483
_cell_length_c   10.26288729
_cell_angle_alpha   90.00000000
_cell_angle_beta   89.47990647
_cell_angle_gamma   90.00000000
_symmetry_Int_Tables_number   1
_chemical_formula_structural   Na2LiMnPCO7
_chemical_formula_sum   'Na8 Li4 Mn4 P4 C4 O28'
_cell_volume   618.90599059
_cell_formula_units_Z   4
loop_
 _symmetry_equiv_pos_site_id
 _symmetry_equiv_pos_as_xyz
  1  'x, y, z'
loop_
 _atom_site_type_symbol
 _atom_site_label
 _atom_site_symmetry_multiplicity
 _atom_site_fract_x
 _atom_site_fract_y
 _atom_site_fract_z
 _atom_site_occupancy
  Na  Na0  1  0.08355780  0.25135156  0.87934285  1
  Na  Na1  1  0.08355780  0.24864844  0.37934285  1
  Na  Na2  1  0.25545111  0.99893392  0.62481776  1
  Na  Na3  1  0.25545111  0.50106608  0.12481776  1
  Na  Na4  1  0.74365374  0.50143685  0.87642492  1
  Na  Na5  1  0.74324246  0.99825333  0.87599284  1
  Na  Na6  1  0.74324246  0.50174667  0.37599284  1
  Na  Na7  1  0.74365374  0.99856315  0.37642492  1
  Li  Li8  1  0.27043679  0.48357974  0.61774812  1
  Li  Li9  1  0.27043679  0.01642026  0.11774812  1
  Li  Li10  1  0.91444859  0.74259893  0.62643327  1
  Li  Li11  1  0.91444859  0.75740107  0.12643327  1
  Mn  Mn12  1  0.35997766  0.75170285  0.88912157  1
  Mn  Mn13  1  0.35997766  0.74829715  0.38912157  1
  Mn  Mn14  1  0.63972788  0.24907921  0.61200165  1
  Mn  Mn15  1  0.63972788  0.25092079  0.11200165  1
  P  P16  1  0.40893769  0.25459779  0.85338895  1
  P  P17  1  0.40893769  0.24540221  0.35338895  1
  P  P18  1  0.59070971  0.74507862  0.64911503  1
  P  P19  1  0.59070971  0.75492138  0.14911503  1
  C  C20  1  0.05315550  0.74901517  0.86509761  1
  C  C21  1  0.05315550  0.75098483  0.36509761  1
  C  C22  1  0.94483871  0.25833386  0.63161415  1
  C  C23  1  0.94483871  0.24166614  0.13161415  1
  O  O24  1  0.09048596  0.27512308  0.64064810  1
  O  O25  1  0.09048596  0.22487692  0.14064810  1
  O  O26  1  0.09251142  0.74902377  0.98685974  1
  O  O27  1  0.09251142  0.75097623  0.48685974  1
  O  O28  1  0.15463884  0.74835071  0.77234609  1
  O  O29  1  0.15463884  0.75164929  0.27234609  1
  O  O30  1  0.31679865  0.06952843  0.89552383  1
  O  O31  1  0.31810386  0.43692697  0.89993561  1
  O  O32  1  0.31810386  0.06307303  0.39993561  1
  O  O33  1  0.31679865  0.43047157  0.39552383  1
  O  O34  1  0.42268711  0.26199043  0.70080370  1
  O  O35  1  0.43017889  0.73168925  0.58926689  1
  O  O36  1  0.42268711  0.23800957  0.20080370  1
  O  O37  1  0.43017889  0.76831075  0.08926689  1
  O  O38  1  0.56970134  0.24978255  0.91076291  1
  O  O39  1  0.57150755  0.74880354  0.80023771  1
  O  O40  1  0.56970134  0.25021745  0.41076291  1
  O  O41  1  0.57150755  0.75119646  0.30023771  1
  O  O42  1  0.69195543  0.56691511  0.60955865  1
  O  O43  1  0.67980927  0.93173517  0.60597150  1
  O  O44  1  0.67980927  0.56826483  0.10597150  1
  O  O45  1  0.69195543  0.93308489  0.10955865  1
  O  O46  1  0.86085568  0.24887437  0.73613563  1
  O  O47  1  0.86085568  0.25112563  0.23613563  1
  O  O48  1  0.88062628  0.24972395  0.51858165  1
  O  O49  1  0.88062628  0.25027605  0.01858165  1
  O  O50  1  0.91200010  0.75003034  0.83227029  1
  O  O51  1  0.91200010  0.74996966  0.33227029  1
