# generated using pymatgen
data_Li3Zn3(Ge3O8)2
_symmetry_space_group_name_H-M   'P 1'
_cell_length_a   8.40130839
_cell_length_b   8.39986453
_cell_length_c   8.40035107
_cell_angle_alpha   90.00000000
_cell_angle_beta   90.00000000
_cell_angle_gamma   89.93953173
_symmetry_Int_Tables_number   1
_chemical_formula_structural   Li3Zn3(Ge3O8)2
_chemical_formula_sum   'Li6 Zn6 Ge12 O32'
_cell_volume   592.81120451
_cell_formula_units_Z   2
loop_
 _symmetry_equiv_pos_site_id
 _symmetry_equiv_pos_as_xyz
  1  'x, y, z'
loop_
 _atom_site_type_symbol
 _atom_site_label
 _atom_site_symmetry_multiplicity
 _atom_site_fract_x
 _atom_site_fract_y
 _atom_site_fract_z
 _atom_site_occupancy
  Li  Li0  1  0.12276214  0.87416742  0.37456242  1
  Li  Li1  1  0.37723786  0.12583258  0.87456242  1
  Li  Li2  1  0.62669179  0.62361554  0.62405525  1
  Li  Li3  1  0.75083044  0.24972830  0.74941461  1
  Li  Li4  1  0.74916956  0.75027170  0.24941461  1
  Li  Li5  1  0.87330821  0.37638446  0.12405525  1
  Zn  Zn6  1  0.99866137  0.99960666  0.00047028  1
  Zn  Zn7  1  0.99883601  0.50012505  0.50074378  1
  Zn  Zn8  1  0.24920608  0.25006202  0.24948389  1
  Zn  Zn9  1  0.25079392  0.74993798  0.74948389  1
  Zn  Zn10  1  0.50133863  0.00039334  0.50047028  1
  Zn  Zn11  1  0.50116399  0.49987495  0.00074378  1
  Ge  Ge12  1  0.12606250  0.12058450  0.62494827  1
  Ge  Ge13  1  0.11632926  0.62624603  0.12996421  1
  Ge  Ge14  1  0.12067711  0.37124947  0.87882985  1
  Ge  Ge15  1  0.38367074  0.37375397  0.62996421  1
  Ge  Ge16  1  0.37932289  0.62875053  0.37882985  1
  Ge  Ge17  1  0.37393750  0.87941550  0.12494827  1
  Ge  Ge18  1  0.62614460  0.12743826  0.11768340  1
  Ge  Ge19  1  0.63010872  0.38166764  0.37803726  1
  Ge  Ge20  1  0.62233533  0.87925033  0.87363746  1
  Ge  Ge21  1  0.87766467  0.12074967  0.37363746  1
  Ge  Ge22  1  0.86989128  0.61833236  0.87803726  1
  Ge  Ge23  1  0.87385540  0.87256174  0.61768340  1
  O  O24  1  0.12748354  0.39370042  0.10441261  1
  O  O25  1  0.13912742  0.36080690  0.63869968  1
  O  O26  1  0.14705124  0.85751983  0.12254512  1
  O  O27  1  0.10714206  0.89476662  0.62758762  1
  O  O28  1  0.10410549  0.12740619  0.39233511  1
  O  O29  1  0.12247558  0.14535012  0.85717513  1
  O  O30  1  0.14395409  0.62257500  0.35484393  1
  O  O31  1  0.11324717  0.61236049  0.88811535  1
  O  O32  1  0.39285794  0.10523338  0.12758762  1
  O  O33  1  0.38675283  0.38763951  0.38811535  1
  O  O34  1  0.35294876  0.14248017  0.62254512  1
  O  O35  1  0.35604591  0.37742500  0.85484393  1
  O  O36  1  0.36087258  0.63919310  0.13869968  1
  O  O37  1  0.37752442  0.85464988  0.35717513  1
  O  O38  1  0.37251646  0.60629958  0.60441261  1
  O  O39  1  0.39589451  0.87259381  0.89233511  1
  O  O40  1  0.63877519  0.13880603  0.36067205  1
  O  O41  1  0.62866888  0.10612402  0.89609214  1
  O  O42  1  0.62250675  0.35286644  0.14417314  1
  O  O43  1  0.60434399  0.37097065  0.60461368  1
  O  O44  1  0.60528190  0.60292780  0.37125360  1
  O  O45  1  0.64538459  0.64447101  0.87750623  1
  O  O46  1  0.60969266  0.88960036  0.11092798  1
  O  O47  1  0.64300101  0.87753689  0.64721497  1
  O  O48  1  0.85699899  0.12246311  0.14721497  1
  O  O49  1  0.89030734  0.11039964  0.61092798  1
  O  O50  1  0.85461541  0.35552899  0.37750623  1
  O  O51  1  0.89471810  0.39707220  0.87125360  1
  O  O52  1  0.89565601  0.62902935  0.10461368  1
  O  O53  1  0.87749325  0.64713356  0.64417314  1
  O  O54  1  0.87133112  0.89387598  0.39609214  1
  O  O55  1  0.86122481  0.86119397  0.86067205  1
