# generated using pymatgen
data_Li2Ta4O11
_symmetry_space_group_name_H-M   'P 1'
_cell_length_a   6.27057348
_cell_length_b   6.27057348
_cell_length_c   12.85233918
_cell_angle_alpha   75.86939966
_cell_angle_beta   104.13060034
_cell_angle_gamma   119.95348230
_symmetry_Int_Tables_number   1
_chemical_formula_structural   Li2Ta4O11
_chemical_formula_sum   'Li4 Ta8 O22'
_cell_volume   420.08908453
_cell_formula_units_Z   2
loop_
 _symmetry_equiv_pos_site_id
 _symmetry_equiv_pos_as_xyz
  1  'x, y, z'
loop_
 _atom_site_type_symbol
 _atom_site_label
 _atom_site_symmetry_multiplicity
 _atom_site_fract_x
 _atom_site_fract_y
 _atom_site_fract_z
 _atom_site_occupancy
  Li  Li0  1  0.15218999  0.35433735  0.44635716  1
  Li  Li1  1  0.35433735  0.15218999  0.05364284  1
  Li  Li2  1  0.64566265  0.84781001  0.94635716  1
  Li  Li3  1  0.84781001  0.64566265  0.55364284  1
  Ta  Ta4  1  0.24971200  0.60931768  0.74997015  1
  Ta  Ta5  1  0.39068232  0.75028800  0.24997015  1
  Ta  Ta6  1  0.00000000  0.50000000  0.00000000  1
  Ta  Ta7  1  0.89076384  0.89076384  0.75000000  1
  Ta  Ta8  1  0.10923616  0.10923616  0.25000000  1
  Ta  Ta9  1  0.60931768  0.24971200  0.75002985  1
  Ta  Ta10  1  0.50000000  0.00000000  0.50000000  1
  Ta  Ta11  1  0.75028800  0.39068232  0.25002985  1
  O  O12  1  0.24993424  0.00358159  0.75022915  1
  O  O13  1  0.99641841  0.75006576  0.25022915  1
  O  O14  1  0.25493958  0.58126198  0.90765738  1
  O  O15  1  0.24565911  0.73467359  0.59265470  1
  O  O16  1  0.59357957  0.90583500  0.78130141  1
  O  O17  1  0.41873802  0.74506042  0.40765738  1
  O  O18  1  0.76522573  0.91807522  0.59262991  1
  O  O19  1  0.26532641  0.75434089  0.09265470  1
  O  O20  1  0.09416500  0.40642043  0.28130141  1
  O  O21  1  0.49465837  0.49465837  0.75000000  1
  O  O22  1  0.91807522  0.76522573  0.90737009  1
  O  O23  1  0.08192478  0.23477427  0.09262991  1
  O  O24  1  0.50534263  0.50534263  0.25000000  1
  O  O25  1  0.90583500  0.59357957  0.71869859  1
  O  O26  1  0.73467359  0.24565911  0.90734530  1
  O  O27  1  0.23477427  0.08192478  0.40737009  1
  O  O28  1  0.58126198  0.25493958  0.59234262  1
  O  O29  1  0.40642043  0.09416500  0.21869859  1
  O  O30  1  0.75434089  0.26532641  0.40734530  1
  O  O31  1  0.74506042  0.41873802  0.09234262  1
  O  O32  1  0.00358159  0.24993424  0.74977085  1
  O  O33  1  0.75006576  0.99641841  0.24977085  1
