# generated using pymatgen
data_Li4Ti2V3Cr3O16
_symmetry_space_group_name_H-M   'P 1'
_cell_length_a   5.90585014
_cell_length_b   5.90464807
_cell_length_c   9.54883049
_cell_angle_alpha   90.11073028
_cell_angle_beta   90.18591522
_cell_angle_gamma   120.08825917
_symmetry_Int_Tables_number   1
_chemical_formula_structural   Li4Ti2V3Cr3O16
_chemical_formula_sum   'Li4 Ti2 V3 Cr3 O16'
_cell_volume   288.11400176
_cell_formula_units_Z   1
loop_
 _symmetry_equiv_pos_site_id
 _symmetry_equiv_pos_as_xyz
  1  'x, y, z'
loop_
 _atom_site_type_symbol
 _atom_site_label
 _atom_site_symmetry_multiplicity
 _atom_site_fract_x
 _atom_site_fract_y
 _atom_site_fract_z
 _atom_site_occupancy
  Li  Li0  1  0.34219437  0.67120591  0.89387810  1
  Li  Li1  1  0.99741098  0.99861902  0.99387065  1
  Li  Li2  1  0.99560658  0.99754540  0.49509843  1
  Li  Li3  1  0.67239088  0.33633982  0.39090335  1
  Ti  Ti4  1  0.33255618  0.66666029  0.49643728  1
  Ti  Ti5  1  0.66268142  0.33070915  0.99773689  1
  V  V6  1  0.82792928  0.64762309  0.71722103  1
  V  V7  1  0.65172312  0.82593809  0.22019623  1
  V  V8  1  0.82946149  0.18163046  0.71681878  1
  Cr  Cr9  1  0.16973914  0.82927307  0.21415129  1
  Cr  Cr10  1  0.16972337  0.34045961  0.21414165  1
  Cr  Cr11  1  0.33679920  0.16836450  0.71301789  1
  O  O12  1  0.16463970  0.82929876  0.59499950  1
  O  O13  1  0.04424732  0.52221313  0.34022065  1
  O  O14  1  0.35221596  0.67592332  0.10544818  1
  O  O15  1  0.98658597  0.99347886  0.30638377  1
  O  O16  1  0.99024880  0.99404960  0.80499382  1
  O  O17  1  0.16442076  0.33502206  0.59531818  1
  O  O18  1  0.48554783  0.96195423  0.34235806  1
  O  O19  1  0.48544400  0.52369959  0.34229489  1
  O  O20  1  0.33440294  0.16703936  0.09494885  1
  O  O21  1  0.65885352  0.83058436  0.59535938  1
  O  O22  1  0.52431451  0.48100457  0.84109360  1
  O  O23  1  0.52345668  0.04321399  0.84088203  1
  O  O24  1  0.66943801  0.33566873  0.60077777  1
  O  O25  1  0.82943831  0.66284113  0.09596459  1
  O  O26  1  0.96913843  0.48340456  0.84718334  1
  O  O27  1  0.82938825  0.16653532  0.09614483  1
