# generated using pymatgen
data_K3CoPCO7
_symmetry_space_group_name_H-M   'P 1'
_cell_length_a   9.74411134
_cell_length_b   6.85915649
_cell_length_c   5.63801406
_cell_angle_alpha   90.00000000
_cell_angle_beta   89.89064788
_cell_angle_gamma   90.00000000
_symmetry_Int_Tables_number   1
_chemical_formula_structural   K3CoPCO7
_chemical_formula_sum   'K6 Co2 P2 C2 O14'
_cell_volume   376.82378922
_cell_formula_units_Z   2
loop_
 _symmetry_equiv_pos_site_id
 _symmetry_equiv_pos_as_xyz
  1  'x, y, z'
loop_
 _atom_site_type_symbol
 _atom_site_label
 _atom_site_symmetry_multiplicity
 _atom_site_fract_x
 _atom_site_fract_y
 _atom_site_fract_z
 _atom_site_occupancy
  K  K0  1  0.07638432  0.25000000  0.76025590  1
  K  K1  1  0.27695670  0.01282342  0.25426908  1
  K  K2  1  0.27695670  0.48717658  0.25426908  1
  K  K3  1  0.72304330  0.51282342  0.74573092  1
  K  K4  1  0.72304330  0.98717658  0.74573092  1
  K  K5  1  0.92361568  0.75000000  0.23974410  1
  Co  Co6  1  0.35577294  0.75000000  0.76654925  1
  Co  Co7  1  0.64422706  0.25000000  0.23345075  1
  P  P8  1  0.42533462  0.25000000  0.72036911  1
  P  P9  1  0.57466538  0.75000000  0.27963089  1
  C  C10  1  0.08597052  0.75000000  0.73809461  1
  C  C11  1  0.91402948  0.25000000  0.26190539  1
  O  O12  1  0.04652245  0.25000000  0.25929795  1
  O  O13  1  0.15652950  0.75000000  0.93702970  1
  O  O14  1  0.15546619  0.75000000  0.54033094  1
  O  O15  1  0.33220571  0.06631138  0.75820035  1
  O  O16  1  0.33220571  0.43368862  0.75820035  1
  O  O17  1  0.47663504  0.25000000  0.45484778  1
  O  O18  1  0.45189024  0.75000000  0.10798784  1
  O  O19  1  0.54810976  0.25000000  0.89201216  1
  O  O20  1  0.52336496  0.75000000  0.54515222  1
  O  O21  1  0.66779429  0.56631138  0.24179965  1
  O  O22  1  0.66779429  0.93368862  0.24179965  1
  O  O23  1  0.84453381  0.25000000  0.45966906  1
  O  O24  1  0.84347050  0.25000000  0.06297030  1
  O  O25  1  0.95347755  0.75000000  0.74070205  1
