# generated using pymatgen
data_Li4Cr3Sn5O16
_symmetry_space_group_name_H-M   'P 1'
_cell_length_a   6.16826029
_cell_length_b   6.19502449
_cell_length_c   9.92569421
_cell_angle_alpha   89.99857376
_cell_angle_beta   89.51174045
_cell_angle_gamma   120.14501517
_symmetry_Int_Tables_number   1
_chemical_formula_structural   Li4Cr3Sn5O16
_chemical_formula_sum   'Li4 Cr3 Sn5 O16'
_cell_volume   327.97414982
_cell_formula_units_Z   1
loop_
 _symmetry_equiv_pos_site_id
 _symmetry_equiv_pos_as_xyz
  1  'x, y, z'
loop_
 _atom_site_type_symbol
 _atom_site_label
 _atom_site_symmetry_multiplicity
 _atom_site_fract_x
 _atom_site_fract_y
 _atom_site_fract_z
 _atom_site_occupancy
  Li  Li0  1  0.33820687  0.66911814  0.88946438  1
  Li  Li1  1  0.98051134  0.99026271  0.98860539  1
  Li  Li2  1  0.98252029  0.99125741  0.49834635  1
  Li  Li3  1  0.66619435  0.33311946  0.40407116  1
  Cr  Cr4  1  0.66220599  0.83113304  0.21511445  1
  Cr  Cr5  1  0.83074454  0.66060384  0.71305645  1
  Cr  Cr6  1  0.83078587  0.17015157  0.71303757  1
  Sn  Sn7  1  0.17015726  0.83199349  0.21556954  1
  Sn  Sn8  1  0.34225467  0.67113522  0.49741174  1
  Sn  Sn9  1  0.17017607  0.33819404  0.21556744  1
  Sn  Sn10  1  0.33878615  0.16939809  0.71433049  1
  Sn  Sn11  1  0.68167314  0.34085320  0.98516014  1
  O  O12  1  0.15727880  0.83789286  0.59605287  1
  O  O13  1  0.03271926  0.51635102  0.34493557  1
  O  O14  1  0.34302287  0.67153820  0.10349366  1
  O  O15  1  0.98950576  0.99475462  0.31519362  1
  O  O16  1  0.99117381  0.99559110  0.80666767  1
  O  O17  1  0.15727595  0.31939678  0.59604999  1
  O  O18  1  0.48455452  0.96382751  0.34169175  1
  O  O19  1  0.48456215  0.52077423  0.34169589  1
  O  O20  1  0.32251258  0.16127144  0.09504402  1
  O  O21  1  0.67572672  0.83787183  0.60317496  1
  O  O22  1  0.52302865  0.48736357  0.83852744  1
  O  O23  1  0.52303284  0.03569452  0.83853090  1
  O  O24  1  0.67487064  0.33744486  0.60711902  1
  O  O25  1  0.83937591  0.68125184  0.09935988  1
  O  O26  1  0.96773918  0.48388478  0.83121422  1
  O  O27  1  0.83940383  0.15816964  0.09935144  1
