# generated using pymatgen
data_V2Ni(PO4)3
_symmetry_space_group_name_H-M   'P 1'
_cell_length_a   8.47442987
_cell_length_b   8.47442978
_cell_length_c   8.47442929
_cell_angle_alpha   61.10142504
_cell_angle_beta   61.10142253
_cell_angle_gamma   61.10142200
_symmetry_Int_Tables_number   1
_chemical_formula_structural   V2Ni(PO4)3
_chemical_formula_sum   'V4 Ni2 P6 O24'
_cell_volume   441.01392869
_cell_formula_units_Z   2
loop_
 _symmetry_equiv_pos_site_id
 _symmetry_equiv_pos_as_xyz
  1  'x, y, z'
loop_
 _atom_site_type_symbol
 _atom_site_label
 _atom_site_symmetry_multiplicity
 _atom_site_fract_x
 _atom_site_fract_y
 _atom_site_fract_z
 _atom_site_occupancy
  V  V0  1  0.14203037  0.14203037  0.14203037  1
  V  V1  1  0.35796963  0.35796963  0.35796963  1
  V  V2  1  0.64203037  0.64203037  0.64203037  1
  V  V3  1  0.85796963  0.85796963  0.85796963  1
  Ni  Ni4  1  0.00000000  0.00000000  0.00000000  1
  Ni  Ni5  1  0.50000000  0.50000000  0.50000000  1
  P  P6  1  0.04366994  0.75000000  0.45633006  1
  P  P7  1  0.45633006  0.04366994  0.75000000  1
  P  P8  1  0.75000000  0.45633006  0.04366994  1
  P  P9  1  0.25000000  0.54366994  0.95633006  1
  P  P10  1  0.54366994  0.95633006  0.25000000  1
  P  P11  1  0.95633006  0.25000000  0.54366994  1
  O  O12  1  0.11464300  0.31596723  0.50416309  1
  O  O13  1  0.31596723  0.50416309  0.11464300  1
  O  O14  1  0.05900562  0.90994444  0.25774015  1
  O  O15  1  0.50416309  0.11464300  0.31596723  1
  O  O16  1  0.00416309  0.81596723  0.61464300  1
  O  O17  1  0.24225985  0.59005556  0.44099438  1
  O  O18  1  0.25774015  0.05900562  0.90994444  1
  O  O19  1  0.44099438  0.24225985  0.59005556  1
  O  O20  1  0.18403277  0.38535700  0.99583691  1
  O  O21  1  0.59005556  0.44099438  0.24225985  1
  O  O22  1  0.09005556  0.74225985  0.94099438  1
  O  O23  1  0.38535700  0.99583691  0.18403277  1
  O  O24  1  0.61464300  0.00416309  0.81596723  1
  O  O25  1  0.90994444  0.25774015  0.05900562  1
  O  O26  1  0.40994444  0.55900562  0.75774015  1
  O  O27  1  0.81596723  0.61464300  0.00416309  1
  O  O28  1  0.55900562  0.75774015  0.40994444  1
  O  O29  1  0.74225985  0.94099438  0.09005556  1
  O  O30  1  0.75774015  0.40994444  0.55900562  1
  O  O31  1  0.99583691  0.18403277  0.38535700  1
  O  O32  1  0.49583691  0.88535700  0.68403277  1
  O  O33  1  0.94099438  0.09005556  0.74225985  1
  O  O34  1  0.68403277  0.49583691  0.88535700  1
  O  O35  1  0.88535700  0.68403277  0.49583691  1
