# generated using pymatgen
data_Li4Nb2V3Co3O16
_symmetry_space_group_name_H-M   'P 1'
_cell_length_a   5.99166976
_cell_length_b   5.97153504
_cell_length_c   9.78845867
_cell_angle_alpha   89.93020208
_cell_angle_beta   89.55524760
_cell_angle_gamma   119.92899266
_symmetry_Int_Tables_number   1
_chemical_formula_structural   Li4Nb2V3Co3O16
_chemical_formula_sum   'Li4 Nb2 V3 Co3 O16'
_cell_volume   303.50686515
_cell_formula_units_Z   1
loop_
 _symmetry_equiv_pos_site_id
 _symmetry_equiv_pos_as_xyz
  1  'x, y, z'
loop_
 _atom_site_type_symbol
 _atom_site_label
 _atom_site_symmetry_multiplicity
 _atom_site_fract_x
 _atom_site_fract_y
 _atom_site_fract_z
 _atom_site_occupancy
  Li  Li0  1  0.33332751  0.66432514  0.90295482  1
  Li  Li1  1  0.98912670  0.99557220  0.99544131  1
  Li  Li2  1  0.99208186  0.99777745  0.48771262  1
  Li  Li3  1  0.67575812  0.33819143  0.39938412  1
  Nb  Nb4  1  0.30635134  0.65319686  0.48876894  1
  Nb  Nb5  1  0.66762257  0.33550904  -0.00011755  1
  V  V6  1  0.64801973  0.82500238  0.22811896  1
  V  V7  1  0.81582320  0.65299474  0.71770195  1
  V  V8  1  0.81205427  0.15719002  0.71888378  1
  Co  Co9  1  0.17669942  0.83525590  0.21168692  1
  Co  Co10  1  0.17637977  0.34241919  0.21170377  1
  Co  Co11  1  0.33797468  0.16918180  0.70861144  1
  O  O12  1  0.15577869  0.82700298  0.59504661  1
  O  O13  1  0.04290148  0.52150888  0.34921463  1
  O  O14  1  0.37053038  0.68548863  0.10877153  1
  O  O15  1  0.97970178  0.99035076  0.29857657  1
  O  O16  1  0.98180941  0.98869670  0.80625861  1
  O  O17  1  0.15620009  0.32878056  0.59595252  1
  O  O18  1  0.49989382  0.96760705  0.35261377  1
  O  O19  1  0.50028628  0.53382060  0.35316937  1
  O  O20  1  0.33211307  0.16682805  0.08132002  1
  O  O21  1  0.66892855  0.83507436  0.60280134  1
  O  O22  1  0.53423093  0.49621472  0.83691146  1
  O  O23  1  0.53425630  0.03520239  0.83631355  1
  O  O24  1  0.70231812  0.35159682  0.60440332  1
  O  O25  1  0.82424601  0.65889652  0.09043793  1
  O  O26  1  0.96191446  0.48037211  0.83537344  1
  O  O27  1  0.82366945  0.16624170  0.08982527  1
