# generated using pymatgen
data_Li4Fe3Ni3(SnO8)2
_symmetry_space_group_name_H-M   'P 1'
_cell_length_a   5.94027509
_cell_length_b   5.87731648
_cell_length_c   9.69145992
_cell_angle_alpha   89.84945079
_cell_angle_beta   90.70635759
_cell_angle_gamma   119.73296394
_symmetry_Int_Tables_number   1
_chemical_formula_structural   Li4Fe3Ni3(SnO8)2
_chemical_formula_sum   'Li4 Fe3 Ni3 Sn2 O16'
_cell_volume   293.78613835
_cell_formula_units_Z   1
loop_
 _symmetry_equiv_pos_site_id
 _symmetry_equiv_pos_as_xyz
  1  'x, y, z'
loop_
 _atom_site_type_symbol
 _atom_site_label
 _atom_site_symmetry_multiplicity
 _atom_site_fract_x
 _atom_site_fract_y
 _atom_site_fract_z
 _atom_site_occupancy
  Li  Li0  1  0.32706354  0.66308726  0.89259407  1
  Li  Li1  1  0.99684192  0.99786889  0.99269991  1
  Li  Li2  1  0.00044914  0.00049691  0.49547990  1
  Li  Li3  1  0.67031459  0.33590455  0.39574860  1
  Fe  Fe4  1  0.16853386  0.82918626  0.21414707  1
  Fe  Fe5  1  0.16885551  0.33873893  0.21422682  1
  Fe  Fe6  1  0.33851210  0.16900225  0.71479363  1
  Ni  Ni7  1  0.65985223  0.83093131  0.21436693  1
  Ni  Ni8  1  0.82848055  0.66091269  0.71395110  1
  Ni  Ni9  1  0.82779511  0.16785210  0.71396920  1
  Sn  Sn10  1  0.33994537  0.67197987  0.49189359  1
  Sn  Sn11  1  0.66254299  0.32978318  0.99032592  1
  O  O12  1  0.16908970  0.84450051  0.60070339  1
  O  O13  1  0.03455173  0.51790427  0.34144411  1
  O  O14  1  0.32943455  0.66752449  0.10662565  1
  O  O15  1  0.99946250  0.99612516  0.30727478  1
  O  O16  1  0.99220643  0.99696819  0.80413849  1
  O  O17  1  0.17287087  0.32636424  0.59904071  1
  O  O18  1  0.48547527  0.96969520  0.34054562  1
  O  O19  1  0.49491996  0.52882937  0.33922735  1
  O  O20  1  0.32115750  0.15979093  0.10025753  1
  O  O21  1  0.69087205  0.84820652  0.60211437  1
  O  O22  1  0.50940386  0.48007210  0.84003971  1
  O  O23  1  0.50638365  0.02868264  0.83993186  1
  O  O24  1  0.67263240  0.33626457  0.61163945  1
  O  O25  1  0.84128347  0.67659498  0.09812446  1
  O  O26  1  0.95750199  0.47558078  0.83359874  1
  O  O27  1  0.83356514  0.15145186  0.09893705  1
