# generated using pymatgen
data_SbP6(WO8)3
_symmetry_space_group_name_H-M   'P 1'
_cell_length_a   9.04807248
_cell_length_b   9.04807256
_cell_length_c   9.04807185
_cell_angle_alpha   58.61689803
_cell_angle_beta   58.61689876
_cell_angle_gamma   58.61689939
_symmetry_Int_Tables_number   1
_chemical_formula_structural   SbP6(WO8)3
_chemical_formula_sum   'Sb1 P6 W3 O24'
_cell_volume   507.22370971
_cell_formula_units_Z   1
loop_
 _symmetry_equiv_pos_site_id
 _symmetry_equiv_pos_as_xyz
  1  'x, y, z'
loop_
 _atom_site_type_symbol
 _atom_site_label
 _atom_site_symmetry_multiplicity
 _atom_site_fract_x
 _atom_site_fract_y
 _atom_site_fract_z
 _atom_site_occupancy
  Sb  Sb0  1  0.85868922  0.85868922  0.85868922  1
  P  P1  1  0.03873119  0.75424781  0.45813377  1
  P  P2  1  0.45813377  0.03873119  0.75424781  1
  P  P3  1  0.75424781  0.45813377  0.03873119  1
  P  P4  1  0.26096155  0.52993160  0.95812442  1
  P  P5  1  0.52993160  0.95812442  0.26096155  1
  P  P6  1  0.95812442  0.26096155  0.52993160  1
  W  W7  1  0.14383732  0.14383732  0.14383732  1
  W  W8  1  0.35703184  0.35703184  0.35703184  1
  W  W9  1  0.64453224  0.64453224  0.64453224  1
  O  O10  1  0.11875282  0.30768345  0.48427872  1
  O  O11  1  0.30768345  0.48427872  0.11875282  1
  O  O12  1  0.05120826  0.93450018  0.28979184  1
  O  O13  1  0.48427872  0.11875282  0.30768345  1
  O  O14  1  0.21508233  0.59999643  0.40321620  1
  O  O15  1  0.02703438  0.76389696  0.62826543  1
  O  O16  1  0.28979184  0.05120826  0.93450018  1
  O  O17  1  0.40321620  0.21508233  0.59999643  1
  O  O18  1  0.59999643  0.40321620  0.21508233  1
  O  O19  1  0.22512715  0.36524488  0.98417188  1
  O  O20  1  0.09411577  0.70783592  0.94153872  1
  O  O21  1  0.36524488  0.98417188  0.22512715  1
  O  O22  1  0.62826543  0.02703438  0.76389696  1
  O  O23  1  0.93450018  0.28979184  0.05120826  1
  O  O24  1  0.76389696  0.62826543  0.02703438  1
  O  O25  1  0.43216601  0.55583925  0.78162234  1
  O  O26  1  0.55583925  0.78162234  0.43216601  1
  O  O27  1  0.70783592  0.94153872  0.09411577  1
  O  O28  1  0.98417188  0.22512715  0.36524488  1
  O  O29  1  0.78162234  0.43216601  0.55583925  1
  O  O30  1  0.49237527  0.86493019  0.72710568  1
  O  O31  1  0.94153872  0.09411577  0.70783592  1
  O  O32  1  0.72710568  0.49237527  0.86493019  1
  O  O33  1  0.86493019  0.72710568  0.49237527  1
