# generated using pymatgen
data_Ba4Ti11O26
_symmetry_space_group_name_H-M   'P 1'
_cell_length_a   7.86553311
_cell_length_b   15.83313198
_cell_length_c   10.02808775
_cell_angle_alpha   92.36891016
_cell_angle_beta   66.91009330
_cell_angle_gamma   75.61783450
_symmetry_Int_Tables_number   1
_chemical_formula_structural   Ba4Ti11O26
_chemical_formula_sum   'Ba8 Ti22 O52'
_cell_volume   1099.23694057
_cell_formula_units_Z   2
loop_
 _symmetry_equiv_pos_site_id
 _symmetry_equiv_pos_as_xyz
  1  'x, y, z'
loop_
 _atom_site_type_symbol
 _atom_site_label
 _atom_site_symmetry_multiplicity
 _atom_site_fract_x
 _atom_site_fract_y
 _atom_site_fract_z
 _atom_site_occupancy
  Ba  Ba0  1  0.57901134  0.05955829  0.76378410  1
  Ba  Ba1  1  0.09764627  0.05955829  0.76378410  1
  Ba  Ba2  1  0.91071141  0.45474563  0.22383256  1
  Ba  Ba3  1  0.41654473  0.44948412  0.21742641  1
  Ba  Ba4  1  0.58928859  0.54525437  0.77616744  1
  Ba  Ba5  1  0.08345527  0.55051588  0.78257359  1
  Ba  Ba6  1  0.92098866  0.94044171  0.23621590  1
  Ba  Ba7  1  0.40235373  0.94044171  0.23621590  1
  Ti  Ti8  1  0.64076173  0.11781732  0.10065922  1
  Ti  Ti9  1  0.14704224  0.12145738  0.08445815  1
  Ti  Ti10  1  0.94614920  0.16811657  0.43958404  1
  Ti  Ti11  1  0.44203407  0.16755072  0.44838013  1
  Ti  Ti12  1  0.73942827  0.24542188  0.77572259  1
  Ti  Ti13  1  0.25291153  0.26200815  0.23243034  1
  Ti  Ti14  1  0.75264998  0.26200815  0.23243034  1
  Ti  Ti15  1  0.54513642  0.32705100  0.56753930  1
  Ti  Ti16  1  0.06027228  0.32705100  0.56753930  1
  Ti  Ti17  1  0.34804601  0.37686068  0.90023782  1
  Ti  Ti18  1  0.87485550  0.37686068  0.90023782  1
  Ti  Ti19  1  0.15195399  0.62313932  0.09976218  1
  Ti  Ti20  1  0.62514450  0.62313932  0.09976218  1
  Ti  Ti21  1  0.95486358  0.67294900  0.43246070  1
  Ti  Ti22  1  0.43972772  0.67294900  0.43246070  1
  Ti  Ti23  1  0.24708847  0.73799185  0.76756966  1
  Ti  Ti24  1  0.74735002  0.73799185  0.76756966  1
  Ti  Ti25  1  0.76057173  0.75457812  0.22427741  1
  Ti  Ti26  1  0.55385080  0.83188343  0.56041596  1
  Ti  Ti27  1  0.05796593  0.83244928  0.55161987  1
  Ti  Ti28  1  0.85923827  0.88218268  0.89934078  1
  Ti  Ti29  1  0.35295776  0.87854262  0.91554185  1
  O  O30  1  0.75000000  0.00000000  0.00000000  1
  O  O31  1  0.25000000  0.00000000  0.00000000  1
  O  O32  1  0.56959723  0.07454048  0.28626605  1
  O  O33  1  0.06099086  0.07095154  0.30706674  1
  O  O34  1  0.87204910  0.13378383  0.62211897  1
  O  O35  1  0.40231775  0.10595077  0.58941373  1
  O  O36  1  0.21129160  0.15879529  0.91862151  1
  O  O37  1  0.70791460  0.17013441  0.91403539  1
  O  O38  1  0.37482643  0.13885085  0.11818262  1
  O  O39  1  0.86814110  0.13885085  0.11818262  1
  O  O40  1  0.68504884  0.20033334  0.43003219  1
  O  O41  1  0.18458663  0.20033334  0.43003219  1
  O  O42  1  0.49761810  0.26812717  0.75657100  1
  O  O43  1  0.97768373  0.26812717  0.75657100  1
  O  O44  1  0.51056575  0.24371001  0.23515949  1
  O  O45  1  0.00943894  0.23861881  0.24250231  1
  O  O46  1  0.81478649  0.30022569  0.57020134  1
  O  O47  1  0.32393820  0.29949443  0.55262916  1
  O  O48  1  0.61912775  0.36691165  0.89483385  1
  O  O49  1  0.10525751  0.38442898  0.90505500  1
  O  O50  1  0.28668609  0.33080277  0.08635742  1
  O  O51  1  0.79615371  0.33080277  0.08635742  1
  O  O52  1  0.12099231  0.36641236  0.38122563  1
  O  O53  1  0.63136870  0.36641236  0.38122563  1
  O  O54  1  0.42880655  0.42862960  0.70249387  1
  O  O55  1  0.94006998  0.42862960  0.70249387  1
  O  O56  1  0.25000000  0.50000000  0.00000000  1
  O  O57  1  0.75000000  0.50000000  0.00000000  1
  O  O58  1  0.07119345  0.57137040  0.29750613  1
  O  O59  1  0.55993002  0.57137040  0.29750613  1
  O  O60  1  0.37900769  0.63358764  0.61877437  1
  O  O61  1  0.86863130  0.63358764  0.61877437  1
  O  O62  1  0.21331391  0.66919723  0.91364258  1
  O  O63  1  0.70384629  0.66919723  0.91364258  1
  O  O64  1  0.88087225  0.63308835  0.10516615  1
  O  O65  1  0.39474249  0.61557102  0.09494500  1
  O  O66  1  0.68521351  0.69977431  0.42979866  1
  O  O67  1  0.17606180  0.70050557  0.44737084  1
  O  O68  1  0.49056106  0.76138119  0.75749769  1
  O  O69  1  0.98943425  0.75628999  0.76484051  1
  O  O70  1  0.00238190  0.73187283  0.24342900  1
  O  O71  1  0.52231627  0.73187283  0.24342900  1
  O  O72  1  0.31541337  0.79966666  0.56996781  1
  O  O73  1  0.81495116  0.79966666  0.56996781  1
  O  O74  1  0.12517357  0.86114915  0.88181738  1
  O  O75  1  0.63185890  0.86114915  0.88181738  1
  O  O76  1  0.28870840  0.84120471  0.08137849  1
  O  O77  1  0.79208540  0.82986559  0.08596461  1
  O  O78  1  0.62795090  0.86621617  0.37788103  1
  O  O79  1  0.09768225  0.89404923  0.41058627  1
  O  O80  1  0.43900914  0.92904846  0.69293326  1
  O  O81  1  0.93040277  0.92545952  0.71373395  1
