# generated using pymatgen
data_CdSiO3
_symmetry_space_group_name_H-M   'P 1'
_cell_length_a   9.85231616
_cell_length_b   9.74505728
_cell_length_c   5.51997141
_cell_angle_alpha   90.00000000
_cell_angle_beta   90.00000000
_cell_angle_gamma   90.00000000
_symmetry_Int_Tables_number   1
_chemical_formula_structural   CdSiO3
_chemical_formula_sum   'Cd8 Si8 O24'
_cell_volume   529.98010200
_cell_formula_units_Z   8
loop_
 _symmetry_equiv_pos_site_id
 _symmetry_equiv_pos_as_xyz
  1  'x, y, z'
loop_
 _atom_site_type_symbol
 _atom_site_label
 _atom_site_symmetry_multiplicity
 _atom_site_fract_x
 _atom_site_fract_y
 _atom_site_fract_z
 _atom_site_occupancy
  Cd  Cd0  1  0.00000000  0.89739844  0.25000000  1
  Cd  Cd1  1  0.00000000  0.27774199  0.25000000  1
  Cd  Cd2  1  0.00000000  0.72225801  0.75000000  1
  Cd  Cd3  1  0.00000000  0.10260156  0.75000000  1
  Cd  Cd4  1  0.50000000  0.39739844  0.25000000  1
  Cd  Cd5  1  0.50000000  0.77774199  0.25000000  1
  Cd  Cd6  1  0.50000000  0.22225801  0.75000000  1
  Cd  Cd7  1  0.50000000  0.60260156  0.75000000  1
  Si  Si8  1  0.20979544  0.58326070  0.08336172  1
  Si  Si9  1  0.20979544  0.41673930  0.58336172  1
  Si  Si10  1  0.29020456  0.08326070  0.08336172  1
  Si  Si11  1  0.29020456  0.91673930  0.58336172  1
  Si  Si12  1  0.70979544  0.08326070  0.41663828  1
  Si  Si13  1  0.70979544  0.91673930  0.91663828  1
  Si  Si14  1  0.79020456  0.41673930  0.91663828  1
  Si  Si15  1  0.79020456  0.58326070  0.41663828  1
  O  O16  1  0.12462984  0.09037510  0.09105576  1
  O  O17  1  0.12462984  0.90962490  0.59105576  1
  O  O18  1  0.13163491  0.27025246  0.56819244  1
  O  O19  1  0.13163491  0.72974754  0.06819244  1
  O  O20  1  0.15818296  0.50439008  0.82683740  1
  O  O21  1  0.15818296  0.49560992  0.32683740  1
  O  O22  1  0.34181704  0.99560992  0.32683740  1
  O  O23  1  0.34181704  0.00439008  0.82683740  1
  O  O24  1  0.36836509  0.22974754  0.06819244  1
  O  O25  1  0.36836509  0.77025246  0.56819244  1
  O  O26  1  0.37537016  0.59037510  0.09105576  1
  O  O27  1  0.37537016  0.40962490  0.59105576  1
  O  O28  1  0.62462984  0.40962490  0.90894424  1
  O  O29  1  0.62462984  0.59037510  0.40894424  1
  O  O30  1  0.63163491  0.22974754  0.43180756  1
  O  O31  1  0.63163491  0.77025246  0.93180756  1
  O  O32  1  0.65818296  0.99560992  0.17316260  1
  O  O33  1  0.65818296  0.00439008  0.67316260  1
  O  O34  1  0.84181704  0.49560992  0.17316260  1
  O  O35  1  0.84181704  0.50439008  0.67316260  1
  O  O36  1  0.86836509  0.27025246  0.93180756  1
  O  O37  1  0.86836509  0.72974754  0.43180756  1
  O  O38  1  0.87537016  0.09037510  0.40894424  1
  O  O39  1  0.87537016  0.90962490  0.90894424  1
