# generated using pymatgen
data_Ba2Ti6N2O11
_symmetry_space_group_name_H-M   'P 1'
_cell_length_a   3.91148727
_cell_length_b   8.00915750
_cell_length_c   9.27685720
_cell_angle_alpha   82.39688365
_cell_angle_beta   89.97790288
_cell_angle_gamma   75.81093659
_symmetry_Int_Tables_number   1
_chemical_formula_structural   Ba2Ti6N2O11
_chemical_formula_sum   'Ba2 Ti6 N2 O11'
_cell_volume   279.12404642
_cell_formula_units_Z   1
loop_
 _symmetry_equiv_pos_site_id
 _symmetry_equiv_pos_as_xyz
  1  'x, y, z'
loop_
 _atom_site_type_symbol
 _atom_site_label
 _atom_site_symmetry_multiplicity
 _atom_site_fract_x
 _atom_site_fract_y
 _atom_site_fract_z
 _atom_site_occupancy
  Ba  Ba0  1  0.54831894  0.90366555  0.77489958  1
  Ba  Ba1  1  0.44940511  0.10289838  0.23596139  1
  Ti  Ti2  1  0.11750961  0.77152009  0.09419087  1
  Ti  Ti3  1  0.16965694  0.65867294  0.43922777  1
  Ti  Ti4  1  0.23732907  0.52161472  0.77152119  1
  Ti  Ti5  1  0.75161836  0.49895530  0.22009518  1
  Ti  Ti6  1  0.83117674  0.33671261  0.55965253  1
  Ti  Ti7  1  0.88361924  0.23247298  0.91216870  1
  N  N8  1  0.64169998  0.72053132  0.11079458  1
  N  N9  1  0.00174523  0.00464151  0.00034665  1
  O  O10  1  0.07520277  0.85128104  0.30318963  1
  O  O11  1  0.12849066  0.73641963  0.61696401  1
  O  O12  1  0.16797317  0.66486388  0.90795165  1
  O  O13  1  0.70256345  0.59545043  0.42852892  1
  O  O14  1  0.75476718  0.48758847  0.75393137  1
  O  O15  1  0.24488195  0.51327483  0.24980723  1
  O  O16  1  0.29726587  0.40397261  0.57061904  1
  O  O17  1  0.35698806  0.28443679  0.88332899  1
  O  O18  1  0.82869191  0.33624961  0.08895396  1
  O  O19  1  0.87718643  0.25013428  0.39134121  1
  O  O20  1  0.92357132  0.14981702  0.70416055  1
