# generated using pymatgen
data_Te4Mo3WS4
_symmetry_space_group_name_H-M   'P 1'
_cell_length_a   3.36334840
_cell_length_b   3.36341862
_cell_length_c   38.31731601
_cell_angle_alpha   90.00040816
_cell_angle_beta   90.00000000
_cell_angle_gamma   119.99930937
_symmetry_Int_Tables_number   1
_chemical_formula_structural   Te4Mo3WS4
_chemical_formula_sum   'Te4 Mo3 W1 S4'
_cell_volume   375.38897718
_cell_formula_units_Z   1
loop_
 _symmetry_equiv_pos_site_id
 _symmetry_equiv_pos_as_xyz
  1  'x, y, z'
loop_
 _atom_site_type_symbol
 _atom_site_label
 _atom_site_symmetry_multiplicity
 _atom_site_fract_x
 _atom_site_fract_y
 _atom_site_fract_z
 _atom_site_occupancy
  Te  Te0  1  0.33335330  0.66670761  0.33139501  1
  Te  Te1  1  0.33335500  0.66671099  0.70679152  1
  Te  Te2  1  0.33335623  0.66671347  0.23217913  1
  Te  Te3  1  0.33335108  0.66670315  0.60825979  1
  Mo  Mo4  1  0.33331147  0.66662294  0.09392431  1
  Mo  Mo5  1  0.33330852  0.66661703  0.46966503  1
  Mo  Mo6  1  0.66669019  0.33338038  0.65753840  1
  W  W7  1  0.66668793  0.33337585  0.28179905  1
  S  S8  1  0.66664301  0.33328501  0.05443865  1
  S  S9  1  0.66664886  0.33329673  0.43022910  1
  S  S10  1  0.66664852  0.33329603  0.13342844  1
  S  S11  1  0.66664590  0.33329079  0.50909956  1
