# generated using pymatgen
data_Li3V5O12
_symmetry_space_group_name_H-M   'P 1'
_cell_length_a   8.90402395
_cell_length_b   12.52573189
_cell_length_c   9.27413317
_cell_angle_alpha   90.00000000
_cell_angle_beta   90.00000000
_cell_angle_gamma   91.11566336
_symmetry_Int_Tables_number   1
_chemical_formula_structural   Li3V5O12
_chemical_formula_sum   'Li12 V20 O48'
_cell_volume   1034.14258063
_cell_formula_units_Z   4
loop_
 _symmetry_equiv_pos_site_id
 _symmetry_equiv_pos_as_xyz
  1  'x, y, z'
loop_
 _atom_site_type_symbol
 _atom_site_label
 _atom_site_symmetry_multiplicity
 _atom_site_fract_x
 _atom_site_fract_y
 _atom_site_fract_z
 _atom_site_occupancy
  Li  Li0  1  0.07250496  0.69766258  0.08745647  1
  Li  Li1  1  0.06474642  0.34682670  0.51126381  1
  Li  Li2  1  0.18008069  0.18108106  0.77581313  1
  Li  Li3  1  0.31991931  0.31891894  0.27581313  1
  Li  Li4  1  0.42749504  0.80233742  0.58745647  1
  Li  Li5  1  0.43525358  0.15317330  0.01126381  1
  Li  Li6  1  0.56474642  0.84682670  0.98873619  1
  Li  Li7  1  0.57250496  0.19766258  0.41254353  1
  Li  Li8  1  0.68008069  0.68108106  0.72418687  1
  Li  Li9  1  0.81991931  0.81891894  0.22418687  1
  Li  Li10  1  0.93525358  0.65317330  0.48873619  1
  Li  Li11  1  0.92749504  0.30233742  0.91254353  1
  V  V12  1  0.24880315  0.89063451  0.02358955  1
  V  V13  1  0.25119685  0.60936549  0.52358955  1
  V  V14  1  0.25379715  0.38166526  0.96880424  1
  V  V15  1  0.24620285  0.11833474  0.46880424  1
  V  V16  1  0.75379715  0.88166526  0.53119576  1
  V  V17  1  0.74620285  0.61833474  0.03119576  1
  V  V18  1  0.74880315  0.39063451  0.47641045  1
  V  V19  1  0.75119685  0.10936549  0.97641045  1
  V  V20  1  0.03636020  0.48981763  0.24684449  1
  V  V21  1  0.11497608  0.85128168  0.38150727  1
  V  V22  1  0.11104968  0.14107720  0.11544496  1
  V  V23  1  0.38502392  0.64871832  0.88150727  1
  V  V24  1  0.38895032  0.35892280  0.61544496  1
  V  V25  1  0.46363980  0.01018237  0.74684449  1
  V  V26  1  0.53636020  0.98981763  0.25315551  1
  V  V27  1  0.61104968  0.64107720  0.38455504  1
  V  V28  1  0.61497608  0.35128168  0.11849273  1
  V  V29  1  0.88895032  0.85892280  0.88455504  1
  V  V30  1  0.88502392  0.14871832  0.61849273  1
  V  V31  1  0.96363980  0.51018237  0.75315551  1
  O  O32  1  0.06424183  0.43893500  0.87993228  1
  O  O33  1  0.06955522  0.90508668  0.88982352  1
  O  O34  1  0.06363390  0.60718924  0.65580078  1
  O  O35  1  0.07228355  0.19181999  0.57657346  1
  O  O36  1  0.09956358  0.59016898  0.36363902  1
  O  O37  1  0.12333522  0.83905786  0.19192937  1
  O  O38  1  0.14239827  0.98144302  0.42564877  1
  O  O39  1  0.12580081  0.24400106  0.98682416  1
  O  O40  1  0.17557828  0.18745846  0.28426911  1
  O  O41  1  0.19068186  0.42765349  0.16869084  1
  O  O42  1  0.24275880  0.77189928  0.47378835  1
  O  O43  1  0.25724120  0.72810072  0.97378835  1
  O  O44  1  0.24437501  0.05010213  0.05377381  1
  O  O45  1  0.25562499  0.44989787  0.55377381  1
  O  O46  1  0.30931814  0.07234651  0.66869084  1
  O  O47  1  0.32442172  0.31254154  0.78426911  1
  O  O48  1  0.35760173  0.51855698  0.92564877  1
  O  O49  1  0.37419919  0.25599894  0.48682416  1
  O  O50  1  0.37666478  0.66094214  0.69192937  1
  O  O51  1  0.40043642  0.90983102  0.86363902  1
  O  O52  1  0.43636610  0.89281076  0.15580078  1
  O  O53  1  0.43044478  0.59491332  0.38982352  1
  O  O54  1  0.42771645  0.30818001  0.07657346  1
  O  O55  1  0.43575817  0.06106500  0.37993228  1
  O  O56  1  0.56424183  0.93893500  0.62006772  1
  O  O57  1  0.57228355  0.69181999  0.92342654  1
  O  O58  1  0.56955522  0.40508668  0.61017648  1
  O  O59  1  0.56363390  0.10718924  0.84419922  1
  O  O60  1  0.59956358  0.09016898  0.13636098  1
  O  O61  1  0.62333522  0.33905786  0.30807063  1
  O  O62  1  0.62580081  0.74400106  0.51317584  1
  O  O63  1  0.64239827  0.48144302  0.07435123  1
  O  O64  1  0.67557828  0.68745846  0.21573089  1
  O  O65  1  0.69068186  0.92765349  0.33130916  1
  O  O66  1  0.74437501  0.55010213  0.44622619  1
  O  O67  1  0.75562499  0.94989787  0.94622619  1
  O  O68  1  0.74275880  0.27189928  0.02621065  1
  O  O69  1  0.75724120  0.22810072  0.52621165  1
  O  O70  1  0.80931814  0.57234651  0.83130916  1
  O  O71  1  0.82442172  0.81254154  0.71573089  1
  O  O72  1  0.87419919  0.75599894  0.01317584  1
  O  O73  1  0.85760173  0.01855698  0.57435123  1
  O  O74  1  0.87666478  0.16094214  0.80807063  1
  O  O75  1  0.90043642  0.40983102  0.63636098  1
  O  O76  1  0.92771645  0.80818001  0.42342654  1
  O  O77  1  0.93636610  0.39281076  0.34419922  1
  O  O78  1  0.93044478  0.09491332  0.11017648  1
  O  O79  1  0.93575817  0.56106500  0.12006772  1
