# generated using pymatgen
data_Li9V19O48
_symmetry_space_group_name_H-M   'P 1'
_cell_length_a   5.08133865
_cell_length_b   10.29972608
_cell_length_c   17.23841496
_cell_angle_alpha   89.96067155
_cell_angle_beta   89.36630928
_cell_angle_gamma   89.91273988
_symmetry_Int_Tables_number   1
_chemical_formula_structural   Li9V19O48
_chemical_formula_sum   'Li9 V19 O48'
_cell_volume   902.14008770
_cell_formula_units_Z   1
loop_
 _symmetry_equiv_pos_site_id
 _symmetry_equiv_pos_as_xyz
  1  'x, y, z'
loop_
 _atom_site_type_symbol
 _atom_site_label
 _atom_site_symmetry_multiplicity
 _atom_site_fract_x
 _atom_site_fract_y
 _atom_site_fract_z
 _atom_site_occupancy
  Li  Li0  1  0.09482556  0.25015562  0.25100558  1
  Li  Li1  1  0.25302188  0.41749731  0.96931349  1
  Li  Li2  1  0.25120744  0.58197659  0.47254355  1
  Li  Li3  1  0.25258187  0.91830286  0.47281033  1
  Li  Li4  1  0.23983929  0.25755709  0.80226177  1
  Li  Li5  1  0.75809271  0.75395338  0.19254901  1
  Li  Li6  1  0.75075460  0.91845862  0.02856209  1
  Li  Li7  1  0.74388604  0.25217622  0.70337700  1
  Li  Li8  1  0.90605241  0.75067428  0.74900507  1
  V  V9  1  0.40865052  0.74737893  0.75046801  1
  V  V10  1  0.59429673  0.24747563  0.24838374  1
  V  V11  1  0.24452044  0.75103980  0.29952885  1
  V  V12  1  0.22976975  0.74980582  0.94406746  1
  V  V13  1  0.22345075  0.02967538  0.65675118  1
  V  V14  1  0.22169503  0.47077934  0.65503106  1
  V  V15  1  0.23781670  0.07143181  0.97366120  1
  V  V16  1  0.28928967  0.52663238  0.15444026  1
  V  V17  1  0.28858835  0.97262272  0.15715847  1
  V  V18  1  0.28598579  0.25029300  0.44368089  1
  V  V19  1  0.71390501  0.75036957  0.55746681  1
  V  V20  1  0.71354719  0.47156313  0.84208990  1
  V  V21  1  0.71586376  0.02495409  0.84527588  1
  V  V22  1  0.75932376  0.06881804  0.52890759  1
  V  V23  1  0.75746316  0.43123423  0.52844723  1
  V  V24  1  0.76581600  0.57047482  0.02302274  1
  V  V25  1  0.77255491  0.52920009  0.34275887  1
  V  V26  1  0.77613139  0.97082770  0.34413866  1
  V  V27  1  0.76936017  0.24889294  0.05614169  1
  O  O28  1  0.05899309  0.23670517  0.99669705  1
  O  O29  1  0.05682520  0.61585356  0.36547623  1
  O  O30  1  0.05726069  0.88189517  0.36837776  1
  O  O31  1  0.10902614  0.63063603  0.21255172  1
  O  O32  1  0.09191214  0.87438694  0.21631324  1
  O  O33  1  0.08610516  0.11918194  0.46535866  1
  O  O34  1  0.08396078  0.38113290  0.46488102  1
  O  O35  1  0.10193616  0.00806276  0.07258092  1
  O  O36  1  0.07567119  0.49813303  0.07802879  1
  O  O37  1  0.17550774  0.74727076  0.84320474  1
  O  O38  1  0.17667147  0.61963700  0.70386652  1
  O  O39  1  0.17904893  0.88036381  0.70511938  1
  O  O40  1  0.36958012  0.12108359  0.20744122  1
  O  O41  1  0.36414698  0.38290288  0.20391067  1
  O  O42  1  0.36653393  0.25150636  0.34489868  1
  O  O43  1  0.42864260  0.49579169  0.57450628  1
  O  O44  1  0.43263730  0.00584671  0.57672131  1
  O  O45  1  0.39984683  0.89010701  0.96634021  1
  O  O46  1  0.44086536  0.62381643  0.96681391  1
  O  O47  1  0.39465908  0.12607519  0.71415542  1
  O  O48  1  0.40377582  0.37396787  0.70891313  1
  O  O49  1  0.41832581  0.10776075  0.88321034  1
  O  O50  1  0.44797283  0.38463669  0.86946226  1
  O  O51  1  0.45219342  0.75046809  0.49785838  1
  O  O52  1  0.57859217  0.25060540  0.50688509  1
  O  O53  1  0.58091701  0.60725323  0.11832097  1
  O  O54  1  0.55865038  0.88896635  0.13118654  1
  O  O55  1  0.56297095  0.62728246  0.29081734  1
  O  O56  1  0.55819180  0.87446195  0.29511438  1
  O  O57  1  0.56028357  0.12318933  0.03400794  1
  O  O58  1  0.59912748  0.38976610  0.03455121  1
  O  O59  1  0.61118880  0.01438780  0.43103053  1
  O  O60  1  0.60889236  0.48786028  0.42977238  1
  O  O61  1  0.62855108  0.75199435  0.65713907  1
  O  O62  1  0.63022858  0.62108203  0.79345363  1
  O  O63  1  0.63644572  0.88079926  0.79668783  1
  O  O64  1  0.82698827  0.11727623  0.29264718  1
  O  O65  1  0.82046533  0.38212352  0.29117103  1
  O  O66  1  0.82479665  0.24637491  0.15730771  1
  O  O67  1  0.90247745  0.50851394  0.93019033  1
  O  O68  1  0.92457749  0.99657220  0.92468066  1
  O  O69  1  0.90372708  0.60854929  0.53684569  1
  O  O70  1  0.90487630  0.89166942  0.53674627  1
  O  O71  1  0.89045616  0.12056142  0.78644641  1
  O  O72  1  0.91156890  0.38185357  0.78410482  1
  O  O73  1  0.92337896  0.11229583  0.61899315  1
  O  O74  1  0.92068046  0.38707348  0.61780714  1
  O  O75  1  0.94157540  0.73804693  0.00455446  1
