# generated using pymatgen
data_Li2MnPO4F
_symmetry_space_group_name_H-M   'P 1'
_cell_length_a   10.75810108
_cell_length_b   6.55837678
_cell_length_c   11.21600936
_cell_angle_alpha   90.00000000
_cell_angle_beta   90.00000000
_cell_angle_gamma   90.00000000
_symmetry_Int_Tables_number   1
_chemical_formula_structural   Li2MnPO4F
_chemical_formula_sum   'Li16 Mn8 P8 O32 F8'
_cell_volume   791.35317087
_cell_formula_units_Z   8
loop_
 _symmetry_equiv_pos_site_id
 _symmetry_equiv_pos_as_xyz
  1  'x, y, z'
loop_
 _atom_site_type_symbol
 _atom_site_label
 _atom_site_symmetry_multiplicity
 _atom_site_fract_x
 _atom_site_fract_y
 _atom_site_fract_z
 _atom_site_occupancy
  Li  Li0  1  0.02653547  0.75000000  0.27112677  1
  Li  Li1  1  0.23142051  0.25000000  0.08415718  1
  Li  Li2  1  0.24024422  0.50960847  0.33183600  1
  Li  Li3  1  0.24024422  0.99039153  0.33183600  1
  Li  Li4  1  0.25975578  0.00960847  0.83183600  1
  Li  Li5  1  0.25975578  0.49039153  0.83183600  1
  Li  Li6  1  0.26857949  0.75000000  0.58415718  1
  Li  Li7  1  0.47346453  0.25000000  0.77112677  1
  Li  Li8  1  0.52653547  0.75000000  0.22887323  1
  Li  Li9  1  0.73142051  0.25000000  0.41584282  1
  Li  Li10  1  0.74024422  0.50960847  0.16816400  1
  Li  Li11  1  0.74024422  0.99039153  0.16816400  1
  Li  Li12  1  0.75975578  0.00960847  0.66816400  1
  Li  Li13  1  0.75975578  0.49039153  0.66816400  1
  Li  Li14  1  0.76857949  0.75000000  0.91584282  1
  Li  Li15  1  0.97346453  0.25000000  0.72887323  1
  Mn  Mn16  1  0.00000000  0.00000000  0.00000000  1
  Mn  Mn17  1  0.00000000  0.50000000  0.00000000  1
  Mn  Mn18  1  0.00000000  0.00000000  0.50000000  1
  Mn  Mn19  1  0.00000000  0.50000000  0.50000000  1
  Mn  Mn20  1  0.50000000  0.00000000  0.50000000  1
  Mn  Mn21  1  0.50000000  0.50000000  0.50000000  1
  Mn  Mn22  1  0.50000000  0.00000000  0.00000000  1
  Mn  Mn23  1  0.50000000  0.50000000  0.00000000  1
  P  P24  1  0.02050277  0.75000000  0.74556179  1
  P  P25  1  0.24550134  0.75000000  0.08059373  1
  P  P26  1  0.25449866  0.25000000  0.58059373  1
  P  P27  1  0.47949723  0.25000000  0.24556179  1
  P  P28  1  0.52050277  0.75000000  0.75443821  1
  P  P29  1  0.74550134  0.75000000  0.41940627  1
  P  P30  1  0.75449866  0.25000000  0.91940627  1
  P  P31  1  0.97949723  0.25000000  0.25443821  1
  O  O32  1  0.02882209  0.25000000  0.12325132  1
  O  O33  1  0.03480037  0.05727805  0.31585665  1
  O  O34  1  0.03480037  0.44272195  0.31585665  1
  O  O35  1  0.11072991  0.25000000  0.56254239  1
  O  O36  1  0.16529251  0.75000000  0.74428716  1
  O  O37  1  0.19503677  0.55501275  0.01733132  1
  O  O38  1  0.19503677  0.94498725  0.01733132  1
  O  O39  1  0.21491964  0.75000000  0.21553759  1
  O  O40  1  0.28508036  0.25000000  0.71553759  1
  O  O41  1  0.30496323  0.05501275  0.51733132  1
  O  O42  1  0.30496323  0.44498725  0.51733132  1
  O  O43  1  0.33470749  0.25000000  0.24428716  1
  O  O44  1  0.38927009  0.75000000  0.06254239  1
  O  O45  1  0.46519963  0.55727805  0.81585665  1
  O  O46  1  0.46519963  0.94272195  0.81585665  1
  O  O47  1  0.47117791  0.75000000  0.62325132  1
  O  O48  1  0.52882209  0.25000000  0.37674868  1
  O  O49  1  0.53480037  0.05727805  0.18414335  1
  O  O50  1  0.53480037  0.44272195  0.18414335  1
  O  O51  1  0.61072991  0.25000000  0.93745761  1
  O  O52  1  0.66529251  0.75000000  0.75571284  1
  O  O53  1  0.69503677  0.55501275  0.48266868  1
  O  O54  1  0.69503677  0.94498725  0.48266868  1
  O  O55  1  0.71491964  0.75000000  0.28446241  1
  O  O56  1  0.78508036  0.25000000  0.78446241  1
  O  O57  1  0.80496323  0.05501275  0.98266868  1
  O  O58  1  0.80496323  0.44498725  0.98266868  1
  O  O59  1  0.83470749  0.25000000  0.25571284  1
  O  O60  1  0.88927009  0.75000000  0.43745761  1
  O  O61  1  0.96519963  0.55727805  0.68414335  1
  O  O62  1  0.96519963  0.94272195  0.68414335  1
  O  O63  1  0.97117791  0.75000000  0.87674868  1
  F  F64  1  0.05501635  0.25000000  0.87824376  1
  F  F65  1  0.13552313  0.75000000  0.46669973  1
  F  F66  1  0.36447687  0.25000000  0.96669973  1
  F  F67  1  0.44498365  0.75000000  0.37824376  1
  F  F68  1  0.55501635  0.25000000  0.62175624  1
  F  F69  1  0.63552313  0.75000000  0.03330027  1
  F  F70  1  0.86447687  0.25000000  0.53330027  1
  F  F71  1  0.94498365  0.75000000  0.12175624  1
