# generated using pymatgen
data_Li4Ti3Cr3(SnO8)2
_symmetry_space_group_name_H-M   'P 1'
_cell_length_a   5.96602855
_cell_length_b   5.97359861
_cell_length_c   9.81762288
_cell_angle_alpha   90.00466779
_cell_angle_beta   89.91166568
_cell_angle_gamma   120.04776640
_symmetry_Int_Tables_number   1
_chemical_formula_structural   Li4Ti3Cr3(SnO8)2
_chemical_formula_sum   'Li4 Ti3 Cr3 Sn2 O16'
_cell_volume   302.86455447
_cell_formula_units_Z   1
loop_
 _symmetry_equiv_pos_site_id
 _symmetry_equiv_pos_as_xyz
  1  'x, y, z'
loop_
 _atom_site_type_symbol
 _atom_site_label
 _atom_site_symmetry_multiplicity
 _atom_site_fract_x
 _atom_site_fract_y
 _atom_site_fract_z
 _atom_site_occupancy
  Li  Li0  1  0.33077410  0.66540018  0.89288499  1
  Li  Li1  1  0.99817902  0.99910109  0.99244234  1
  Li  Li2  1  0.99817810  0.99909754  0.49408776  1
  Li  Li3  1  0.66703549  0.33352945  0.39673399  1
  Ti  Ti4  1  0.34058061  0.17030536  0.71530502  1
  Ti  Ti5  1  0.16954034  0.82931362  0.21522925  1
  Ti  Ti6  1  0.16953914  0.34025460  0.21522879  1
  Cr  Cr7  1  0.65954117  0.82976939  0.21364860  1
  Cr  Cr8  1  0.82980551  0.66133202  0.71429577  1
  Cr  Cr9  1  0.82981134  0.16851180  0.71428143  1
  Sn  Sn10  1  0.33937262  0.66970486  0.49375938  1
  Sn  Sn11  1  0.67207001  0.33604183  0.98841161  1
  O  O12  1  0.16694045  0.84425551  0.60171358  1
  O  O13  1  0.03699452  0.51851812  0.33974695  1
  O  O14  1  0.32691638  0.66347875  0.10504756  1
  O  O15  1  0.99833506  0.99916944  0.30902593  1
  O  O16  1  0.00466461  0.00235183  0.80883516  1
  O  O17  1  0.16693705  0.32269205  0.60171014  1
  O  O18  1  0.47841075  0.96481832  0.33740230  1
  O  O19  1  0.47841193  0.51361936  0.33740847  1
  O  O20  1  0.32667572  0.16333134  0.10169938  1
  O  O21  1  0.68209771  0.84105426  0.59930917  1
  O  O22  1  0.51060289  0.47761449  0.83739970  1
  O  O23  1  0.51059911  0.03301086  0.83739650  1
  O  O24  1  0.65674826  0.32837959  0.60660563  1
  O  O25  1  0.84325755  0.67903546  0.10071563  1
  O  O26  1  0.96473085  0.48237997  0.83680194  1
  O  O27  1  0.84324972  0.16422592  0.10071203  1
