# generated using pymatgen
data_LiMnP2O7
_symmetry_space_group_name_H-M   'P 1'
_cell_length_a   7.12461749
_cell_length_b   8.18946268
_cell_length_c   9.67559764
_cell_angle_alpha   90.00302422
_cell_angle_beta   111.22860516
_cell_angle_gamma   89.99367795
_symmetry_Int_Tables_number   1
_chemical_formula_structural   LiMnP2O7
_chemical_formula_sum   'Li4 Mn4 P8 O28'
_cell_volume   526.23213684
_cell_formula_units_Z   4
loop_
 _symmetry_equiv_pos_site_id
 _symmetry_equiv_pos_as_xyz
  1  'x, y, z'
loop_
 _atom_site_type_symbol
 _atom_site_label
 _atom_site_symmetry_multiplicity
 _atom_site_fract_x
 _atom_site_fract_y
 _atom_site_fract_z
 _atom_site_occupancy
  Li  Li0  1  0.91449664  0.37819119  0.13256189  1
  Li  Li1  1  0.89823434  0.57776552  0.49274681  1
  Li  Li2  1  0.41445976  0.12187259  0.63249657  1
  Li  Li3  1  0.39825390  0.92228686  0.99277130  1
  Mn  Mn4  1  0.49582978  0.50151951  0.99924763  1
  Mn  Mn5  1  0.48692452  0.50207040  0.49922765  1
  Mn  Mn6  1  0.98670479  0.99789910  0.99920574  1
  Mn  Mn7  1  0.99584009  0.99846593  0.49926234  1
  P  P8  1  0.85999840  0.74264139  0.20498371  1
  P  P9  1  0.64609672  0.24984352  0.30014600  1
  P  P10  1  0.75899620  0.82703763  0.68298703  1
  P  P11  1  0.74211903  0.32061505  0.81482816  1
  P  P12  1  0.25897822  0.67305103  0.18297404  1
  P  P13  1  0.24204116  0.17931729  0.31481191  1
  P  P14  1  0.36005914  0.75737816  0.70500602  1
  P  P15  1  0.14617380  0.25010126  0.80017407  1
  O  O16  1  0.82508948  0.89424378  0.10723450  1
  O  O17  1  0.92382002  0.77261197  0.37096508  1
  O  O18  1  0.82536118  0.13308198  0.34734291  1
  O  O19  1  0.67908277  0.62745200  0.15933546  1
  O  O20  1  0.95967818  0.35856607  0.80567751  1
  O  O21  1  0.61246534  0.29556021  0.14125751  1
  O  O22  1  0.78653942  0.96479362  0.58574974  1
  O  O23  1  0.90206745  0.83112167  0.84605573  1
  O  O24  1  0.67582758  0.39649658  0.40703215  1
  O  O25  1  0.75343861  0.65523562  0.62020314  1
  O  O26  1  0.73999974  0.14661678  0.86820389  1
  O  O27  1  0.45964546  0.14141566  0.30568405  1
  O  O28  1  0.58084557  0.33231431  0.65662838  1
  O  O29  1  0.72646272  0.45052910  0.92460213  1
  O  O30  1  0.28656657  0.53524721  0.08573034  1
  O  O31  1  0.40208221  0.66890885  0.34604719  1
  O  O32  1  0.53245357  0.87048274  0.67890083  1
  O  O33  1  0.25337925  0.84478630  0.12021363  1
  O  O34  1  0.23989569  0.35339522  0.36818463  1
  O  O35  1  0.32531454  0.60570419  0.60721265  1
  O  O36  1  0.08077680  0.16764443  0.15663548  1
  O  O37  1  0.22644351  0.04944061  0.42457032  1
  O  O38  1  0.42387283  0.72741078  0.87094167  1
  O  O39  1  0.03246787  0.62957378  0.17891337  1
  O  O40  1  0.32536404  0.36697609  0.84727843  1
  O  O41  1  0.17903048  0.87242376  0.65928257  1
  O  O42  1  0.11253341  0.20439852  0.64124106  1
  O  O43  1  0.17591323  0.10352373  0.90702279  1
