# generated using pymatgen
data_LiV3O4
_symmetry_space_group_name_H-M   'P 1'
_cell_length_a   5.31112403
_cell_length_b   6.10247194
_cell_length_c   6.16957711
_cell_angle_alpha   120.37727146
_cell_angle_beta   54.50936130
_cell_angle_gamma   150.52314599
_symmetry_Int_Tables_number   1
_chemical_formula_structural   LiV3O4
_chemical_formula_sum   'Li1 V3 O4'
_cell_volume   80.11479934
_cell_formula_units_Z   1
loop_
 _symmetry_equiv_pos_site_id
 _symmetry_equiv_pos_as_xyz
  1  'x, y, z'
loop_
 _atom_site_type_symbol
 _atom_site_label
 _atom_site_symmetry_multiplicity
 _atom_site_fract_x
 _atom_site_fract_y
 _atom_site_fract_z
 _atom_site_occupancy
  Li  Li0  1  0.99991326  0.49995035  0.00001792  1
  V  V1  1  0.99990614  0.49994200  0.50001457  1
  V  V2  1  0.99987350  0.99991069  0.00001187  1
  V  V3  1  0.99987979  0.99991028  0.50001105  1
  O  O4  1  0.50064323  0.00070817  0.73845898  1
  O  O5  1  0.50000135  0.49991548  0.24990781  1
  O  O6  1  0.49917863  0.99919491  0.26157305  1
  O  O7  1  0.49976110  0.49990411  0.75011074  1
