# generated using pymatgen
data_V6O7F5
_symmetry_space_group_name_H-M   'P 1'
_cell_length_a   4.69214614
_cell_length_b   4.69884485
_cell_length_c   9.31877404
_cell_angle_alpha   90.00000000
_cell_angle_beta   90.00000000
_cell_angle_gamma   92.69930770
_symmetry_Int_Tables_number   1
_chemical_formula_structural   V6O7F5
_chemical_formula_sum   'V6 O7 F5'
_cell_volume   205.22925796
_cell_formula_units_Z   1
loop_
 _symmetry_equiv_pos_site_id
 _symmetry_equiv_pos_as_xyz
  1  'x, y, z'
loop_
 _atom_site_type_symbol
 _atom_site_label
 _atom_site_symmetry_multiplicity
 _atom_site_fract_x
 _atom_site_fract_y
 _atom_site_fract_z
 _atom_site_occupancy
  V  V0  1  0.00826456  0.98350331  0.99330658  1
  V  V1  1  0.00826456  0.98350331  0.34002642  1
  V  V2  1  0.04306454  0.00736581  0.66666700  1
  V  V3  1  0.49987897  0.48886028  0.16666700  1
  V  V4  1  0.47469737  0.51409074  0.84195937  1
  V  V5  1  0.47469737  0.51409074  0.49137363  1
  O  O6  1  0.19582551  0.80716717  0.49811321  1
  O  O7  1  0.19582551  0.80716717  0.83522079  1
  O  O8  1  0.29774571  0.30021264  0.01094780  1
  O  O9  1  0.29774571  0.30021264  0.32238520  1
  O  O10  1  0.31334591  0.31816919  0.66666700  1
  O  O11  1  0.69269306  0.68852013  0.00914019  1
  O  O12  1  0.69269306  0.68852013  0.32419281  1
  F  F13  1  0.20037769  0.79274705  0.16666700  1
  F  F14  1  0.69977205  0.71676542  0.66666700  1
  F  F15  1  0.80182398  0.18449724  0.16666700  1
  F  F16  1  0.80164173  0.20230351  0.83129298  1
  F  F17  1  0.80164173  0.20230351  0.50204102  1
