# generated using pymatgen
data_Mn6OF11
_symmetry_space_group_name_H-M   'P 1'
_cell_length_a   4.96780700
_cell_length_b   5.88859024
_cell_length_c   16.17940566
_cell_angle_alpha   90.33190495
_cell_angle_beta   89.81596436
_cell_angle_gamma   90.14044675
_symmetry_Int_Tables_number   1
_chemical_formula_structural   Mn6OF11
_chemical_formula_sum   'Mn12 O2 F22'
_cell_volume   473.29051609
_cell_formula_units_Z   2
loop_
 _symmetry_equiv_pos_site_id
 _symmetry_equiv_pos_as_xyz
  1  'x, y, z'
loop_
 _atom_site_type_symbol
 _atom_site_label
 _atom_site_symmetry_multiplicity
 _atom_site_fract_x
 _atom_site_fract_y
 _atom_site_fract_z
 _atom_site_occupancy
  Mn  Mn0  1  0.01751899  0.16381184  0.40906887  1
  Mn  Mn1  1  0.02391501  0.85463755  0.24682189  1
  Mn  Mn2  1  0.00435474  0.15060531  0.08813638  1
  Mn  Mn3  1  0.00046197  0.17248944  0.75076139  1
  Mn  Mn4  1  0.00125362  0.83129481  0.58189473  1
  Mn  Mn5  1  0.00017863  0.82711569  0.91839480  1
  Mn  Mn6  1  0.50334093  0.32760787  0.58028103  1
  Mn  Mn7  1  0.50654775  0.33255542  0.92176181  1
  Mn  Mn8  1  0.47742903  0.31687492  0.25314896  1
  Mn  Mn9  1  0.48503330  0.68438616  0.09296170  1
  Mn  Mn10  1  0.50350755  0.66947419  0.41330241  1
  Mn  Mn11  1  0.49928537  0.66893671  0.74991433  1
  O  O12  1  0.21602995  0.09250796  0.30126342  1
  O  O13  1  0.20284736  0.90256066  0.14152323  1
  F  F14  1  0.23229646  0.10467459  0.64008566  1
  F  F15  1  0.22105044  0.10951841  0.97719003  1
  F  F16  1  0.23723745  0.89470848  0.47291081  1
  F  F17  1  0.22846144  0.89563519  0.80814228  1
  F  F18  1  0.27151384  0.39680171  0.13921759  1
  F  F19  1  0.26557733  0.59790576  0.30568161  1
  F  F20  1  0.26821610  0.39468483  0.47189294  1
  F  F21  1  0.26870179  0.60314418  0.64002562  1
  F  F22  1  0.27258257  0.39520629  0.81011443  1
  F  F23  1  0.28079488  0.61021174  0.97690994  1
  F  F24  1  0.74550033  0.38559537  0.03417681  1
  F  F25  1  0.74233284  0.62879936  0.19996099  1
  F  F26  1  0.72219508  0.38237945  0.36018212  1
  F  F27  1  0.72635009  0.60923102  0.52453997  1
  F  F28  1  0.73314239  0.60137266  0.85990097  1
  F  F29  1  0.73063932  0.39465925  0.69122048  1
  F  F30  1  0.75163816  0.12258778  0.18838652  1
  F  F31  1  0.78031963  0.10797170  0.51928898  1
  F  F32  1  0.78726017  0.87591976  0.35118577  1
  F  F33  1  0.75570430  0.89318902  0.02670924  1
  F  F34  1  0.76782023  0.10361415  0.86107542  1
  F  F35  1  0.76895897  0.89733079  0.69196688  1
