# generated using pymatgen
data_Li4Ti5Cr3O16
_symmetry_space_group_name_H-M   'P 1'
_cell_length_a   5.92530139
_cell_length_b   5.92656535
_cell_length_c   9.55997837
_cell_angle_alpha   90.00035556
_cell_angle_beta   89.91426080
_cell_angle_gamma   120.00688452
_symmetry_Int_Tables_number   1
_chemical_formula_structural   Li4Ti5Cr3O16
_chemical_formula_sum   'Li4 Ti5 Cr3 O16'
_cell_volume   290.71690479
_cell_formula_units_Z   1
loop_
 _symmetry_equiv_pos_site_id
 _symmetry_equiv_pos_as_xyz
  1  'x, y, z'
loop_
 _atom_site_type_symbol
 _atom_site_label
 _atom_site_symmetry_multiplicity
 _atom_site_fract_x
 _atom_site_fract_y
 _atom_site_fract_z
 _atom_site_occupancy
  Li  Li0  1  0.32861770  0.66432229  0.89452188  1
  Li  Li1  1  0.99810557  0.99905372  0.99314064  1
  Li  Li2  1  0.99866377  0.99934089  0.49650389  1
  Li  Li3  1  0.66736052  0.33369059  0.39835130  1
  Ti  Ti4  1  0.34787665  0.17395003  0.72338268  1
  Ti  Ti5  1  0.17812704  0.83461661  0.21857418  1
  Ti  Ti6  1  0.33522324  0.66762719  0.49741818  1
  Ti  Ti7  1  0.17811297  0.34352904  0.21857074  1
  Ti  Ti8  1  0.68117779  0.34058725  0.99180651  1
  Cr  Cr9  1  0.65833487  0.82915542  0.21127422  1
  Cr  Cr10  1  0.82970594  0.65962673  0.71195157  1
  Cr  Cr11  1  0.82969325  0.17013257  0.71193528  1
  O  O12  1  0.17086624  0.83433045  0.59584567  1
  O  O13  1  0.03906413  0.51953894  0.34107042  1
  O  O14  1  0.32537502  0.66268932  0.10300666  1
  O  O15  1  0.99772996  0.99888706  0.30877340  1
  O  O16  1  0.00371095  0.00186885  0.80678804  1
  O  O17  1  0.17088284  0.33657276  0.59584035  1
  O  O18  1  0.47621806  0.96008519  0.33932496  1
  O  O19  1  0.47621993  0.51615738  0.33932358  1
  O  O20  1  0.33487466  0.16745128  0.09729863  1
  O  O21  1  0.66347183  0.83173372  0.59426617  1
  O  O22  1  0.51299349  0.47620204  0.84125108  1
  O  O23  1  0.51297690  0.03680726  0.84125319  1
  O  O24  1  0.65516069  0.32757966  0.60389749  1
  O  O25  1  0.83724180  0.66638154  0.09540849  1
  O  O26  1  0.95497432  0.47750306  0.84164919  1
  O  O27  1  0.83723986  0.17088114  0.09541260  1
