# generated using pymatgen
data_LiFeF4
_symmetry_space_group_name_H-M   'P 1'
_cell_length_a   6.43283658
_cell_length_b   3.05628427
_cell_length_c   15.49608940
_cell_angle_alpha   90.00000000
_cell_angle_beta   90.00000000
_cell_angle_gamma   90.00000000
_symmetry_Int_Tables_number   1
_chemical_formula_structural   LiFeF4
_chemical_formula_sum   'Li4 Fe4 F16'
_cell_volume   304.66206274
_cell_formula_units_Z   4
loop_
 _symmetry_equiv_pos_site_id
 _symmetry_equiv_pos_as_xyz
  1  'x, y, z'
loop_
 _atom_site_type_symbol
 _atom_site_label
 _atom_site_symmetry_multiplicity
 _atom_site_fract_x
 _atom_site_fract_y
 _atom_site_fract_z
 _atom_site_occupancy
  Li  Li0  1  0.34331392  0.75000000  0.84956554  1
  Li  Li1  1  0.15668608  0.25000000  0.34956554  1
  Li  Li2  1  0.84331392  0.75000000  0.65043446  1
  Li  Li3  1  0.65668608  0.25000000  0.15043446  1
  Fe  Fe4  1  0.34326918  0.25000000  0.63087563  1
  Fe  Fe5  1  0.15673082  0.75000000  0.13087563  1
  Fe  Fe6  1  0.84326918  0.25000000  0.86912437  1
  Fe  Fe7  1  0.65673082  0.75000000  0.36912437  1
  F  F8  1  0.04540962  0.25000000  0.62985319  1
  F  F9  1  0.16307022  0.25000000  0.21721310  1
  F  F10  1  0.13916581  0.25000000  0.86044022  1
  F  F11  1  0.15388109  0.25000000  0.05031657  1
  F  F12  1  0.34611891  0.75000000  0.55031657  1
  F  F13  1  0.36083419  0.75000000  0.36044022  1
  F  F14  1  0.33692978  0.75000000  0.71721310  1
  F  F15  1  0.45459038  0.75000000  0.12985319  1
  F  F16  1  0.54540962  0.25000000  0.87014681  1
  F  F17  1  0.66307022  0.25000000  0.28278690  1
  F  F18  1  0.63916581  0.25000000  0.63955978  1
  F  F19  1  0.65388109  0.25000000  0.44968343  1
  F  F20  1  0.84611891  0.75000000  0.94968343  1
  F  F21  1  0.86083419  0.75000000  0.13955978  1
  F  F22  1  0.83692978  0.75000000  0.78278690  1
  F  F23  1  0.95459038  0.75000000  0.37014681  1
