# generated using pymatgen
data_Li3FeF6
_symmetry_space_group_name_H-M   'P 1'
_cell_length_a   5.16052738
_cell_length_b   5.23015564
_cell_length_c   7.71406496
_cell_angle_alpha   90.00000000
_cell_angle_beta   90.26159279
_cell_angle_gamma   90.00000000
_symmetry_Int_Tables_number   1
_chemical_formula_structural   Li3FeF6
_chemical_formula_sum   'Li6 Fe2 F12'
_cell_volume   208.20323079
_cell_formula_units_Z   2
loop_
 _symmetry_equiv_pos_site_id
 _symmetry_equiv_pos_as_xyz
  1  'x, y, z'
loop_
 _atom_site_type_symbol
 _atom_site_label
 _atom_site_symmetry_multiplicity
 _atom_site_fract_x
 _atom_site_fract_y
 _atom_site_fract_z
 _atom_site_occupancy
  Li  Li0  1  0.99469276  0.53279432  0.73566504  1
  Li  Li1  1  0.00000000  0.00000000  0.50000000  1
  Li  Li2  1  0.00530724  0.46720568  0.26433496  1
  Li  Li3  1  0.50530724  0.03279432  0.76433496  1
  Li  Li4  1  0.49469276  0.96720568  0.23566504  1
  Li  Li5  1  0.50000000  0.50000000  0.00000000  1
  Fe  Fe6  1  0.00000000  0.00000000  0.00000000  1
  Fe  Fe7  1  0.50000000  0.50000000  0.50000000  1
  F  F8  1  0.12989213  0.08876515  0.23376865  1
  F  F9  1  0.16007990  0.31483012  0.91597926  1
  F  F10  1  0.17564591  0.32681303  0.55600591  1
  F  F11  1  0.32435409  0.82681303  0.94399409  1
  F  F12  1  0.33992010  0.81483012  0.58402074  1
  F  F13  1  0.37010787  0.58876515  0.26623135  1
  F  F14  1  0.62989213  0.41123485  0.73376865  1
  F  F15  1  0.66007990  0.18516988  0.41597926  1
  F  F16  1  0.67564591  0.17318697  0.05600591  1
  F  F17  1  0.82435409  0.67318697  0.44399409  1
  F  F18  1  0.83992010  0.68516988  0.08402074  1
  F  F19  1  0.87010787  0.91123485  0.76623135  1
