# generated using pymatgen
data_Te2MoWS2
_symmetry_space_group_name_H-M   'P 1'
_cell_length_a   3.35997525
_cell_length_b   3.35997932
_cell_length_c   39.93005305
_cell_angle_alpha   89.99970213
_cell_angle_beta   90.00000000
_cell_angle_gamma   119.99995987
_symmetry_Int_Tables_number   1
_chemical_formula_structural   Te2MoWS2
_chemical_formula_sum   'Te4 Mo2 W2 S4'
_cell_volume   390.39421781
_cell_formula_units_Z   2
loop_
 _symmetry_equiv_pos_site_id
 _symmetry_equiv_pos_as_xyz
  1  'x, y, z'
loop_
 _atom_site_type_symbol
 _atom_site_label
 _atom_site_symmetry_multiplicity
 _atom_site_fract_x
 _atom_site_fract_y
 _atom_site_fract_z
 _atom_site_occupancy
  Te  Te0  1  0.33327843  0.66655785  0.32758083  1
  Te  Te1  1  0.66669586  0.33339071  0.42358288  1
  Te  Te2  1  0.66668169  0.33336238  0.51876182  1
  Te  Te3  1  0.33330909  0.66661918  0.23282689  1
  Mo  Mo4  1  0.33332309  0.66664618  0.09376273  1
  Mo  Mo5  1  0.66663779  0.33327558  0.28020314  1
  W  W6  1  0.33334641  0.66669283  0.47118546  1
  W  W7  1  0.66668320  0.33336640  0.65777296  1
  S  S8  1  0.33335035  0.66670170  0.69577942  1
  S  S9  1  0.66668171  0.33336241  0.05587905  1
  S  S10  1  0.66667028  0.33333955  0.13168931  1
  S  S11  1  0.33334211  0.66668522  0.61972351  1
