# generated using pymatgen
data_LiVF3
_symmetry_space_group_name_H-M   'P 1'
_cell_length_a   5.01117832
_cell_length_b   8.90879702
_cell_length_c   5.37241856
_cell_angle_alpha   90.00007070
_cell_angle_beta   89.99985813
_cell_angle_gamma   90.00014390
_symmetry_Int_Tables_number   1
_chemical_formula_structural   LiVF3
_chemical_formula_sum   'Li4 V4 F12'
_cell_volume   239.84394665
_cell_formula_units_Z   4
loop_
 _symmetry_equiv_pos_site_id
 _symmetry_equiv_pos_as_xyz
  1  'x, y, z'
loop_
 _atom_site_type_symbol
 _atom_site_label
 _atom_site_symmetry_multiplicity
 _atom_site_fract_x
 _atom_site_fract_y
 _atom_site_fract_z
 _atom_site_occupancy
  Li  Li0  1  0.00000055  0.18954672  0.74999994  1
  Li  Li1  1  0.00000124  0.81045450  0.25000123  1
  Li  Li2  1  0.49999988  0.68954672  0.25000124  1
  Li  Li3  1  0.49999908  0.31045390  0.75000016  1
  V  V4  1  0.99999283  0.40541601  0.24999056  1
  V  V5  1  0.00000866  0.59457847  0.75001083  1
  V  V6  1  0.49999073  0.09457916  0.24999879  1
  V  V7  1  0.49999750  0.90542089  0.74999070  1
  F  F8  1  0.21793310  0.58546911  0.08498421  1
  F  F9  1  0.21793233  0.41453490  0.58498511  1
  F  F10  1  0.25000224  0.74999945  0.55241557  1
  F  F11  1  0.24999860  0.25000300  0.05241297  1
  F  F12  1  0.28206588  0.91452947  0.08498125  1
  F  F13  1  0.28206886  0.08546580  0.58498500  1
  F  F14  1  0.71793643  0.08546756  0.91501452  1
  F  F15  1  0.71793668  0.91453249  0.41501545  1
  F  F16  1  0.75000419  0.74999875  0.94758718  1
  F  F17  1  0.74999890  0.25000049  0.44758767  1
  F  F18  1  0.78206515  0.41453462  0.91501721  1
  F  F19  1  0.78206716  0.58546797  0.41502041  1
