# generated using pymatgen
data_Cd(BO2)2
_symmetry_space_group_name_H-M   'P 1'
_cell_length_a   8.30027669
_cell_length_b   14.00446618
_cell_length_c   5.08324406
_cell_angle_alpha   90.00000000
_cell_angle_beta   90.00000000
_cell_angle_gamma   90.00000000
_symmetry_Int_Tables_number   1
_chemical_formula_structural   Cd(BO2)2
_chemical_formula_sum   'Cd8 B16 O32'
_cell_volume   590.88108908
_cell_formula_units_Z   8
loop_
 _symmetry_equiv_pos_site_id
 _symmetry_equiv_pos_as_xyz
  1  'x, y, z'
loop_
 _atom_site_type_symbol
 _atom_site_label
 _atom_site_symmetry_multiplicity
 _atom_site_fract_x
 _atom_site_fract_y
 _atom_site_fract_z
 _atom_site_occupancy
  Cd  Cd0  1  0.11785276  0.14602076  0.61445753  1
  Cd  Cd1  1  0.11785276  0.35397924  0.11445753  1
  Cd  Cd2  1  0.38214724  0.14602076  0.11445753  1
  Cd  Cd3  1  0.38214724  0.35397924  0.61445753  1
  Cd  Cd4  1  0.61785276  0.64602076  0.38554247  1
  Cd  Cd5  1  0.61785276  0.85397924  0.88554247  1
  Cd  Cd6  1  0.88214724  0.64602076  0.88554247  1
  Cd  Cd7  1  0.88214724  0.85397924  0.38554247  1
  B  B8  1  0.03443790  0.63864903  0.37632280  1
  B  B9  1  0.03443790  0.86135097  0.87632280  1
  B  B10  1  0.24373607  0.55099895  0.63480128  1
  B  B11  1  0.24373607  0.94900105  0.13480128  1
  B  B12  1  0.25626393  0.55099895  0.13480128  1
  B  B13  1  0.25626393  0.94900105  0.63480128  1
  B  B14  1  0.46556210  0.63864903  0.87632280  1
  B  B15  1  0.46556210  0.86135097  0.37632280  1
  B  B16  1  0.53443790  0.13864903  0.62367720  1
  B  B17  1  0.53443790  0.36135097  0.12367720  1
  B  B18  1  0.74373607  0.05099895  0.36519872  1
  B  B19  1  0.74373607  0.44900105  0.86519872  1
  B  B20  1  0.75626393  0.05099895  0.86519872  1
  B  B21  1  0.75626393  0.44900105  0.36519872  1
  B  B22  1  0.96556210  0.13864903  0.12367720  1
  B  B23  1  0.96556210  0.36135097  0.62367720  1
  O  O24  1  0.09410421  0.60937879  0.61508938  1
  O  O25  1  0.09410421  0.89062121  0.11508938  1
  O  O26  1  0.10839377  0.18830539  0.13492453  1
  O  O27  1  0.10839377  0.31169461  0.63492453  1
  O  O28  1  0.11387745  0.61607188  0.14823568  1
  O  O29  1  0.11387745  0.88392812  0.64823568  1
  O  O30  1  0.23974234  0.00644692  0.38510358  1
  O  O31  1  0.23974234  0.49355308  0.88510358  1
  O  O32  1  0.26025766  0.00644692  0.88510358  1
  O  O33  1  0.26025766  0.49355308  0.38510358  1
  O  O34  1  0.38612255  0.61607188  0.64823568  1
  O  O35  1  0.38612255  0.88392812  0.14823568  1
  O  O36  1  0.39160623  0.18830539  0.63492453  1
  O  O37  1  0.39160623  0.31169461  0.13492453  1
  O  O38  1  0.40589579  0.60937879  0.11508938  1
  O  O39  1  0.40589579  0.89062121  0.61508938  1
  O  O40  1  0.59410421  0.10937879  0.38491062  1
  O  O41  1  0.59410421  0.39062121  0.88491062  1
  O  O42  1  0.60839377  0.68830539  0.86507547  1
  O  O43  1  0.60839377  0.81169461  0.36507547  1
  O  O44  1  0.61387745  0.11607188  0.85176432  1
  O  O45  1  0.61387745  0.38392812  0.35176432  1
  O  O46  1  0.73974234  0.50644692  0.61489642  1
  O  O47  1  0.73974234  0.99355308  0.11489642  1
  O  O48  1  0.76025766  0.50644692  0.11489642  1
  O  O49  1  0.76025766  0.99355308  0.61489642  1
  O  O50  1  0.88612255  0.11607188  0.35176432  1
  O  O51  1  0.88612255  0.38392812  0.85176432  1
  O  O52  1  0.89160623  0.68830539  0.36507547  1
  O  O53  1  0.89160623  0.81169461  0.86507547  1
  O  O54  1  0.90589579  0.10937879  0.88491062  1
  O  O55  1  0.90589579  0.39062121  0.38491062  1
