# generated using pymatgen
data_Li2Fe3CuO8
_symmetry_space_group_name_H-M   'P 1'
_cell_length_a   8.40059706
_cell_length_b   8.40930854
_cell_length_c   8.42585283
_cell_angle_alpha   90.18974577
_cell_angle_beta   90.08294156
_cell_angle_gamma   89.80188246
_symmetry_Int_Tables_number   1
_chemical_formula_structural   Li2Fe3CuO8
_chemical_formula_sum   'Li8 Fe12 Cu4 O32'
_cell_volume   595.22187654
_cell_formula_units_Z   4
loop_
 _symmetry_equiv_pos_site_id
 _symmetry_equiv_pos_as_xyz
  1  'x, y, z'
loop_
 _atom_site_type_symbol
 _atom_site_label
 _atom_site_symmetry_multiplicity
 _atom_site_fract_x
 _atom_site_fract_y
 _atom_site_fract_z
 _atom_site_occupancy
  Li  Li0  1  0.00440533  0.00384571  0.00329930  1
  Li  Li1  1  0.24450280  0.24617934  0.24618591  1
  Li  Li2  1  0.25343907  0.75422264  0.74675258  1
  Li  Li3  1  0.49651728  0.99560612  0.50333058  1
  Li  Li4  1  0.50605173  0.49498278  0.99497029  1
  Li  Li5  1  0.74423506  0.25509186  0.75453819  1
  Li  Li6  1  0.75406410  0.74616215  0.25440800  1
  Li  Li7  1  0.99617889  0.50449481  0.49501908  1
  Fe  Fe8  1  0.12436061  0.12641414  0.62477428  1
  Fe  Fe9  1  0.12581447  0.37684379  0.87413703  1
  Fe  Fe10  1  0.12637453  0.62495710  0.12400003  1
  Fe  Fe11  1  0.37299071  0.37563172  0.62384558  1
  Fe  Fe12  1  0.37498096  0.62349427  0.37407848  1
  Fe  Fe13  1  0.37665536  0.87280544  0.12487554  1
  Fe  Fe14  1  0.62362795  0.37316197  0.37556384  1
  Fe  Fe15  1  0.62536457  0.12332847  0.12598391  1
  Fe  Fe16  1  0.62601783  0.87499561  0.87579743  1
  Fe  Fe17  1  0.87446829  0.12534857  0.37601369  1
  Fe  Fe18  1  0.87492922  0.87643657  0.62609672  1
  Fe  Fe19  1  0.87599580  0.62587585  0.87456071  1
  Cu  Cu20  1  0.12425063  0.87470147  0.37489624  1
  Cu  Cu21  1  0.37473173  0.12474487  0.87559012  1
  Cu  Cu22  1  0.62466420  0.62524383  0.62485493  1
  Cu  Cu23  1  0.87536584  0.37530960  0.12542241  1
  O  O24  1  0.11720674  0.10453119  0.38635303  1
  O  O25  1  0.11426430  0.88292416  0.60381309  1
  O  O26  1  0.11517468  0.61580694  0.88489885  1
  O  O27  1  0.14441686  0.13414229  0.86376695  1
  O  O28  1  0.10528549  0.38705699  0.11723475  1
  O  O29  1  0.13497466  0.36589171  0.63490334  1
  O  O30  1  0.13648906  0.64490222  0.36646910  1
  O  O31  1  0.13238500  0.86281460  0.14556488  1
  O  O32  1  0.36614073  0.13609510  0.64581099  1
  O  O33  1  0.36458839  0.35438949  0.86662415  1
  O  O34  1  0.36572176  0.63443848  0.13543972  1
  O  O35  1  0.39531349  0.61492850  0.61607903  1
  O  O36  1  0.35369206  0.86636228  0.36280068  1
  O  O37  1  0.38456519  0.38513813  0.38457645  1
  O  O38  1  0.38640718  0.11577659  0.10539380  1
  O  O39  1  0.38317219  0.89486460  0.88676882  1
  O  O40  1  0.61674677  0.39676619  0.61430007  1
  O  O41  1  0.61312200  0.61712997  0.39568285  1
  O  O42  1  0.61564359  0.88484573  0.11497636  1
  O  O43  1  0.64579891  0.36569020  0.13625338  1
  O  O44  1  0.60508223  0.11368917  0.88334476  1
  O  O45  1  0.63524021  0.13443073  0.36497380  1
  O  O46  1  0.63549707  0.85371099  0.63303509  1
  O  O47  1  0.63328228  0.63602405  0.85436736  1
  O  O48  1  0.86639886  0.36380592  0.35579976  1
  O  O49  1  0.86429671  0.14489364  0.13315546  1
  O  O50  1  0.86538913  0.86525614  0.86496515  1
  O  O51  1  0.89467042  0.88632032  0.38400940  1
  O  O52  1  0.85411732  0.63270047  0.63624508  1
  O  O53  1  0.88533588  0.11591659  0.61541752  1
  O  O54  1  0.88702097  0.38360885  0.89529456  1
  O  O55  1  0.88257290  0.60540708  0.11282692  1
