# generated using pymatgen
data_Li2V3Cr2O12
_symmetry_space_group_name_H-M   'P 1'
_cell_length_a   12.62142228
_cell_length_b   9.15262390
_cell_length_c   9.07939067
_cell_angle_alpha   90.00000000
_cell_angle_beta   90.00000000
_cell_angle_gamma   90.00000000
_symmetry_Int_Tables_number   1
_chemical_formula_structural   Li2V3Cr2O12
_chemical_formula_sum   'Li8 V12 Cr8 O48'
_cell_volume   1048.84332213
_cell_formula_units_Z   4
loop_
 _symmetry_equiv_pos_site_id
 _symmetry_equiv_pos_as_xyz
  1  'x, y, z'
loop_
 _atom_site_type_symbol
 _atom_site_label
 _atom_site_symmetry_multiplicity
 _atom_site_fract_x
 _atom_site_fract_y
 _atom_site_fract_z
 _atom_site_occupancy
  Li  Li0  1  0.18872603  0.22157853  0.27259217  1
  Li  Li1  1  0.18872603  0.77842147  0.77259217  1
  Li  Li2  1  0.31127397  0.27842147  0.77259217  1
  Li  Li3  1  0.31127397  0.72157853  0.27259217  1
  Li  Li4  1  0.68872603  0.27842147  0.72740783  1
  Li  Li5  1  0.68872603  0.72157853  0.22740783  1
  Li  Li6  1  0.81127397  0.22157853  0.22740783  1
  Li  Li7  1  0.81127397  0.77842147  0.72740783  1
  V  V8  1  0.00000000  0.46640155  0.25000000  1
  V  V9  1  0.00000000  0.53359845  0.75000000  1
  V  V10  1  0.50000000  0.03359845  0.75000000  1
  V  V11  1  0.50000000  0.96640155  0.25000000  1
  V  V12  1  0.14197236  0.10244742  0.60472357  1
  V  V13  1  0.14197236  0.89755258  0.10472357  1
  V  V14  1  0.35802764  0.39755258  0.10472357  1
  V  V15  1  0.35802764  0.60244742  0.60472357  1
  V  V16  1  0.64197236  0.39755258  0.39527643  1
  V  V17  1  0.64197236  0.60244742  0.89527643  1
  V  V18  1  0.85802764  0.10244742  0.89527643  1
  V  V19  1  0.85802764  0.89755258  0.39527643  1
  Cr  Cr20  1  0.12081869  0.25229302  0.96921410  1
  Cr  Cr21  1  0.12081869  0.74770698  0.46921410  1
  Cr  Cr22  1  0.37918131  0.75229302  0.96921410  1
  Cr  Cr23  1  0.37918131  0.24770698  0.46921410  1
  Cr  Cr24  1  0.62081869  0.24770698  0.03078590  1
  Cr  Cr25  1  0.62081869  0.75229302  0.53078590  1
  Cr  Cr26  1  0.87918131  0.25229302  0.53078590  1
  Cr  Cr27  1  0.87918131  0.74770698  0.03078590  1
  O  O28  1  0.01776641  0.15737460  0.55383165  1
  O  O29  1  0.01776641  0.84262540  0.05383165  1
  O  O30  1  0.07258704  0.57364560  0.36844281  1
  O  O31  1  0.07258704  0.42635440  0.86844281  1
  O  O32  1  0.08975380  0.35103916  0.15850104  1
  O  O33  1  0.08975380  0.64896084  0.65850104  1
  O  O34  1  0.15946972  0.08859582  0.10047930  1
  O  O35  1  0.15946972  0.91140418  0.60047930  1
  O  O36  1  0.17209438  0.16262551  0.78077106  1
  O  O37  1  0.17209438  0.83737449  0.28077106  1
  O  O38  1  0.23082171  0.82217316  0.97653773  1
  O  O39  1  0.23082171  0.17782684  0.47653773  1
  O  O40  1  0.26917829  0.32217316  0.97653773  1
  O  O41  1  0.26917829  0.67782684  0.47653773  1
  O  O42  1  0.32790562  0.66262551  0.78077106  1
  O  O43  1  0.32790562  0.33737449  0.28077106  1
  O  O44  1  0.34053028  0.41140418  0.60047930  1
  O  O45  1  0.34053028  0.58859582  0.10047930  1
  O  O46  1  0.41024620  0.14896084  0.65850104  1
  O  O47  1  0.41024620  0.85103916  0.15850104  1
  O  O48  1  0.42741296  0.07364560  0.36844281  1
  O  O49  1  0.42741296  0.92635440  0.86844281  1
  O  O50  1  0.48223359  0.65737460  0.55383165  1
  O  O51  1  0.48223359  0.34262540  0.05383165  1
  O  O52  1  0.51776641  0.34262540  0.44616835  1
  O  O53  1  0.51776641  0.65737460  0.94616835  1
  O  O54  1  0.57258704  0.07364560  0.13155719  1
  O  O55  1  0.57258704  0.92635440  0.63155719  1
  O  O56  1  0.58975380  0.14896084  0.84149896  1
  O  O57  1  0.58975380  0.85103916  0.34149896  1
  O  O58  1  0.65946972  0.41140418  0.89952070  1
  O  O59  1  0.65946972  0.58859582  0.39952070  1
  O  O60  1  0.67209438  0.33737449  0.21922894  1
  O  O61  1  0.67209438  0.66262551  0.71922894  1
  O  O62  1  0.73082171  0.32217316  0.52346227  1
  O  O63  1  0.73082171  0.67782684  0.02346227  1
  O  O64  1  0.76917829  0.17782684  0.02346227  1
  O  O65  1  0.76917829  0.82217316  0.52346227  1
  O  O66  1  0.82790562  0.16262551  0.71922894  1
  O  O67  1  0.82790562  0.83737449  0.21922894  1
  O  O68  1  0.84053028  0.08859582  0.39952070  1
  O  O69  1  0.84053028  0.91140418  0.89952070  1
  O  O70  1  0.91024620  0.35103916  0.34149896  1
  O  O71  1  0.91024620  0.64896084  0.84149896  1
  O  O72  1  0.92741296  0.42635440  0.63155719  1
  O  O73  1  0.92741296  0.57364560  0.13155719  1
  O  O74  1  0.98223359  0.15737460  0.94616835  1
  O  O75  1  0.98223359  0.84262540  0.44616835  1
