# generated using pymatgen
data_Li2Sn2(SO4)3
_symmetry_space_group_name_H-M   'P 1'
_cell_length_a   9.20909919
_cell_length_b   9.36440575
_cell_length_c   26.61449952
_cell_angle_alpha   90.00000000
_cell_angle_beta   90.00000000
_cell_angle_gamma   90.00000000
_symmetry_Int_Tables_number   1
_chemical_formula_structural   Li2Sn2(SO4)3
_chemical_formula_sum   'Li16 Sn16 S24 O96'
_cell_volume   2295.17432729
_cell_formula_units_Z   8
loop_
 _symmetry_equiv_pos_site_id
 _symmetry_equiv_pos_as_xyz
  1  'x, y, z'
loop_
 _atom_site_type_symbol
 _atom_site_label
 _atom_site_symmetry_multiplicity
 _atom_site_fract_x
 _atom_site_fract_y
 _atom_site_fract_z
 _atom_site_occupancy
  Li  Li0  1  0.04489966  0.62087823  0.28940654  1
  Li  Li1  1  0.04489966  0.87912177  0.78940654  1
  Li  Li2  1  0.12777051  0.92561726  0.01215805  1
  Li  Li3  1  0.12777051  0.57438274  0.51215805  1
  Li  Li4  1  0.37222949  0.07438274  0.51215805  1
  Li  Li5  1  0.37222949  0.42561726  0.01215805  1
  Li  Li6  1  0.45510034  0.12087823  0.28940654  1
  Li  Li7  1  0.45510034  0.37912177  0.78940654  1
  Li  Li8  1  0.54489966  0.62087823  0.21059346  1
  Li  Li9  1  0.54489966  0.87912177  0.71059346  1
  Li  Li10  1  0.62777051  0.57438274  0.98784195  1
  Li  Li11  1  0.62777051  0.92561726  0.48784195  1
  Li  Li12  1  0.87222949  0.42561726  0.48784195  1
  Li  Li13  1  0.87222949  0.07438274  0.98784195  1
  Li  Li14  1  0.95510034  0.12087823  0.21059346  1
  Li  Li15  1  0.95510034  0.37912177  0.71059346  1
  Sn  Sn16  1  0.00001726  0.40753053  0.07005450  1
  Sn  Sn17  1  0.00001726  0.09246947  0.57005450  1
  Sn  Sn18  1  0.99740679  0.78589351  0.17367264  1
  Sn  Sn19  1  0.99740679  0.71410649  0.67367264  1
  Sn  Sn20  1  0.50259321  0.28589351  0.17367264  1
  Sn  Sn21  1  0.50259321  0.21410649  0.67367264  1
  Sn  Sn22  1  0.49998274  0.59246947  0.57005450  1
  Sn  Sn23  1  0.49998274  0.90753053  0.07005450  1
  Sn  Sn24  1  0.50001726  0.40753053  0.42994550  1
  Sn  Sn25  1  0.50001726  0.09246947  0.92994550  1
  Sn  Sn26  1  0.49740679  0.71410649  0.82632736  1
  Sn  Sn27  1  0.49740679  0.78589351  0.32632736  1
  Sn  Sn28  1  0.00259321  0.28589351  0.32632736  1
  Sn  Sn29  1  0.00259321  0.21410649  0.82632736  1
  Sn  Sn30  1  -0.00001726  0.90753053  0.42994550  1
  Sn  Sn31  1  -0.00001726  0.59246947  0.92994550  1
  S  S32  1  0.14780000  0.94266022  0.29306210  1
  S  S33  1  0.14780000  0.55733978  0.79306210  1
  S  S34  1  0.15426434  0.26105237  0.45689813  1
  S  S35  1  0.15426434  0.23894763  0.95689813  1
  S  S36  1  0.17537589  0.08696386  0.11343747  1
  S  S37  1  0.17537589  0.41303614  0.61343747  1
  S  S38  1  0.32462411  0.58696386  0.11343747  1
  S  S39  1  0.32462411  0.91303614  0.61343747  1
  S  S40  1  0.34573566  0.76105237  0.45689813  1
  S  S41  1  0.34573566  0.73894763  0.95689813  1
  S  S42  1  0.35220000  0.44266022  0.29306210  1
  S  S43  1  0.35220000  0.05733978  0.79306210  1
  S  S44  1  0.64780000  0.55733978  0.70693790  1
  S  S45  1  0.64780000  0.94266022  0.20693790  1
  S  S46  1  0.65426434  0.26105237  0.04310187  1
  S  S47  1  0.65426434  0.23894763  0.54310187  1
  S  S48  1  0.67537589  0.08696386  0.38656253  1
  S  S49  1  0.67537589  0.41303614  0.88656253  1
  S  S50  1  0.82462411  0.58696386  0.38656253  1
  S  S51  1  0.82462411  0.91303614  0.88656253  1
  S  S52  1  0.84573566  0.76105237  0.04310187  1
  S  S53  1  0.84573566  0.73894763  0.54310187  1
  S  S54  1  0.85220000  0.44266022  0.20693790  1
  S  S55  1  0.85220000  0.05733978  0.70693790  1
  O  O56  1  0.08378947  0.39854092  0.47053166  1
  O  O57  1  0.08378947  0.10145908  0.97053166  1
  O  O58  1  0.07206480  0.06603537  0.26911133  1
  O  O59  1  0.07206480  0.43396463  0.76911133  1
  O  O60  1  0.08131915  0.13895643  0.48369385  1
  O  O61  1  0.08131915  0.36104357  0.98369385  1
  O  O62  1  0.09803064  0.92704778  0.34555585  1
  O  O63  1  0.09803064  0.57295222  0.84555585  1
  O  O64  1  0.08209799  0.18354978  0.08279636  1
  O  O65  1  0.08209799  0.31645022  0.58279636  1
  O  O66  1  0.11542120  0.80814233  0.26455663  1
  O  O67  1  0.11542120  0.69185767  0.76455663  1
  O  O68  1  0.08556546  0.03025439  0.15621629  1
  O  O69  1  0.08556546  0.46974561  0.65621629  1
  O  O70  1  0.14685228  0.23681949  0.40194944  1
  O  O71  1  0.14685228  0.26318051  0.90194944  1
  O  O72  1  0.19195181  0.46924514  0.29209721  1
  O  O73  1  0.19195181  0.03075486  0.79209721  1
  O  O74  1  0.19627798  0.66244520  0.13351908  1
  O  O75  1  0.19627798  0.83755480  0.63351908  1
  O  O76  1  0.19015763  0.76029660  0.47385869  1
  O  O77  1  0.19015763  0.73970340  0.97385869  1
  O  O78  1  0.27768422  0.03354896  0.58022925  1
  O  O79  1  0.27768422  0.46645104  0.08022925  1
  O  O80  1  0.22231578  0.53354896  0.58022925  1
  O  O81  1  0.22231578  0.96645104  0.08022925  1
  O  O82  1  0.30984237  0.23970340  0.97385869  1
  O  O83  1  0.30984237  0.26029660  0.47385869  1
  O  O84  1  0.30372202  0.16244520  0.13351908  1
  O  O85  1  0.30372202  0.33755480  0.63351908  1
  O  O86  1  0.30804819  0.96924514  0.29209721  1
  O  O87  1  0.30804819  0.53075486  0.79209721  1
  O  O88  1  0.35314772  0.73681949  0.40194944  1
  O  O89  1  0.35314772  0.76318051  0.90194944  1
  O  O90  1  0.41443454  0.96974561  0.65621629  1
  O  O91  1  0.41443454  0.53025439  0.15621629  1
  O  O92  1  0.38457880  0.30814233  0.26455663  1
  O  O93  1  0.38457880  0.19185767  0.76455663  1
  O  O94  1  0.41790201  0.68354978  0.08279636  1
  O  O95  1  0.41790201  0.81645022  0.58279636  1
  O  O96  1  0.40196936  0.07295222  0.84555585  1
  O  O97  1  0.40196936  0.42704778  0.34555585  1
  O  O98  1  0.41868085  0.86104357  0.98369385  1
  O  O99  1  0.41868085  0.63895643  0.48369385  1
  O  O100  1  0.42793520  0.56603537  0.26911133  1
  O  O101  1  0.42793520  0.93396463  0.76911133  1
  O  O102  1  0.41621053  0.60145908  0.97053166  1
  O  O103  1  0.41621053  0.89854092  0.47053166  1
  O  O104  1  0.58378947  0.39854092  0.02946834  1
  O  O105  1  0.58378947  0.10145908  0.52946834  1
  O  O106  1  0.57206480  0.06603537  0.23088867  1
  O  O107  1  0.57206480  0.43396463  0.73088867  1
  O  O108  1  0.58131915  0.13895643  0.01630615  1
  O  O109  1  0.58131915  0.36104357  0.51630615  1
  O  O110  1  0.59803064  0.57295222  0.65444415  1
  O  O111  1  0.59803064  0.92704778  0.15444415  1
  O  O112  1  0.58209799  0.18354978  0.41720364  1
  O  O113  1  0.58209799  0.31645022  0.91720364  1
  O  O114  1  0.61542120  0.80814233  0.23544337  1
  O  O115  1  0.61542120  0.69185767  0.73544337  1
  O  O116  1  0.58556546  0.03025439  0.34378371  1
  O  O117  1  0.58556546  0.46974561  0.84378371  1
  O  O118  1  0.64685228  0.23681949  0.09805056  1
  O  O119  1  0.64685228  0.26318051  0.59805056  1
  O  O120  1  0.69195181  0.46924514  0.20790279  1
  O  O121  1  0.69195181  0.03075486  0.70790279  1
  O  O122  1  0.69627798  0.66244520  0.36648092  1
  O  O123  1  0.69627798  0.83755480  0.86648092  1
  O  O124  1  0.69015763  0.76029660  0.02614131  1
  O  O125  1  0.69015763  0.73970340  0.52614131  1
  O  O126  1  0.77768422  0.46645104  0.41977075  1
  O  O127  1  0.77768422  0.03354896  0.91977075  1
  O  O128  1  0.72231578  0.96645104  0.41977075  1
  O  O129  1  0.72231578  0.53354896  0.91977075  1
  O  O130  1  0.80984237  0.26029660  0.02614131  1
  O  O131  1  0.80984237  0.23970340  0.52614131  1
  O  O132  1  0.80372202  0.16244520  0.36648092  1
  O  O133  1  0.80372202  0.33755480  0.86648092  1
  O  O134  1  0.80804819  0.53075486  0.70790279  1
  O  O135  1  0.80804819  0.96924514  0.20790279  1
  O  O136  1  0.85314772  0.73681949  0.09805056  1
  O  O137  1  0.85314772  0.76318051  0.59805056  1
  O  O138  1  0.91443454  0.53025439  0.34378371  1
  O  O139  1  0.91443454  0.96974561  0.84378371  1
  O  O140  1  0.88457880  0.30814233  0.23544337  1
  O  O141  1  0.88457880  0.19185767  0.73544337  1
  O  O142  1  0.91790201  0.68354978  0.41720364  1
  O  O143  1  0.91790201  0.81645022  0.91720364  1
  O  O144  1  0.90196936  0.42704778  0.15444415  1
  O  O145  1  0.90196936  0.07295222  0.65444415  1
  O  O146  1  0.91868085  0.63895643  0.01630615  1
  O  O147  1  0.91868085  0.86104357  0.51630615  1
  O  O148  1  0.92793520  0.56603537  0.23088867  1
  O  O149  1  0.92793520  0.93396463  0.73088867  1
  O  O150  1  0.91621053  0.60145908  0.52946834  1
  O  O151  1  0.91621053  0.89854092  0.02946834  1
