# generated using pymatgen
data_Ti3FeNi2(PO4)6
_symmetry_space_group_name_H-M   'P 1'
_cell_length_a   8.49322554
_cell_length_b   8.49322543
_cell_length_c   8.49322616
_cell_angle_alpha   61.11989244
_cell_angle_beta   61.11989448
_cell_angle_gamma   61.11989259
_symmetry_Int_Tables_number   1
_chemical_formula_structural   Ti3FeNi2(PO4)6
_chemical_formula_sum   'Ti3 Fe1 Ni2 P6 O24'
_cell_volume   444.13364585
_cell_formula_units_Z   1
loop_
 _symmetry_equiv_pos_site_id
 _symmetry_equiv_pos_as_xyz
  1  'x, y, z'
loop_
 _atom_site_type_symbol
 _atom_site_label
 _atom_site_symmetry_multiplicity
 _atom_site_fract_x
 _atom_site_fract_y
 _atom_site_fract_z
 _atom_site_occupancy
  Ti  Ti0  1  0.14293800  0.14293800  0.14293800  1
  Ti  Ti1  1  0.35502011  0.35502011  0.35502011  1
  Ti  Ti2  1  0.64603286  0.64603286  0.64603286  1
  Fe  Fe3  1  0.85696979  0.85696979  0.85696979  1
  Ni  Ni4  1  0.99675959  0.99675959  0.99675959  1
  Ni  Ni5  1  0.49922915  0.49922915  0.49922915  1
  P  P6  1  0.25232555  0.54408714  0.95388507  1
  P  P7  1  0.54408714  0.95388507  0.25232555  1
  P  P8  1  0.95388507  0.25232555  0.54408714  1
  P  P9  1  0.04792523  0.75268889  0.45335878  1
  P  P10  1  0.45335878  0.04792523  0.75268889  1
  P  P11  1  0.75268889  0.45335878  0.04792523  1
  O  O12  1  0.11293345  0.33005340  0.48501277  1
  O  O13  1  0.33005340  0.48501277  0.11293345  1
  O  O14  1  0.05768813  0.91025233  0.25310998  1
  O  O15  1  0.48501277  0.11293345  0.33005340  1
  O  O16  1  0.01665563  0.81860686  0.60264457  1
  O  O17  1  0.24449395  0.58803774  0.43185638  1
  O  O18  1  0.25310998  0.05768813  0.91025233  1
  O  O19  1  0.43185638  0.24449395  0.58803774  1
  O  O20  1  0.18500789  0.38009471  0.00230018  1
  O  O21  1  0.58803774  0.43185638  0.24449395  1
  O  O22  1  0.09912583  0.73715541  0.94956561  1
  O  O23  1  0.38009471  0.00230018  0.18500789  1
  O  O24  1  0.60264457  0.01665563  0.81860686  1
  O  O25  1  0.91025233  0.25310998  0.05768813  1
  O  O26  1  0.41428721  0.55210704  0.75743247  1
  O  O27  1  0.81860686  0.60264457  0.01665563  1
  O  O28  1  0.55210704  0.75743247  0.41428721  1
  O  O29  1  0.73715541  0.94956561  0.09912583  1
  O  O30  1  0.75743247  0.41428721  0.55210704  1
  O  O31  1  0.00230018  0.18500789  0.38009471  1
  O  O32  1  0.50295735  0.88199126  0.68541068  1
  O  O33  1  0.94956561  0.09912583  0.73715541  1
  O  O34  1  0.68541068  0.50295735  0.88199126  1
  O  O35  1  0.88199126  0.68541068  0.50295735  1
