# generated using pymatgen
data_La2P4O13
_symmetry_space_group_name_H-M   'P 1'
_cell_length_a   9.25916884
_cell_length_b   10.16278044
_cell_length_c   14.33368493
_cell_angle_alpha   90.00000000
_cell_angle_beta   107.13630314
_cell_angle_gamma   90.00000000
_symmetry_Int_Tables_number   1
_chemical_formula_structural   La2P4O13
_chemical_formula_sum   'La8 P16 O52'
_cell_volume   1288.90676501
_cell_formula_units_Z   4
loop_
 _symmetry_equiv_pos_site_id
 _symmetry_equiv_pos_as_xyz
  1  'x, y, z'
loop_
 _atom_site_type_symbol
 _atom_site_label
 _atom_site_symmetry_multiplicity
 _atom_site_fract_x
 _atom_site_fract_y
 _atom_site_fract_z
 _atom_site_occupancy
  La  La0  1  0.01661882  0.00481151  0.72202793  1
  La  La1  1  0.01661882  0.49518849  0.22202793  1
  La  La2  1  0.45262618  0.00013125  0.73760660  1
  La  La3  1  0.54737382  0.50013125  0.76239340  1
  La  La4  1  0.45262618  0.49986875  0.23760660  1
  La  La5  1  0.54737382  0.99986875  0.26239340  1
  La  La6  1  0.98338118  0.50481151  0.77797207  1
  La  La7  1  0.98338118  0.99518849  0.27797207  1
  P  P8  1  0.15652126  0.23909054  0.94001294  1
  P  P9  1  0.29122940  0.73361691  0.84857172  1
  P  P10  1  0.21774180  0.29017559  0.65476076  1
  P  P11  1  0.15652126  0.26090946  0.44001294  1
  P  P12  1  0.49011723  0.24865389  0.94323912  1
  P  P13  1  0.29122940  0.76638309  0.34857172  1
  P  P14  1  0.21774180  0.20982441  0.15475976  1
  P  P15  1  0.50988277  0.74865389  0.55676088  1
  P  P16  1  0.49011723  0.25134611  0.44323912  1
  P  P17  1  0.78225820  0.79017559  0.84523924  1
  P  P18  1  0.70877060  0.23361691  0.65142828  1
  P  P19  1  0.50988277  0.75134611  0.05676088  1
  P  P20  1  0.84347874  0.73909054  0.55998706  1
  P  P21  1  0.78225820  0.70982441  0.34524024  1
  P  P22  1  0.70877060  0.26638309  0.15142828  1
  P  P23  1  0.84347874  0.76090946  0.05998706  1
  O  O24  1  0.06137188  0.36161759  0.91432844  1
  O  O25  1  0.11944675  0.12835612  0.86712534  1
  O  O26  1  0.15075137  0.67116173  0.86379309  1
  O  O27  1  0.12141263  0.36553252  0.70597143  1
  O  O28  1  0.06137188  0.13838241  0.41432844  1
  O  O29  1  0.13873506  0.31834067  0.53945134  1
  O  O30  1  0.33142906  0.28467076  0.96492344  1
  O  O31  1  0.25495282  0.86025478  0.78525450  1
  O  O32  1  0.21609343  0.13915452  0.67118128  1
  O  O33  1  0.11944675  0.37164388  0.36712534  1
  O  O34  1  0.40048284  0.78908520  0.95194554  1
  O  O35  1  0.15075137  0.82883827  0.36379309  1
  O  O36  1  0.12141263  0.13446748  0.20597143  1
  O  O37  1  0.38319344  0.63499781  0.80957137  1
  O  O38  1  0.47020288  0.12609288  0.88173640  1
  O  O39  1  0.37823052  0.34240611  0.67632014  1
  O  O40  1  0.13873506  0.18165933  0.03945134  1
  O  O41  1  0.33142906  0.21532924  0.46492344  1
  O  O42  1  0.25495282  0.63974522  0.28525450  1
  O  O43  1  0.21609343  0.36084548  0.17118128  1
  O  O44  1  0.45495162  0.87022438  0.59567120  1
  O  O45  1  0.40048284  0.71091480  0.45194554  1
  O  O46  1  0.54504838  0.37022438  0.90432880  1
  O  O47  1  0.62176948  0.84240611  0.82367986  1
  O  O48  1  0.52979712  0.62609288  0.61826360  1
  O  O49  1  0.38319344  0.86500219  0.30957137  1
  O  O50  1  0.61680656  0.13499781  0.69042863  1
  O  O51  1  0.47020288  0.37390712  0.38173640  1
  O  O52  1  0.37823052  0.15759389  0.17632014  1
  O  O53  1  0.45495162  0.62977562  0.09567120  1
  O  O54  1  0.59951716  0.28908520  0.54805446  1
  O  O55  1  0.54504838  0.12977562  0.40432880  1
  O  O56  1  0.78390657  0.63915452  0.82881872  1
  O  O57  1  0.74504718  0.36025478  0.71474550  1
  O  O58  1  0.66857094  0.78467076  0.53507656  1
  O  O59  1  0.86126494  0.81834067  0.96054866  1
  O  O60  1  0.62176948  0.65759389  0.32367986  1
  O  O61  1  0.52979712  0.87390712  0.11826360  1
  O  O62  1  0.61680656  0.36500219  0.19042863  1
  O  O63  1  0.87858737  0.86553252  0.79402857  1
  O  O64  1  0.84924863  0.17116173  0.63620691  1
  O  O65  1  0.59951716  0.21091480  0.04805446  1
  O  O66  1  0.88055325  0.62835612  0.63287466  1
  O  O67  1  0.78390657  0.86084548  0.32881872  1
  O  O68  1  0.74504718  0.13974522  0.21474550  1
  O  O69  1  0.66857094  0.71532924  0.03507656  1
  O  O70  1  0.86126494  0.68165933  0.46054866  1
  O  O71  1  0.93862812  0.86161759  0.58567156  1
  O  O72  1  0.87858737  0.63446748  0.29402857  1
  O  O73  1  0.84924863  0.32883827  0.13620691  1
  O  O74  1  0.88055325  0.87164388  0.13287466  1
  O  O75  1  0.93862812  0.63838241  0.08567156  1
