# generated using pymatgen
data_Ba2GeO4
_symmetry_space_group_name_H-M   'P 1'
_cell_length_a   9.25263926
_cell_length_b   11.15967496
_cell_length_c   11.11854857
_cell_angle_alpha   90.00000000
_cell_angle_beta   94.47592324
_cell_angle_gamma   90.00000000
_symmetry_Int_Tables_number   1
_chemical_formula_structural   Ba2GeO4
_chemical_formula_sum   'Ba16 Ge8 O32'
_cell_volume   1144.56047687
_cell_formula_units_Z   8
loop_
 _symmetry_equiv_pos_site_id
 _symmetry_equiv_pos_as_xyz
  1  'x, y, z'
loop_
 _atom_site_type_symbol
 _atom_site_label
 _atom_site_symmetry_multiplicity
 _atom_site_fract_x
 _atom_site_fract_y
 _atom_site_fract_z
 _atom_site_occupancy
  Ba  Ba0  1  0.08780219  0.92835696  0.79432162  1
  Ba  Ba1  1  0.08780219  0.57164304  0.29432162  1
  Ba  Ba2  1  0.18068295  0.57886976  0.92779548  1
  Ba  Ba3  1  0.18068295  0.92113024  0.42779548  1
  Ba  Ba4  1  0.34119828  0.58457854  0.58981282  1
  Ba  Ba5  1  0.36878610  0.20880545  0.57697180  1
  Ba  Ba6  1  0.34119828  0.91542146  0.08981282  1
  Ba  Ba7  1  0.36878610  0.29119455  0.07697180  1
  Ba  Ba8  1  0.63121390  0.70880545  0.92302820  1
  Ba  Ba9  1  0.65880172  0.08457854  0.91018718  1
  Ba  Ba10  1  0.63121390  0.79119455  0.42302820  1
  Ba  Ba11  1  0.65880172  0.41542146  0.41018718  1
  Ba  Ba12  1  0.81931705  0.07886976  0.57220452  1
  Ba  Ba13  1  0.81931705  0.42113024  0.07220452  1
  Ba  Ba14  1  0.91219781  0.42835696  0.70567838  1
  Ba  Ba15  1  0.91219781  0.07164304  0.20567838  1
  Ge  Ge16  1  0.02670290  0.20277649  0.92808205  1
  Ge  Ge17  1  0.02670290  0.29722351  0.42808205  1
  Ge  Ge18  1  0.45569256  0.92267770  0.70120353  1
  Ge  Ge19  1  0.45569256  0.57732230  0.20120353  1
  Ge  Ge20  1  0.54430744  0.42267770  0.79879647  1
  Ge  Ge21  1  0.54430744  0.07732230  0.29879647  1
  Ge  Ge22  1  0.97329710  0.70277649  0.57191795  1
  Ge  Ge23  1  0.97329710  0.79722351  0.07191795  1
  O  O24  1  0.04614122  0.64219775  0.71280779  1
  O  O25  1  0.07642431  0.35711462  0.91527821  1
  O  O26  1  0.04614122  0.85780225  0.21280779  1
  O  O27  1  0.07642431  0.14288538  0.41527821  1
  O  O28  1  0.12475665  0.79754004  0.98068758  1
  O  O29  1  0.12475665  0.70245996  0.48068758  1
  O  O30  1  0.16865539  0.38602507  0.49858639  1
  O  O31  1  0.16865539  0.11397493  0.99858639  1
  O  O32  1  0.28410275  0.98409979  0.64671126  1
  O  O33  1  0.28410275  0.51590021  0.14671126  1
  O  O34  1  0.41799244  0.54024492  0.82405979  1
  O  O35  1  0.45596951  0.89859178  0.86096872  1
  O  O36  1  0.41799244  0.95975508  0.32405979  1
  O  O37  1  0.50444996  0.28863811  0.87526048  1
  O  O38  1  0.45596951  0.60140822  0.36096872  1
  O  O39  1  0.49555004  0.78863811  0.62473952  1
  O  O40  1  0.50444996  0.21136189  0.37526048  1
  O  O41  1  0.54403049  0.39859178  0.63903128  1
  O  O42  1  0.49555004  0.71136189  0.12473952  1
  O  O43  1  0.58200756  0.04024492  0.67594021  1
  O  O44  1  0.54403049  0.10140822  0.13903128  1
  O  O45  1  0.58200756  0.45975508  0.17594021  1
  O  O46  1  0.71589725  0.48409979  0.85328874  1
  O  O47  1  0.71589725  0.01590021  0.35328874  1
  O  O48  1  0.83134461  0.88602507  0.00141361  1
  O  O49  1  0.83134461  0.61397493  0.50141361  1
  O  O50  1  0.87524335  0.29754004  0.51931242  1
  O  O51  1  0.87524335  0.20245996  0.01931242  1
  O  O52  1  0.92357569  0.85711462  0.58472179  1
  O  O53  1  0.95385878  0.14219775  0.78719221  1
  O  O54  1  0.92357569  0.64288538  0.08472179  1
  O  O55  1  0.95385878  0.35780225  0.28719221  1
