# generated using pymatgen
data_V6O5F19
_symmetry_space_group_name_H-M   'P 1'
_cell_length_a   5.55161111
_cell_length_b   5.38595683
_cell_length_c   14.99450861
_cell_angle_alpha   89.67589022
_cell_angle_beta   100.56114180
_cell_angle_gamma   91.71671272
_symmetry_Int_Tables_number   1
_chemical_formula_structural   V6O5F19
_chemical_formula_sum   'V6 O5 F19'
_cell_volume   440.55398791
_cell_formula_units_Z   1
loop_
 _symmetry_equiv_pos_site_id
 _symmetry_equiv_pos_as_xyz
  1  'x, y, z'
loop_
 _atom_site_type_symbol
 _atom_site_label
 _atom_site_symmetry_multiplicity
 _atom_site_fract_x
 _atom_site_fract_y
 _atom_site_fract_z
 _atom_site_occupancy
  V  V0  1  0.01870949  0.05816063  0.99435912  1
  V  V1  1  0.19844753  0.45508424  0.32912087  1
  V  V2  1  0.30648849  0.00112580  0.66594156  1
  V  V3  1  0.47286679  0.56540562  0.00608194  1
  V  V4  1  0.71051834  0.96324025  0.33740836  1
  V  V5  1  0.78417153  0.48278352  0.66523273  1
  O  O6  1  0.20215275  0.29502039  0.97715165  1
  O  O7  1  0.36303820  0.22716319  0.31045823  1
  O  O8  1  0.54263738  0.29220174  0.64580743  1
  O  O9  1  0.29887636  0.79490779  0.02371538  1
  O  O10  1  0.94952677  0.79524056  0.35679040  1
  F  F11  1  0.02490967  0.20881529  0.64513728  1
  F  F12  1  0.12374309  0.71953768  0.68842165  1
  F  F13  1  0.05241336  0.05516178  0.11394301  1
  F  F14  1  0.19472327  0.43617222  0.44698004  1
  F  F15  1  0.40155361  0.07689750  0.78186423  1
  F  F16  1  0.11464814  0.59580260  0.22117941  1
  F  F17  1  0.30203215  0.93519726  0.55026229  1
  F  F18  1  0.45216462  0.55998796  0.88703154  1
  F  F19  1  0.72733701  0.20304666  0.97457265  1
  F  F20  1  0.46627654  0.70861154  0.35865671  1
  F  F21  1  0.62096487  0.76744573  0.68830596  1
  F  F22  1  0.53567184  0.40042169  0.11020264  1
  F  F23  1  0.70164657  0.09399902  0.44503419  1
  F  F24  1  0.90291094  0.42492677  0.78070885  1
  F  F25  1  0.59911970  0.92730082  0.21958375  1
  F  F26  1  0.80814104  0.57457815  0.55378214  1
  F  F27  1  0.96695681  0.89621314  0.88969111  1
  F  F28  1  0.88051813  0.27343434  0.30779755  1
  F  F29  1  0.77683299  0.71211611  0.02477834  1
