# generated using pymatgen
data_ZnTe2O5
_symmetry_space_group_name_H-M   'P 1'
_cell_length_a   8.81033479
_cell_length_b   8.81033479
_cell_length_c   12.93115464
_cell_angle_alpha   90.00000000
_cell_angle_beta   90.00000000
_cell_angle_gamma   90.00000000
_symmetry_Int_Tables_number   1
_chemical_formula_structural   ZnTe2O5
_chemical_formula_sum   'Zn8 Te16 O40'
_cell_volume   1003.74207398
_cell_formula_units_Z   8
loop_
 _symmetry_equiv_pos_site_id
 _symmetry_equiv_pos_as_xyz
  1  'x, y, z'
loop_
 _atom_site_type_symbol
 _atom_site_label
 _atom_site_symmetry_multiplicity
 _atom_site_fract_x
 _atom_site_fract_y
 _atom_site_fract_z
 _atom_site_occupancy
  Zn  Zn0  1  0.25000000  0.25000000  0.25000000  1
  Zn  Zn1  1  0.25000000  0.25000000  0.00000000  1
  Zn  Zn2  1  0.25000000  0.25000000  0.50000000  1
  Zn  Zn3  1  0.25000000  0.25000000  0.75000000  1
  Zn  Zn4  1  0.75000000  0.75000000  0.00000000  1
  Zn  Zn5  1  0.75000000  0.75000000  0.25000000  1
  Zn  Zn6  1  0.75000000  0.75000000  0.50000000  1
  Zn  Zn7  1  0.75000000  0.75000000  0.75000000  1
  Te  Te8  1  0.03666146  0.56866889  0.38388638  1
  Te  Te9  1  0.03666146  0.93133111  0.61611362  1
  Te  Te10  1  0.06866889  0.96333854  0.11611362  1
  Te  Te11  1  0.06866889  0.53666146  0.88388638  1
  Te  Te12  1  0.43133111  0.53666146  0.11611362  1
  Te  Te13  1  0.43133111  0.96333854  0.88388638  1
  Te  Te14  1  0.46333854  0.56866889  0.61611362  1
  Te  Te15  1  0.46333854  0.93133111  0.38388638  1
  Te  Te16  1  0.53666146  0.06866889  0.61611362  1
  Te  Te17  1  0.53666146  0.43133111  0.38388638  1
  Te  Te18  1  0.56866889  0.03666146  0.11611362  1
  Te  Te19  1  0.56866889  0.46333854  0.88388638  1
  Te  Te20  1  0.93133111  0.03666146  0.88388638  1
  Te  Te21  1  0.93133111  0.46333854  0.11611362  1
  Te  Te22  1  0.96333854  0.06866889  0.38388638  1
  Te  Te23  1  0.96333854  0.43133111  0.61611362  1
  O  O24  1  0.01916508  0.12516272  0.54808518  1
  O  O25  1  0.01916508  0.37483728  0.45191482  1
  O  O26  1  0.05131233  0.44868767  0.25000000  1
  O  O27  1  0.05131233  0.05131233  0.75000000  1
  O  O28  1  0.10868637  0.17605478  0.13317473  1
  O  O29  1  0.10868637  0.32394522  0.86682527  1
  O  O30  1  0.12516272  0.48083492  0.04808518  1
  O  O31  1  0.12516272  0.01916508  0.95191482  1
  O  O32  1  0.17605478  0.10868637  0.36682527  1
  O  O33  1  0.17605478  0.39131363  0.63317473  1
  O  O34  1  0.32394522  0.10868637  0.63317473  1
  O  O35  1  0.32394522  0.39131363  0.36682527  1
  O  O36  1  0.37483728  0.01916508  0.04808518  1
  O  O37  1  0.37483728  0.48083492  0.95191482  1
  O  O38  1  0.39131363  0.32394522  0.13317473  1
  O  O39  1  0.39131363  0.17605478  0.86682527  1
  O  O40  1  0.44868767  0.05131233  0.25000000  1
  O  O41  1  0.44868767  0.44868767  0.75000000  1
  O  O42  1  0.48083492  0.12516272  0.45191482  1
  O  O43  1  0.48083492  0.37483728  0.54808518  1
  O  O44  1  0.51916508  0.62516272  0.45191482  1
  O  O45  1  0.51916508  0.87483728  0.54808518  1
  O  O46  1  0.55131233  0.55131233  0.25000000  1
  O  O47  1  0.55131233  0.94868767  0.75000000  1
  O  O48  1  0.60868637  0.67605478  0.86682527  1
  O  O49  1  0.60868637  0.82394522  0.13317473  1
  O  O50  1  0.62516272  0.51916508  0.04808518  1
  O  O51  1  0.62516272  0.98083492  0.95191482  1
  O  O52  1  0.67605478  0.60868637  0.63317473  1
  O  O53  1  0.67605478  0.89131363  0.36682527  1
  O  O54  1  0.82394522  0.60868637  0.36682527  1
  O  O55  1  0.82394522  0.89131363  0.63317473  1
  O  O56  1  0.87483728  0.51916508  0.95191482  1
  O  O57  1  0.87483728  0.98083492  0.04808518  1
  O  O58  1  0.89131363  0.67605478  0.13317473  1
  O  O59  1  0.89131363  0.82394522  0.86682527  1
  O  O60  1  0.94868767  0.55131233  0.75000000  1
  O  O61  1  0.94868767  0.94868767  0.25000000  1
  O  O62  1  0.98083492  0.62516272  0.54808518  1
  O  O63  1  0.98083492  0.87483728  0.45191482  1
