# generated using pymatgen
data_Dy2P4O13
_symmetry_space_group_name_H-M   'P 1'
_cell_length_a   8.85384018
_cell_length_b   9.71825864
_cell_length_c   14.13157450
_cell_angle_alpha   90.00000000
_cell_angle_beta   105.81582039
_cell_angle_gamma   90.00000000
_symmetry_Int_Tables_number   1
_chemical_formula_structural   Dy2P4O13
_chemical_formula_sum   'Dy8 P16 O52'
_cell_volume   1169.90394905
_cell_formula_units_Z   4
loop_
 _symmetry_equiv_pos_site_id
 _symmetry_equiv_pos_as_xyz
  1  'x, y, z'
loop_
 _atom_site_type_symbol
 _atom_site_label
 _atom_site_symmetry_multiplicity
 _atom_site_fract_x
 _atom_site_fract_y
 _atom_site_fract_z
 _atom_site_occupancy
  Dy  Dy0  1  0.28358327  0.00073308  0.99320592  1
  Dy  Dy1  1  0.21421064  0.00565080  0.51249691  1
  Dy  Dy2  1  0.28358327  0.49926692  0.49320592  1
  Dy  Dy3  1  0.21421064  0.49434920  0.01249691  1
  Dy  Dy4  1  0.78578936  0.50565080  0.98750309  1
  Dy  Dy5  1  0.71641673  0.50073308  0.50679408  1
  Dy  Dy6  1  0.78578936  0.99434920  0.48750309  1
  Dy  Dy7  1  0.71641673  0.99926692  0.00679408  1
  P  P8  1  0.02900603  0.27882761  0.59499854  1
  P  P9  1  0.10986823  0.24493637  0.81301825  1
  P  P10  1  0.23424446  0.73339874  0.68668323  1
  P  P11  1  0.02900603  0.22117239  0.09499854  1
  P  P12  1  0.10986823  0.25506363  0.31301825  1
  P  P13  1  0.45776532  0.72017107  0.90283135  1
  P  P14  1  0.23424446  0.76660126  0.18668323  1
  P  P15  1  0.54223468  0.22017107  0.59716865  1
  P  P16  1  0.45776532  0.77982893  0.40283135  1
  P  P17  1  0.76575554  0.23339874  0.81331677  1
  P  P18  1  0.54223468  0.27982893  0.09716865  1
  P  P19  1  0.89013177  0.74493637  0.68698175  1
  P  P20  1  0.97099397  0.77882761  0.90500146  1
  P  P21  1  0.76575554  0.26660126  0.31331677  1
  P  P22  1  0.89013177  0.75506363  0.18698175  1
  P  P23  1  0.97099397  0.72117239  0.40500146  1
  O  O24  1  0.07122839  0.69464953  0.71091043  1
  O  O25  1  0.12539445  0.84571296  0.90454272  1
  O  O26  1  0.01159640  0.12673484  0.56024270  1
  O  O27  1  0.13551827  0.37565986  0.87176923  1
  O  O28  1  0.13579010  0.27547600  0.70795445  1
  O  O29  1  0.12212707  0.36031487  0.53871279  1
  O  O30  1  0.21535881  0.12578694  0.85570733  1
  O  O31  1  0.07122839  0.80535047  0.21091043  1
  O  O32  1  0.12539445  0.65428704  0.40454272  1
  O  O33  1  0.01159640  0.37326516  0.06024270  1
  O  O34  1  0.36580798  0.63279479  0.95690005  1
  O  O35  1  0.22624298  0.87627579  0.64450279  1
  O  O36  1  0.13551827  0.12434014  0.37176923  1
  O  O37  1  0.13579010  0.22452400  0.20795445  1
  O  O38  1  0.27415049  0.61901143  0.62612627  1
  O  O39  1  0.35982037  0.73273847  0.78960655  1
  O  O40  1  0.12212707  0.13968513  0.03871279  1
  O  O41  1  0.38699201  0.15447754  0.59780054  1
  O  O42  1  0.47989594  0.87137112  0.94210570  1
  O  O43  1  0.21535881  0.37421306  0.35570733  1
  O  O44  1  0.36580798  0.86720521  0.45690005  1
  O  O45  1  0.22624298  0.62372421  0.14450279  1
  O  O46  1  0.27415049  0.88098857  0.12612627  1
  O  O47  1  0.35982037  0.76726153  0.28960655  1
  O  O48  1  0.52010406  0.37137112  0.55789430  1
  O  O49  1  0.61300799  0.65447754  0.90219946  1
  O  O50  1  0.38699201  0.34552246  0.09780054  1
  O  O51  1  0.47989594  0.62862888  0.44210570  1
  O  O52  1  0.64017963  0.23273847  0.71039345  1
  O  O53  1  0.72584951  0.11901143  0.87387373  1
  O  O54  1  0.77375702  0.37627579  0.85549721  1
  O  O55  1  0.63419202  0.13279479  0.54309995  1
  O  O56  1  0.78464119  0.62578694  0.64429267  1
  O  O57  1  0.52010406  0.12862888  0.05789430  1
  O  O58  1  0.61300799  0.84552246  0.40219946  1
  O  O59  1  0.87787293  0.86031487  0.96128721  1
  O  O60  1  0.64017963  0.26726153  0.21039345  1
  O  O61  1  0.72584951  0.38098857  0.37387373  1
  O  O62  1  0.86420990  0.77547600  0.79204555  1
  O  O63  1  0.86448173  0.87565986  0.62823077  1
  O  O64  1  0.77375702  0.12372421  0.35549721  1
  O  O65  1  0.63419202  0.36720521  0.04309995  1
  O  O66  1  0.98840360  0.62673484  0.93975730  1
  O  O67  1  0.87460555  0.34571296  0.59545728  1
  O  O68  1  0.92877161  0.19464953  0.78908957  1
  O  O69  1  0.78464119  0.87421306  0.14429267  1
  O  O70  1  0.87787293  0.63968513  0.46128721  1
  O  O71  1  0.86420990  0.72452400  0.29204555  1
  O  O72  1  0.86448173  0.62434014  0.12823077  1
  O  O73  1  0.98840360  0.87326516  0.43975730  1
  O  O74  1  0.87460555  0.15428704  0.09545728  1
  O  O75  1  0.92877161  0.30535047  0.28908957  1
