# generated using pymatgen
data_MnH8(SO6)2
_symmetry_space_group_name_H-M   'P 1'
_cell_length_a   9.35129855
_cell_length_b   11.46605524
_cell_length_c   11.02732446
_cell_angle_alpha   68.62172408
_cell_angle_beta   90.00000000
_cell_angle_gamma   114.06557312
_symmetry_Int_Tables_number   1
_chemical_formula_structural   MnH8(SO6)2
_chemical_formula_sum   'Mn4 H32 S8 O48'
_cell_volume   989.83867703
_cell_formula_units_Z   4
loop_
 _symmetry_equiv_pos_site_id
 _symmetry_equiv_pos_as_xyz
  1  'x, y, z'
loop_
 _atom_site_type_symbol
 _atom_site_label
 _atom_site_symmetry_multiplicity
 _atom_site_fract_x
 _atom_site_fract_y
 _atom_site_fract_z
 _atom_site_occupancy
  Mn  Mn0  1  0.00000000  0.50000000  0.00000000  1
  Mn  Mn1  1  0.25061189  1.00000000  0.25000000  1
  Mn  Mn2  1  0.50000000  0.50000000  0.50000000  1
  Mn  Mn3  1  0.74938811  0.00000000  0.75000000  1
  H  H4  1  0.01805670  0.27014047  0.02077388  1
  H  H5  1  0.75353078  0.26869924  0.03424245  1
  H  H6  1  0.34699920  0.25268525  0.03958016  1
  H  H7  1  0.00349296  0.03846983  0.16653771  1
  H  H8  1  0.53707417  0.04037351  0.16681681  1
  H  H9  1  0.80618705  0.59701492  0.04910890  1
  H  H10  1  0.27804677  0.59666916  0.05081300  1
  H  H11  1  0.39517844  0.26371864  0.18069060  1
  H  H12  1  0.13145979  0.73628136  0.31930940  1
  H  H13  1  0.68137761  0.40333084  0.44918700  1
  H  H14  1  0.25208377  0.27014047  0.52077388  1
  H  H15  1  0.20917313  0.40298508  0.45089110  1
  H  H16  1  0.51516847  0.26869924  0.53424245  1
  H  H17  1  0.90568605  0.25268525  0.53958016  1
  H  H18  1  0.03497687  0.03846983  0.66653771  1
  H  H19  1  0.50329934  0.04037351  0.66681681  1
  H  H20  1  0.49670066  0.95962649  0.33318319  1
  H  H21  1  0.96502313  0.96153017  0.33346229  1
  H  H22  1  0.09431395  0.74731475  0.46041984  1
  H  H23  1  0.48483153  0.73130076  0.46575755  1
  H  H24  1  0.79082687  0.59701492  0.54910890  1
  H  H25  1  0.74791623  0.72985953  0.47922612  1
  H  H26  1  0.31862239  0.59666916  0.55081300  1
  H  H27  1  0.86854021  0.26371864  0.68069060  1
  H  H28  1  0.60482156  0.73628136  0.81930940  1
  H  H29  1  0.72195323  0.40333084  0.94918700  1
  H  H30  1  0.19381295  0.40298508  0.95089110  1
  H  H31  1  0.46292583  0.95962649  0.83318319  1
  H  H32  1  0.99650704  0.96153017  0.83346229  1
  H  H33  1  0.65300080  0.74731475  0.96041984  1
  H  H34  1  0.24646922  0.73130076  0.96575755  1
  H  H35  1  0.98194330  0.72985953  0.97922612  1
  S  S36  1  0.76990247  0.03648149  0.03285380  1
  S  S37  1  0.49967287  0.51835539  0.20042513  1
  S  S38  1  0.98131748  0.48164461  0.29957487  1
  S  S39  1  0.26658002  0.03648149  0.53285380  1
  S  S40  1  0.73341998  0.96351851  0.46714620  1
  S  S41  1  0.01868252  0.51835539  0.70042513  1
  S  S42  1  0.50032713  0.48164461  0.79957487  1
  S  S43  1  0.23009753  0.96351851  0.96714620  1
  O  O44  1  0.93813142  0.11203281  0.04899868  1
  O  O45  1  0.67803251  0.11114794  0.05112117  1
  O  O46  1  0.08829996  0.37112963  0.00569759  1
  O  O47  1  0.77841638  0.36729242  0.02321289  1
  O  O48  1  0.36014424  0.19938617  0.13115965  1
  O  O49  1  0.04496685  0.00000000  0.25000000  1
  O  O50  1  0.45652156  1.00000000  0.25000000  1
  O  O51  1  0.63907653  0.60525902  0.08976543  1
  O  O52  1  0.98604001  0.42786849  0.19097732  1
  O  O53  1  0.36280814  0.54547133  0.16313846  1
  O  O54  1  0.46332588  0.37019296  0.25076890  1
  O  O55  1  0.28256052  0.06633441  0.38545649  1
  O  O56  1  0.80839171  0.10989883  0.38418825  1
  O  O57  1  0.69849288  0.89010117  0.11581175  1
  O  O58  1  0.21622611  0.93366559  0.11454351  1
  O  O59  1  0.09313292  0.62980704  0.24923110  1
  O  O60  1  0.81733582  0.45452867  0.33686154  1
  O  O61  1  0.55817052  0.57213151  0.30902268  1
  O  O62  1  0.03381852  0.39474098  0.41023457  1
  O  O63  1  0.17390139  0.11203281  0.54899868  1
  O  O64  1  0.43311543  0.11114794  0.55112117  1
  O  O65  1  0.28282968  0.37112963  0.50569759  1
  O  O66  1  0.58887604  0.36729242  0.52321289  1
  O  O67  1  0.16075806  0.80061383  0.36884035  1
  O  O68  1  0.83924194  0.19938617  0.63115965  1
  O  O69  1  0.41112396  0.63270758  0.47678711  1
  O  O70  1  0.71717032  0.62887037  0.49430241  1
  O  O71  1  0.95503315  0.00000000  0.75000000  1
  O  O72  1  0.54347844  0.00000000  0.75000000  1
  O  O73  1  0.56688457  0.88885206  0.44887883  1
  O  O74  1  0.82609861  0.88796719  0.45100132  1
  O  O75  1  0.96618148  0.60525902  0.58976543  1
  O  O76  1  0.44182948  0.42786849  0.69097732  1
  O  O77  1  0.18266418  0.54547133  0.66313846  1
  O  O78  1  0.90686708  0.37019296  0.75076890  1
  O  O79  1  0.78377389  0.06633441  0.88545649  1
  O  O80  1  0.30150712  0.10989883  0.88418825  1
  O  O81  1  0.19160829  0.89010117  0.61581175  1
  O  O82  1  0.71743948  0.93366559  0.61454351  1
  O  O83  1  0.53667412  0.62980704  0.74923110  1
  O  O84  1  0.63719186  0.45452867  0.83686154  1
  O  O85  1  0.01395999  0.57213151  0.80902268  1
  O  O86  1  0.36092347  0.39474098  0.91023457  1
  O  O87  1  0.63985576  0.80061383  0.86884035  1
  O  O88  1  0.22158362  0.63270758  0.97678711  1
  O  O89  1  0.91170004  0.62887037  0.99430241  1
  O  O90  1  0.32196749  0.88885206  0.94887883  1
  O  O91  1  0.06186858  0.88796719  0.95100132  1
