# generated using pymatgen
data_Na2Ti2O5
_symmetry_space_group_name_H-M   'P 1'
_cell_length_a   12.53106239
_cell_length_b   5.50765956
_cell_length_c   8.90427042
_cell_angle_alpha   90.00000000
_cell_angle_beta   104.18361322
_cell_angle_gamma   90.00000000
_symmetry_Int_Tables_number   1
_chemical_formula_structural   Na2Ti2O5
_chemical_formula_sum   'Na8 Ti8 O20'
_cell_volume   595.81037838
_cell_formula_units_Z   4
loop_
 _symmetry_equiv_pos_site_id
 _symmetry_equiv_pos_as_xyz
  1  'x, y, z'
loop_
 _atom_site_type_symbol
 _atom_site_label
 _atom_site_symmetry_multiplicity
 _atom_site_fract_x
 _atom_site_fract_y
 _atom_site_fract_z
 _atom_site_occupancy
  Na  Na0  1  0.02896852  0.69617210  0.85579260  1
  Na  Na1  1  0.05589679  0.27435600  0.61997483  1
  Na  Na2  1  0.44410321  0.77435600  0.38002517  1
  Na  Na3  1  0.52896852  0.80382790  0.85579260  1
  Na  Na4  1  0.47103148  0.19617210  0.14420740  1
  Na  Na5  1  0.55589679  0.22564400  0.61997483  1
  Na  Na6  1  0.94410321  0.72564400  0.38002517  1
  Na  Na7  1  0.97103148  0.30382790  0.14420740  1
  Ti  Ti8  1  0.22849767  0.80402105  0.59807298  1
  Ti  Ti9  1  0.32054769  0.67308776  0.97691480  1
  Ti  Ti10  1  0.17945231  0.17308776  0.02308520  1
  Ti  Ti11  1  0.27150233  0.30402105  0.40192702  1
  Ti  Ti12  1  0.72849767  0.69597895  0.59807298  1
  Ti  Ti13  1  0.82054769  0.82691224  0.97691480  1
  Ti  Ti14  1  0.67945231  0.32691224  0.02308520  1
  Ti  Ti15  1  0.77150233  0.19597895  0.40192702  1
  O  O16  1  0.06036550  0.26490658  0.88925841  1
  O  O17  1  0.09627214  0.71236563  0.61012125  1
  O  O18  1  0.30180812  0.33934121  0.99569334  1
  O  O19  1  0.22293654  0.13631619  0.55443300  1
  O  O20  1  0.16411218  0.24909061  0.22066780  1
  O  O21  1  0.33588782  0.74909061  0.77933220  1
  O  O22  1  0.27706346  0.63631619  0.44556700  1
  O  O23  1  0.19819188  0.83934121  0.00430666  1
  O  O24  1  0.40372786  0.21236563  0.38987875  1
  O  O25  1  0.56036550  0.23509342  0.88925841  1
  O  O26  1  0.43963450  0.76490658  0.11074159  1
  O  O27  1  0.59627214  0.78763437  0.61012125  1
  O  O28  1  0.80180812  0.16065879  0.99569334  1
  O  O29  1  0.72293654  0.36368381  0.55443300  1
  O  O30  1  0.66411218  0.25090939  0.22066780  1
  O  O31  1  0.83588782  0.75090939  0.77933220  1
  O  O32  1  0.77706346  0.86368381  0.44556700  1
  O  O33  1  0.69819188  0.66065879  0.00430666  1
  O  O34  1  0.90372786  0.28763437  0.38987875  1
  O  O35  1  0.93963450  0.73509342  0.11074159  1
