# generated using pymatgen
data_Li2Mn3P4(HO4)4
_symmetry_space_group_name_H-M   'P 1'
_cell_length_a   9.22606775
_cell_length_b   8.24856135
_cell_length_c   8.90395881
_cell_angle_alpha   90.00000000
_cell_angle_beta   99.45354802
_cell_angle_gamma   90.00000000
_symmetry_Int_Tables_number   1
_chemical_formula_structural   Li2Mn3P4(HO4)4
_chemical_formula_sum   'Li4 Mn6 P8 H8 O32'
_cell_volume   668.40464307
_cell_formula_units_Z   2
loop_
 _symmetry_equiv_pos_site_id
 _symmetry_equiv_pos_as_xyz
  1  'x, y, z'
loop_
 _atom_site_type_symbol
 _atom_site_label
 _atom_site_symmetry_multiplicity
 _atom_site_fract_x
 _atom_site_fract_y
 _atom_site_fract_z
 _atom_site_occupancy
  Li  Li0  1  0.02797711  0.33040758  0.98351482  1
  Li  Li1  1  0.52797711  0.16959242  0.98351482  1
  Li  Li2  1  0.47202289  0.83040758  0.01648518  1
  Li  Li3  1  0.97202289  0.66959242  0.01648518  1
  Mn  Mn4  1  0.00000000  0.50000000  0.50000000  1
  Mn  Mn5  1  0.00527826  0.13907919  0.34887433  1
  Mn  Mn6  1  0.49472174  0.63907919  0.65112567  1
  Mn  Mn7  1  0.50000000  0.00000000  0.50000000  1
  Mn  Mn8  1  0.50527826  0.36092081  0.34887433  1
  Mn  Mn9  1  0.99472174  0.86092081  0.65112567  1
  P  P10  1  0.22714467  0.56551959  0.82490964  1
  P  P11  1  0.20447591  0.80330923  0.38257429  1
  P  P12  1  0.29552409  0.30330923  0.61742571  1
  P  P13  1  0.27285533  0.06551959  0.17509036  1
  P  P14  1  0.72714467  0.93448041  0.82490964  1
  P  P15  1  0.70447591  0.69669077  0.38257429  1
  P  P16  1  0.79552409  0.19669077  0.61742571  1
  P  P17  1  0.77285533  0.43448041  0.17509036  1
  H  H18  1  0.21720126  0.99989254  0.88929587  1
  H  H19  1  0.23402073  0.04095968  0.72385382  1
  H  H20  1  0.26597927  0.54095968  0.27614618  1
  H  H21  1  0.28279874  0.49989254  0.11070413  1
  H  H22  1  0.71720126  0.50010746  0.88929587  1
  H  H23  1  0.73402073  0.45904032  0.72385382  1
  H  H24  1  0.76597927  0.95904032  0.27614618  1
  H  H25  1  0.78279874  0.00010746  0.11070413  1
  O  O26  1  0.12335090  0.63379588  0.68605941  1
  O  O27  1  0.15902365  0.00276431  0.78550729  1
  O  O28  1  0.11025108  0.92602776  0.45200227  1
  O  O29  1  0.14469873  0.53941298  0.95979486  1
  O  O30  1  0.14215883  0.29080542  0.51965953  1
  O  O31  1  0.13000740  0.64049246  0.34191136  1
  O  O32  1  0.12886574  0.16186861  0.13926580  1
  O  O33  1  0.27116146  0.38033218  0.78238816  1
  O  O34  1  0.22883854  0.88033218  0.21761184  1
  O  O35  1  0.37113426  0.66186861  0.86073420  1
  O  O36  1  0.36999260  0.14049246  0.65808864  1
  O  O37  1  0.35784217  0.79080542  0.48034047  1
  O  O38  1  0.35530127  0.03941298  0.04020614  1
  O  O39  1  0.38974892  0.42602776  0.54799773  1
  O  O40  1  0.34097635  0.50276431  0.21449271  1
  O  O41  1  0.37664910  0.13379588  0.31394059  1
  O  O42  1  0.62335090  0.86620412  0.68605941  1
  O  O43  1  0.65902365  0.49723569  0.78550729  1
  O  O44  1  0.61025108  0.57397224  0.45200227  1
  O  O45  1  0.64469873  0.96058702  0.95979486  1
  O  O46  1  0.64215783  0.20919458  0.51965953  1
  O  O47  1  0.63000740  0.85950754  0.34191136  1
  O  O48  1  0.62886574  0.33813139  0.13926580  1
  O  O49  1  0.77116146  0.11966782  0.78238816  1
  O  O50  1  0.72883854  0.61966782  0.21761184  1
  O  O51  1  0.87113426  0.83813139  0.86073420  1
  O  O52  1  0.86999260  0.35950754  0.65808864  1
  O  O53  1  0.85784217  0.70919458  0.48034047  1
  O  O54  1  0.85530127  0.46058702  0.04020614  1
  O  O55  1  0.88974892  0.07397224  0.54799773  1
  O  O56  1  0.84097635  0.99723569  0.21449271  1
  O  O57  1  0.87664910  0.36620412  0.31394059  1
