# generated using pymatgen
data_Te2MoWS2
_symmetry_space_group_name_H-M   'P 1'
_cell_length_a   3.35917647
_cell_length_b   3.35925271
_cell_length_c   38.34495493
_cell_angle_alpha   89.99997898
_cell_angle_beta   90.00000000
_cell_angle_gamma   119.99924934
_symmetry_Int_Tables_number   1
_chemical_formula_structural   Te2MoWS2
_chemical_formula_sum   'Te4 Mo2 W2 S4'
_cell_volume   374.72929335
_cell_formula_units_Z   2
loop_
 _symmetry_equiv_pos_site_id
 _symmetry_equiv_pos_as_xyz
  1  'x, y, z'
loop_
 _atom_site_type_symbol
 _atom_site_label
 _atom_site_symmetry_multiplicity
 _atom_site_fract_x
 _atom_site_fract_y
 _atom_site_fract_z
 _atom_site_occupancy
  Te  Te0  1  0.33335579  0.66671258  0.33109604  1
  Te  Te1  1  0.33335171  0.66670442  0.70715089  1
  Te  Te2  1  0.33335004  0.66670107  0.23246633  1
  Te  Te3  1  0.33335761  0.66671622  0.60793041  1
  Mo  Mo4  1  0.33329679  0.66659359  0.09392804  1
  Mo  Mo5  1  0.66668428  0.33336855  0.28179559  1
  W  W6  1  0.33330869  0.66661738  0.46966136  1
  W  W7  1  0.66668699  0.33337399  0.65754831  1
  S  S8  1  0.66665942  0.33331784  0.05445532  1
  S  S9  1  0.66664468  0.33328835  0.43004447  1
  S  S10  1  0.66666046  0.33331992  0.13340443  1
  S  S11  1  0.66664355  0.33328610  0.50926681  1
