# generated using pymatgen
data_LiFe(SiO3)2
_symmetry_space_group_name_H-M   'P 1'
_cell_length_a   5.23423824
_cell_length_b   10.67158378
_cell_length_c   5.23272706
_cell_angle_alpha   104.58407660
_cell_angle_beta   89.28451163
_cell_angle_gamma   76.55576355
_symmetry_Int_Tables_number   1
_chemical_formula_structural   LiFe(SiO3)2
_chemical_formula_sum   'Li2 Fe2 Si4 O12'
_cell_volume   274.33383227
_cell_formula_units_Z   2
loop_
 _symmetry_equiv_pos_site_id
 _symmetry_equiv_pos_as_xyz
  1  'x, y, z'
loop_
 _atom_site_type_symbol
 _atom_site_label
 _atom_site_symmetry_multiplicity
 _atom_site_fract_x
 _atom_site_fract_y
 _atom_site_fract_z
 _atom_site_occupancy
  Li  Li0  1  0.09974210  0.66826280  0.82463373  1
  Li  Li1  1  0.90654036  0.16824719  0.51782217  1
  Fe  Fe2  1  0.71797693  0.49359454  0.74138279  1
  Fe  Fe3  1  0.99782127  0.99366806  0.96168323  1
  Si  Si4  1  0.41037121  0.16835840  0.16608569  1
  Si  Si5  1  0.30078350  0.33716958  0.74652109  1
  Si  Si6  1  0.15902663  0.83707910  0.38770313  1
  Si  Si7  1  0.74726031  0.66848468  0.32848893  1
  O  O8  1  0.12138067  0.13565599  0.17901562  1
  O  O9  1  0.99030375  0.33631117  0.72305861  1
  O  O10  1  0.05954629  0.98548155  0.59556498  1
  O  O11  1  0.13667028  0.83622109  0.07635077  1
  O  O12  1  0.64156736  0.03332166  0.06203103  1
  O  O13  1  0.47902006  0.24222957  0.46940073  1
  O  O14  1  0.36004483  0.48576168  0.79587058  1
  O  O15  1  0.42157397  0.26965146  0.97929887  1
  O  O16  1  0.45994766  0.76950922  0.44080119  1
  O  O17  1  0.77797099  0.53311007  0.42446119  1
  O  O18  1  0.79315877  0.63572195  0.00646366  1
  O  O19  1  0.97715005  0.74173224  0.47079002  1
