# generated using pymatgen
data_V6O5F19
_symmetry_space_group_name_H-M   'P 1'
_cell_length_a   5.53023015
_cell_length_b   5.31654862
_cell_length_c   14.90890500
_cell_angle_alpha   89.83123373
_cell_angle_beta   100.35277181
_cell_angle_gamma   90.91469356
_symmetry_Int_Tables_number   1
_chemical_formula_structural   V6O5F19
_chemical_formula_sum   'V6 O5 F19'
_cell_volume   431.15643295
_cell_formula_units_Z   1
loop_
 _symmetry_equiv_pos_site_id
 _symmetry_equiv_pos_as_xyz
  1  'x, y, z'
loop_
 _atom_site_type_symbol
 _atom_site_label
 _atom_site_symmetry_multiplicity
 _atom_site_fract_x
 _atom_site_fract_y
 _atom_site_fract_z
 _atom_site_occupancy
  V  V0  1  0.04028897  0.96593855  0.00362491  1
  V  V1  1  0.11051726  0.47959821  0.33142023  1
  V  V2  1  0.31369433  0.99539421  0.66670996  1
  V  V3  1  0.52986703  0.45822882  0.99626292  1
  V  V4  1  0.60582112  0.02654742  0.33036464  1
  V  V5  1  0.78931203  0.47828531  0.66445677  1
  O  O6  1  0.36246448  0.20709651  0.30876134  1
  O  O7  1  0.54218651  0.29577668  0.64482663  1
  O  O8  1  0.69995795  0.22615078  0.97939913  1
  O  O9  1  0.28036112  0.79081660  0.02101917  1
  O  O10  1  0.86347586  0.29340007  0.30997351  1
  F  F11  1  0.01954949  0.20511317  0.64270513  1
  F  F12  1  0.21351805  0.27671237  0.97368572  1
  F  F13  1  0.13884268  0.70761048  0.68950516  1
  F  F14  1  0.04235618  0.09647134  0.11324334  1
  F  F15  1  0.23628379  0.41247154  0.44656363  1
  F  F16  1  0.38413047  0.09173734  0.78202178  1
  F  F17  1  0.14441831  0.58173804  0.22106107  1
  F  F18  1  0.30539179  0.93128785  0.55000235  1
  F  F19  1  0.45580511  0.59805583  0.88677374  1
  F  F20  1  0.47490987  0.72701958  0.35789222  1
  F  F21  1  0.62988405  0.77749781  0.69049392  1
  F  F22  1  0.52610160  0.43734708  0.11488119  1
  F  F23  1  0.73138859  0.08635111  0.44631137  1
  F  F24  1  0.90036190  0.42660596  0.78173724  1
  F  F25  1  0.64601430  0.92390695  0.22109965  1
  F  F26  1  0.80808682  0.58763692  0.55364234  1
  F  F27  1  0.92847121  0.93142152  0.88517628  1
  F  F28  1  0.79748353  0.71341277  0.02678132  1
  F  F29  1  0.97905562  0.77036820  0.35960235  1
