# generated using pymatgen
data_Li8Fe7Ni(PO4)12
_symmetry_space_group_name_H-M   'P 1'
_cell_length_a   8.68801984
_cell_length_b   8.82226208
_cell_length_c   12.26899190
_cell_angle_alpha   89.86989415
_cell_angle_beta   89.96682338
_cell_angle_gamma   89.96172646
_symmetry_Int_Tables_number   1
_chemical_formula_structural   Li8Fe7Ni(PO4)12
_chemical_formula_sum   'Li8 Fe7 Ni1 P12 O48'
_cell_volume   940.39075288
_cell_formula_units_Z   1
loop_
 _symmetry_equiv_pos_site_id
 _symmetry_equiv_pos_as_xyz
  1  'x, y, z'
loop_
 _atom_site_type_symbol
 _atom_site_label
 _atom_site_symmetry_multiplicity
 _atom_site_fract_x
 _atom_site_fract_y
 _atom_site_fract_z
 _atom_site_occupancy
  Li  Li0  1  0.21771410  0.72215309  0.18310799  1
  Li  Li1  1  0.21858220  0.77759327  0.81672145  1
  Li  Li2  1  0.28161043  0.22202602  0.31758428  1
  Li  Li3  1  0.28286196  0.27772688  0.68233897  1
  Li  Li4  1  0.71659786  0.72217336  0.31759731  1
  Li  Li5  1  0.71716498  0.77632976  0.68257688  1
  Li  Li6  1  0.78284387  0.22226880  0.18314037  1
  Li  Li7  1  0.78283457  0.27851747  0.81419590  1
  Fe  Fe8  1  0.24965409  0.95807765  0.61338769  1
  Fe  Fe9  1  0.24849792  0.54150017  0.38681805  1
  Fe  Fe10  1  0.25053530  0.04096456  0.11342556  1
  Fe  Fe11  1  0.25082831  0.45813230  0.88725417  1
  Fe  Fe12  1  0.75038575  0.54061032  0.11216306  1
  Fe  Fe13  1  0.74955218  0.95941986  0.88619149  1
  Fe  Fe14  1  0.74951848  0.04061546  0.38671078  1
  Ni  Ni15  1  0.74892706  0.46052380  0.61408048  1
  P  P16  1  0.03884774  0.25127202  0.50055976  1
  P  P17  1  0.46012740  0.74985871  0.99995697  1
  P  P18  1  0.53960053  0.25000256  0.99989689  1
  P  P19  1  0.96125183  0.74971045  0.50008502  1
  P  P20  1  0.10608465  0.39273043  0.14642493  1
  P  P21  1  0.10621885  0.10709345  0.85325231  1
  P  P22  1  0.39552358  0.60785514  0.64656666  1
  P  P23  1  0.39416110  0.89278637  0.35352060  1
  P  P24  1  0.60539611  0.10856972  0.64677402  1
  P  P25  1  0.60558838  0.39193226  0.35257902  1
  P  P26  1  0.89396313  0.60727574  0.85300496  1
  P  P27  1  0.89401898  0.89228614  0.14637526  1
  O  O28  1  0.05700143  0.64250511  0.42927791  1
  O  O29  1  0.05842332  0.85623044  0.57005293  1
  O  O30  1  0.07281136  0.89528031  0.15522156  1
  O  O31  1  0.07295767  0.60405432  0.84371803  1
  O  O32  1  0.14678195  0.16242094  0.57928581  1
  O  O33  1  0.14741826  0.33864227  0.42129958  1
  O  O34  1  0.15648659  0.43476526  0.03091196  1
  O  O35  1  0.15677860  0.06517676  0.96898515  1
  O  O36  1  0.16235908  0.23237410  0.17945831  1
  O  O37  1  0.16302527  0.26699857  0.82036980  1
  O  O38  1  0.17356864  0.51210344  0.22676049  1
  O  O39  1  0.17317200  0.98715457  0.77311671  1
  O  O40  1  0.32677216  0.01230718  0.27366985  1
  O  O41  1  0.32847994  0.48734078  0.72689164  1
  O  O42  1  0.33800902  0.76781660  0.67909419  1
  O  O43  1  0.33771113  0.73220823  0.32111059  1
  O  O44  1  0.34392751  0.56442316  0.53115324  1
  O  O45  1  0.34257410  0.93445994  0.46922140  1
  O  O46  1  0.35124317  0.83755288  0.07852498  1
  O  O47  1  0.35084357  0.66238873  0.92156605  1
  O  O48  1  0.42627445  0.10394088  0.65449744  1
  O  O49  1  0.42678235  0.39442947  0.34444954  1
  O  O50  1  0.44239994  0.14294434  0.06974771  1
  O  O51  1  0.44272341  0.35731601  0.93040743  1
  O  O52  1  0.55794598  0.64296393  0.06946486  1
  O  O53  1  0.55788919  0.85647264  0.92998787  1
  O  O54  1  0.57284270  0.60632023  0.65690158  1
  O  O55  1  0.57249189  0.89537823  0.34491035  1
  O  O56  1  0.64885468  0.33721247  0.07857596  1
  O  O57  1  0.64922772  0.16291191  0.92139618  1
  O  O58  1  0.65607756  0.06611852  0.53064097  1
  O  O59  1  0.65592961  0.43954285  0.46675407  1
  O  O60  1  0.66296893  0.23224698  0.32048713  1
  O  O61  1  0.66020450  0.26673577  0.68002725  1
  O  O62  1  0.67156959  0.51221745  0.27204360  1
  O  O63  1  0.67239781  0.98725607  0.72626569  1
  O  O64  1  0.82723924  0.01173772  0.22677145  1
  O  O65  1  0.82973579  0.48708930  0.77449520  1
  O  O66  1  0.83727820  0.73210568  0.17905328  1
  O  O67  1  0.83776559  0.76816022  0.82077793  1
  O  O68  1  0.84331350  0.56537546  0.96903016  1
  O  O69  1  0.84325150  0.93420217  0.03067205  1
  O  O70  1  0.85276883  0.66455836  0.57893122  1
  O  O71  1  0.85136602  0.83690341  0.42177818  1
  O  O72  1  0.92752827  0.10391558  0.84450547  1
  O  O73  1  0.92725148  0.39611243  0.15572741  1
  O  O74  1  0.93953959  0.14534547  0.43037533  1
  O  O75  1  0.94714454  0.35427210  0.57534669  1
