# generated using pymatgen
data_Te4Mo3WS4
_symmetry_space_group_name_H-M   'P 1'
_cell_length_a   3.36190812
_cell_length_b   3.36221855
_cell_length_c   38.30512461
_cell_angle_alpha   90.00006464
_cell_angle_beta   90.00000000
_cell_angle_gamma   119.99694588
_symmetry_Int_Tables_number   1
_chemical_formula_structural   Te4Mo3WS4
_chemical_formula_sum   'Te4 Mo3 W1 S4'
_cell_volume   374.98392914
_cell_formula_units_Z   1
loop_
 _symmetry_equiv_pos_site_id
 _symmetry_equiv_pos_as_xyz
  1  'x, y, z'
loop_
 _atom_site_type_symbol
 _atom_site_label
 _atom_site_symmetry_multiplicity
 _atom_site_fract_x
 _atom_site_fract_y
 _atom_site_fract_z
 _atom_site_occupancy
  Te  Te0  1  0.33336183  0.66672465  0.33115607  1
  Te  Te1  1  0.33335268  0.66670636  0.70715908  1
  Te  Te2  1  0.33335564  0.66671227  0.23243533  1
  Te  Te3  1  0.33335317  0.66670733  0.60789315  1
  Mo  Mo4  1  0.33329569  0.66659138  0.09392151  1
  Mo  Mo5  1  0.33330794  0.66661589  0.46966187  1
  Mo  Mo6  1  0.66668885  0.33337769  0.28178959  1
  W  W7  1  0.66668621  0.33337242  0.65754834  1
  S  S8  1  0.66665282  0.33330464  0.05439763  1
  S  S9  1  0.66664552  0.33329004  0.43018369  1
  S  S10  1  0.66665485  0.33330870  0.13345743  1
  S  S11  1  0.66664481  0.33328863  0.50914432  1
