# generated using pymatgen
data_Li4Mn3O8
_symmetry_space_group_name_H-M   'P 1'
_cell_length_a   8.32480612
_cell_length_b   8.32471430
_cell_length_c   8.32470166
_cell_angle_alpha   90.42743243
_cell_angle_beta   90.42749589
_cell_angle_gamma   90.42731533
_symmetry_Int_Tables_number   1
_chemical_formula_structural   Li4Mn3O8
_chemical_formula_sum   'Li16 Mn12 O32'
_cell_volume   576.86701793
_cell_formula_units_Z   4
loop_
 _symmetry_equiv_pos_site_id
 _symmetry_equiv_pos_as_xyz
  1  'x, y, z'
loop_
 _atom_site_type_symbol
 _atom_site_label
 _atom_site_symmetry_multiplicity
 _atom_site_fract_x
 _atom_site_fract_y
 _atom_site_fract_z
 _atom_site_occupancy
  Li  Li0  1  0.01142780  0.80434841  0.76937447  1
  Li  Li1  1  0.19564967  0.98856411  0.23062500  1
  Li  Li2  1  0.99999841  0.72393039  0.27607415  1
  Li  Li3  1  0.38779962  0.85620175  0.38877779  1
  Li  Li4  1  0.14380043  0.61220390  0.61122646  1
  Li  Li5  1  0.50000372  0.50000456  0.50000580  1
  Li  Li6  1  0.38877472  0.38779779  0.85620133  1
  Li  Li7  1  0.61220479  0.61122659  0.14380563  1
  Li  Li8  1  0.23062226  0.19565350  0.98857161  1
  Li  Li9  1  0.80434912  0.76937533  0.01142966  1
  Li  Li10  1  0.72392853  0.27606754  0.99999837  1
  Li  Li11  1  0.27606711  0.99999940  0.72393138  1
  Li  Li12  1  0.85619922  0.38877372  0.38779894  1
  Li  Li13  1  0.61122390  0.14380578  0.61220633  1
  Li  Li14  1  0.76937487  0.01142499  0.80434286  1
  Li  Li15  1  0.98857137  0.23062610  0.19565600  1
  Mn  Mn16  1  0.49999820  0.99361307  0.00638689  1
  Mn  Mn17  1  0.00638538  0.50000237  0.99361416  1
  Mn  Mn18  1  0.25791686  0.74208574  0.00000323  1
  Mn  Mn19  1  0.99999929  0.25791691  0.74208470  1
  Mn  Mn20  1  0.50639935  0.74999041  0.75472246  1
  Mn  Mn21  1  0.25000885  0.49360484  0.24528122  1
  Mn  Mn22  1  0.24528278  0.25001290  0.49360452  1
  Mn  Mn23  1  0.74998951  0.75472421  0.50640159  1
  Mn  Mn24  1  0.49360219  0.24528326  0.25001092  1
  Mn  Mn25  1  0.75472069  0.50639919  0.74999355  1
  Mn  Mn26  1  0.74208224  0.00000095  0.25791587  1
  Mn  Mn27  1  0.99361356  0.00639104  0.49999993  1
  O  O28  1  0.27019592  0.97021793  0.00769935  1
  O  O29  1  0.02978546  0.72980862  0.99229853  1
  O  O30  1  0.50604875  0.00753758  0.24271903  1
  O  O31  1  0.99246155  0.49395403  0.75728275  1
  O  O32  1  0.51733828  0.98356035  0.77842628  1
  O  O33  1  0.01644145  0.48265950  0.22157624  1
  O  O34  1  0.25112748  0.72437289  0.23285366  1
  O  O35  1  0.27563311  0.74886603  0.76715242  1
  O  O36  1  0.72980018  0.99230002  0.02978208  1
  O  O37  1  0.00769736  0.27019788  0.97021806  1
  O  O38  1  0.52254780  0.75218578  0.53074868  1
  O  O39  1  0.24781816  0.47745863  0.46925747  1
  O  O40  1  0.24271482  0.50604935  0.00753898  1
  O  O41  1  0.49394995  0.75728321  0.99246818  1
  O  O42  1  0.23284720  0.25113313  0.72437261  1
  O  O43  1  0.74886799  0.76715337  0.27563444  1
  O  O44  1  0.74727706  0.74728174  0.74728172  1
  O  O45  1  0.25272618  0.25272645  0.25272498  1
  O  O46  1  0.47745309  0.46925720  0.24781474  1
  O  O47  1  0.53074999  0.52254458  0.75219234  1
  O  O48  1  0.98355776  0.77843129  0.51734599  1
  O  O49  1  0.22157116  0.01644309  0.48265750  1
  O  O50  1  0.75219235  0.53074932  0.52254827  1
  O  O51  1  0.46925446  0.24781569  0.47745745  1
  O  O52  1  0.48265515  0.22157345  0.01644064  1
  O  O53  1  0.77842827  0.51734741  0.98356324  1
  O  O54  1  0.72436869  0.23285283  0.25112849  1
  O  O55  1  0.76715238  0.27563182  0.74886712  1
  O  O56  1  0.75728456  0.99247093  0.49395487  1
  O  O57  1  0.00754018  0.24272064  0.50604747  1
  O  O58  1  0.99230211  0.02978407  0.72980669  1
  O  O59  1  0.97021373  0.00770040  0.27019492  1
