# generated using pymatgen
data_LiFeP2HO7
_symmetry_space_group_name_H-M   'P 1'
_cell_length_a   6.61441315
_cell_length_b   6.49397855
_cell_length_c   6.59822300
_cell_angle_alpha   69.34745971
_cell_angle_beta   92.91434320
_cell_angle_gamma   98.19093383
_symmetry_Int_Tables_number   1
_chemical_formula_structural   LiFeP2HO7
_chemical_formula_sum   'Li2 Fe2 P4 H2 O14'
_cell_volume   262.50015070
_cell_formula_units_Z   2
loop_
 _symmetry_equiv_pos_site_id
 _symmetry_equiv_pos_as_xyz
  1  'x, y, z'
loop_
 _atom_site_type_symbol
 _atom_site_label
 _atom_site_symmetry_multiplicity
 _atom_site_fract_x
 _atom_site_fract_y
 _atom_site_fract_z
 _atom_site_occupancy
  Li  Li0  1  0.13671062  0.24398367  0.78714371  1
  Li  Li1  1  0.86328938  0.75601633  0.21285629  1
  Fe  Fe2  1  0.34926437  0.10809513  0.27740202  1
  Fe  Fe3  1  0.65073563  0.89190487  0.72259798  1
  P  P4  1  0.15884578  0.78592195  0.75587029  1
  P  P5  1  0.38691637  0.64056985  0.17742008  1
  P  P6  1  0.61308363  0.35943015  0.82257992  1
  P  P7  1  0.84115422  0.21407805  0.24412971  1
  H  H8  1  0.17705670  0.67255933  0.48330473  1
  H  H9  1  0.82294330  0.32744067  0.51669527  1
  O  O10  1  0.09363750  0.61775441  0.63088232  1
  O  O11  1  0.01593483  0.10547980  0.20193613  1
  O  O12  1  0.23170863  0.62030292  0.98130171  1
  O  O13  1  0.28222781  0.77904948  0.28012922  1
  O  O14  1  0.33796761  0.95340261  0.63947554  1
  O  O15  1  0.38376591  0.40299273  0.32705432  1
  O  O16  1  0.40699079  0.24184867  0.92585254  1
  O  O17  1  0.59300921  0.75815133  0.07414746  1
  O  O18  1  0.61623409  0.59700727  0.67294568  1
  O  O19  1  0.66203239  0.04659739  0.36052446  1
  O  O20  1  0.71777219  0.22095052  0.71987078  1
  O  O21  1  0.76829137  0.37969708  0.01869829  1
  O  O22  1  0.98406517  0.89452020  0.79806387  1
  O  O23  1  0.90636250  0.38224559  0.36911768  1
