# generated using pymatgen
data_V3O5F
_symmetry_space_group_name_H-M   'P 1'
_cell_length_a   4.58448198
_cell_length_b   7.65269160
_cell_length_c   5.50301375
_cell_angle_alpha   92.91477254
_cell_angle_beta   91.35576459
_cell_angle_gamma   89.07980531
_symmetry_Int_Tables_number   1
_chemical_formula_structural   V3O5F
_chemical_formula_sum   'V6 O10 F2'
_cell_volume   192.74058780
_cell_formula_units_Z   2
loop_
 _symmetry_equiv_pos_site_id
 _symmetry_equiv_pos_as_xyz
  1  'x, y, z'
loop_
 _atom_site_type_symbol
 _atom_site_label
 _atom_site_symmetry_multiplicity
 _atom_site_fract_x
 _atom_site_fract_y
 _atom_site_fract_z
 _atom_site_occupancy
  V  V0  1  0.50000000  0.66666700  0.16666700  1
  V  V1  1  0.49151322  0.99418502  0.50624402  1
  V  V2  1  0.50848678  0.33914798  0.82708898  1
  V  V3  1  0.00000000  0.66666700  0.66666700  1
  V  V4  1  0.98204576  0.31648099  0.33558126  1
  V  V5  1  0.01795424  0.01685201  0.99775174  1
  O  O6  1  0.79752747  0.42863781  0.63333164  1
  O  O7  1  0.79797376  0.09923276  0.29595046  1
  O  O8  1  0.70185416  0.09684806  0.79747966  1
  O  O9  1  0.68814421  0.76893593  0.46707694  1
  O  O10  1  0.70775811  0.43413762  0.13664487  1
  O  O11  1  0.31185579  0.56439707  0.86625606  1
  O  O12  1  0.29814584  0.23648494  0.53585334  1
  O  O13  1  0.29224189  0.89919538  0.19668813  1
  O  O14  1  0.20202624  0.23410024  0.03738254  1
  O  O15  1  0.20247253  0.90469519  0.70000136  1
  F  F16  1  0.80901190  0.77489751  0.96987012  1
  F  F17  1  0.19098810  0.55843549  0.36346388  1
