# generated using pymatgen
data_MgIn2O4
_symmetry_space_group_name_H-M   'P 1'
_cell_length_a   6.40616201
_cell_length_b   6.40616200
_cell_length_c   6.40616200
_cell_angle_alpha   60.00000000
_cell_angle_beta   60.00000003
_cell_angle_gamma   59.99999999
_symmetry_Int_Tables_number   1
_chemical_formula_structural   MgIn2O4
_chemical_formula_sum   'Mg2 In4 O8'
_cell_volume   185.89972771
_cell_formula_units_Z   2
loop_
 _symmetry_equiv_pos_site_id
 _symmetry_equiv_pos_as_xyz
  1  'x, y, z'
loop_
 _atom_site_type_symbol
 _atom_site_label
 _atom_site_symmetry_multiplicity
 _atom_site_fract_x
 _atom_site_fract_y
 _atom_site_fract_z
 _atom_site_occupancy
  O  O0  1  0.74412221  0.74412221  0.74412221  1
  O  O1  1  0.25587779  0.25587779  0.73236663  1
  O  O2  1  0.25587779  0.73236663  0.25587779  1
  O  O3  1  0.73236663  0.25587779  0.25587779  1
  O  O4  1  0.74412221  0.26763337  0.74412221  1
  O  O5  1  0.26763337  0.74412221  0.74412221  1
  O  O6  1  0.25587779  0.25587779  0.25587779  1
  O  O7  1  0.74412221  0.74412221  0.26763337  1
  Mg  Mg8  1  0.12500000  0.12500000  0.12500000  1
  Mg  Mg9  1  0.87500000  0.87500000  0.87500000  1
  In  In10  1  0.50000000  0.50000000  0.00000000  1
  In  In11  1  0.50000000  0.50000000  0.50000000  1
  In  In12  1  0.00000000  0.50000000  0.50000000  1
  In  In13  1  0.50000000  0.00000000  0.50000000  1
