# generated using pymatgen
data_LiFeF3
_symmetry_space_group_name_H-M   'P 1'
_cell_length_a   4.94479635
_cell_length_b   7.40751810
_cell_length_c   3.20521313
_cell_angle_alpha   89.99580024
_cell_angle_beta   89.94438701
_cell_angle_gamma   89.93136436
_symmetry_Int_Tables_number   1
_chemical_formula_structural   LiFeF3
_chemical_formula_sum   'Li2 Fe2 F6'
_cell_volume   117.40254944
_cell_formula_units_Z   2
loop_
 _symmetry_equiv_pos_site_id
 _symmetry_equiv_pos_as_xyz
  1  'x, y, z'
loop_
 _atom_site_type_symbol
 _atom_site_label
 _atom_site_symmetry_multiplicity
 _atom_site_fract_x
 _atom_site_fract_y
 _atom_site_fract_z
 _atom_site_occupancy
  Li  Li0  1  0.46658859  0.75436456  0.49633666  1
  Li  Li1  1  0.53107226  0.25425827  0.50427154  1
  Fe  Fe2  1  0.99867561  0.00140902  0.00090809  1
  Fe  Fe3  1  0.99714403  0.50141125  0.00120263  1
  F  F4  1  0.24258713  0.43261187  0.51612993  1
  F  F5  1  0.24581977  0.06874244  0.51513193  1
  F  F6  1  0.23017441  0.75093106  0.99765821  1
  F  F7  1  0.74831405  0.56793170  0.48567401  1
  F  F8  1  0.75218150  0.93389555  0.48644720  1
  F  F9  1  0.76696065  0.25124428  0.00317380  1
