# generated using pymatgen
data_Li4Mn2(PO4)3
_symmetry_space_group_name_H-M   'P 1'
_cell_length_a   8.64876704
_cell_length_b   8.88844155
_cell_length_c   12.46496159
_cell_angle_alpha   90.03946206
_cell_angle_beta   88.10594771
_cell_angle_gamma   90.01655095
_symmetry_Int_Tables_number   1
_chemical_formula_structural   Li4Mn2(PO4)3
_chemical_formula_sum   'Li16 Mn8 P12 O48'
_cell_volume   957.70841952
_cell_formula_units_Z   4
loop_
 _symmetry_equiv_pos_site_id
 _symmetry_equiv_pos_as_xyz
  1  'x, y, z'
loop_
 _atom_site_type_symbol
 _atom_site_label
 _atom_site_symmetry_multiplicity
 _atom_site_fract_x
 _atom_site_fract_y
 _atom_site_fract_z
 _atom_site_occupancy
  Li  Li0  1  0.93013732  0.52601166  0.34705597  1
  Li  Li1  1  0.92397571  0.08812947  0.69298808  1
  Li  Li2  1  0.87472224  0.71869223  0.76809708  1
  Li  Li3  1  0.79727963  0.77362951  0.17853187  1
  Li  Li4  1  0.70280904  0.27366059  0.32180625  1
  Li  Li5  1  0.62394505  0.21906709  0.73132940  1
  Li  Li6  1  0.57566477  0.58750840  0.80622399  1
  Li  Li7  1  0.56946171  0.02572422  0.15338178  1
  Li  Li8  1  0.43005023  0.97380286  0.84706002  1
  Li  Li9  1  0.42397085  0.41182905  0.19291059  1
  Li  Li10  1  0.37449037  0.78103598  0.26842109  1
  Li  Li11  1  0.29735731  0.72617603  0.67837962  1
  Li  Li12  1  0.20281270  0.22669886  0.82167204  1
  Li  Li13  1  0.12398150  0.28107742  0.23148372  1
  Li  Li14  1  0.07538002  0.91238801  0.30643862  1
  Li  Li15  1  0.06895781  0.47470478  0.65340895  1
  Mn  Mn16  1  0.75230044  0.04800386  0.90397881  1
  Mn  Mn17  1  0.74650669  0.54821421  0.59452387  1
  Mn  Mn18  1  0.74114421  0.95594766  0.39563573  1
  Mn  Mn19  1  0.75911442  0.45633128  0.10475396  1
  Mn  Mn20  1  0.24123203  0.54371783  0.89552192  1
  Mn  Mn21  1  0.25858785  0.04423513  0.60482446  1
  Mn  Mn22  1  0.25233149  0.45212284  0.40444442  1
  Mn  Mn23  1  0.24704224  0.95174550  0.09529960  1
  P  P24  1  0.95297055  0.25178636  0.49282244  1
  P  P25  1  0.89267614  0.38720198  0.85368625  1
  P  P26  1  0.89520744  0.09907297  0.16035809  1
  P  P27  1  0.60749195  0.88725891  0.64709357  1
  P  P28  1  0.60447079  0.59889478  0.33942644  1
  P  P29  1  0.54803278  0.75223727  0.00739987  1
  P  P30  1  0.45263480  0.24775866  0.99273735  1
  P  P31  1  0.39501454  0.40063158  0.66028035  1
  P  P32  1  0.39233108  0.11288227  0.35386320  1
  P  P33  1  0.10468261  0.90108611  0.83924070  1
  P  P34  1  0.10737428  0.61284989  0.14701417  1
  P  P35  1  0.04811006  0.74816586  0.50740579  1
  O  O36  1  0.95257250  0.85731648  0.44100911  1
  O  O37  1  0.92804331  0.90113125  0.86786167  1
  O  O38  1  0.95140436  0.67205655  0.60221167  1
  O  O39  1  0.93565044  0.59111806  0.18808396  1
  O  O40  1  0.90135856  0.37400973  0.57622424  1
  O  O41  1  0.88046886  0.38775041  0.97619713  1
  O  O42  1  0.84484965  0.22449533  0.81419324  1
  O  O43  1  0.87017981  0.97635925  0.24934310  1
  O  O44  1  0.85713771  0.25932015  0.20112575  1
  O  O45  1  0.81345721  0.17874295  0.44117068  1
  O  O46  1  0.79282285  0.50855763  0.80053603  1
  O  O47  1  0.78579197  0.05123906  0.07059184  1
  O  O48  1  0.70728511  0.00945930  0.70004735  1
  O  O49  1  0.71376435  0.55005304  0.42852806  1
  O  O50  1  0.65549943  0.72589889  0.68738521  1
  O  O51  1  0.68753034  0.67908841  0.05871162  1
  O  O52  1  0.61991144  0.88731400  0.52457192  1
  O  O53  1  0.64293170  0.75910959  0.29922187  1
  O  O54  1  0.62896310  0.47649043  0.24987918  1
  O  O55  1  0.60017270  0.87484341  0.92365990  1
  O  O56  1  0.55014225  0.17127061  0.89763163  1
  O  O57  1  0.57158605  0.39979530  0.63222521  1
  O  O58  1  0.56384828  0.09127717  0.31263250  1
  O  O59  1  0.54832559  0.35803943  0.05847460  1
  O  O60  1  0.45256171  0.64273173  0.94096314  1
  O  O61  1  0.43544856  0.90930860  0.68791256  1
  O  O62  1  0.42767944  0.59943726  0.36807951  1
  O  O63  1  0.45067131  0.82852929  0.10212619  1
  O  O64  1  0.40087933  0.12565151  0.07628305  1
  O  O65  1  0.37016060  0.52354523  0.74934706  1
  O  O66  1  0.35629440  0.24046109  0.70082180  1
  O  O67  1  0.38001226  0.11186004  0.47626668  1
  O  O68  1  0.31332208  0.32057385  0.94110197  1
  O  O69  1  0.34475530  0.27518633  0.31425741  1
  O  O70  1  0.28602284  0.44877925  0.57053233  1
  O  O71  1  0.29231088  0.99141180  0.30025241  1
  O  O72  1  0.21405314  0.94982667  0.92861115  1
  O  O73  1  0.20719792  0.49102041  0.19992747  1
  O  O74  1  0.18823385  0.82161036  0.55835142  1
  O  O75  1  0.14280825  0.74083472  0.79904783  1
  O  O76  1  0.12966722  0.02335826  0.74964568  1
  O  O77  1  0.15551588  0.77487024  0.18692269  1
  O  O78  1  0.11968931  0.61263232  0.02446273  1
  O  O79  1  0.10008084  0.62536827  0.42352680  1
  O  O80  1  0.06412026  0.40857230  0.81237525  1
  O  O81  1  0.05015975  0.32828005  0.39769835  1
  O  O82  1  0.07184300  0.09956418  0.13190018  1
  O  O83  1  0.04857167  0.14156973  0.55856781  1
