# generated using pymatgen
data_V3O5F
_symmetry_space_group_name_H-M   'P 1'
_cell_length_a   4.66361087
_cell_length_b   7.55285558
_cell_length_c   5.53686362
_cell_angle_alpha   95.23294149
_cell_angle_beta   91.29131971
_cell_angle_gamma   88.37520971
_symmetry_Int_Tables_number   1
_chemical_formula_structural   V3O5F
_chemical_formula_sum   'V6 O10 F2'
_cell_volume   194.09822449
_cell_formula_units_Z   2
loop_
 _symmetry_equiv_pos_site_id
 _symmetry_equiv_pos_as_xyz
  1  'x, y, z'
loop_
 _atom_site_type_symbol
 _atom_site_label
 _atom_site_symmetry_multiplicity
 _atom_site_fract_x
 _atom_site_fract_y
 _atom_site_fract_z
 _atom_site_occupancy
  V  V0  1  0.51860381  0.66987389  0.16537293  1
  V  V1  1  0.49301429  0.99697440  0.49101813  1
  V  V2  1  0.52255103  0.34027764  0.82081447  1
  V  V3  1  0.99899496  0.67436167  0.67941377  1
  V  V4  1  0.97277794  0.31952633  0.34704876  1
  V  V5  1  0.99413708  0.98531146  0.99072728  1
  O  O6  1  0.80511779  0.43634171  0.62738652  1
  O  O7  1  0.80103683  0.09600809  0.29045420  1
  O  O8  1  0.79890627  0.77170568  0.98003850  1
  O  O9  1  0.68924180  0.10886266  0.79477520  1
  O  O10  1  0.69623075  0.77880130  0.48253955  1
  O  O11  1  0.71601190  0.42461464  0.13337800  1
  O  O12  1  0.30966399  0.55156671  0.86317579  1
  O  O13  1  0.29803049  0.23651145  0.52282120  1
  O  O14  1  0.29262355  0.90449719  0.20411814  1
  O  O15  1  0.19993473  0.91044607  0.70969964  1
  F  F16  1  0.19503235  0.22837511  0.03223640  1
  F  F17  1  0.19809144  0.56594400  0.36498052  1
