# generated using pymatgen
data_LiMnSiO4
_symmetry_space_group_name_H-M   'P 1'
_cell_length_a   6.01617669
_cell_length_b   10.04566962
_cell_length_c   4.82448339
_cell_angle_alpha   90.00000000
_cell_angle_beta   90.08881312
_cell_angle_gamma   90.00000000
_symmetry_Int_Tables_number   1
_chemical_formula_structural   LiMnSiO4
_chemical_formula_sum   'Li4 Mn4 Si4 O16'
_cell_volume   291.57465300
_cell_formula_units_Z   4
loop_
 _symmetry_equiv_pos_site_id
 _symmetry_equiv_pos_as_xyz
  1  'x, y, z'
loop_
 _atom_site_type_symbol
 _atom_site_label
 _atom_site_symmetry_multiplicity
 _atom_site_fract_x
 _atom_site_fract_y
 _atom_site_fract_z
 _atom_site_occupancy
  Li  Li0  1  0.25656248  0.30401316  0.24859911  1
  Li  Li1  1  0.24842295  0.78651500  0.73912529  1
  Li  Li2  1  0.75157705  0.28651500  0.26087471  1
  Li  Li3  1  0.74343752  0.80401316  0.75140089  1
  Mn  Mn4  1  0.99688699  0.02306014  0.27011640  1
  Mn  Mn5  1  0.49671825  0.07120767  0.76796127  1
  Mn  Mn6  1  0.50328175  0.57120767  0.23203873  1
  Mn  Mn7  1  0.00311301  0.52306014  0.72988360  1
  Si  Si8  1  0.01692297  0.20396673  0.81658648  1
  Si  Si9  1  0.48260645  0.89103180  0.31270890  1
  Si  Si10  1  0.51739355  0.39103180  0.68729110  1
  Si  Si11  1  0.98307703  0.70396673  0.18341352  1
  O  O12  1  0.02101639  0.35820437  0.93311032  1
  O  O13  1  0.00814031  0.19273913  0.47898686  1
  O  O14  1  0.19057758  0.62821808  0.01761546  1
  O  O15  1  0.23565997  0.13320231  0.96944868  1
  O  O16  1  0.25950394  0.95626659  0.46504903  1
  O  O17  1  0.50494297  0.23769779  0.56574389  1
  O  O18  1  0.48884711  0.90055564  0.97491585  1
  O  O19  1  0.31531597  0.47223960  0.52066405  1
  O  O20  1  0.68468403  0.97223960  0.47933595  1
  O  O21  1  0.51115289  0.40055564  0.02508415  1
  O  O22  1  0.49505703  0.73769779  0.43425611  1
  O  O23  1  0.74049606  0.45626659  0.53495097  1
  O  O24  1  0.76434003  0.63320231  0.03055132  1
  O  O25  1  0.80942242  0.12821808  0.98238454  1
  O  O26  1  0.99185969  0.69273913  0.52101314  1
  O  O27  1  0.97898361  0.85820437  0.06688968  1
