# generated using pymatgen
data_Li2Cr(SO4)2
_symmetry_space_group_name_H-M   'P 1'
_cell_length_a   9.42321123
_cell_length_b   9.44830893
_cell_length_c   13.98071037
_cell_angle_alpha   90.00000000
_cell_angle_beta   90.00000000
_cell_angle_gamma   90.00000000
_symmetry_Int_Tables_number   1
_chemical_formula_structural   Li2Cr(SO4)2
_chemical_formula_sum   'Li16 Cr8 S16 O64'
_cell_volume   1244.75032984
_cell_formula_units_Z   8
loop_
 _symmetry_equiv_pos_site_id
 _symmetry_equiv_pos_as_xyz
  1  'x, y, z'
loop_
 _atom_site_type_symbol
 _atom_site_label
 _atom_site_symmetry_multiplicity
 _atom_site_fract_x
 _atom_site_fract_y
 _atom_site_fract_z
 _atom_site_occupancy
  Li  Li0  1  0.03291899  0.21971132  0.37463904  1
  Li  Li1  1  0.03291899  0.28028868  0.87463904  1
  Li  Li2  1  0.22278638  0.95402012  0.37297662  1
  Li  Li3  1  0.22278638  0.54597988  0.87297662  1
  Li  Li4  1  0.27721362  0.04597988  0.87297662  1
  Li  Li5  1  0.27721362  0.45402012  0.37297662  1
  Li  Li6  1  0.46708101  0.71971132  0.37463904  1
  Li  Li7  1  0.46708101  0.78028868  0.87463904  1
  Li  Li8  1  0.53291899  0.21971132  0.12536096  1
  Li  Li9  1  0.53291899  0.28028868  0.62536096  1
  Li  Li10  1  0.72278638  0.54597988  0.62702338  1
  Li  Li11  1  0.72278638  0.95402012  0.12702338  1
  Li  Li12  1  0.77721362  0.45402012  0.12702338  1
  Li  Li13  1  0.77721362  0.04597988  0.62702338  1
  Li  Li14  1  0.96708101  0.78028868  0.62536096  1
  Li  Li15  1  0.96708101  0.71971132  0.12536096  1
  Cr  Cr16  1  0.14031500  0.10321047  0.12477313  1
  Cr  Cr17  1  0.14031500  0.39678953  0.62477313  1
  Cr  Cr18  1  0.35968500  0.60321047  0.12477313  1
  Cr  Cr19  1  0.35968500  0.89678953  0.62477313  1
  Cr  Cr20  1  0.64031500  0.10321047  0.37522687  1
  Cr  Cr21  1  0.64031500  0.39678953  0.87522687  1
  Cr  Cr22  1  0.85968500  0.60321047  0.37522687  1
  Cr  Cr23  1  0.85968500  0.89678953  0.87522687  1
  S  S24  1  0.07033461  0.06773702  0.73038301  1
  S  S25  1  0.07033461  0.43226298  0.23038301  1
  S  S26  1  0.16452877  0.69058184  0.49012662  1
  S  S27  1  0.16452877  0.80941816  0.99012662  1
  S  S28  1  0.33547123  0.19058184  0.49012662  1
  S  S29  1  0.33547123  0.30941816  0.99012662  1
  S  S30  1  0.42966539  0.93226298  0.23038301  1
  S  S31  1  0.42966539  0.56773702  0.73038301  1
  S  S32  1  0.57033461  0.43226298  0.26961699  1
  S  S33  1  0.57033461  0.06773702  0.76961699  1
  S  S34  1  0.66452877  0.69058184  0.00987338  1
  S  S35  1  0.66452877  0.80941816  0.50987338  1
  S  S36  1  0.83547123  0.19058184  0.00987338  1
  S  S37  1  0.83547123  0.30941816  0.50987338  1
  S  S38  1  0.92966539  0.56773702  0.76961699  1
  S  S39  1  0.92966539  0.93226298  0.26961699  1
  O  O40  1  0.00802357  0.70302376  0.47917519  1
  O  O41  1  0.00802357  0.79697624  0.97917519  1
  O  O42  1  0.01853950  0.99935563  0.34401788  1
  O  O43  1  0.01853950  0.50064437  0.84401788  1
  O  O44  1  0.01811163  0.46750741  0.32997669  1
  O  O45  1  0.01811163  0.03249259  0.82997669  1
  O  O46  1  0.06672068  0.22527915  0.72635613  1
  O  O47  1  0.06672068  0.27472085  0.22635613  1
  O  O48  1  0.19480608  0.73061378  0.08137520  1
  O  O49  1  0.19480608  0.76938622  0.58137520  1
  O  O50  1  0.20893380  0.95995253  0.99964572  1
  O  O51  1  0.20893380  0.54004747  0.49964572  1
  O  O52  1  0.21940771  0.01542201  0.72586138  1
  O  O53  1  0.21940771  0.48457799  0.22586138  1
  O  O54  1  0.24291206  0.75177355  0.40758615  1
  O  O55  1  0.24291206  0.74822645  0.90758615  1
  O  O56  1  0.25708794  0.25177355  0.40758615  1
  O  O57  1  0.25708794  0.24822645  0.90758615  1
  O  O58  1  0.28059229  0.98457799  0.22586138  1
  O  O59  1  0.28059229  0.51542201  0.72586138  1
  O  O60  1  0.29106620  0.04004747  0.49964572  1
  O  O61  1  0.29106620  0.45995253  0.99964572  1
  O  O62  1  0.30519392  0.23061378  0.08137520  1
  O  O63  1  0.30519392  0.26938622  0.58137520  1
  O  O64  1  0.43327932  0.77472085  0.22635613  1
  O  O65  1  0.43327932  0.72527915  0.72635613  1
  O  O66  1  0.48188837  0.53249259  0.82997669  1
  O  O67  1  0.48188837  0.96750741  0.32997669  1
  O  O68  1  0.48146050  0.49935563  0.34401788  1
  O  O69  1  0.48146050  0.00064437  0.84401788  1
  O  O70  1  0.49197643  0.20302376  0.47917519  1
  O  O71  1  0.49197643  0.29697624  0.97917519  1
  O  O72  1  0.50802357  0.70302376  0.02082481  1
  O  O73  1  0.50802357  0.79697624  0.52082481  1
  O  O74  1  0.51853950  0.50064437  0.65598212  1
  O  O75  1  0.51853950  0.99935563  0.15598212  1
  O  O76  1  0.51811163  0.46750741  0.17002331  1
  O  O77  1  0.51811163  0.03249259  0.67002331  1
  O  O78  1  0.56672068  0.27472085  0.27364387  1
  O  O79  1  0.56672068  0.22527915  0.77364387  1
  O  O80  1  0.69480608  0.73061378  0.41862480  1
  O  O81  1  0.69480608  0.76938622  0.91862480  1
  O  O82  1  0.70893380  0.54004747  0.00035428  1
  O  O83  1  0.70893380  0.95995253  0.50035428  1
  O  O84  1  0.71940771  0.48457799  0.27413862  1
  O  O85  1  0.71940771  0.01542201  0.77413862  1
  O  O86  1  0.74291206  0.75177355  0.09241385  1
  O  O87  1  0.74291206  0.74822645  0.59241385  1
  O  O88  1  0.75708794  0.25177355  0.09241385  1
  O  O89  1  0.75708794  0.24822645  0.59241385  1
  O  O90  1  0.78059229  0.51542201  0.77413862  1
  O  O91  1  0.78059229  0.98457799  0.27413862  1
  O  O92  1  0.79106620  0.45995253  0.50035428  1
  O  O93  1  0.79106620  0.04004747  0.00035428  1
  O  O94  1  0.80519392  0.23061378  0.41862480  1
  O  O95  1  0.80519392  0.26938622  0.91862480  1
  O  O96  1  0.93327932  0.72527915  0.77364387  1
  O  O97  1  0.93327932  0.77472085  0.27364387  1
  O  O98  1  0.98188837  0.53249259  0.67002331  1
  O  O99  1  0.98188837  0.96750741  0.17002331  1
  O  O100  1  0.98146050  0.00064437  0.65598212  1
  O  O101  1  0.98146050  0.49935563  0.15598212  1
  O  O102  1  0.99197643  0.20302376  0.02082481  1
  O  O103  1  0.99197643  0.29697624  0.52082481  1
