# generated using pymatgen
data_Li3Fe4(BO3)4
_symmetry_space_group_name_H-M   'P 1'
_cell_length_a   5.25652256
_cell_length_b   9.09491838
_cell_length_c   10.20398881
_cell_angle_alpha   89.97700976
_cell_angle_beta   91.49272108
_cell_angle_gamma   90.37462560
_symmetry_Int_Tables_number   1
_chemical_formula_structural   Li3Fe4(BO3)4
_chemical_formula_sum   'Li6 Fe8 B8 O24'
_cell_volume   487.65267543
_cell_formula_units_Z   2
loop_
 _symmetry_equiv_pos_site_id
 _symmetry_equiv_pos_as_xyz
  1  'x, y, z'
loop_
 _atom_site_type_symbol
 _atom_site_label
 _atom_site_symmetry_multiplicity
 _atom_site_fract_x
 _atom_site_fract_y
 _atom_site_fract_z
 _atom_site_occupancy
  Li  Li0  1  0.65358840  0.00889264  0.08096284  1
  Li  Li1  1  0.16373673  0.50056403  0.09688426  1
  Li  Li2  1  0.83486882  0.49128866  0.33935421  1
  Li  Li3  1  0.84588585  0.51409112  0.83139649  1
  Li  Li4  1  0.33252641  0.98855153  0.34337512  1
  Li  Li5  1  0.65585882  0.99784066  0.59182712  1
  Fe  Fe6  1  0.16335501  0.16215827  0.11967321  1
  Fe  Fe7  1  0.83791731  0.16002471  0.36931471  1
  Fe  Fe8  1  0.34186666  0.32742824  0.86283632  1
  Fe  Fe9  1  0.65995549  0.34251709  0.61308286  1
  Fe  Fe10  1  0.33092721  0.65687761  0.37219430  1
  Fe  Fe11  1  0.16292343  0.82930070  0.62542331  1
  Fe  Fe12  1  0.65817885  0.66577341  0.11887460  1
  Fe  Fe13  1  0.84177967  0.84739910  0.87096086  1
  B  B14  1  0.15801265  0.15762067  0.62554389  1
  B  B15  1  0.33392050  0.33069947  0.36805261  1
  B  B16  1  0.83137852  0.17780615  0.87473151  1
  B  B17  1  0.66625967  0.33234026  0.12062196  1
  B  B18  1  0.34003567  0.65758032  0.86736608  1
  B  B19  1  0.66365114  0.67687982  0.62511733  1
  B  B20  1  0.16212510  0.83373768  0.12287545  1
  B  B21  1  0.82822076  0.82957913  0.37703742  1
  O  O22  1  0.29130160  0.02660810  0.61667807  1
  O  O23  1  0.08788634  0.18705294  0.91160488  1
  O  O24  1  0.70182842  0.04821700  0.88259144  1
  O  O25  1  0.22068138  0.19456909  0.33650040  1
  O  O26  1  0.28907810  0.28275069  0.67049512  1
  O  O27  1  0.77695047  0.19789761  0.15465469  1
  O  O28  1  0.90101492  0.16306040  0.58857595  1
  O  O29  1  0.41330020  0.33461660  0.07201446  1
  O  O30  1  0.19158850  0.45593555  0.36055959  1
  O  O31  1  0.59381831  0.33719321  0.40431441  1
  O  O32  1  0.70884191  0.30979525  0.83715691  1
  O  O33  1  0.20634301  0.52486586  0.88224521  1
  O  O34  1  0.80357024  0.46172869  0.13552339  1
  O  O35  1  0.27468024  0.69789931  0.14973073  1
  O  O36  1  0.41389678  0.68861451  0.57841229  1
  O  O37  1  0.77970906  0.54658147  0.64329435  1
  O  O38  1  0.59846006  0.66472609  0.90170304  1
  O  O39  1  0.08774965  0.83255405  0.41550043  1
  O  O40  1  0.20682309  0.77939060  0.82030566  1
  O  O41  1  0.71563303  0.69865978  0.33453072  1
  O  O42  1  0.79519631  0.81132351  0.65319724  1
  O  O43  1  0.30693812  0.96086485  0.14052286  1
  O  O44  1  0.90656318  0.84129775  0.08274704  1
  O  O45  1  0.68700042  0.95731882  0.38659065  1
