# generated using pymatgen
data_AgIO3
_symmetry_space_group_name_H-M   'P 1'
_cell_length_a   5.91506423
_cell_length_b   6.64581725
_cell_length_c   8.44508393
_cell_angle_alpha   90.00000000
_cell_angle_beta   90.00000000
_cell_angle_gamma   90.00000000
_symmetry_Int_Tables_number   1
_chemical_formula_structural   AgIO3
_chemical_formula_sum   'Ag4 I4 O12'
_cell_volume   331.97993045
_cell_formula_units_Z   4
loop_
 _symmetry_equiv_pos_site_id
 _symmetry_equiv_pos_as_xyz
  1  'x, y, z'
loop_
 _atom_site_type_symbol
 _atom_site_label
 _atom_site_symmetry_multiplicity
 _atom_site_fract_x
 _atom_site_fract_y
 _atom_site_fract_z
 _atom_site_occupancy
  Ag  Ag0  1  0.00000000  0.50000000  0.00000000  1
  Ag  Ag1  1  0.00000000  0.50000000  0.50000000  1
  Ag  Ag2  1  0.50000000  0.00000000  0.00000000  1
  Ag  Ag3  1  0.50000000  0.00000000  0.50000000  1
  I  I4  1  0.01213888  0.01819869  0.25000000  1
  I  I5  1  0.48786112  0.51819869  0.25000000  1
  I  I6  1  0.51213888  0.48180131  0.75000000  1
  I  I7  1  0.98786112  0.98180131  0.75000000  1
  O  O8  1  0.13291672  0.16671868  0.08551439  1
  O  O9  1  0.13291672  0.16671868  0.41448561  1
  O  O10  1  0.21500315  0.39827285  0.75000000  1
  O  O11  1  0.28499685  0.89827285  0.75000000  1
  O  O12  1  0.36708328  0.66671868  0.08551439  1
  O  O13  1  0.36708328  0.66671868  0.41448561  1
  O  O14  1  0.63291672  0.33328132  0.91448561  1
  O  O15  1  0.63291672  0.33328132  0.58551439  1
  O  O16  1  0.71500315  0.10172715  0.25000000  1
  O  O17  1  0.78499685  0.60172715  0.25000000  1
  O  O18  1  0.86708328  0.83328132  0.58551439  1
  O  O19  1  0.86708328  0.83328132  0.91448561  1
