# generated using pymatgen
data_Co6OF11
_symmetry_space_group_name_H-M   'P 1'
_cell_length_a   7.46449151
_cell_length_b   5.69865305
_cell_length_c   5.69865305
_cell_angle_alpha   71.45846376
_cell_angle_beta   72.83207971
_cell_angle_gamma   72.83207971
_symmetry_Int_Tables_number   1
_chemical_formula_structural   Co6OF11
_chemical_formula_sum   'Co6 O1 F11'
_cell_volume   214.09306191
_cell_formula_units_Z   1
loop_
 _symmetry_equiv_pos_site_id
 _symmetry_equiv_pos_as_xyz
  1  'x, y, z'
loop_
 _atom_site_type_symbol
 _atom_site_label
 _atom_site_symmetry_multiplicity
 _atom_site_fract_x
 _atom_site_fract_y
 _atom_site_fract_z
 _atom_site_occupancy
  Co  Co0  1  0.84218941  0.64880945  0.66859454  1
  Co  Co1  1  0.33370466  0.66409475  0.67175984  1
  Co  Co2  1  0.66629534  0.32824016  0.33590525  1
  Co  Co3  1  0.15781059  0.33140546  0.35119055  1
  Co  Co4  1  0.50000000  0.99772050  0.00227950  1
  Co  Co5  1  0.00000000  0.02186478  0.97813522  1
  O  O6  1  0.00000000  0.31299747  0.68700253  1
  F  F7  1  0.32896406  0.36243269  0.98192036  1
  F  F8  1  0.67103594  0.01807964  0.63756731  1
  F  F9  1  0.63059381  0.56516338  0.56440673  1
  F  F10  1  0.29961387  0.89726103  0.90150063  1
  F  F11  1  0.96474490  0.23179281  0.22919626  1
  F  F12  1  0.36940619  0.43559327  0.43483662  1
  F  F13  1  0.03525510  0.77080374  0.76820719  1
  F  F14  1  0.70038613  0.09849937  0.10273897  1
  F  F15  1  0.33047504  0.97346020  0.36820604  1
  F  F16  1  0.66952496  0.63179396  0.02653980  1
  F  F17  1  0.00000000  0.70998531  0.29001469  1
