# generated using pymatgen
data_Li5Fe5(CoO6)2
_symmetry_space_group_name_H-M   'P 1'
_cell_length_a   5.17616863
_cell_length_b   5.17616861
_cell_length_c   9.87180429
_cell_angle_alpha   84.96377935
_cell_angle_beta   95.03621853
_cell_angle_gamma   60.38839012
_symmetry_Int_Tables_number   1
_chemical_formula_structural   Li5Fe5(CoO6)2
_chemical_formula_sum   'Li5 Fe5 Co2 O12'
_cell_volume   226.41842876
_cell_formula_units_Z   1
loop_
 _symmetry_equiv_pos_site_id
 _symmetry_equiv_pos_as_xyz
  1  'x, y, z'
loop_
 _atom_site_type_symbol
 _atom_site_label
 _atom_site_symmetry_multiplicity
 _atom_site_fract_x
 _atom_site_fract_y
 _atom_site_fract_z
 _atom_site_occupancy
  Li  Li0  1  0.16728299  0.66300622  0.50772660  1
  Li  Li1  1  0.32310904  0.84302775  0.99075166  1
  Li  Li2  1  0.66300622  0.16728299  0.99227340  1
  Li  Li3  1  0.84302775  0.32310904  0.50924834  1
  Li  Li4  1  0.91922876  0.91922876  0.75000000  1
  Fe  Fe5  1  0.08363490  0.08363490  0.25000000  1
  Fe  Fe6  1  0.99739072  0.51189541  0.98576243  1
  Fe  Fe7  1  0.51189541  0.99739072  0.51423757  1
  Fe  Fe8  1  0.42066948  0.42066948  0.25000000  1
  Fe  Fe9  1  0.57541393  0.57541393  0.75000000  1
  Co  Co10  1  0.24869911  0.24869911  0.75000000  1
  Co  Co11  1  0.75116353  0.75116353  0.25000000  1
  O  O12  1  0.94514699  0.23389785  0.87524386  1
  O  O13  1  0.23389785  0.94514699  0.62475614  1
  O  O14  1  0.15255945  0.35095694  0.37191524  1
  O  O15  1  0.35095694  0.15255945  0.12808476  1
  O  O16  1  0.28742395  0.54071195  0.87417186  1
  O  O17  1  0.54071195  0.28742395  0.62582814  1
  O  O18  1  0.44640282  0.72266942  0.36594165  1
  O  O19  1  0.72266942  0.44640282  0.13405835  1
  O  O20  1  0.62870548  0.85198008  0.87678166  1
  O  O21  1  0.85198008  0.62870548  0.62321834  1
  O  O22  1  0.78193866  0.05308257  0.36909198  1
  O  O23  1  0.05308257  0.78193866  0.13090802  1
