# generated using pymatgen
data_V6O5F19
_symmetry_space_group_name_H-M   'P 1'
_cell_length_a   5.53360487
_cell_length_b   5.37556729
_cell_length_c   14.85943629
_cell_angle_alpha   89.61164768
_cell_angle_beta   100.51402664
_cell_angle_gamma   92.54004598
_symmetry_Int_Tables_number   1
_chemical_formula_structural   V6O5F19
_chemical_formula_sum   'V6 O5 F19'
_cell_volume   434.16408190
_cell_formula_units_Z   1
loop_
 _symmetry_equiv_pos_site_id
 _symmetry_equiv_pos_as_xyz
  1  'x, y, z'
loop_
 _atom_site_type_symbol
 _atom_site_label
 _atom_site_symmetry_multiplicity
 _atom_site_fract_x
 _atom_site_fract_y
 _atom_site_fract_z
 _atom_site_occupancy
  V  V0  1  0.01292498  0.05405067  0.99458506  1
  V  V1  1  0.19974994  0.45585186  0.32923179  1
  V  V2  1  0.27808684  0.03538275  0.66248364  1
  V  V3  1  0.47435625  0.56169363  0.00622297  1
  V  V4  1  0.71188429  0.96561087  0.33693252  1
  V  V5  1  0.81966166  0.51078261  0.66807664  1
  O  O6  1  0.03589534  0.20560014  0.64259255  1
  O  O7  1  0.20814461  0.28604494  0.97956199  1
  O  O8  1  0.36178733  0.22660335  0.31151389  1
  O  O9  1  0.29570197  0.78550666  0.02360526  1
  O  O10  1  0.94994582  0.79904022  0.35475354  1
  F  F11  1  0.13314720  0.71973129  0.69017503  1
  F  F12  1  0.04145203  0.05441859  0.11508439  1
  F  F13  1  0.18925488  0.43401239  0.44767777  1
  F  F14  1  0.39270805  0.07040298  0.78040714  1
  F  F15  1  0.11902340  0.59302588  0.21963703  1
  F  F16  1  0.30723653  0.91235780  0.55523763  1
  F  F17  1  0.45364437  0.55644660  0.88604079  1
  F  F18  1  0.51642840  0.29746959  0.64284440  1
  F  F19  1  0.72300714  0.20105067  0.97387472  1
  F  F20  1  0.46548697  0.71056564  0.36034076  1
  F  F21  1  0.65653405  0.78333030  0.69271739  1
  F  F22  1  0.54859358  0.40391246  0.11248792  1
  F  F23  1  0.70628849  0.09365416  0.44639254  1
  F  F24  1  0.88889708  0.40063582  0.78200562  1
  F  F25  1  0.59286294  0.92634808  0.21855874  1
  F  F26  1  0.79886729  0.57074024  0.54965774  1
  F  F27  1  0.95968453  0.89801639  0.88769198  1
  F  F28  1  0.87506622  0.27842802  0.30627963  1
  F  F29  1  0.78367983  0.70928339  0.02332890  1
