# generated using pymatgen
data_Te4Mo3WS4
_symmetry_space_group_name_H-M   'P 1'
_cell_length_a   3.36341042
_cell_length_b   3.36386315
_cell_length_c   39.78598134
_cell_angle_alpha   89.98434602
_cell_angle_beta   90.00000000
_cell_angle_gamma   119.99554805
_symmetry_Int_Tables_number   1
_chemical_formula_structural   Te4Mo3WS4
_chemical_formula_sum   'Te4 Mo3 W1 S4'
_cell_volume   389.85072835
_cell_formula_units_Z   1
loop_
 _symmetry_equiv_pos_site_id
 _symmetry_equiv_pos_as_xyz
  1  'x, y, z'
loop_
 _atom_site_type_symbol
 _atom_site_label
 _atom_site_symmetry_multiplicity
 _atom_site_fract_x
 _atom_site_fract_y
 _atom_site_fract_z
 _atom_site_occupancy
  Te  Te0  1  0.33324259  0.66648618  0.32786766  1
  Te  Te1  1  0.66681196  0.33362292  0.42341774  1
  Te  Te2  1  0.66645992  0.33291884  0.51885769  1
  Te  Te3  1  0.33386944  0.66773987  0.23298235  1
  Mo  Mo4  1  0.33317627  0.66635253  0.09386112  1
  Mo  Mo5  1  0.66683503  0.33367007  0.28041226  1
  Mo  Mo6  1  0.66656643  0.33313286  0.65749492  1
  W  W7  1  0.33333516  0.66667032  0.47114686  1
  S  S8  1  0.33331399  0.66662899  0.69552784  1
  S  S9  1  0.66641581  0.33283062  0.05585263  1
  S  S10  1  0.66671711  0.33343322  0.13187865  1
  S  S11  1  0.33325629  0.66651358  0.61944827  1
