# generated using pymatgen
data_LiFePH2O5
_symmetry_space_group_name_H-M   'P 1'
_cell_length_a   11.02135811
_cell_length_b   8.21505712
_cell_length_c   5.08611687
_cell_angle_alpha   90.00000000
_cell_angle_beta   90.00000000
_cell_angle_gamma   90.00000000
_symmetry_Int_Tables_number   1
_chemical_formula_structural   LiFePH2O5
_chemical_formula_sum   'Li4 Fe4 P4 H8 O20'
_cell_volume   460.50254704
_cell_formula_units_Z   4
loop_
 _symmetry_equiv_pos_site_id
 _symmetry_equiv_pos_as_xyz
  1  'x, y, z'
loop_
 _atom_site_type_symbol
 _atom_site_label
 _atom_site_symmetry_multiplicity
 _atom_site_fract_x
 _atom_site_fract_y
 _atom_site_fract_z
 _atom_site_occupancy
  Li  Li0  1  0.18475831  0.67729137  0.26003185  1
  Li  Li1  1  0.31524169  0.17729137  0.76003185  1
  Li  Li2  1  0.68475831  0.82270863  0.26003185  1
  Li  Li3  1  0.81524169  0.32270863  0.76003185  1
  Fe  Fe4  1  0.12014563  0.86886654  0.75432068  1
  Fe  Fe5  1  0.37985437  0.36886654  0.25432068  1
  Fe  Fe6  1  0.62014563  0.63113346  0.75432068  1
  Fe  Fe7  1  0.87985437  0.13113346  0.25432068  1
  P  P8  1  0.17318089  0.07910869  0.25708734  1
  P  P9  1  0.32681911  0.57910869  0.75708734  1
  P  P10  1  0.67318089  0.42089131  0.25708734  1
  P  P11  1  0.82681911  0.92089131  0.75708734  1
  H  H12  1  0.01667751  0.45406158  0.59077324  1
  H  H13  1  0.04345406  0.32969048  0.82361127  1
  H  H14  1  0.45654594  0.82969048  0.32361127  1
  H  H15  1  0.48332249  0.95406158  0.09077324  1
  H  H16  1  0.51667751  0.04593842  0.59077324  1
  H  H17  1  0.54345406  0.17030952  0.82361127  1
  H  H18  1  0.95654594  0.67030952  0.32361127  1
  H  H19  1  0.98332249  0.54593842  0.09077324  1
  O  O20  1  0.01460489  0.58947258  0.25789114  1
  O  O21  1  0.05509900  0.17255503  0.18952343  1
  O  O22  1  0.16745545  0.90353127  0.14063148  1
  O  O23  1  0.19179479  0.06411488  0.55985455  1
  O  O24  1  0.21757459  0.67269509  0.63670903  1
  O  O25  1  0.28242541  0.17269509  0.13670903  1
  O  O26  1  0.30820521  0.56411488  0.05985455  1
  O  O27  1  0.33254455  0.40353127  0.64063148  1
  O  O28  1  0.44490100  0.67255503  0.68952343  1
  O  O29  1  0.48539511  0.08947258  0.75789114  1
  O  O30  1  0.51460489  0.91052742  0.25789114  1
  O  O31  1  0.55509900  0.32744497  0.18952343  1
  O  O32  1  0.66745545  0.59646873  0.14063148  1
  O  O33  1  0.69179479  0.43588512  0.55985455  1
  O  O34  1  0.71757459  0.82730491  0.63670903  1
  O  O35  1  0.78242541  0.32730491  0.13670903  1
  O  O36  1  0.80820521  0.93588512  0.05985455  1
  O  O37  1  0.83254455  0.09646873  0.64063148  1
  O  O38  1  0.94490100  0.82744497  0.68952343  1
  O  O39  1  0.98539511  0.41052742  0.75789114  1
