# generated using pymatgen
data_Mg17Al11Ag
_symmetry_space_group_name_H-M   'P 1'
_cell_length_a   9.14300235
_cell_length_b   9.14515940
_cell_length_c   9.08290510
_cell_angle_alpha   109.56044405
_cell_angle_beta   109.55081526
_cell_angle_gamma   109.57465414
_symmetry_Int_Tables_number   1
_chemical_formula_structural   Mg17Al11Ag
_chemical_formula_sum   'Mg17 Al11 Ag1'
_cell_volume   582.65992502
_cell_formula_units_Z   1
loop_
 _symmetry_equiv_pos_site_id
 _symmetry_equiv_pos_as_xyz
  1  'x, y, z'
loop_
 _atom_site_type_symbol
 _atom_site_label
 _atom_site_symmetry_multiplicity
 _atom_site_fract_x
 _atom_site_fract_y
 _atom_site_fract_z
 _atom_site_occupancy
  Mg  Mg0  1  0.34557349  0.00097757  0.99999900  1
  Mg  Mg1  1  0.60364149  0.31763391  1.00000000  1
  Mg  Mg2  1  0.00037762  0.34518577  1.00000000  1
  Mg  Mg3  1  0.31533993  0.60346726  0.00000000  1
  Mg  Mg4  1  0.00009727  0.99855269  0.00000100  1
  Mg  Mg5  1  0.68383439  0.68322854  0.28300763  1
  Mg  Mg6  1  0.99824740  0.60242829  0.31362115  1
  Mg  Mg7  1  0.60090909  0.99948658  0.31600655  1
  Mg  Mg8  1  0.99960247  0.99856135  0.34332744  1
  Mg  Mg9  1  0.39793911  0.71367129  0.39744919  1
  Mg  Mg10  1  0.71464378  0.39836708  0.39840996  1
  Mg  Mg11  1  0.31623482  0.99995811  0.60159204  1
  Mg  Mg12  1  0.00048993  0.31622211  0.60255281  1
  Mg  Mg13  1  0.65627403  0.65523391  0.65667156  1
  Mg  Mg14  1  0.28490254  0.68348003  0.68399445  1
  Mg  Mg15  1  0.68462724  0.28880714  0.68637785  1
  Mg  Mg16  1  0.40082576  0.40022092  0.71699237  1
  Al  Al17  1  0.63302510  0.81323059  0.00000000  1
  Al  Al18  1  0.36713906  0.36758428  0.18184035  1
  Al  Al19  1  0.18424358  0.81788210  0.18410097  1
  Al  Al20  1  0.81857772  0.18477825  0.18501141  1
  Al  Al21  1  0.18106354  0.36542251  0.36531094  1
  Al  Al22  1  0.36644451  0.17996676  0.36532037  1
  Al  Al23  1  0.00112414  0.81464738  0.63468063  1
  Al  Al24  1  0.81575260  0.00011057  0.63468906  1
  Al  Al25  1  0.63356731  0.99976785  0.81498959  1
  Al  Al26  1  0.00014261  0.63378313  0.81589903  1
  Al  Al27  1  0.18529871  0.18574393  0.81815865  1
  Ag  Ag28  1  0.81006476  0.63160214  0.00000000  1
