# generated using pymatgen
data_TaFeO4
_symmetry_space_group_name_H-M   'P 1'
_cell_length_a   6.69828420
_cell_length_b   6.69828420
_cell_length_c   10.37328067
_cell_angle_alpha   108.83611821
_cell_angle_beta   71.16388179
_cell_angle_gamma   90.00000000
_symmetry_Int_Tables_number   1
_chemical_formula_structural   TaFeO4
_chemical_formula_sum   'Ta6 Fe6 O24'
_cell_volume   414.07036689
_cell_formula_units_Z   6
loop_
 _symmetry_equiv_pos_site_id
 _symmetry_equiv_pos_as_xyz
  1  'x, y, z'
loop_
 _atom_site_type_symbol
 _atom_site_label
 _atom_site_symmetry_multiplicity
 _atom_site_fract_x
 _atom_site_fract_y
 _atom_site_fract_z
 _atom_site_occupancy
  Ta  Ta0  1  0.41039611  0.08960389  0.17920778  1
  Ta  Ta1  1  0.83191228  0.16808772  0.33617544  1
  Ta  Ta2  1  0.17264419  0.82735581  0.65471261  1
  Ta  Ta3  1  0.66039611  0.33960389  0.67920778  1
  Ta  Ta4  1  0.92264419  0.57735581  0.15471261  1
  Ta  Ta5  1  0.58191228  0.91808772  0.83617544  1
  Fe  Fe6  1  0.00246096  0.99753904  0.99507808  1
  Fe  Fe7  1  0.24608801  0.25391199  0.50782398  1
  Fe  Fe8  1  0.08580495  0.41419505  0.82839011  1
  Fe  Fe9  1  0.49608801  0.50391199  0.00782398  1
  Fe  Fe10  1  0.33580495  0.66419505  0.32839111  1
  Fe  Fe11  1  0.75246096  0.74753904  0.49507808  1
  O  O12  1  0.11250972  0.08528753  0.17057406  1
  O  O13  1  0.99835649  0.30264288  0.00328602  1
  O  O14  1  0.16656558  0.13271263  0.66686784  1
  O  O15  1  0.16656558  0.53415521  0.66686784  1
  O  O16  1  0.33512735  0.36103058  0.32974629  1
  O  O17  1  0.66471247  0.03308378  0.67057406  1
  O  O18  1  0.99835649  0.70064414  0.00328602  1
  O  O19  1  0.50017479  0.19166228  0.99965043  1
  O  O20  1  0.55833772  0.24982521  0.49965043  1
  O  O21  1  0.04935586  0.75164351  0.50328602  1
  O  O22  1  0.21584479  0.58343442  0.16686784  1
  O  O23  1  0.38896942  0.41487265  0.82974629  1
  O  O24  1  0.71691622  0.08528753  0.17057406  1
  O  O25  1  0.78128429  0.41487265  0.82974629  1
  O  O26  1  0.61728737  0.58343442  0.16686784  1
  O  O27  1  0.28508116  0.91459043  0.82917986  1
  O  O28  1  0.44735712  0.75164351  0.50328602  1
  O  O29  1  0.94201185  0.24982521  0.49965043  1
  O  O30  1  0.50017479  0.80798815  0.99965043  1
  O  O31  1  0.33512735  0.96871571  0.32974629  1
  O  O32  1  0.83540957  0.46491884  0.32917986  1
  O  O33  1  0.66471247  0.63749028  0.67057406  1
  O  O34  1  0.83540957  0.86426202  0.32917986  1
  O  O35  1  0.88573798  0.91459043  0.82917986  1
