# generated using pymatgen
data_Ca2SnS4
_symmetry_space_group_name_H-M   'P 1'
_cell_length_a   3.97592587
_cell_length_b   7.08499186
_cell_length_c   11.51915434
_cell_angle_alpha   90.00014097
_cell_angle_beta   90.00002243
_cell_angle_gamma   90.00003221
_symmetry_Int_Tables_number   1
_chemical_formula_structural   Ca2SnS4
_chemical_formula_sum   'Ca4 Sn2 S8'
_cell_volume   324.48769420
_cell_formula_units_Z   2
loop_
 _symmetry_equiv_pos_site_id
 _symmetry_equiv_pos_as_xyz
  1  'x, y, z'
loop_
 _atom_site_type_symbol
 _atom_site_label
 _atom_site_symmetry_multiplicity
 _atom_site_fract_x
 _atom_site_fract_y
 _atom_site_fract_z
 _atom_site_occupancy
  Ca  Ca0  1  0.49999913  0.41463873  0.81489959  1
  Ca  Ca1  1  0.50000037  0.58536076  0.18509963  1
  Ca  Ca2  1  0.49999785  0.91463769  0.68509994  1
  Ca  Ca3  1  0.50000486  0.08536268  0.31490149  1
  Sn  Sn4  1  0.00000095  0.50000071  0.50000035  1
  Sn  Sn5  1  0.00000143  0.99999946  -0.00000072  1
  S  S6  1  0.49999995  0.26477174  0.55236079  1
  S  S7  1  0.50000096  0.73522939  0.44763907  1
  S  S8  1  0.49999919  0.76476975  0.94763997  1
  S  S9  1  0.49999886  0.23522953  0.05235997  1
  S  S10  1  0.99999835  0.13228764  0.79795729  1
  S  S11  1  0.00000256  0.86771190  0.20204417  1
  S  S12  1  0.99999676  0.63228993  0.70204265  1
  S  S13  1  0.99999878  0.36771009  0.29795582  1
