# generated using pymatgen
data_NaV8O20
_symmetry_space_group_name_H-M   'P 1'
_cell_length_a   12.08063162
_cell_length_b   9.60722130
_cell_length_c   10.78487169
_cell_angle_alpha   103.81345316
_cell_angle_beta   66.68832001
_cell_angle_gamma   95.88017168
_symmetry_Int_Tables_number   1
_chemical_formula_structural   NaV8O20
_chemical_formula_sum   'Na3 V24 O60'
_cell_volume   1116.23336548
_cell_formula_units_Z   3
loop_
 _symmetry_equiv_pos_site_id
 _symmetry_equiv_pos_as_xyz
  1  'x, y, z'
loop_
 _atom_site_type_symbol
 _atom_site_label
 _atom_site_symmetry_multiplicity
 _atom_site_fract_x
 _atom_site_fract_y
 _atom_site_fract_z
 _atom_site_occupancy
  Na  Na0  1  0.95115185  0.55138538  0.59607388  1
  Na  Na1  1  0.45001612  0.05064984  0.59854993  1
  Na  Na2  1  0.80280350  0.19817914  0.39988321  1
  V  V3  1  0.02903516  0.91189963  0.11938279  1
  V  V4  1  0.01007014  0.84553930  0.40983581  1
  V  V5  1  0.45043511  0.88112985  0.10334135  1
  V  V6  1  0.19959609  0.62979582  0.10515793  1
  V  V7  1  0.30056266  0.87184873  0.89752006  1
  V  V8  1  0.04909614  0.61838759  0.89830079  1
  V  V9  1  0.73837430  0.90462715  0.59115291  1
  V  V10  1  0.48958701  0.65564629  0.58969226  1
  V  V11  1  0.23871743  0.40530536  0.58981440  1
  V  V12  1  0.78002058  0.66292265  0.11771980  1
  V  V13  1  0.27879236  0.16149754  0.11611234  1
  V  V14  1  0.52810579  0.41256160  0.11563898  1
  V  V15  1  0.47023778  0.58715125  0.88471317  1
  V  V16  1  0.72150775  0.83607905  0.88531026  1
  V  V17  1  0.21991383  0.33611630  0.88649758  1
  V  V18  1  0.76107082  0.59567968  0.40898265  1
  V  V19  1  0.51061496  0.34678611  0.40870868  1
  V  V20  1  0.26043884  0.09568777  0.41053968  1
  V  V21  1  0.95233649  0.37856691  0.10328616  1
  V  V22  1  0.70339515  0.13160753  0.10075277  1
  V  V23  1  0.79758554  0.36752621  0.89820750  1
  V  V24  1  0.54793019  0.12078264  0.89545939  1
  V  V25  1  0.98938436  0.15334338  0.59188397  1
  V  V26  1  0.97327432  0.08456627  0.88465694  1
  O  O27  1  0.19077722  0.99884934  0.07203639  1
  O  O28  1  0.08668301  0.78317822  0.22260079  1
  O  O29  1  0.05439892  0.99941873  0.72817679  1
  O  O30  1  0.31476107  0.99523205  0.47253690  1
  O  O31  1  0.05685396  0.73801154  0.47278122  1
  O  O32  1  0.33404037  0.75892344  0.05350916  1
  O  O33  1  0.08803528  0.51275369  0.05298203  1
  O  O34  1  0.46728369  0.81646573  0.21858058  1
  O  O35  1  0.21624424  0.56437305  0.21977720  1
  O  O36  1  0.29000026  0.93776648  0.77811001  1
  O  O37  1  0.02963731  0.67663661  0.77955286  1
  O  O38  1  0.41382834  0.98596524  0.94616562  1
  O  O39  1  0.16333941  0.74480716  0.94599789  1
  O  O40  1  0.44189470  0.76540226  0.53061220  1
  O  O41  1  0.18233388  0.50634181  0.53076972  1
  O  O42  1  0.50022114  0.50052759  0.00026606  1
  O  O43  1  0.74861360  0.74861610  0.99884893  1
  O  O44  1  0.99982757  0.00074920  0.99620218  1
  O  O45  1  0.25155767  0.25188647  0.99923120  1
  O  O46  1  0.69650219  0.75177241  0.26972650  1
  O  O47  1  0.19561135  0.24799175  0.26968477  1
  O  O48  1  0.44649162  0.49918181  0.26979753  1
  O  O49  1  0.41292331  0.71659995  0.77796566  1
  O  O50  1  0.66591150  0.96358208  0.77439788  1
  O  O51  1  0.16441729  0.46857515  0.77848437  1
  O  O52  1  0.93500225  0.74205275  0.07209580  1
  O  O53  1  0.68882759  0.49449376  0.07415009  1
  O  O54  1  0.43797136  0.24582538  0.07564793  1
  O  O55  1  0.64562920  0.73135953  0.57307943  1
  O  O56  1  0.89624622  0.98375197  0.57328742  1
  O  O57  1  0.14651823  0.23187593  0.57391557  1
  O  O58  1  0.39532283  0.48309148  0.57114214  1
  O  O59  1  0.85418111  0.76775873  0.42743709  1
  O  O60  1  0.60344302  0.51671401  0.42542454  1
  O  O61  1  0.35380060  0.26846804  0.42623754  1
  O  O62  1  0.10492027  0.01733961  0.42805756  1
  O  O63  1  0.56065059  0.75558959  0.92591344  1
  O  O64  1  0.06485789  0.25526322  0.92441230  1
  O  O65  1  0.31245612  0.50697147  0.92612698  1
  O  O66  1  0.83330831  0.53600856  0.22487469  1
  O  O67  1  0.58522630  0.28215444  0.22133111  1
  O  O68  1  0.33620643  0.03288657  0.22169698  1
  O  O69  1  0.80527203  0.74807368  0.73014279  1
  O  O70  1  0.55304334  0.50142900  0.73099360  1
  O  O71  1  0.30411123  0.25012909  0.73037222  1
  O  O72  1  0.81169040  0.48902826  0.47130914  1
  O  O73  1  0.56202751  0.24024452  0.46999700  1
  O  O74  1  0.82928842  0.25690203  0.05352410  1
  O  O75  1  0.58385403  0.00828833  0.05231794  1
  O  O76  1  0.95981836  0.31174498  0.22539836  1
  O  O77  1  0.71908893  0.07171115  0.22133605  1
  O  O78  1  0.78914287  0.43671612  0.77859958  1
  O  O79  1  0.52965989  0.17875592  0.77436036  1
  O  O80  1  0.91769729  0.48887680  0.94786194  1
  O  O81  1  0.67081089  0.24316860  0.94245346  1
  O  O82  1  0.93876392  0.26073000  0.53038093  1
  O  O83  1  0.68742406  0.01058553  0.52850274  1
  O  O84  1  0.94363003  0.00163875  0.27413907  1
  O  O85  1  0.91514223  0.21815111  0.77791087  1
  O  O86  1  0.80981109  0.00274831  0.92591864  1
