# generated using pymatgen
data_Ba2CaI6
_symmetry_space_group_name_H-M   'P 1'
_cell_length_a   14.34315012
_cell_length_b   14.34157252
_cell_length_c   7.83089717
_cell_angle_alpha   90.00480544
_cell_angle_beta   90.00000000
_cell_angle_gamma   120.00363890
_symmetry_Int_Tables_number   1
_chemical_formula_structural   Ba2CaI6
_chemical_formula_sum   'Ba6 Ca3 I18'
_cell_volume   1394.97858983
_cell_formula_units_Z   3
loop_
 _symmetry_equiv_pos_site_id
 _symmetry_equiv_pos_as_xyz
  1  'x, y, z'
loop_
 _atom_site_type_symbol
 _atom_site_label
 _atom_site_symmetry_multiplicity
 _atom_site_fract_x
 _atom_site_fract_y
 _atom_site_fract_z
 _atom_site_occupancy
  Ba  Ba0  1  0.99994440  0.63687816  0.99991423  1
  Ba  Ba1  1  0.00001419  0.30551822  0.50009116  1
  Ba  Ba2  1  0.36306624  0.36312184  0.00008577  1
  Ba  Ba3  1  0.30544826  0.00000000  0.50000000  1
  Ba  Ba4  1  0.69449597  0.69448178  0.49990884  1
  Ba  Ba5  1  0.63699758  0.00000000  0.00000000  1
  Ca  Ca6  1  0.33334449  0.66673791  0.49213564  1
  Ca  Ca7  1  0.00002711  0.00000000  0.00000000  1
  Ca  Ca8  1  0.66660658  0.33326209  0.50786436  1
  I  I9  1  0.08513643  0.87609620  0.77076910  1
  I  I10  1  0.23397168  0.77273693  0.25235388  1
  I  I11  1  0.13109253  0.54298335  0.73588402  1
  I  I12  1  0.41200637  0.86909571  0.73573996  1
  I  I13  1  0.22721426  0.46130663  0.25235160  1
  I  I14  1  0.12386562  0.20908250  0.77092305  1
  I  I15  1  0.53868156  0.76590364  0.25225264  1
  I  I16  1  0.20904024  0.12390380  0.22923090  1
  I  I17  1  0.45705027  0.58801509  0.73563228  1
  I  I18  1  0.79096107  0.91478538  0.77084984  1
  I  I19  1  0.46123476  0.22726307  0.74764612  1
  I  I20  1  0.58810918  0.45701665  0.26411598  1
  I  I21  1  0.54291065  0.13090429  0.26426004  1
  I  I22  1  0.76590762  0.53869337  0.74764840  1
  I  I23  1  0.91478412  0.79091750  0.22907695  1
  I  I24  1  0.77277792  0.23409636  0.74774736  1
  I  I25  1  0.86903518  0.41198491  0.26436772  1
  I  I26  1  0.87617669  0.08521462  0.22915016  1
