# generated using pymatgen
data_LiYb2Hg
_symmetry_space_group_name_H-M   'P 1'
_cell_length_a   5.36056469
_cell_length_b   5.36057863
_cell_length_c   5.36059216
_cell_angle_alpha   59.99963704
_cell_angle_beta   59.99962382
_cell_angle_gamma   59.99951194
_symmetry_Int_Tables_number   1
_chemical_formula_structural   LiYb2Hg
_chemical_formula_sum   'Li1 Yb2 Hg1'
_cell_volume   108.92208690
_cell_formula_units_Z   1
loop_
 _symmetry_equiv_pos_site_id
 _symmetry_equiv_pos_as_xyz
  1  'x, y, z'
loop_
 _atom_site_type_symbol
 _atom_site_label
 _atom_site_symmetry_multiplicity
 _atom_site_fract_x
 _atom_site_fract_y
 _atom_site_fract_z
 _atom_site_occupancy
  Yb  Yb0  1  -0.00000007  -0.00000020  0.00000111  1
  Yb  Yb1  1  0.49999896  0.50000071  0.49999937  1
  Li  Li2  1  0.75000036  0.74999944  0.74999982  1
  Hg  Hg3  1  0.25000075  0.25000004  0.24999970  1
