# generated using pymatgen
data_Li15Mn15SiO32
_symmetry_space_group_name_H-M   'P 1'
_cell_length_a   8.47213679
_cell_length_b   8.42799452
_cell_length_c   8.34371399
_cell_angle_alpha   89.32946169
_cell_angle_beta   90.19460715
_cell_angle_gamma   89.97606170
_symmetry_Int_Tables_number   1
_chemical_formula_structural   Li15Mn15SiO32
_chemical_formula_sum   'Li15 Mn15 Si1 O32'
_cell_volume   595.72293498
_cell_formula_units_Z   1
loop_
 _symmetry_equiv_pos_site_id
 _symmetry_equiv_pos_as_xyz
  1  'x, y, z'
loop_
 _atom_site_type_symbol
 _atom_site_label
 _atom_site_symmetry_multiplicity
 _atom_site_fract_x
 _atom_site_fract_y
 _atom_site_fract_z
 _atom_site_occupancy
  Li  Li0  1  0.12721012  0.87242305  0.74028068  1
  Li  Li1  1  0.12743816  0.60823237  0.01811063  1
  Li  Li2  1  0.12337912  0.38263695  0.74476988  1
  Li  Li3  1  0.36937440  0.61401808  0.25523763  1
  Li  Li4  1  0.36953751  0.88138222  0.50027190  1
  Li  Li5  1  0.38055283  0.12863834  0.25142202  1
  Li  Li6  1  0.36758228  0.37710958  0.48596349  1
  Li  Li7  1  0.62064042  0.62061975  0.99988664  1
  Li  Li8  1  0.62509501  0.87744520  0.74706940  1
  Li  Li9  1  0.63579729  0.12569227  0.00083651  1
  Li  Li10  1  0.62758476  0.37172742  0.74941187  1
  Li  Li11  1  0.88186731  0.87769655  0.50027685  1
  Li  Li12  1  0.87827657  0.61866119  0.25689655  1
  Li  Li13  1  0.88431313  0.37936940  0.48572657  1
  Li  Li14  1  0.87172055  0.12558664  0.25275755  1
  Mn  Mn15  1  0.12625692  0.87049199  0.25000435  1
  Mn  Mn16  1  0.12605569  0.61985173  0.49189374  1
  Mn  Mn17  1  0.12676760  0.15808874  0.46684759  1
  Mn  Mn18  1  0.37457799  0.62176113  0.74518853  1
  Mn  Mn19  1  0.37139255  0.12840910  0.74921817  1
  Mn  Mn20  1  0.37073955  0.37624922  0.00539812  1
  Mn  Mn21  1  0.37876832  0.87041710  0.00201067  1
  Mn  Mn22  1  0.62752706  0.12628490  0.49681784  1
  Mn  Mn23  1  0.62370159  0.62414368  0.50401791  1
  Mn  Mn24  1  0.62430653  0.87496572  0.25141427  1
  Mn  Mn25  1  0.62673832  0.37454186  0.24684977  1
  Mn  Mn26  1  0.87371044  0.86526868  0.99869582  1
  Mn  Mn27  1  0.87463045  0.37907026  0.01116091  1
  Mn  Mn28  1  0.88020004  0.12688612  0.74676376  1
  Mn  Mn29  1  0.87635392  0.62347388  0.75291172  1
  Si  Si30  1  0.12065515  0.13226605  0.00494944  1
  O  O31  1  0.12557844  0.39333984  0.50514445  1
  O  O32  1  0.12205788  0.10318038  0.21574462  1
  O  O33  1  0.11351925  0.11933345  0.78793002  1
  O  O34  1  0.10803040  0.33932129  0.00482594  1
  O  O35  1  0.13955744  0.89404395  0.01073046  1
  O  O36  1  0.14136648  0.62875532  0.73300662  1
  O  O37  1  0.12467064  0.64625922  0.25700577  1
  O  O38  1  0.12529028  0.86772382  0.47983123  1
  O  O39  1  0.37710373  0.36105450  0.76976648  1
  O  O40  1  0.33819202  0.13694093  0.99375817  1
  O  O41  1  0.36536739  0.12895247  0.51688117  1
  O  O42  1  0.40007739  0.37358758  0.23318181  1
  O  O43  1  0.38542087  0.87407811  0.23566701  1
  O  O44  1  0.38940135  0.62656292  0.51127184  1
  O  O45  1  0.37097276  0.60978463  0.98413769  1
  O  O46  1  0.37825231  0.89157229  0.76804911  1
  O  O47  1  0.62567037  0.11245046  0.25567522  1
  O  O48  1  0.62525059  0.35962492  0.48289597  1
  O  O49  1  0.63864178  0.37128057  0.01207938  1
  O  O50  1  0.64494300  0.12443859  0.74016392  1
  O  O51  1  0.60982475  0.62466672  0.73922836  1
  O  O52  1  0.61254419  0.87653489  0.01524153  1
  O  O53  1  0.62646659  0.89081415  0.48416309  1
  O  O54  1  0.62504210  0.63708298  0.26711840  1
  O  O55  1  0.90120592  0.10686572  0.99186854  1
  O  O56  1  0.87383510  0.39039928  0.77459762  1
  O  O57  1  0.85310207  0.37311830  0.23959427  1
  O  O58  1  0.89012504  0.12852885  0.51615766  1
  O  O59  1  0.85890819  0.62547060  0.51891197  1
  O  O60  1  0.86345477  0.87225260  0.23267888  1
  O  O61  1  0.87528971  0.85928891  0.76561420  1
  O  O62  1  0.87888757  0.63407960  0.98981686  1
