# generated using pymatgen
data_Te2MoWSeS
_symmetry_space_group_name_H-M   'P 1'
_cell_length_a   3.40166362
_cell_length_b   3.40162665
_cell_length_c   39.82375891
_cell_angle_alpha   89.99998947
_cell_angle_beta   90.00000000
_cell_angle_gamma   120.00035953
_symmetry_Int_Tables_number   1
_chemical_formula_structural   Te2MoWSeS
_chemical_formula_sum   'Te4 Mo2 W2 Se2 S2'
_cell_volume   399.07021869
_cell_formula_units_Z   2
loop_
 _symmetry_equiv_pos_site_id
 _symmetry_equiv_pos_as_xyz
  1  'x, y, z'
loop_
 _atom_site_type_symbol
 _atom_site_label
 _atom_site_symmetry_multiplicity
 _atom_site_fract_x
 _atom_site_fract_y
 _atom_site_fract_z
 _atom_site_occupancy
  Te  Te0  1  0.33334564  0.66669228  0.70592228  1
  Te  Te1  1  0.66668533  0.33336967  0.42146666  1
  Te  Te2  1  0.66668376  0.33336653  0.51594685  1
  Te  Te3  1  0.33334548  0.66669197  0.61143931  1
  Mo  Mo4  1  0.33330303  0.66660606  0.09404267  1
  Mo  Mo5  1  0.66667251  0.33334503  0.28145704  1
  W  W6  1  0.33335028  0.66670057  0.46868676  1
  W  W7  1  0.66668251  0.33336502  0.65870237  1
  Se  Se8  1  0.33333155  0.66666410  0.32282925  1
  Se  Se9  1  0.33333998  0.66668097  0.24014760  1
  S  S10  1  0.66663553  0.33327006  0.05632006  1
  S  S11  1  0.66662438  0.33324776  0.13178716  1
