# generated using pymatgen
data_Ba6Ni25S27
_symmetry_space_group_name_H-M   'P 1'
_cell_length_a   10.06171426
_cell_length_b   10.06171426
_cell_length_c   10.06171426
_cell_angle_alpha   90.00000000
_cell_angle_beta   90.00000000
_cell_angle_gamma   90.00000000
_symmetry_Int_Tables_number   1
_chemical_formula_structural   Ba6Ni25S27
_chemical_formula_sum   'Ba6 Ni25 S27'
_cell_volume   1018.62877254
_cell_formula_units_Z   1
loop_
 _symmetry_equiv_pos_site_id
 _symmetry_equiv_pos_as_xyz
  1  'x, y, z'
loop_
 _atom_site_type_symbol
 _atom_site_label
 _atom_site_symmetry_multiplicity
 _atom_site_fract_x
 _atom_site_fract_y
 _atom_site_fract_z
 _atom_site_occupancy
  S  S0  1  0.50000000  0.00000000  0.76247142  1
  S  S1  1  0.00000000  0.50000000  0.76247142  1
  S  S2  1  0.76247142  0.00000000  0.50000000  1
  S  S3  1  0.50000000  0.76247142  0.00000000  1
  S  S4  1  0.50000000  0.23752858  0.00000000  1
  S  S5  1  0.23752858  0.00000000  0.50000000  1
  S  S6  1  0.23752858  0.50000000  0.00000000  1
  S  S7  1  0.00000000  0.23752858  0.50000000  1
  S  S8  1  0.00000000  0.76247142  0.50000000  1
  S  S9  1  0.00000000  0.50000000  0.23752858  1
  S  S10  1  0.72348296  0.72348296  0.72348296  1
  S  S11  1  0.72348296  0.27651704  0.72348296  1
  S  S12  1  0.27651704  0.72348296  0.72348296  1
  S  S13  1  0.72348296  0.72348296  0.27651704  1
  S  S14  1  0.72348296  0.27651704  0.27651704  1
  S  S15  1  0.27651704  0.27651704  0.72348296  1
  S  S16  1  0.27651704  0.72348296  0.27651704  1
  S  S17  1  0.27651704  0.27651704  0.27651704  1
  S  S18  1  0.00000000  0.76148218  0.00000000  1
  S  S19  1  0.23851782  0.00000000  0.00000000  1
  S  S20  1  0.76148218  0.00000000  0.00000000  1
  S  S21  1  0.00000000  0.00000000  0.76148218  1
  S  S22  1  0.00000000  0.00000000  0.23851782  1
  S  S23  1  0.00000000  0.23851782  0.00000000  1
  S  S24  1  0.50000000  0.50000000  0.50000000  1
  S  S25  1  0.76247142  0.50000000  0.00000000  1
  S  S26  1  0.50000000  0.00000000  0.23752858  1
  Ni  Ni27  1  0.13300968  0.64065460  0.13300968  1
  Ni  Ni28  1  0.86699032  0.64065460  0.86699032  1
  Ni  Ni29  1  0.86699032  0.13300968  0.35934540  1
  Ni  Ni30  1  0.86699032  0.86699032  0.64065460  1
  Ni  Ni31  1  0.86699032  0.64065460  0.13300968  1
  Ni  Ni32  1  0.86699032  0.35934540  0.86699032  1
  Ni  Ni33  1  0.13300968  0.64065460  0.86699032  1
  Ni  Ni34  1  0.35934540  0.86699032  0.86699032  1
  Ni  Ni35  1  0.86699032  0.13300968  0.64065460  1
  Ni  Ni36  1  0.86699032  0.86699032  0.35934540  1
  Ni  Ni37  1  0.64065460  0.13300968  0.86699032  1
  Ni  Ni38  1  0.13300968  0.86699032  0.64065460  1
  Ni  Ni39  1  0.64065460  0.86699032  0.13300968  1
  Ni  Ni40  1  0.35934540  0.13300968  0.13300968  1
  Ni  Ni41  1  0.13300968  0.13300968  0.35934540  1
  Ni  Ni42  1  0.35934540  0.86699032  0.13300968  1
  Ni  Ni43  1  0.64065460  0.13300968  0.13300968  1
  Ni  Ni44  1  0.86699032  0.35934540  0.13300968  1
  Ni  Ni45  1  0.13300968  0.35934540  0.86699032  1
  Ni  Ni46  1  0.13300968  0.13300968  0.64065460  1
  Ni  Ni47  1  0.13300968  0.86699032  0.35934540  1
  Ni  Ni48  1  0.13300968  0.35934540  0.13300968  1
  Ni  Ni49  1  0.00000000  0.00000000  0.00000000  1
  Ni  Ni50  1  0.35934540  0.13300968  0.86699032  1
  Ni  Ni51  1  0.64065460  0.86699032  0.86699032  1
  Ba  Ba52  1  0.50000000  0.50000000  0.80487264  1
  Ba  Ba53  1  0.80487264  0.50000000  0.50000000  1
  Ba  Ba54  1  0.19512736  0.50000000  0.50000000  1
  Ba  Ba55  1  0.50000000  0.19512736  0.50000000  1
  Ba  Ba56  1  0.50000000  0.80487264  0.50000000  1
  Ba  Ba57  1  0.50000000  0.50000000  0.19512736  1
