# generated using pymatgen
data_Sn
_symmetry_space_group_name_H-M   'P 1'
_cell_length_a   12.36520964
_cell_length_b   12.36520964
_cell_length_c   12.36520964
_cell_angle_alpha   90.00000000
_cell_angle_beta   90.00000000
_cell_angle_gamma   90.00000000
_symmetry_Int_Tables_number   1
_chemical_formula_structural   Sn
_chemical_formula_sum   Sn46
_cell_volume   1890.62088636
_cell_formula_units_Z   46
loop_
 _symmetry_equiv_pos_site_id
 _symmetry_equiv_pos_as_xyz
  1  'x, y, z'
loop_
 _atom_site_type_symbol
 _atom_site_label
 _atom_site_symmetry_multiplicity
 _atom_site_fract_x
 _atom_site_fract_y
 _atom_site_fract_z
 _atom_site_occupancy
  Sn  Sn0  1  0.50000000  0.38283307  0.19236296  1
  Sn  Sn1  1  0.50000000  0.61716693  0.80763704  1
  Sn  Sn2  1  0.38283307  0.19236296  0.50000000  1
  Sn  Sn3  1  0.61716693  0.19236296  0.50000000  1
  Sn  Sn4  1  0.19236296  0.50000000  0.38283307  1
  Sn  Sn5  1  0.80763704  0.50000000  0.38283307  1
  Sn  Sn6  1  0.00000000  0.69236296  0.11716693  1
  Sn  Sn7  1  0.00000000  0.30763704  0.88283307  1
  Sn  Sn8  1  0.25000000  0.00000000  0.50000000  1
  Sn  Sn9  1  0.75000000  0.00000000  0.50000000  1
  Sn  Sn10  1  0.00000000  0.50000000  0.25000000  1
  Sn  Sn11  1  0.00000000  0.50000000  0.75000000  1
  Sn  Sn12  1  0.50000000  0.75000000  0.00000000  1
  Sn  Sn13  1  0.50000000  0.25000000  0.00000000  1
  Sn  Sn14  1  0.18353934  0.18353934  0.18353934  1
  Sn  Sn15  1  0.68353934  0.31646066  0.68353934  1
  Sn  Sn16  1  0.68353934  0.68353934  0.31646066  1
  Sn  Sn17  1  0.31646066  0.68353934  0.68353934  1
  Sn  Sn18  1  0.81646066  0.81646066  0.18353934  1
  Sn  Sn19  1  0.18353934  0.81646066  0.81646066  1
  Sn  Sn20  1  0.81646066  0.18353934  0.81646066  1
  Sn  Sn21  1  0.31646066  0.31646066  0.31646066  1
  Sn  Sn22  1  0.81646066  0.81646066  0.81646066  1
  Sn  Sn23  1  0.31646066  0.68353934  0.31646066  1
  Sn  Sn24  1  0.31646066  0.31646066  0.68353934  1
  Sn  Sn25  1  0.68353934  0.31646066  0.31646066  1
  Sn  Sn26  1  0.18353934  0.18353934  0.81646066  1
  Sn  Sn27  1  0.81646066  0.18353934  0.18353934  1
  Sn  Sn28  1  0.18353934  0.81646066  0.18353934  1
  Sn  Sn29  1  0.68353934  0.68353934  0.68353934  1
  Sn  Sn30  1  0.00000000  0.30763704  0.11716693  1
  Sn  Sn31  1  0.50000000  0.38283307  0.80763704  1
  Sn  Sn32  1  0.50000000  0.61716693  0.19236296  1
  Sn  Sn33  1  0.61716693  0.80763704  0.50000000  1
  Sn  Sn34  1  0.38283307  0.80763704  0.50000000  1
  Sn  Sn35  1  0.19236296  0.50000000  0.61716693  1
  Sn  Sn36  1  0.80763704  0.50000000  0.61716693  1
  Sn  Sn37  1  0.11716693  0.00000000  0.30763704  1
  Sn  Sn38  1  0.30763704  0.11716693  0.00000000  1
  Sn  Sn39  1  0.69236296  0.88283307  0.00000000  1
  Sn  Sn40  1  0.11716693  0.00000000  0.69236296  1
  Sn  Sn41  1  0.69236296  0.11716693  0.00000000  1
  Sn  Sn42  1  0.88283307  0.00000000  0.30763704  1
  Sn  Sn43  1  0.88283307  0.00000000  0.69236296  1
  Sn  Sn44  1  0.30763704  0.88283307  0.00000000  1
  Sn  Sn45  1  0.00000000  0.69236296  0.88283307  1
