# generated using pymatgen
data_Dy3Fe2Si3
_symmetry_space_group_name_H-M   'P 1'
_cell_length_a   4.07784230
_cell_length_b   5.65462143
_cell_length_c   13.59724938
_cell_angle_alpha   90.00000000
_cell_angle_beta   90.00000000
_cell_angle_gamma   111.13557841
_symmetry_Int_Tables_number   1
_chemical_formula_structural   Dy3Fe2Si3
_chemical_formula_sum   'Dy6 Fe4 Si6'
_cell_volume   292.44276522
_cell_formula_units_Z   2
loop_
 _symmetry_equiv_pos_site_id
 _symmetry_equiv_pos_as_xyz
  1  'x, y, z'
loop_
 _atom_site_type_symbol
 _atom_site_label
 _atom_site_symmetry_multiplicity
 _atom_site_fract_x
 _atom_site_fract_y
 _atom_site_fract_z
 _atom_site_occupancy
  Si  Si0  1  0.12615537  0.25231073  0.53977396  1
  Si  Si1  1  0.87384463  0.74768927  0.46022604  1
  Si  Si2  1  0.87384463  0.74768927  0.03977396  1
  Si  Si3  1  0.12615537  0.25231073  0.96022604  1
  Si  Si4  1  0.17618630  0.35237260  0.25000000  1
  Si  Si5  1  0.82381370  0.64762740  0.75000000  1
  Fe  Fe6  1  0.71547946  0.43095893  0.91956303  1
  Fe  Fe7  1  0.28452054  0.56904107  0.08043697  1
  Fe  Fe8  1  0.28452054  0.56904107  0.41956303  1
  Fe  Fe9  1  0.71547946  0.43095893  0.58043697  1
  Dy  Dy10  1  0.41969107  0.83938214  0.61198169  1
  Dy  Dy11  1  0.58030893  0.16061786  0.38801831  1
  Dy  Dy12  1  0.58030893  0.16061786  0.11198169  1
  Dy  Dy13  1  0.41969107  0.83938214  0.88801831  1
  Dy  Dy14  1  0.86458720  0.72917440  0.25000000  1
  Dy  Dy15  1  0.13541280  0.27082560  0.75000000  1
