# generated using pymatgen
data_CaCuO2
_symmetry_space_group_name_H-M   'P 1'
_cell_length_a   3.60067742
_cell_length_b   10.93621942
_cell_length_c   8.48594192
_cell_angle_alpha   48.60333249
_cell_angle_beta   73.40015765
_cell_angle_gamma   60.55584848
_symmetry_Int_Tables_number   1
_chemical_formula_structural   CaCuO2
_chemical_formula_sum   'Ca4 Cu4 O8'
_cell_volume   217.89381475
_cell_formula_units_Z   4
loop_
 _symmetry_equiv_pos_site_id
 _symmetry_equiv_pos_as_xyz
  1  'x, y, z'
loop_
 _atom_site_type_symbol
 _atom_site_label
 _atom_site_symmetry_multiplicity
 _atom_site_fract_x
 _atom_site_fract_y
 _atom_site_fract_z
 _atom_site_occupancy
  Ca  Ca0  1  0.40546588  0.14532011  0.20003198  1
  Ca  Ca1  1  0.59324180  0.83105819  0.82817369  1
  Ca  Ca2  1  0.97909347  0.77697311  0.21425014  1
  Ca  Ca3  1  0.01200908  0.20499990  0.80865641  1
  Cu  Cu4  1  0.74672626  0.17964072  0.52701089  1
  Cu  Cu5  1  0.19176248  0.47155229  0.18020838  1
  Cu  Cu6  1  0.80129913  0.50439568  0.85475387  1
  Cu  Cu7  1  0.25091583  0.79600990  0.50028904  1
  O  O8  1  0.79925369  0.72501306  0.58444203  1
  O  O9  1  0.29311989  0.33536806  0.83873121  1
  O  O10  1  0.70077334  0.64261072  0.19142909  1
  O  O11  1  0.18583968  0.25559165  0.44995923  1
  O  O12  1  0.85561488  0.99956382  0.83447858  1
  O  O13  1  0.69616032  0.32313950  0.13851315  1
  O  O14  1  0.14233543  0.97792095  0.19338932  1
  O  O15  1  0.30056884  0.64976033  0.90194500  1
