# generated using pymatgen
data_PrFeGe2
_symmetry_space_group_name_H-M   'P 1'
_cell_length_a   8.51237465
_cell_length_b   8.51237465
_cell_length_c   4.34717439
_cell_angle_alpha   90.00000000
_cell_angle_beta   90.00000000
_cell_angle_gamma   29.47928108
_symmetry_Int_Tables_number   1
_chemical_formula_structural   PrFeGe2
_chemical_formula_sum   'Pr2 Fe2 Ge4'
_cell_volume   155.01354550
_cell_formula_units_Z   2
loop_
 _symmetry_equiv_pos_site_id
 _symmetry_equiv_pos_as_xyz
  1  'x, y, z'
loop_
 _atom_site_type_symbol
 _atom_site_label
 _atom_site_symmetry_multiplicity
 _atom_site_fract_x
 _atom_site_fract_y
 _atom_site_fract_z
 _atom_site_occupancy
  Pr  Pr0  1  0.89415754  0.89415754  0.75000000  1
  Pr  Pr1  1  0.10584246  0.10584246  0.24999800  1
  Fe  Fe2  1  0.68714951  0.68714951  0.75000000  1
  Fe  Fe3  1  0.31285049  0.31285049  0.24999800  1
  Ge  Ge4  1  0.45393391  0.45393391  0.24999800  1
  Ge  Ge5  1  0.25168910  0.25168910  0.75000000  1
  Ge  Ge6  1  0.54606609  0.54606609  0.75000000  1
  Ge  Ge7  1  0.74831090  0.74831090  0.24999800  1
