# generated using pymatgen
data_BaAgO2
_symmetry_space_group_name_H-M   'P 1'
_cell_length_a   3.93321460
_cell_length_b   4.40182891
_cell_length_c   9.01880341
_cell_angle_alpha   90.00000000
_cell_angle_beta   77.40510227
_cell_angle_gamma   90.00000000
_symmetry_Int_Tables_number   1
_chemical_formula_structural   BaAgO2
_chemical_formula_sum   'Ba2 Ag2 O4'
_cell_volume   152.38813076
_cell_formula_units_Z   2
loop_
 _symmetry_equiv_pos_site_id
 _symmetry_equiv_pos_as_xyz
  1  'x, y, z'
loop_
 _atom_site_type_symbol
 _atom_site_label
 _atom_site_symmetry_multiplicity
 _atom_site_fract_x
 _atom_site_fract_y
 _atom_site_fract_z
 _atom_site_occupancy
  Ba  Ba0  1  0.66799507  0.25000000  0.66400986  1
  Ba  Ba1  1  0.33200493  0.75000000  0.33599014  1
  Ag  Ag2  1  0.93716075  0.25000000  0.12567849  1
  Ag  Ag3  1  0.06283925  0.75000000  0.87432151  1
  O  O4  1  0.81712679  0.25000000  0.36574642  1
  O  O5  1  0.05871734  0.25000000  0.88256532  1
  O  O6  1  0.18287321  0.75000000  0.63425358  1
  O  O7  1  0.94128266  0.75000000  0.11743468  1
