# generated using pymatgen
data_MnInF3
_symmetry_space_group_name_H-M   'P 1'
_cell_length_a   4.30914681
_cell_length_b   4.31111091
_cell_length_c   4.31322078
_cell_angle_alpha   89.79987028
_cell_angle_beta   89.52549704
_cell_angle_gamma   89.92995048
_symmetry_Int_Tables_number   1
_chemical_formula_structural   MnInF3
_chemical_formula_sum   'Mn1 In1 F3'
_cell_volume   80.12431382
_cell_formula_units_Z   1
loop_
 _symmetry_equiv_pos_site_id
 _symmetry_equiv_pos_as_xyz
  1  'x, y, z'
loop_
 _atom_site_type_symbol
 _atom_site_label
 _atom_site_symmetry_multiplicity
 _atom_site_fract_x
 _atom_site_fract_y
 _atom_site_fract_z
 _atom_site_occupancy
  Mn  Mn0  1  0.48747735  0.49850953  0.49493727  1
  In  In1  1  0.99604423  0.99646641  0.99061356  1
  F  F2  1  0.48276133  0.99927379  0.49929021  1
  F  F3  1  0.98659990  0.50556131  0.50858589  1
  F  F4  1  0.48711819  0.50018396  0.99657507  1
