# generated using pymatgen
data_KGeBr3
_symmetry_space_group_name_H-M   'P 1'
_cell_length_a   5.59204649
_cell_length_b   5.60383964
_cell_length_c   5.60697899
_cell_angle_alpha   89.23976919
_cell_angle_beta   88.95858267
_cell_angle_gamma   89.10472073
_symmetry_Int_Tables_number   1
_chemical_formula_structural   KGeBr3
_chemical_formula_sum   'K1 Ge1 Br3'
_cell_volume   175.64023294
_cell_formula_units_Z   1
loop_
 _symmetry_equiv_pos_site_id
 _symmetry_equiv_pos_as_xyz
  1  'x, y, z'
loop_
 _atom_site_type_symbol
 _atom_site_label
 _atom_site_symmetry_multiplicity
 _atom_site_fract_x
 _atom_site_fract_y
 _atom_site_fract_z
 _atom_site_occupancy
  K  K0  1  0.99940453  0.99815277  0.99795056  1
  Ge  Ge1  1  0.46657716  0.47995996  0.47659340  1
  Br  Br2  1  0.48635743  0.01455963  0.49794257  1
  Br  Br3  1  0.99921341  0.50587084  0.50535517  1
  Br  Br4  1  0.48844847  0.50145580  0.01215730  1
