# generated using pymatgen
data_Te2MoWSeS
_symmetry_space_group_name_H-M   'P 1'
_cell_length_a   3.40155518
_cell_length_b   3.40154679
_cell_length_c   38.76485247
_cell_angle_alpha   90.00025311
_cell_angle_beta   90.00000000
_cell_angle_gamma   120.00008159
_symmetry_Int_Tables_number   1
_chemical_formula_structural   Te2MoWSeS
_chemical_formula_sum   'Te4 Mo2 W2 Se2 S2'
_cell_volume   388.43859968
_cell_formula_units_Z   2
loop_
 _symmetry_equiv_pos_site_id
 _symmetry_equiv_pos_as_xyz
  1  'x, y, z'
loop_
 _atom_site_type_symbol
 _atom_site_label
 _atom_site_symmetry_multiplicity
 _atom_site_fract_x
 _atom_site_fract_y
 _atom_site_fract_z
 _atom_site_occupancy
  Te  Te0  1  0.33335439  0.66670978  0.70609796  1
  Te  Te1  1  0.66664520  0.33328939  0.42106371  1
  Te  Te2  1  0.66664726  0.33329352  0.51811522  1
  Te  Te3  1  0.33335250  0.66670600  0.60906941  1
  Mo  Mo4  1  0.33330829  0.66661659  0.09393047  1
  Mo  Mo5  1  0.66668727  0.33337453  0.28179505  1
  W  W6  1  0.33331055  0.66662111  0.46959453  1
  W  W7  1  0.66669157  0.33338314  0.65763126  1
  Se  Se8  1  0.66664240  0.33328379  0.05146349  1
  Se  Se9  1  0.66664772  0.33329443  0.13639277  1
  S  S10  1  0.33335678  0.66671455  0.32059330  1
  S  S11  1  0.33335608  0.66671316  0.24300083  1
