# generated using pymatgen
data_Li3Mn3(PO4)4
_symmetry_space_group_name_H-M   'P 1'
_cell_length_a   13.42394201
_cell_length_b   8.10125719
_cell_length_c   9.06890799
_cell_angle_alpha   89.97727020
_cell_angle_beta   85.41622765
_cell_angle_gamma   90.09851730
_symmetry_Int_Tables_number   1
_chemical_formula_structural   Li3Mn3(PO4)4
_chemical_formula_sum   'Li9 Mn9 P12 O48'
_cell_volume   983.09499331
_cell_formula_units_Z   3
loop_
 _symmetry_equiv_pos_site_id
 _symmetry_equiv_pos_as_xyz
  1  'x, y, z'
loop_
 _atom_site_type_symbol
 _atom_site_label
 _atom_site_symmetry_multiplicity
 _atom_site_fract_x
 _atom_site_fract_y
 _atom_site_fract_z
 _atom_site_occupancy
  Li  Li0  1  0.16610558  0.48524593  0.34260963  1
  Li  Li1  1  0.50194368  0.51509393  0.99219307  1
  Li  Li2  1  0.17339962  0.14612332  0.44250371  1
  Li  Li3  1  0.82490927  0.64756291  0.05527197  1
  Li  Li4  1  0.16031111  0.00398615  0.82065224  1
  Li  Li5  1  0.50191077  0.99129681  0.51344851  1
  Li  Li6  1  0.83362862  0.98328353  0.15652473  1
  Li  Li7  1  0.49424478  0.85234401  0.89226596  1
  Li  Li8  1  0.83694943  0.50696650  0.68183034  1
  Mn  Mn9  1  0.16802202  0.85583045  0.22416348  1
  Mn  Mn10  1  0.49814220  0.14282064  0.10794819  1
  Mn  Mn11  1  0.15570509  0.65192674  0.71453231  1
  Mn  Mn12  1  0.50087275  0.64920382  0.38880023  1
  Mn  Mn13  1  0.16400104  0.35509177  0.94172693  1
  Mn  Mn14  1  0.50383933  0.35454614  0.61464068  1
  Mn  Mn15  1  0.83125840  0.35898491  0.27292104  1
  Mn  Mn16  1  0.82872427  0.84788238  0.55590295  1
  Mn  Mn17  1  0.84450380  0.15010417  0.78683233  1
  P  P18  1  0.05444492  0.19603978  0.14596171  1
  P  P19  1  0.28040133  0.69725359  0.02345740  1
  P  P20  1  0.05566328  0.29832719  0.63516475  1
  P  P21  1  0.38645319  0.30167221  0.30927563  1
  P  P22  1  0.27841531  0.79709796  0.51895237  1
  P  P23  1  0.61413007  0.80607309  0.18717113  1
  P  P24  1  0.38745087  0.20237455  0.81479411  1
  P  P25  1  0.72215353  0.19885363  0.47611753  1
  P  P26  1  0.61106014  0.70196673  0.69717120  1
  P  P27  1  0.94525951  0.69714455  0.35464761  1
  P  P28  1  0.72087616  0.29613963  0.98062476  1
  P  P29  1  0.94413707  0.79981754  0.86422109  1
  O  O30  1  0.22409093  0.86755795  0.01587486  1
  O  O31  1  0.11079168  0.36683587  0.15078249  1
  O  O32  1  0.10181499  0.06687153  0.24441707  1
  O  O33  1  0.05711597  0.70712540  0.31658303  1
  O  O34  1  0.24922288  0.65647745  0.19169317  1
  O  O35  1  0.07287679  0.36340608  0.47880208  1
  O  O36  1  0.41743425  0.34325197  0.14161032  1
  O  O37  1  0.27646421  0.29696781  0.34974354  1
  O  O38  1  0.23122831  0.91722942  0.41314702  1
  O  O39  1  0.60814326  0.28983325  0.01395374  1
  O  O40  1  0.56334039  0.93276119  0.08859194  1
  O  O41  1  0.22759120  0.62131886  0.51805760  1
  O  O42  1  0.10838951  0.13555759  0.65563079  1
  O  O43  1  0.55775190  0.63393989  0.18338032  1
  O  O44  1  0.44317783  0.13202938  0.31766859  1
  O  O45  1  0.10108329  0.43081369  0.74845029  1
  O  O46  1  0.05873111  0.79502575  0.81504608  1
  O  O47  1  0.43938548  0.42931068  0.41076415  1
  O  O48  1  0.39160602  0.79127412  0.48609824  1
  O  O49  1  0.76864709  0.41756382  0.08584397  1
  O  O50  1  0.24687292  0.84395298  0.68462034  1
  O  O51  1  0.72466788  0.79729760  0.15101228  1
  O  O52  1  0.58300099  0.84501642  0.35664981  1
  O  O53  1  0.92776556  0.86377355  0.02112964  1
  O  O54  1  0.08170818  0.15849014  0.97633784  1
  O  O55  1  0.41829283  0.15837140  0.64741168  1
  O  O56  1  0.27467908  0.21009515  0.84849576  1
  O  O57  1  0.74881990  0.15782385  0.30834973  1
  O  O58  1  0.22821132  0.57025536  0.92174436  1
  O  O59  1  0.60992658  0.20923924  0.51554031  1
  O  O60  1  0.56399704  0.57032818  0.58351857  1
  O  O61  1  0.94294175  0.20810680  0.18582213  1
  O  O62  1  0.89826170  0.56890507  0.25364815  1
  O  O63  1  0.55926470  0.86587858  0.67662625  1
  O  O64  1  0.43985750  0.37745167  0.81541700  1
  O  O65  1  0.89076596  0.86881302  0.35020889  1
  O  O66  1  0.77764817  0.36826755  0.48431985  1
  O  O67  1  0.43489320  0.08112766  0.91875473  1
  O  O68  1  0.39061250  0.70229119  0.98442752  1
  O  O69  1  0.76836992  0.06882222  0.57782808  1
  O  O70  1  0.72458863  0.70313558  0.64529413  1
  O  O71  1  0.59230482  0.63714592  0.85322482  1
  O  O72  1  0.91588775  0.65617864  0.52278037  1
  O  O73  1  0.75310114  0.34106906  0.81444262  1
  O  O74  1  0.94147005  0.29339597  0.68469694  1
  O  O75  1  0.89891374  0.93107712  0.75127626  1
  O  O76  1  0.89231144  0.63576325  0.84438527  1
  O  O77  1  0.77306353  0.12171954  0.98356987  1
