# generated using pymatgen
data_Ca2VSbO6
_symmetry_space_group_name_H-M   'P 1'
_cell_length_a   5.51331794
_cell_length_b   5.68072705
_cell_length_c   7.75325537
_cell_angle_alpha   90.00000000
_cell_angle_beta   90.00000000
_cell_angle_gamma   90.04979974
_symmetry_Int_Tables_number   1
_chemical_formula_structural   Ca2VSbO6
_chemical_formula_sum   'Ca4 V2 Sb2 O12'
_cell_volume   242.82918660
_cell_formula_units_Z   2
loop_
 _symmetry_equiv_pos_site_id
 _symmetry_equiv_pos_as_xyz
  1  'x, y, z'
loop_
 _atom_site_type_symbol
 _atom_site_label
 _atom_site_symmetry_multiplicity
 _atom_site_fract_x
 _atom_site_fract_y
 _atom_site_fract_z
 _atom_site_occupancy
  Ca  Ca0  1  0.51873753  0.56377540  0.75000000  1
  Ca  Ca1  1  0.48126247  0.43622460  0.25000000  1
  Ca  Ca2  1  0.99612142  0.04347804  0.75000000  1
  Ca  Ca3  1  0.00387858  0.95652196  0.25000000  1
  V  V4  1  0.50000000  0.00000000  0.50000000  1
  V  V5  1  0.50000000  0.00000000  0.00000000  1
  Sb  Sb6  1  0.00000000  0.50000000  0.50000000  1
  Sb  Sb7  1  0.00000000  0.50000000  0.00000000  1
  O  O8  1  0.29337386  0.69233093  0.45303658  1
  O  O9  1  0.18900978  0.20830476  0.04906428  1
  O  O10  1  0.70662614  0.30766907  0.95303658  1
  O  O11  1  0.81099022  0.79169524  0.54906428  1
  O  O12  1  0.18900978  0.20830476  0.45093572  1
  O  O13  1  0.81099022  0.79169524  0.95093572  1
  O  O14  1  0.89574531  0.53403370  0.25000000  1
  O  O15  1  0.29337386  0.69233093  0.04696342  1
  O  O16  1  0.42947454  0.97988059  0.75000000  1
  O  O17  1  0.70662614  0.30766907  0.54696342  1
  O  O18  1  0.10425469  0.46596630  0.75000000  1
  O  O19  1  0.57052546  0.02011941  0.25000000  1
