# generated using pymatgen
data_ZnCuP2O7
_symmetry_space_group_name_H-M   'P 1'
_cell_length_a   6.29338990
_cell_length_b   6.28562288
_cell_length_c   7.05300394
_cell_angle_alpha   68.85029905
_cell_angle_beta   77.87561255
_cell_angle_gamma   80.45641249
_symmetry_Int_Tables_number   1
_chemical_formula_structural   ZnCuP2O7
_chemical_formula_sum   'Zn2 Cu2 P4 O14'
_cell_volume   253.16162141
_cell_formula_units_Z   2
loop_
 _symmetry_equiv_pos_site_id
 _symmetry_equiv_pos_as_xyz
  1  'x, y, z'
loop_
 _atom_site_type_symbol
 _atom_site_label
 _atom_site_symmetry_multiplicity
 _atom_site_fract_x
 _atom_site_fract_y
 _atom_site_fract_z
 _atom_site_occupancy
  Zn  Zn0  1  0.88989050  0.28315175  0.16543779  1
  Zn  Zn1  1  0.11010950  0.71684825  0.83456221  1
  Cu  Cu2  1  0.67082216  0.09739646  0.78061642  1
  Cu  Cu3  1  0.32917784  0.90260354  0.21938358  1
  P  P4  1  0.16556106  0.22380575  0.75115721  1
  P  P5  1  0.83443894  0.77619425  0.24884279  1
  P  P6  1  0.61739625  0.63591289  0.69116764  1
  P  P7  1  0.38260375  0.36408711  0.30883236  1
  O  O8  1  0.76436003  0.61200284  0.47680956  1
  O  O9  1  0.23563997  0.38799716  0.52319044  1
  O  O10  1  -0.00005930  0.06369666  0.75387488  1
  O  O11  1  0.00005930  0.93630334  0.24612512  1
  O  O12  1  0.61169679  0.26479311  0.35902820  1
  O  O13  1  0.38830321  0.73520689  0.64097180  1
  O  O14  1  0.37006178  0.61262329  0.16180968  1
  O  O15  1  0.62993822  0.38737671  0.83818932  1
  O  O16  1  0.94287672  0.61197449  0.13131694  1
  O  O17  1  0.05712328  0.38802551  0.86868306  1
  O  O18  1  0.63974086  0.92989563  0.16055673  1
  O  O19  1  0.36025914  0.07010437  0.83944327  1
  O  O20  1  0.26226174  0.20940756  0.24984487  1
  O  O21  1  0.73773826  0.79059244  0.75015513  1
