# generated using pymatgen
data_CaTiF5
_symmetry_space_group_name_H-M   'P 1'
_cell_length_a   5.62274056
_cell_length_b   7.78251567
_cell_length_c   10.31249698
_cell_angle_alpha   90.00000000
_cell_angle_beta   90.00000000
_cell_angle_gamma   109.85994789
_symmetry_Int_Tables_number   1
_chemical_formula_structural   CaTiF5
_chemical_formula_sum   'Ca4 Ti4 F20'
_cell_volume   424.42661872
_cell_formula_units_Z   4
loop_
 _symmetry_equiv_pos_site_id
 _symmetry_equiv_pos_as_xyz
  1  'x, y, z'
loop_
 _atom_site_type_symbol
 _atom_site_label
 _atom_site_symmetry_multiplicity
 _atom_site_fract_x
 _atom_site_fract_y
 _atom_site_fract_z
 _atom_site_occupancy
  Ca  Ca0  1  0.47115064  0.74533854  0.01927308  1
  Ca  Ca1  1  0.52884936  0.75466146  0.51927308  1
  Ca  Ca2  1  0.52884936  0.25466146  0.98072692  1
  Ca  Ca3  1  0.47115064  0.24533854  0.48072692  1
  Ti  Ti4  1  0.89444564  0.59978645  0.75398170  1
  Ti  Ti5  1  0.10555436  0.90021355  0.25398170  1
  Ti  Ti6  1  0.10555436  0.40021355  0.24601830  1
  Ti  Ti7  1  0.89444564  0.09978645  0.74601830  1
  F  F8  1  0.60889640  0.55562833  0.88410722  1
  F  F9  1  0.39110360  0.94437167  0.38410722  1
  F  F10  1  0.39110360  0.44437167  0.11589278  1
  F  F11  1  0.60889640  0.05562833  0.61589278  1
  F  F12  1  0.64136315  0.50446968  0.61126643  1
  F  F13  1  0.35863685  0.99553032  0.11126643  1
  F  F14  1  0.35863685  0.49553032  0.38873357  1
  F  F15  1  0.64136315  0.00446968  0.88873357  1
  F  F16  1  0.87714219  0.81046455  0.39598831  1
  F  F17  1  0.12285781  0.68953545  0.89598831  1
  F  F18  1  0.12285781  0.18953545  0.60401169  1
  F  F19  1  0.87714219  0.31046455  0.10401169  1
  F  F20  1  0.82499892  0.85850248  0.13591057  1
  F  F21  1  0.17500108  0.64149752  0.63591057  1
  F  F22  1  0.17500108  0.14149752  0.86408943  1
  F  F23  1  0.82499892  0.35850248  0.36408943  1
  F  F24  1  0.84774464  0.83731177  0.70327867  1
  F  F25  1  0.15225536  0.66268823  0.20327867  1
  F  F26  1  0.15225536  0.16268823  0.29672133  1
  F  F27  1  0.84774464  0.33731177  0.79672133  1
