# generated using pymatgen
data_ZnFe(SiO3)2
_symmetry_space_group_name_H-M   'P 1'
_cell_length_a   5.33268568
_cell_length_b   6.80111507
_cell_length_c   6.80111532
_cell_angle_alpha   87.19396048
_cell_angle_beta   75.87397498
_cell_angle_gamma   75.87397928
_symmetry_Int_Tables_number   1
_chemical_formula_structural   ZnFe(SiO3)2
_chemical_formula_sum   'Zn2 Fe2 Si4 O12'
_cell_volume   231.95742944
_cell_formula_units_Z   2
loop_
 _symmetry_equiv_pos_site_id
 _symmetry_equiv_pos_as_xyz
  1  'x, y, z'
loop_
 _atom_site_type_symbol
 _atom_site_label
 _atom_site_symmetry_multiplicity
 _atom_site_fract_x
 _atom_site_fract_y
 _atom_site_fract_z
 _atom_site_occupancy
  Zn  Zn0  1  0.75000000  0.24323506  0.75676494  1
  Zn  Zn1  1  0.25000100  0.75676494  0.24323606  1
  Fe  Fe2  1  0.24999900  0.10149291  0.89850809  1
  Fe  Fe3  1  0.74999900  0.89850909  0.10149191  1
  Si  Si4  1  0.23378729  0.21820825  0.38605532  1
  Si  Si5  1  0.26621171  0.61394468  0.78179175  1
  Si  Si6  1  0.73378729  0.38605532  0.21820825  1
  Si  Si7  1  0.76621271  0.78179175  0.61394468  1
  O  O8  1  0.48290367  0.32276712  0.38420760  1
  O  O9  1  0.01709633  0.61579140  0.67723388  1
  O  O10  1  0.51709733  0.67723388  0.61579240  1
  O  O11  1  0.98290267  0.38420860  0.32276612  1
  O  O12  1  0.12282327  0.14837418  0.61744471  1
  O  O13  1  0.37717673  0.38255429  0.85162482  1
  O  O14  1  0.87717673  0.85162582  0.38255529  1
  O  O15  1  0.62282227  0.61744471  0.14837518  1
  O  O16  1  0.84229794  0.21132479  0.03724632  1
  O  O17  1  0.65770206  0.96275368  0.78867421  1
  O  O18  1  0.34229694  0.03724632  0.21132579  1
  O  O19  1  0.15770306  0.78867521  0.96275368  1
