# generated using pymatgen
data_CaTcO3
_symmetry_space_group_name_H-M   'P 1'
_cell_length_a   5.49892708
_cell_length_b   5.49954113
_cell_length_c   5.49958436
_cell_angle_alpha   60.72354321
_cell_angle_beta   60.72540756
_cell_angle_gamma   60.72483764
_symmetry_Int_Tables_number   1
_chemical_formula_structural   CaTcO3
_chemical_formula_sum   'Ca2 Tc2 O6'
_cell_volume   119.52623995
_cell_formula_units_Z   2
loop_
 _symmetry_equiv_pos_site_id
 _symmetry_equiv_pos_as_xyz
  1  'x, y, z'
loop_
 _atom_site_type_symbol
 _atom_site_label
 _atom_site_symmetry_multiplicity
 _atom_site_fract_x
 _atom_site_fract_y
 _atom_site_fract_z
 _atom_site_occupancy
  Ca  Ca0  1  0.26498811  0.26498224  0.26498567  1
  Ca  Ca1  1  0.76498332  0.76498898  0.76498348  1
  Tc  Tc2  1  0.00498644  0.00498659  0.00498173  1
  Tc  Tc3  1  0.50498859  0.50498449  0.50498588  1
  O  O4  1  0.24994477  0.83627330  0.67232062  1
  O  O5  1  0.83627719  0.67231849  0.24994530  1
  O  O6  1  0.67231175  0.24994898  0.83627152  1
  O  O7  1  0.17229187  0.33626240  0.74996427  1
  O  O8  1  0.74996246  0.17229995  0.33625790  1
  O  O9  1  0.33626451  0.74995958  0.17230262  1
