# generated using pymatgen
data_MgV2O6
_symmetry_space_group_name_H-M   'P 1'
_cell_length_a   5.46122228
_cell_length_b   5.22439019
_cell_length_c   5.64784409
_cell_angle_alpha   89.89848828
_cell_angle_beta   118.91284348
_cell_angle_gamma   90.00000003
_symmetry_Int_Tables_number   1
_chemical_formula_structural   MgV2O6
_chemical_formula_sum   'Mg1 V2 O6'
_cell_volume   141.05616317
_cell_formula_units_Z   1
loop_
 _symmetry_equiv_pos_site_id
 _symmetry_equiv_pos_as_xyz
  1  'x, y, z'
loop_
 _atom_site_type_symbol
 _atom_site_label
 _atom_site_symmetry_multiplicity
 _atom_site_fract_x
 _atom_site_fract_y
 _atom_site_fract_z
 _atom_site_occupancy
  Mg  Mg0  1  0.43122090  0.51149144  0.86244179  1
  V  V1  1  0.93983022  0.01307116  0.87965945  1
  V  V2  1  0.06075740  0.51278430  0.12151580  1
  O  O3  1  0.22205867  0.27025628  0.99457264  1
  O  O4  1  0.77088287  0.75392860  0.99122259  1
  O  O5  1  0.77251397  0.27025628  0.99457264  1
  O  O6  1  0.22033972  0.75392860  0.99122259  1
  O  O7  1  0.77717019  0.01636644  0.55433938  1
  O  O8  1  0.22984305  0.51545191  0.45968711  1
