# generated using pymatgen
data_Ca2CrSbO6
_symmetry_space_group_name_H-M   'P 1'
_cell_length_a   5.45034683
_cell_length_b   5.59317776
_cell_length_c   7.84815681
_cell_angle_alpha   90.00000000
_cell_angle_beta   90.00000000
_cell_angle_gamma   89.93120848
_symmetry_Int_Tables_number   1
_chemical_formula_structural   Ca2CrSbO6
_chemical_formula_sum   'Ca4 Cr2 Sb2 O12'
_cell_volume   239.24899424
_cell_formula_units_Z   2
loop_
 _symmetry_equiv_pos_site_id
 _symmetry_equiv_pos_as_xyz
  1  'x, y, z'
loop_
 _atom_site_type_symbol
 _atom_site_label
 _atom_site_symmetry_multiplicity
 _atom_site_fract_x
 _atom_site_fract_y
 _atom_site_fract_z
 _atom_site_occupancy
  Ca  Ca0  1  0.51555954  0.56550976  0.75000000  1
  Ca  Ca1  1  0.48444046  0.43449024  0.25000000  1
  Ca  Ca2  1  0.99558817  0.04033936  0.75000000  1
  Ca  Ca3  1  0.00441183  0.95966064  0.25000000  1
  Cr  Cr4  1  0.50000000  0.00000000  0.50000000  1
  Cr  Cr5  1  0.50000000  0.00000000  0.00000000  1
  Sb  Sb6  1  0.00000000  0.50000000  0.50000000  1
  Sb  Sb7  1  0.00000000  0.50000000  0.00000000  1
  O  O8  1  0.29411459  0.69770830  0.45226334  1
  O  O9  1  0.19593597  0.20779574  0.04845207  1
  O  O10  1  0.70588541  0.30229170  0.95226334  1
  O  O11  1  0.80406403  0.79220426  0.54845207  1
  O  O12  1  0.19593597  0.20779574  0.45154793  1
  O  O13  1  0.80406403  0.79220426  0.95154793  1
  O  O14  1  0.90304980  0.52929721  0.25000000  1
  O  O15  1  0.29411459  0.69770830  0.04773666  1
  O  O16  1  0.41287513  0.97221482  0.75000000  1
  O  O17  1  0.70588541  0.30229170  0.54773666  1
  O  O18  1  0.09695020  0.47070279  0.75000000  1
  O  O19  1  0.58712487  0.02778518  0.25000000  1
