# generated using pymatgen
data_CaMn2(P2O7)2
_symmetry_space_group_name_H-M   'P 1'
_cell_length_a   6.30622677
_cell_length_b   7.25664617
_cell_length_c   6.33292638
_cell_angle_alpha   67.51847262
_cell_angle_beta   82.80325194
_cell_angle_gamma   85.03492821
_symmetry_Int_Tables_number   1
_chemical_formula_structural   CaMn2(P2O7)2
_chemical_formula_sum   'Ca1 Mn2 P4 O14'
_cell_volume   265.43737039
_cell_formula_units_Z   1
loop_
 _symmetry_equiv_pos_site_id
 _symmetry_equiv_pos_as_xyz
  1  'x, y, z'
loop_
 _atom_site_type_symbol
 _atom_site_label
 _atom_site_symmetry_multiplicity
 _atom_site_fract_x
 _atom_site_fract_y
 _atom_site_fract_z
 _atom_site_occupancy
  Ca  Ca0  1  0.35275512  0.62121786  0.30267210  1
  Mn  Mn1  1  0.85124909  0.74327029  0.89841122  1
  Mn  Mn2  1  0.15119057  0.25518811  0.09787907  1
  P  P3  1  0.87874185  0.84897543  0.35359085  1
  P  P4  1  0.11344132  0.15677156  0.64586653  1
  P  P5  1  0.64252253  0.25048486  0.21973194  1
  P  P6  1  0.35814550  0.76250872  0.76991892  1
  O  O7  1  0.91093691  0.04468299  0.74487322  1
  O  O8  1  0.09681450  0.93683259  0.24555423  1
  O  O9  1  0.18462142  0.27236465  0.77976208  1
  O  O10  1  0.79527968  0.73990498  0.21594611  1
  O  O11  1  0.11943707  0.30273710  0.39064229  1
  O  O12  1  0.88935653  0.70528925  0.60569771  1
  O  O13  1  0.46416924  0.24145306  0.07824145  1
  O  O14  1  0.53502533  0.75274916  0.92444707  1
  O  O15  1  0.70794705  0.01956644  0.36590962  1
  O  O16  1  0.30239029  0.99268865  0.63541886  1
  O  O17  1  0.84698834  0.33890564  0.05949351  1
  O  O18  1  0.42239784  0.66523003  0.60411374  1
  O  O19  1  0.57440842  0.35237950  0.38354995  1
  O  O20  1  0.16306239  0.66889115  0.94857951  1
