# generated using pymatgen
data_MgMn6O12
_symmetry_space_group_name_H-M   'P 1'
_cell_length_a   5.73651079
_cell_length_b   5.73634276
_cell_length_c   14.49279512
_cell_angle_alpha   86.91515708
_cell_angle_beta   86.91707438
_cell_angle_gamma   60.83098513
_symmetry_Int_Tables_number   1
_chemical_formula_structural   MgMn6O12
_chemical_formula_sum   'Mg2 Mn12 O24'
_cell_volume   415.61862287
_cell_formula_units_Z   2
loop_
 _symmetry_equiv_pos_site_id
 _symmetry_equiv_pos_as_xyz
  1  'x, y, z'
loop_
 _atom_site_type_symbol
 _atom_site_label
 _atom_site_symmetry_multiplicity
 _atom_site_fract_x
 _atom_site_fract_y
 _atom_site_fract_z
 _atom_site_occupancy
  Mg  Mg0  1  0.23853543  0.74138890  0.81294160  1
  Mg  Mg1  1  0.49220560  0.48947553  0.31312092  1
  Mn  Mn2  1  0.75849077  0.25979629  0.51118952  1
  Mn  Mn3  1  0.25682996  0.75607752  0.50883761  1
  Mn  Mn4  1  0.50744216  0.00710529  0.83920584  1
  Mn  Mn5  1  0.97179512  0.47223239  0.84125638  1
  Mn  Mn6  1  0.51157145  0.00735341  0.15854413  1
  Mn  Mn7  1  0.00777158  0.51177724  0.15861487  1
  Mn  Mn8  1  0.50657319  0.50738081  0.00903762  1
  Mn  Mn9  1  0.01057486  0.00916470  0.01150587  1
  Mn  Mn10  1  0.75774439  0.75813683  0.33991404  1
  Mn  Mn11  1  0.22296528  0.22245873  0.34190247  1
  Mn  Mn12  1  0.75655466  0.76075005  0.65796540  1
  Mn  Mn13  1  0.26103606  0.25701436  0.65801451  1
  O  O14  1  0.65342571  0.15409452  0.06479927  1
  O  O15  1  0.15862963  0.65735183  0.06699137  1
  O  O16  1  0.34366104  0.84441397  0.93383878  1
  O  O17  1  0.83853305  0.33713826  0.93784179  1
  O  O18  1  0.40666884  0.40789381  0.56667345  1
  O  O19  1  0.90316530  0.90257326  0.56429509  1
  O  O20  1  0.59477733  0.59410333  0.43404663  1
  O  O21  1  0.08730979  0.08859666  0.43796982  1
  O  O22  1  0.16522509  0.16599842  0.10774420  1
  O  O23  1  0.66565694  0.66464720  0.10733885  1
  O  O24  1  0.32494984  0.36179215  0.88428380  1
  O  O25  1  0.86122263  0.82453999  0.88418882  1
  O  O26  1  0.41386332  0.91490334  0.60686455  1
  O  O27  1  0.91526480  0.41443207  0.60734412  1
  O  O28  1  0.57525905  0.11194751  0.38489803  1
  O  O29  1  0.11250198  0.57563778  0.38498326  1
  O  O30  1  0.34358220  0.34275520  0.22582752  1
  O  O31  1  0.85424394  0.85503010  0.22212621  1
  O  O32  1  0.16049025  0.12799190  0.77742866  1
  O  O33  1  0.62710794  0.66037718  0.77770075  1
  O  O34  1  0.60438116  0.10350635  0.72150654  1
  O  O35  1  0.09196740  0.59281402  0.72530642  1
  O  O36  1  0.41125868  0.87789282  0.27822078  1
  O  O37  1  0.87875356  0.41130429  0.27794048  1
