# generated using pymatgen
data_Zn(CoS2)2
_symmetry_space_group_name_H-M   'P 1'
_cell_length_a   6.80699498
_cell_length_b   6.80340045
_cell_length_c   6.80331490
_cell_angle_alpha   60.00763855
_cell_angle_beta   60.02630115
_cell_angle_gamma   60.02654780
_symmetry_Int_Tables_number   1
_chemical_formula_structural   Zn(CoS2)2
_chemical_formula_sum   'Zn2 Co4 S8'
_cell_volume   222.88737522
_cell_formula_units_Z   2
loop_
 _symmetry_equiv_pos_site_id
 _symmetry_equiv_pos_as_xyz
  1  'x, y, z'
loop_
 _atom_site_type_symbol
 _atom_site_label
 _atom_site_symmetry_multiplicity
 _atom_site_fract_x
 _atom_site_fract_y
 _atom_site_fract_z
 _atom_site_occupancy
  Zn  Zn0  1  0.87483007  0.87507716  0.87507874  1
  Zn  Zn1  1  0.12517175  0.12492108  0.12492198  1
  Co  Co2  1  0.50000011  0.49999958  0.50000025  1
  Co  Co3  1  0.50000023  0.49999970  0.00000037  1
  Co  Co4  1  0.00000006  0.49999973  0.50000008  1
  Co  Co5  1  0.50000040  0.99999940  0.49999990  1
  S  S6  1  0.73387625  0.73385186  0.73385390  1
  S  S7  1  0.26609956  0.26613847  0.70163462  1
  S  S8  1  0.26609912  0.70163667  0.26613653  1
  S  S9  1  0.70149374  0.26617135  0.26616949  1
  S  S10  1  0.73390101  0.29836407  0.73386261  1
  S  S11  1  0.29850783  0.73382782  0.73383078  1
  S  S12  1  0.26612246  0.26614848  0.26614584  1
  S  S13  1  0.73390139  0.73385965  0.29836691  1
