# generated using pymatgen
data_Te4Mo3Se2
_symmetry_space_group_name_H-M   'P 1'
_cell_length_a   3.47868612
_cell_length_b   3.47869329
_cell_length_c   31.98718179
_cell_angle_alpha   90.00000000
_cell_angle_beta   90.00000000
_cell_angle_gamma   119.99993183
_symmetry_Int_Tables_number   1
_chemical_formula_structural   Te4Mo3Se2
_chemical_formula_sum   'Te4 Mo3 Se2'
_cell_volume   335.22646108
_cell_formula_units_Z   1
loop_
 _symmetry_equiv_pos_site_id
 _symmetry_equiv_pos_as_xyz
  1  'x, y, z'
loop_
 _atom_site_type_symbol
 _atom_site_label
 _atom_site_symmetry_multiplicity
 _atom_site_fract_x
 _atom_site_fract_y
 _atom_site_fract_z
 _atom_site_occupancy
  Te  Te0  1  0.66664544  0.33328987  0.05813662  1
  Te  Te1  1  0.66664764  0.33329427  0.52078344  1
  Te  Te2  1  0.66664764  0.33329427  0.17318156  1
  Te  Te3  1  0.66664544  0.33328987  0.63582738  1
  Mo  Mo4  1  0.33331014  0.66662028  0.11564967  1
  Mo  Mo5  1  0.33331014  0.66662028  0.57831533  1
  Mo  Mo6  1  0.66668679  0.33337357  0.34698200  1
  Se  Se7  1  0.33335390  0.66670879  0.39777018  1
  Se  Se8  1  0.33335390  0.66670879  0.29619482  1
