# generated using pymatgen
data_Te2Mo2WSe4
_symmetry_space_group_name_H-M   'P 1'
_cell_length_a   3.39840924
_cell_length_b   3.39835734
_cell_length_c   31.41386725
_cell_angle_alpha   90.00036521
_cell_angle_beta   90.00000479
_cell_angle_gamma   120.00051696
_symmetry_Int_Tables_number   1
_chemical_formula_structural   Te2Mo2WSe4
_chemical_formula_sum   'Te2 Mo2 W1 Se4'
_cell_volume   314.19154402
_cell_formula_units_Z   1
loop_
 _symmetry_equiv_pos_site_id
 _symmetry_equiv_pos_as_xyz
  1  'x, y, z'
loop_
 _atom_site_type_symbol
 _atom_site_label
 _atom_site_symmetry_multiplicity
 _atom_site_fract_x
 _atom_site_fract_y
 _atom_site_fract_z
 _atom_site_occupancy
  Te  Te0  1  0.66664975  0.33329871  0.05604071  1
  Te  Te1  1  0.66664997  0.33329921  0.17528160  1
  Mo  Mo2  1  0.33331134  0.66662230  0.11564589  1
  Mo  Mo3  1  0.66668913  0.33337872  0.34699736  1
  W  W4  1  0.33330814  0.66661585  0.57829913  1
  Se  Se5  1  0.33335257  0.66670602  0.39948317  1
  Se  Se6  1  0.66663853  0.33327635  0.52563513  1
  Se  Se7  1  0.66664919  0.33329745  0.63096140  1
  Se  Se8  1  0.33335239  0.66670539  0.29449661  1
