# generated using pymatgen
data_Ca16(SiN2)17
_symmetry_space_group_name_H-M   'P 1'
_cell_length_a   10.67789420
_cell_length_b   10.67789420
_cell_length_c   10.67789420
_cell_angle_alpha   60.00000000
_cell_angle_beta   60.00000000
_cell_angle_gamma   60.00000000
_symmetry_Int_Tables_number   1
_chemical_formula_structural   Ca16(SiN2)17
_chemical_formula_sum   'Ca16 Si17 N34'
_cell_volume   860.87846264
_cell_formula_units_Z   1
loop_
 _symmetry_equiv_pos_site_id
 _symmetry_equiv_pos_as_xyz
  1  'x, y, z'
loop_
 _atom_site_type_symbol
 _atom_site_label
 _atom_site_symmetry_multiplicity
 _atom_site_fract_x
 _atom_site_fract_y
 _atom_site_fract_z
 _atom_site_occupancy
  Ca  Ca0  1  0.71104287  0.28895713  0.71104287  1
  Ca  Ca1  1  0.71104287  0.71104287  0.28895713  1
  Ca  Ca2  1  0.28895713  0.71104287  0.71104287  1
  Ca  Ca3  1  0.28895713  0.71104287  0.28895713  1
  Ca  Ca4  1  0.71104287  0.28895713  0.28895713  1
  Ca  Ca5  1  0.28895713  0.28895713  0.71104287  1
  Ca  Ca6  1  0.00320856  0.49679144  0.49679144  1
  Ca  Ca7  1  0.49679144  0.00320856  0.49679144  1
  Ca  Ca8  1  0.49679144  0.49679144  0.00320856  1
  Ca  Ca9  1  0.49679144  0.00320856  0.00320856  1
  Ca  Ca10  1  0.00320856  0.49679144  0.00320856  1
  Ca  Ca11  1  0.00320856  0.00320856  0.49679144  1
  Ca  Ca12  1  0.23075438  0.92308187  0.92308187  1
  Ca  Ca13  1  0.92308187  0.23075438  0.92308187  1
  Ca  Ca14  1  0.92308187  0.92308187  0.23075438  1
  Ca  Ca15  1  0.92308187  0.92308187  0.92308187  1
  Si  Si16  1  0.50000000  0.50000000  0.50000000  1
  Si  Si17  1  0.63471843  0.63471843  0.63471843  1
  Si  Si18  1  0.63471843  0.63471843  0.09584471  1
  Si  Si19  1  0.63471843  0.09584471  0.63471843  1
  Si  Si20  1  0.09584471  0.63471843  0.63471843  1
  Si  Si21  1  0.81947797  0.81947797  0.54156608  1
  Si  Si22  1  0.54156608  0.81947797  0.81947797  1
  Si  Si23  1  0.81947797  0.54156608  0.81947797  1
  Si  Si24  1  0.81947797  0.81947797  0.81947797  1
  Si  Si25  1  0.13669088  0.13669088  0.58992735  1
  Si  Si26  1  0.58992735  0.13669088  0.13669088  1
  Si  Si27  1  0.13669088  0.58992735  0.13669088  1
  Si  Si28  1  0.13669088  0.13669088  0.13669088  1
  Si  Si29  1  0.32228201  0.32228201  0.32228201  1
  Si  Si30  1  0.32228201  0.32228201  0.03315396  1
  Si  Si31  1  0.32228201  0.03315396  0.32228201  1
  Si  Si32  1  0.03315396  0.32228201  0.32228201  1
  N  N33  1  0.56810213  0.56810213  0.56810213  1
  N  N34  1  0.56810213  0.56810213  0.29569361  1
  N  N35  1  0.56810213  0.29569361  0.56810213  1
  N  N36  1  0.29569361  0.56810213  0.56810213  1
  N  N37  1  0.74937920  0.74937920  0.48253267  1
  N  N38  1  0.48253267  0.74937920  0.74937920  1
  N  N39  1  0.74937920  0.48253267  0.74937920  1
  N  N40  1  0.74937920  0.74937920  0.01870894  1
  N  N41  1  0.74937920  0.48253267  0.01870894  1
  N  N42  1  0.48253267  0.74937920  0.01870894  1
  N  N43  1  0.48253267  0.01870894  0.74937920  1
  N  N44  1  0.74937920  0.01870894  0.48253267  1
  N  N45  1  0.74937920  0.01870894  0.74937920  1
  N  N46  1  0.01870894  0.48253267  0.74937920  1
  N  N47  1  0.01870894  0.74937920  0.74937920  1
  N  N48  1  0.01870894  0.74937920  0.48253267  1
  N  N49  1  0.75000000  0.75000000  0.75000000  1
  N  N50  1  0.25000000  0.25000000  0.25000000  1
  N  N51  1  0.25016251  0.25016251  0.51874424  1
  N  N52  1  0.51874424  0.25016251  0.25016251  1
  N  N53  1  0.25016251  0.51874424  0.25016251  1
  N  N54  1  0.25016251  0.25016251  0.98093074  1
  N  N55  1  0.25016251  0.51874424  0.98093074  1
  N  N56  1  0.51874424  0.25016251  0.98093074  1
  N  N57  1  0.51874424  0.98093074  0.25016251  1
  N  N58  1  0.25016251  0.98093074  0.51874424  1
  N  N59  1  0.25016251  0.98093074  0.25016251  1
  N  N60  1  0.98093074  0.51874424  0.25016251  1
  N  N61  1  0.98093074  0.25016251  0.25016251  1
  N  N62  1  0.98093074  0.25016251  0.51874424  1
  N  N63  1  0.07285638  0.07285638  0.78143087  1
  N  N64  1  0.78143087  0.07285638  0.07285638  1
  N  N65  1  0.07285638  0.78143087  0.07285638  1
  N  N66  1  0.07285638  0.07285638  0.07285638  1
