# generated using pymatgen
data_Te2Mo2WSe4
_symmetry_space_group_name_H-M   'P 1'
_cell_length_a   3.39850501
_cell_length_b   3.39846245
_cell_length_c   31.41827315
_cell_angle_alpha   90.00101669
_cell_angle_beta   90.00000000
_cell_angle_gamma   120.00041419
_symmetry_Int_Tables_number   1
_chemical_formula_structural   Te2Mo2WSe4
_chemical_formula_sum   'Te2 Mo2 W1 Se4'
_cell_volume   314.25451070
_cell_formula_units_Z   1
loop_
 _symmetry_equiv_pos_site_id
 _symmetry_equiv_pos_as_xyz
  1  'x, y, z'
loop_
 _atom_site_type_symbol
 _atom_site_label
 _atom_site_symmetry_multiplicity
 _atom_site_fract_x
 _atom_site_fract_y
 _atom_site_fract_z
 _atom_site_occupancy
  Te  Te0  1  0.33335725  0.66671550  0.40660886  1
  Te  Te1  1  0.33335302  0.66670703  0.28733898  1
  Mo  Mo2  1  0.33330942  0.66661883  0.11563235  1
  Mo  Mo3  1  0.66669466  0.33338931  0.34700107  1
  W  W4  1  0.33331220  0.66662440  0.57833517  1
  Se  Se5  1  0.66663195  0.33326290  0.06312535  1
  Se  Se6  1  0.66663997  0.33327895  0.52564763  1
  Se  Se7  1  0.66664950  0.33329799  0.16817421  1
  Se  Se8  1  0.66665304  0.33330508  0.63097739  1
