# generated using pymatgen
data_Cd4SF6
_symmetry_space_group_name_H-M   'P 1'
_cell_length_a   3.90330004
_cell_length_b   3.90330004
_cell_length_c   12.81208515
_cell_angle_alpha   81.23809104
_cell_angle_beta   81.23809104
_cell_angle_gamma   59.99999939
_symmetry_Int_Tables_number   1
_chemical_formula_structural   Cd4SF6
_chemical_formula_sum   'Cd4 S1 F6'
_cell_volume   166.41402658
_cell_formula_units_Z   1
loop_
 _symmetry_equiv_pos_site_id
 _symmetry_equiv_pos_as_xyz
  1  'x, y, z'
loop_
 _atom_site_type_symbol
 _atom_site_label
 _atom_site_symmetry_multiplicity
 _atom_site_fract_x
 _atom_site_fract_y
 _atom_site_fract_z
 _atom_site_occupancy
  Cd  Cd0  1  0.20826000  0.20827000  0.37521000  1
  Cd  Cd1  1  0.79174000  0.79173000  0.62479000  1
  Cd  Cd2  1  0.62598000  0.62597000  0.12207000  1
  Cd  Cd3  1  0.37402000  0.37403000  0.87793000  1
  S  S4  1  0.00000000  0.00000000  0.00000000  1
  F  F5  1  0.14573000  0.14574000  0.56280000  1
  F  F6  1  0.85427000  0.85426000  0.43720000  1
  F  F7  1  0.43701000  0.43700000  0.68898000  1
  F  F8  1  0.56299000  0.56300000  0.31102000  1
  F  F9  1  0.72964000  0.72964000  0.81108000  1
  F  F10  1  0.27036000  0.27036000  0.18892000  1
