# generated using pymatgen
data_Te4Mo3Se2
_symmetry_space_group_name_H-M   'P 1'
_cell_length_a   3.47913823
_cell_length_b   3.47913247
_cell_length_c   32.03363970
_cell_angle_alpha   89.99960847
_cell_angle_beta   90.00000000
_cell_angle_gamma   120.00005469
_symmetry_Int_Tables_number   1
_chemical_formula_structural   Te4Mo3Se2
_chemical_formula_sum   'Te4 Mo3 Se2'
_cell_volume   335.79894534
_cell_formula_units_Z   1
loop_
 _symmetry_equiv_pos_site_id
 _symmetry_equiv_pos_as_xyz
  1  'x, y, z'
loop_
 _atom_site_type_symbol
 _atom_site_label
 _atom_site_symmetry_multiplicity
 _atom_site_fract_x
 _atom_site_fract_y
 _atom_site_fract_z
 _atom_site_occupancy
  Te  Te0  1  0.33335372  0.66670843  0.40439444  1
  Te  Te1  1  0.66665084  0.33330067  0.52089413  1
  Te  Te2  1  0.66664535  0.33328970  0.63576940  1
  Te  Te3  1  0.33335146  0.66670393  0.28948777  1
  Mo  Mo4  1  0.33331142  0.66662284  0.11566550  1
  Mo  Mo5  1  0.33330963  0.66661925  0.57836961  1
  Mo  Mo6  1  0.66669007  0.33338013  0.34697546  1
  Se  Se7  1  0.66664657  0.33329213  0.06494612  1
  Se  Se8  1  0.66664195  0.33328291  0.16633856  1
