# generated using pymatgen
data_Te4Mo3WS4
_symmetry_space_group_name_H-M   'P 1'
_cell_length_a   3.36363252
_cell_length_b   3.36341035
_cell_length_c   39.33253995
_cell_angle_alpha   90.00103054
_cell_angle_beta   90.00060272
_cell_angle_gamma   119.99843844
_symmetry_Int_Tables_number   1
_chemical_formula_structural   Te4Mo3WS4
_chemical_formula_sum   'Te4 Mo3 W1 S4'
_cell_volume   385.36995911
_cell_formula_units_Z   1
loop_
 _symmetry_equiv_pos_site_id
 _symmetry_equiv_pos_as_xyz
  1  'x, y, z'
loop_
 _atom_site_type_symbol
 _atom_site_label
 _atom_site_symmetry_multiplicity
 _atom_site_fract_x
 _atom_site_fract_y
 _atom_site_fract_z
 _atom_site_occupancy
  Te  Te0  1  0.33336737  0.66671285  0.70689239  1
  Te  Te1  1  0.66661688  0.33328152  0.42058541  1
  Te  Te2  1  0.66666731  0.33334718  0.51661574  1
  Te  Te3  1  0.33334781  0.66668922  0.61041756  1
  Mo  Mo4  1  0.33334347  0.66664735  0.09394126  1
  Mo  Mo5  1  0.33331581  0.66661840  0.46862268  1
  Mo  Mo6  1  0.66664613  0.33336855  0.28172111  1
  W  W7  1  0.66669292  0.33339690  0.65871351  1
  S  S8  1  0.33335774  0.66670454  0.32011992  1
  S  S9  1  0.66664168  0.33325903  0.05552624  1
  S  S10  1  0.66667959  0.33332146  0.13233225  1
  S  S11  1  0.33332330  0.66665299  0.24325991  1
