# generated using pymatgen
data_Te2Mo2WSe4
_symmetry_space_group_name_H-M   'P 1'
_cell_length_a   3.39753597
_cell_length_b   3.39750168
_cell_length_c   31.39061331
_cell_angle_alpha   89.99900660
_cell_angle_beta   90.00000000
_cell_angle_gamma   120.00033398
_symmetry_Int_Tables_number   1
_chemical_formula_structural   Te2Mo2WSe4
_chemical_formula_sum   'Te2 Mo2 W1 Se4'
_cell_volume   313.79983745
_cell_formula_units_Z   1
loop_
 _symmetry_equiv_pos_site_id
 _symmetry_equiv_pos_as_xyz
  1  'x, y, z'
loop_
 _atom_site_type_symbol
 _atom_site_label
 _atom_site_symmetry_multiplicity
 _atom_site_fract_x
 _atom_site_fract_y
 _atom_site_fract_z
 _atom_site_occupancy
  Te  Te0  1  0.66663884  0.33327667  0.51873214  1
  Te  Te1  1  0.66663616  0.33327132  0.63792211  1
  Mo  Mo2  1  0.33331221  0.66662443  0.11565389  1
  Mo  Mo3  1  0.33329962  0.66659924  0.57833723  1
  W  W4  1  0.66669811  0.33339622  0.34696604  1
  Se  Se5  1  0.33335147  0.66670394  0.39962877  1
  Se  Se6  1  0.66664903  0.33329706  0.06316161  1
  Se  Se7  1  0.66663955  0.33327810  0.16814731  1
  Se  Se8  1  0.33337600  0.66675301  0.29429190  1
