# generated using pymatgen
data_Mg14CdGa
_symmetry_space_group_name_H-M   'P 1'
_cell_length_a   6.30545700
_cell_length_b   6.30545650
_cell_length_c   10.35359669
_cell_angle_alpha   90.00000000
_cell_angle_beta   90.00000000
_cell_angle_gamma   120.00000261
_symmetry_Int_Tables_number   1
_chemical_formula_structural   Mg14CdGa
_chemical_formula_sum   'Mg14 Cd1 Ga1'
_cell_volume   356.49625044
_cell_formula_units_Z   1
loop_
 _symmetry_equiv_pos_site_id
 _symmetry_equiv_pos_as_xyz
  1  'x, y, z'
loop_
 _atom_site_type_symbol
 _atom_site_label
 _atom_site_symmetry_multiplicity
 _atom_site_fract_x
 _atom_site_fract_y
 _atom_site_fract_z
 _atom_site_occupancy
  Mg  Mg0  1  0.16611966  0.83305933  0.12500000  1
  Mg  Mg1  1  0.16657226  0.83328563  0.62500000  1
  Mg  Mg2  1  0.66694067  0.33388034  0.12500000  1
  Mg  Mg3  1  0.66671437  0.33342774  0.62500000  1
  Mg  Mg4  1  0.66694067  0.83305933  0.12500000  1
  Mg  Mg5  1  0.66671437  0.83328563  0.62500000  1
  Mg  Mg6  1  0.33269339  0.16730661  0.37512488  1
  Mg  Mg7  1  0.33269339  0.16730661  0.87487512  1
  Mg  Mg8  1  0.33269339  0.66538777  0.37512488  1
  Mg  Mg9  1  0.33269339  0.66538777  0.87487512  1
  Mg  Mg10  1  0.83461223  0.16730661  0.37512488  1
  Mg  Mg11  1  0.83461223  0.16730661  0.87487512  1
  Mg  Mg12  1  0.83333300  0.66666700  0.37461666  1
  Mg  Mg13  1  0.83333300  0.66666700  0.87538334  1
  Cd  Cd14  1  0.16666700  0.33333300  0.12500000  1
  Ga  Ga15  1  0.16666700  0.33333300  0.62500000  1
