# generated using pymatgen
data_Te2Mo3Se4
_symmetry_space_group_name_H-M   'P 1'
_cell_length_a   3.40127988
_cell_length_b   3.40120161
_cell_length_c   31.41433534
_cell_angle_alpha   89.99971542
_cell_angle_beta   90.00000000
_cell_angle_gamma   120.00076127
_symmetry_Int_Tables_number   1
_chemical_formula_structural   Te2Mo3Se4
_chemical_formula_sum   'Te2 Mo3 Se4'
_cell_volume   314.72404274
_cell_formula_units_Z   1
loop_
 _symmetry_equiv_pos_site_id
 _symmetry_equiv_pos_as_xyz
  1  'x, y, z'
loop_
 _atom_site_type_symbol
 _atom_site_label
 _atom_site_symmetry_multiplicity
 _atom_site_fract_x
 _atom_site_fract_y
 _atom_site_fract_z
 _atom_site_occupancy
  Te  Te0  1  0.66664551  0.33329002  0.51863948  1
  Te  Te1  1  0.66664422  0.33328744  0.63798000  1
  Mo  Mo2  1  0.33331219  0.66662438  0.11564935  1
  Mo  Mo3  1  0.33330804  0.66661608  0.57832844  1
  Mo  Mo4  1  0.66668758  0.33337515  0.34697008  1
  Se  Se5  1  0.33335060  0.66670220  0.39948935  1
  Se  Se6  1  0.66664663  0.33329225  0.06314794  1
  Se  Se7  1  0.66665454  0.33330809  0.16816258  1
  Se  Se8  1  0.33335169  0.66670438  0.29447378  1
