# generated using pymatgen
data_CaMg30CuO32
_symmetry_space_group_name_H-M   'P 1'
_cell_length_a   8.62015592
_cell_length_b   8.53415980
_cell_length_c   8.53415980
_cell_angle_alpha   90.00000000
_cell_angle_beta   90.00000000
_cell_angle_gamma   90.00000000
_symmetry_Int_Tables_number   1
_chemical_formula_structural   CaMg30CuO32
_chemical_formula_sum   'Ca1 Mg30 Cu1 O32'
_cell_volume   627.82219165
_cell_formula_units_Z   1
loop_
 _symmetry_equiv_pos_site_id
 _symmetry_equiv_pos_as_xyz
  1  'x, y, z'
loop_
 _atom_site_type_symbol
 _atom_site_label
 _atom_site_symmetry_multiplicity
 _atom_site_fract_x
 _atom_site_fract_y
 _atom_site_fract_z
 _atom_site_occupancy
  Ca  Ca0  1  0.00000000  0.00000000  0.00000000  1
  Mg  Mg1  1  0.00000000  0.00000000  0.50000000  1
  Mg  Mg2  1  0.00000000  0.50000000  0.00000000  1
  Mg  Mg3  1  0.50000000  0.00000000  0.00000000  1
  Mg  Mg4  1  0.50000000  0.00000000  0.50000000  1
  Mg  Mg5  1  0.50000000  0.50000000  0.00000000  1
  Mg  Mg6  1  0.50000000  0.50000000  0.50000000  1
  Mg  Mg7  1  0.00000000  0.25376089  0.25376089  1
  Mg  Mg8  1  0.00000000  0.25376089  0.74623911  1
  Mg  Mg9  1  0.00000000  0.74623911  0.25376089  1
  Mg  Mg10  1  0.00000000  0.74623911  0.74623911  1
  Mg  Mg11  1  0.50000000  0.25057467  0.25057467  1
  Mg  Mg12  1  0.50000000  0.25057467  0.74942533  1
  Mg  Mg13  1  0.50000000  0.74942533  0.25057467  1
  Mg  Mg14  1  0.50000000  0.74942533  0.74942533  1
  Mg  Mg15  1  0.25349953  0.00000000  0.25351248  1
  Mg  Mg16  1  0.25349953  0.00000000  0.74648752  1
  Mg  Mg17  1  0.25179274  0.50000000  0.25294808  1
  Mg  Mg18  1  0.25179274  0.50000000  0.74705192  1
  Mg  Mg19  1  0.74650047  0.00000000  0.25351248  1
  Mg  Mg20  1  0.74650047  0.00000000  0.74648752  1
  Mg  Mg21  1  0.74820726  0.50000000  0.25294808  1
  Mg  Mg22  1  0.74820726  0.50000000  0.74705192  1
  Mg  Mg23  1  0.25349953  0.25351248  0.00000000  1
  Mg  Mg24  1  0.25179274  0.25294808  0.50000000  1
  Mg  Mg25  1  0.25349953  0.74648752  0.00000000  1
  Mg  Mg26  1  0.25179274  0.74705192  0.50000000  1
  Mg  Mg27  1  0.74650047  0.25351248  0.00000000  1
  Mg  Mg28  1  0.74820726  0.25294808  0.50000000  1
  Mg  Mg29  1  0.74650047  0.74648752  0.00000000  1
  Mg  Mg30  1  0.74820726  0.74705192  0.50000000  1
  Cu  Cu31  1  0.00000000  0.50000000  0.50000000  1
  O  O32  1  0.26192590  0.00000000  0.00000000  1
  O  O33  1  0.25068598  0.00000000  0.50000000  1
  O  O34  1  0.25068598  0.50000000  0.00000000  1
  O  O35  1  0.26499617  0.50000000  0.50000000  1
  O  O36  1  0.73807410  0.00000000  0.00000000  1
  O  O37  1  0.74931402  0.00000000  0.50000000  1
  O  O38  1  0.74931402  0.50000000  0.00000000  1
  O  O39  1  0.73500383  0.50000000  0.50000000  1
  O  O40  1  0.24949760  0.25029638  0.25029638  1
  O  O41  1  0.24949760  0.25029638  0.74970362  1
  O  O42  1  0.24949760  0.74970362  0.25029638  1
  O  O43  1  0.24949760  0.74970362  0.74970362  1
  O  O44  1  0.75050240  0.25029638  0.25029638  1
  O  O45  1  0.75050240  0.25029638  0.74970362  1
  O  O46  1  0.75050240  0.74970362  0.25029638  1
  O  O47  1  0.75050240  0.74970362  0.74970362  1
  O  O48  1  0.00000000  0.00000000  0.26316236  1
  O  O49  1  0.00000000  0.00000000  0.73683764  1
  O  O50  1  0.00000000  0.50000000  0.25525185  1
  O  O51  1  0.00000000  0.50000000  0.74474815  1
  O  O52  1  0.50000000  0.00000000  0.25193095  1
  O  O53  1  0.50000000  0.00000000  0.74806905  1
  O  O54  1  0.50000000  0.50000000  0.24799086  1
  O  O55  1  0.50000000  0.50000000  0.75200914  1
  O  O56  1  0.00000000  0.26316236  0.00000000  1
  O  O57  1  0.00000000  0.25525185  0.50000000  1
  O  O58  1  0.00000000  0.73683764  0.00000000  1
  O  O59  1  0.00000000  0.74474815  0.50000000  1
  O  O60  1  0.50000000  0.25193095  0.00000000  1
  O  O61  1  0.50000000  0.24799086  0.50000000  1
  O  O62  1  0.50000000  0.74806905  0.00000000  1
  O  O63  1  0.50000000  0.75200914  0.50000000  1
