# generated using pymatgen
data_CaCr3(P2O7)2
_symmetry_space_group_name_H-M   'P 1'
_cell_length_a   7.55017913
_cell_length_b   7.99524351
_cell_length_c   9.56205394
_cell_angle_alpha   90.00000000
_cell_angle_beta   110.03445874
_cell_angle_gamma   90.00000000
_symmetry_Int_Tables_number   1
_chemical_formula_structural   CaCr3(P2O7)2
_chemical_formula_sum   'Ca2 Cr6 P8 O28'
_cell_volume   542.28900766
_cell_formula_units_Z   2
loop_
 _symmetry_equiv_pos_site_id
 _symmetry_equiv_pos_as_xyz
  1  'x, y, z'
loop_
 _atom_site_type_symbol
 _atom_site_label
 _atom_site_symmetry_multiplicity
 _atom_site_fract_x
 _atom_site_fract_y
 _atom_site_fract_z
 _atom_site_occupancy
  Ca  Ca0  1  0.50000000  0.00000000  -0.00000000  1
  Ca  Ca1  1  0.50000000  0.50000000  0.50000000  1
  Cr  Cr2  1  0.18990909  0.87016588  0.52341340  1
  Cr  Cr3  1  0.81009091  0.37016588  0.97658660  1
  Cr  Cr4  1  0.81009091  0.12983412  0.47658660  1
  Cr  Cr5  1  0.18990909  0.62983412  0.02341340  1
  Cr  Cr6  1  -0.00000000  0.00000000  -0.00000000  1
  Cr  Cr7  1  -0.00000000  0.50000000  0.50000000  1
  P  P8  1  0.59544790  0.05653028  0.70303413  1
  P  P9  1  0.40455210  0.55653028  0.79696587  1
  P  P10  1  0.40455210  0.94346972  0.29696587  1
  P  P11  1  0.59544790  0.44346972  0.20303413  1
  P  P12  1  0.88295519  0.79479831  0.69338850  1
  P  P13  1  0.11704481  0.29479831  0.80661150  1
  P  P14  1  0.11704481  0.20520169  0.30661150  1
  P  P15  1  0.88295519  0.70520169  0.19338850  1
  O  O16  1  0.83008612  0.62658073  0.61282454  1
  O  O17  1  0.16991388  0.12658073  0.88717546  1
  O  O18  1  0.16991388  0.37341927  0.38717546  1
  O  O19  1  0.83008612  0.87341927  0.11282454  1
  O  O20  1  0.29744107  0.60459592  0.63308957  1
  O  O21  1  0.70255893  0.10459592  0.86691043  1
  O  O22  1  0.70255893  0.39540408  0.36691043  1
  O  O23  1  0.29744107  0.89540408  0.13308957  1
  O  O24  1  0.62336926  0.18340730  0.59218702  1
  O  O25  1  0.37663074  0.68340730  0.90781298  1
  O  O26  1  0.37663074  0.81659270  0.40781298  1
  O  O27  1  0.62336926  0.31659270  0.09218702  1
  O  O28  1  0.68238566  0.87960921  0.67354675  1
  O  O29  1  0.31761434  0.37960921  0.82645325  1
  O  O30  1  0.31761434  0.12039079  0.32645325  1
  O  O31  1  0.68238566  0.62039079  0.17354675  1
  O  O32  1  0.39310737  0.48681222  0.18838300  1
  O  O33  1  0.60689263  0.98681222  0.31161700  1
  O  O34  1  0.60689263  0.51318778  0.81161700  1
  O  O35  1  0.39310737  0.01318778  0.68838300  1
  O  O36  1  0.01436632  0.21229530  0.13590618  1
  O  O37  1  0.98563368  0.71229530  0.36409382  1
  O  O38  1  0.98563368  0.78770470  0.86409382  1
  O  O39  1  0.01436632  0.28770470  0.63590618  1
  O  O40  1  0.98528391  0.58974892  0.11924366  1
  O  O41  1  0.01471609  0.08974892  0.38075634  1
  O  O42  1  0.01471609  0.41025108  0.88075634  1
  O  O43  1  0.98528391  0.91025108  0.61924366  1
