# generated using pymatgen
data_ZnNiAs2O7
_symmetry_space_group_name_H-M   'P 1'
_cell_length_a   7.26229560
_cell_length_b   8.65943278
_cell_length_c   9.69107434
_cell_angle_alpha   90.00000000
_cell_angle_beta   113.10455580
_cell_angle_gamma   90.00000000
_symmetry_Int_Tables_number   1
_chemical_formula_structural   ZnNiAs2O7
_chemical_formula_sum   'Zn4 Ni4 As8 O28'
_cell_volume   560.56259721
_cell_formula_units_Z   4
loop_
 _symmetry_equiv_pos_site_id
 _symmetry_equiv_pos_as_xyz
  1  'x, y, z'
loop_
 _atom_site_type_symbol
 _atom_site_label
 _atom_site_symmetry_multiplicity
 _atom_site_fract_x
 _atom_site_fract_y
 _atom_site_fract_z
 _atom_site_occupancy
  Zn  Zn0  1  0.27381916  0.92270390  0.89033003  1
  Zn  Zn1  1  0.72618084  0.42270390  0.60966997  1
  Zn  Zn2  1  0.72618084  0.07729610  0.10966997  1
  Zn  Zn3  1  0.27381916  0.57729610  0.39033003  1
  Ni  Ni4  1  0.81725711  0.05914092  0.68713038  1
  Ni  Ni5  1  0.18274289  0.55914092  0.81286962  1
  Ni  Ni6  1  0.18274289  0.94085908  0.31286962  1
  Ni  Ni7  1  0.81725711  0.44085908  0.18713038  1
  As  As8  1  0.43250773  0.22782792  0.75149123  1
  As  As9  1  0.56749227  0.72782792  0.74850877  1
  As  As10  1  0.56749227  0.77217208  0.24850877  1
  As  As11  1  0.43250773  0.27217208  0.25149023  1
  As  As12  1  0.01888839  0.27888001  0.95869849  1
  As  As13  1  0.98111161  0.77888001  0.54130151  1
  As  As14  1  0.98111161  0.72111999  0.04130151  1
  As  As15  1  0.01888839  0.22111999  0.45869849  1
  O  O16  1  0.86088381  0.27005654  0.05192195  1
  O  O17  1  0.13911619  0.77005654  0.44807805  1
  O  O18  1  0.13911619  0.72994346  0.94807805  1
  O  O19  1  0.86088381  0.22994346  0.55192195  1
  O  O20  1  0.35825798  0.40503045  0.77454062  1
  O  O21  1  0.64174202  0.90503045  0.72545938  1
  O  O22  1  0.64174202  0.59496955  0.22545938  1
  O  O23  1  0.35825798  0.09496955  0.27454062  1
  O  O24  1  0.46144506  0.09927175  0.89352666  1
  O  O25  1  0.53855494  0.59927175  0.60647334  1
  O  O26  1  0.53855494  0.90072825  0.10647334  1
  O  O27  1  0.46144506  0.40072825  0.39352666  1
  O  O28  1  0.25473712  0.14670710  0.58189065  1
  O  O29  1  0.74526288  0.64670710  0.91810935  1
  O  O30  1  0.74526288  0.85329290  0.41810935  1
  O  O31  1  0.25473712  0.35329290  0.08189065  1
  O  O32  1  0.96820775  0.07670121  0.32874936  1
  O  O33  1  0.03179225  0.57670121  0.17125064  1
  O  O34  1  0.03179225  0.92329879  0.67125064  1
  O  O35  1  0.96820775  0.42329879  0.82874936  1
  O  O36  1  0.64151531  0.26612098  0.21065886  1
  O  O37  1  0.35848469  0.76612098  0.28934114  1
  O  O38  1  0.35848469  0.73387902  0.78934114  1
  O  O39  1  0.64151531  0.23387902  0.71065886  1
  O  O40  1  0.04403505  0.39661812  0.38861999  1
  O  O41  1  0.95596495  0.89661812  0.11138001  1
  O  O42  1  0.95596495  0.60338188  0.61138001  1
  O  O43  1  0.04403505  0.10338188  0.88861999  1
