# generated using pymatgen
data_MgCd
_symmetry_space_group_name_H-M   'P 1'
_cell_length_a   11.27512422
_cell_length_b   3.24133940
_cell_length_c   7.42581312
_cell_angle_alpha   90.00000000
_cell_angle_beta   103.97282600
_cell_angle_gamma   90.00000000
_symmetry_Int_Tables_number   1
_chemical_formula_structural   MgCd
_chemical_formula_sum   'Mg6 Cd6'
_cell_volume   263.35725163
_cell_formula_units_Z   6
loop_
 _symmetry_equiv_pos_site_id
 _symmetry_equiv_pos_as_xyz
  1  'x, y, z'
loop_
 _atom_site_type_symbol
 _atom_site_label
 _atom_site_symmetry_multiplicity
 _atom_site_fract_x
 _atom_site_fract_y
 _atom_site_fract_z
 _atom_site_occupancy
  Mg  Mg0  1  0.99405508  -0.00000000  0.99630885  1
  Mg  Mg1  1  0.11354463  0.50000000  0.72351965  1
  Mg  Mg2  1  0.16971734  0.50000000  0.33545468  1
  Mg  Mg3  1  0.49405508  0.50000000  0.99630885  1
  Mg  Mg4  1  0.61354463  -0.00000000  0.72351965  1
  Mg  Mg5  1  0.66971734  -0.00000000  0.33545468  1
  Cd  Cd6  1  0.33457795  0.00000000  0.66874525  1
  Cd  Cd7  1  0.44886482  0.50000000  0.38627103  1
  Cd  Cd8  1  0.27257318  0.00000000  0.05636754  1
  Cd  Cd9  1  0.83457795  0.50000000  0.66874525  1
  Cd  Cd10  1  0.94886482  0.00000000  0.38627103  1
  Cd  Cd11  1  0.77257318  0.50000000  0.05636754  1
