# generated using pymatgen
data_YMg14Cr
_symmetry_space_group_name_H-M   'P 1'
_cell_length_a   6.43023377
_cell_length_b   6.43023324
_cell_length_c   10.33570366
_cell_angle_alpha   90.00000000
_cell_angle_beta   90.00000000
_cell_angle_gamma   120.00000279
_symmetry_Int_Tables_number   1
_chemical_formula_structural   YMg14Cr
_chemical_formula_sum   'Y1 Mg14 Cr1'
_cell_volume   370.10432168
_cell_formula_units_Z   1
loop_
 _symmetry_equiv_pos_site_id
 _symmetry_equiv_pos_as_xyz
  1  'x, y, z'
loop_
 _atom_site_type_symbol
 _atom_site_label
 _atom_site_symmetry_multiplicity
 _atom_site_fract_x
 _atom_site_fract_y
 _atom_site_fract_z
 _atom_site_occupancy
  Y  Y0  1  0.16666700  0.33333300  0.12500000  1
  Mg  Mg1  1  0.17629258  0.83814579  0.12500000  1
  Mg  Mg2  1  0.16627051  0.83313476  0.62500000  1
  Mg  Mg3  1  0.66185421  0.32370742  0.12500000  1
  Mg  Mg4  1  0.66686524  0.33372949  0.62500000  1
  Mg  Mg5  1  0.66185421  0.83814579  0.12500000  1
  Mg  Mg6  1  0.66686524  0.83313476  0.62500000  1
  Mg  Mg7  1  0.33158724  0.16841276  0.38317403  1
  Mg  Mg8  1  0.33158724  0.16841276  0.86682597  1
  Mg  Mg9  1  0.33158724  0.66317548  0.38317403  1
  Mg  Mg10  1  0.33158724  0.66317548  0.86682597  1
  Mg  Mg11  1  0.83682452  0.16841276  0.38317403  1
  Mg  Mg12  1  0.83682452  0.16841276  0.86682597  1
  Mg  Mg13  1  0.83333300  0.66666700  0.37043042  1
  Mg  Mg14  1  0.83333300  0.66666700  0.87956958  1
  Cr  Cr15  1  0.16666700  0.33333300  0.62500000  1
