# generated using pymatgen
data_CaFeNiP2O9
_symmetry_space_group_name_H-M   'P 1'
_cell_length_a   6.45524795
_cell_length_b   7.44027103
_cell_length_c   14.27796563
_cell_angle_alpha   90.00746923
_cell_angle_beta   89.88454741
_cell_angle_gamma   90.21707474
_symmetry_Int_Tables_number   1
_chemical_formula_structural   CaFeNiP2O9
_chemical_formula_sum   'Ca4 Fe4 Ni4 P8 O36'
_cell_volume   685.74715570
_cell_formula_units_Z   4
loop_
 _symmetry_equiv_pos_site_id
 _symmetry_equiv_pos_as_xyz
  1  'x, y, z'
loop_
 _atom_site_type_symbol
 _atom_site_label
 _atom_site_symmetry_multiplicity
 _atom_site_fract_x
 _atom_site_fract_y
 _atom_site_fract_z
 _atom_site_occupancy
  Ca  Ca0  1  0.74917656  0.88289880  0.78040983  1
  Ca  Ca1  1  0.75102012  0.61701255  0.28016114  1
  Ca  Ca2  1  0.25080571  0.11699696  0.21970697  1
  Ca  Ca3  1  0.24896198  0.38278972  0.71978953  1
  Fe  Fe4  1  0.74817883  0.34867633  0.88081196  1
  Fe  Fe5  1  0.25175414  0.65139567  0.11913990  1
  Fe  Fe6  1  0.25064791  0.84845345  0.61896208  1
  Fe  Fe7  1  0.74936748  0.15131478  0.38106515  1
  Ni  Ni8  1  0.49962389  0.00034033  0.00012214  1
  Ni  Ni9  1  0.50010570  0.49979063  0.49986319  1
  Ni  Ni10  1  0.00022451  0.49992031  0.49982092  1
  Ni  Ni11  1  0.99953794  0.00047068  0.99985094  1
  P  P12  1  0.25011904  0.35395290  0.93629350  1
  P  P13  1  0.74995609  0.64610512  0.06356213  1
  P  P14  1  0.75023345  0.85349131  0.56392416  1
  P  P15  1  0.24981711  0.14642749  0.43622058  1
  P  P16  1  0.75011721  0.38802444  0.69109947  1
  P  P17  1  0.24986442  0.61222343  0.30888956  1
  P  P18  1  0.24923420  0.88753800  0.80866583  1
  P  P19  1  0.75089138  0.11221533  0.19135123  1
  O  O20  1  0.05120701  0.60507744  0.36911226  1
  O  O21  1  0.55093618  0.39475619  0.63158290  1
  O  O22  1  0.94970627  0.10573582  0.13136216  1
  O  O23  1  0.44789071  0.89363728  0.86880249  1
  O  O24  1  0.94880860  0.39504022  0.63085354  1
  O  O25  1  0.44913506  0.60540138  0.36844802  1
  O  O26  1  0.05032443  0.89405987  0.86864945  1
  O  O27  1  0.55208558  0.10626456  0.13130167  1
  O  O28  1  0.25066636  0.33302880  0.48491285  1
  O  O29  1  0.74949033  0.66672288  0.51525496  1
  O  O30  1  0.74691578  0.83365400  0.01549382  1
  O  O31  1  0.25289967  0.16643647  0.98448178  1
  O  O32  1  0.74493422  0.12876581  0.94598004  1
  O  O33  1  0.25488172  0.87132959  0.05398047  1
  O  O34  1  0.25170120  0.62891416  0.55314322  1
  O  O35  1  0.74835625  0.37111251  0.44670147  1
  O  O36  1  0.74986337  0.21342573  0.75269290  1
  O  O37  1  0.25012807  0.78694174  0.24738625  1
  O  O38  1  0.24946017  0.71329462  0.74680101  1
  O  O39  1  0.75062646  0.28655366  0.25320728  1
  O  O40  1  0.43764206  0.13414012  0.36833495  1
  O  O41  1  0.93838962  0.86495782  0.63137891  1
  O  O42  1  0.56336957  0.63059515  0.13225350  1
  O  O43  1  0.06056233  0.36229539  0.86940365  1
  O  O44  1  0.56239503  0.86591463  0.63174488  1
  O  O45  1  0.06163116  0.13526239  0.36871964  1
  O  O46  1  0.43662638  0.36922069  0.86769424  1
  O  O47  1  0.93945543  0.63741718  0.13058064  1
  O  O48  1  0.74944018  0.96132444  0.26829437  1
  O  O49  1  0.25064412  0.03845149  0.73173734  1
  O  O50  1  0.24831244  0.46185685  0.23176814  1
  O  O51  1  0.75175580  0.53840295  0.76824374  1
  O  O52  1  0.75056361  0.99890826  0.48941818  1
  O  O53  1  0.24946831  0.00103481  0.51058499  1
  O  O54  1  0.24967902  0.49829360  0.01081692  1
  O  O55  1  0.75040681  0.50173530  0.98916715  1
