# generated using pymatgen
data_MnZnP2O7
_symmetry_space_group_name_H-M   'P 1'
_cell_length_a   5.70634224
_cell_length_b   6.51741062
_cell_length_c   7.41508047
_cell_angle_alpha   82.43844595
_cell_angle_beta   86.00659071
_cell_angle_gamma   71.42145104
_symmetry_Int_Tables_number   1
_chemical_formula_structural   MnZnP2O7
_chemical_formula_sum   'Mn2 Zn2 P4 O14'
_cell_volume   259.01419118
_cell_formula_units_Z   2
loop_
 _symmetry_equiv_pos_site_id
 _symmetry_equiv_pos_as_xyz
  1  'x, y, z'
loop_
 _atom_site_type_symbol
 _atom_site_label
 _atom_site_symmetry_multiplicity
 _atom_site_fract_x
 _atom_site_fract_y
 _atom_site_fract_z
 _atom_site_occupancy
  Mn  Mn0  1  0.25210341  0.15087554  0.20545484  1
  Mn  Mn1  1  0.74790267  0.84912074  0.79456600  1
  Zn  Zn2  1  0.33825140  0.65664463  0.65512945  1
  Zn  Zn3  1  0.66175081  0.34335171  0.34486826  1
  P  P4  1  0.19211785  0.67511349  0.09455469  1
  P  P5  1  0.80788183  0.32489203  0.90544384  1
  P  P6  1  0.22038700  0.20612878  0.61618827  1
  P  P7  1  0.77961249  0.79386668  0.38381058  1
  O  O8  1  0.11561770  0.69219262  0.89640246  1
  O  O9  1  0.88438335  0.30780539  0.10359645  1
  O  O10  1  0.29611712  0.85033222  0.13151893  1
  O  O11  1  0.70387640  0.14967993  0.86848168  1
  O  O12  1  0.35334588  0.44329357  0.16498178  1
  O  O13  1  0.64665727  0.55671441  0.83501404  1
  O  O14  1  0.61962518  0.64104983  0.43399741  1
  O  O15  1  0.38037402  0.35894482  0.56599907  1
  O  O16  1  0.04525585  0.21985970  0.46337133  1
  O  O17  1  0.95474179  0.78013785  0.53662745  1
  O  O18  1  0.07156181  0.29339764  0.79607893  1
  O  O19  1  0.62247721  0.03198015  0.32664724  1
  O  O20  1  0.37752426  0.96801613  0.67334993  1
  O  O21  1  0.92843769  0.70659916  0.20391837  1
