# generated using pymatgen
data_MgCd2
_symmetry_space_group_name_H-M   'P 1'
_cell_length_a   11.27401135
_cell_length_b   3.29926948
_cell_length_c   7.36667583
_cell_angle_alpha   90.00000000
_cell_angle_beta   101.94286037
_cell_angle_gamma   90.00000000
_symmetry_Int_Tables_number   1
_chemical_formula_structural   MgCd2
_chemical_formula_sum   'Mg4 Cd8'
_cell_volume   268.07977192
_cell_formula_units_Z   4
loop_
 _symmetry_equiv_pos_site_id
 _symmetry_equiv_pos_as_xyz
  1  'x, y, z'
loop_
 _atom_site_type_symbol
 _atom_site_label
 _atom_site_symmetry_multiplicity
 _atom_site_fract_x
 _atom_site_fract_y
 _atom_site_fract_z
 _atom_site_occupancy
  Mg  Mg0  1  0.38522186  0.00000000  0.27237337  1
  Mg  Mg1  1  0.05810857  -0.00000000  0.61440847  1
  Mg  Mg2  1  0.88522186  0.50000000  0.27237337  1
  Mg  Mg3  1  0.55810857  0.50000000  0.61440847  1
  Cd  Cd4  1  0.99957265  0.00000000  0.00211900  1
  Cd  Cd5  1  0.16450934  0.50000000  0.33815179  1
  Cd  Cd6  1  0.33649040  0.00000000  0.66060057  1
  Cd  Cd7  1  0.22276418  0.50000000  0.94567980  1
  Cd  Cd8  1  0.49957265  0.50000000  0.00211900  1
  Cd  Cd9  1  0.66450934  -0.00000000  0.33815179  1
  Cd  Cd10  1  0.83649040  0.50000000  0.66060057  1
  Cd  Cd11  1  0.72276418  0.00000000  0.94567980  1
