# generated using pymatgen
data_CaCo(GeO3)2
_symmetry_space_group_name_H-M   'P 1'
_cell_length_a   5.34203472
_cell_length_b   9.11333680
_cell_length_c   10.36448774
_cell_angle_alpha   90.00000000
_cell_angle_beta   104.93829304
_cell_angle_gamma   90.00000000
_symmetry_Int_Tables_number   1
_chemical_formula_structural   CaCo(GeO3)2
_chemical_formula_sum   'Ca4 Co4 Ge8 O24'
_cell_volume   487.52939418
_cell_formula_units_Z   4
loop_
 _symmetry_equiv_pos_site_id
 _symmetry_equiv_pos_as_xyz
  1  'x, y, z'
loop_
 _atom_site_type_symbol
 _atom_site_label
 _atom_site_symmetry_multiplicity
 _atom_site_fract_x
 _atom_site_fract_y
 _atom_site_fract_z
 _atom_site_occupancy
  Ca  Ca0  1  0.46894556  0.45216058  0.27580127  1
  Ca  Ca1  1  0.03105444  0.95216058  0.72419873  1
  Ca  Ca2  1  0.53105444  0.54783942  0.72419873  1
  Ca  Ca3  1  0.96894556  0.04783942  0.27580127  1
  Co  Co4  1  0.96178627  0.66368237  0.23378394  1
  Co  Co5  1  0.53821373  0.16368237  0.76621606  1
  Co  Co6  1  0.03821373  0.33631763  0.76621606  1
  Co  Co7  1  0.46178627  0.83631763  0.23378394  1
  Ge  Ge8  1  0.82573774  0.34770981  0.04456832  1
  Ge  Ge9  1  0.67426226  0.84770981  0.95543168  1
  Ge  Ge10  1  0.17426226  0.65229019  0.95543168  1
  Ge  Ge11  1  0.32573774  0.15229019  0.04456832  1
  Ge  Ge12  1  0.09553485  0.35073452  0.48722501  1
  Ge  Ge13  1  0.40446515  0.85073452  0.51277499  1
  Ge  Ge14  1  0.90446515  0.64926548  0.51277499  1
  Ge  Ge15  1  0.59553485  0.14926548  0.48722501  1
  O  O16  1  0.30926592  0.24574220  0.39483652  1
  O  O17  1  0.19073408  0.74574220  0.60516348  1
  O  O18  1  0.69073408  0.75425780  0.60516348  1
  O  O19  1  0.80926592  0.25425780  0.39483652  1
  O  O20  1  0.17090880  0.30875630  0.10272131  1
  O  O21  1  0.32909120  0.80875630  0.89727969  1
  O  O22  1  0.82909120  0.69124370  0.89727969  1
  O  O23  1  0.67090880  0.19124370  0.10272131  1
  O  O24  1  0.64665080  0.97459907  0.41676294  1
  O  O25  1  0.85334920  0.47459907  0.58323706  1
  O  O26  1  0.35334920  0.02540093  0.58323706  1
  O  O27  1  0.14665080  0.52540093  0.41676294  1
  O  O28  1  0.25985832  0.00836544  0.13919042  1
  O  O29  1  0.24014168  0.50836544  0.86080958  1
  O  O30  1  0.74014168  0.99163456  0.86080958  1
  O  O31  1  0.75985832  0.49163456  0.13919042  1
  O  O32  1  0.74018356  0.34679336  0.86905450  1
  O  O33  1  0.75981644  0.84679336  0.13094550  1
  O  O34  1  0.25981644  0.65320664  0.13094550  1
  O  O35  1  0.24018356  0.15320664  0.86905450  1
  O  O36  1  0.30626761  0.32692022  0.64922203  1
  O  O37  1  0.19373239  0.82692022  0.35077797  1
  O  O38  1  0.69373239  0.67307978  0.35077797  1
  O  O39  1  0.80626761  0.17307978  0.64922203  1
