# generated using pymatgen
data_Nb2Zn2NiO8
_symmetry_space_group_name_H-M   'P 1'
_cell_length_a   5.25844675
_cell_length_b   5.93134245
_cell_length_c   10.11182313
_cell_angle_alpha   107.30194115
_cell_angle_beta   89.67104923
_cell_angle_gamma   90.00044895
_symmetry_Int_Tables_number   1
_chemical_formula_structural   Nb2Zn2NiO8
_chemical_formula_sum   'Nb4 Zn4 Ni2 O16'
_cell_volume   301.10786109
_cell_formula_units_Z   2
loop_
 _symmetry_equiv_pos_site_id
 _symmetry_equiv_pos_as_xyz
  1  'x, y, z'
loop_
 _atom_site_type_symbol
 _atom_site_label
 _atom_site_symmetry_multiplicity
 _atom_site_fract_x
 _atom_site_fract_y
 _atom_site_fract_z
 _atom_site_occupancy
  Nb  Nb0  1  0.73661237  0.27491169  0.22739589  1
  Nb  Nb1  1  0.76508764  0.04751777  0.77393807  1
  Nb  Nb2  1  0.26444952  0.72148329  0.77479715  1
  Nb  Nb3  1  0.23594024  0.94927038  0.22845737  1
  Zn  Zn4  1  0.76437371  0.42999935  0.55806577  1
  Zn  Zn5  1  0.73658465  0.87217799  0.44021852  1
  Zn  Zn6  1  0.23866278  0.56800350  0.44399316  1
  Zn  Zn7  1  0.26529616  0.12524816  0.56300333  1
  Ni  Ni8  1  0.75010943  0.64066513  0.00162394  1
  Ni  Ni9  1  0.25039602  0.35571426  0.00133172  1
  O  O10  1  0.07765565  0.18252057  0.13813801  1
  O  O11  1  0.42385840  0.04659767  0.86306500  1
  O  O12  1  0.92307607  0.81180795  0.86333944  1
  O  O13  1  0.57765646  0.94855994  0.13938324  1
  O  O14  1  0.58696601  0.43172162  0.11422614  1
  O  O15  1  0.91417301  0.31892288  0.88757600  1
  O  O16  1  0.41296331  0.56407471  0.88792376  1
  O  O17  1  0.08679085  0.67664004  0.11602973  1
  O  O18  1  0.44101435  0.28338551  0.35769971  1
  O  O19  1  0.06161527  0.92297127  0.64449174  1
  O  O20  1  0.36623898  0.84125164  0.38840805  1
  O  O21  1  0.13301352  0.45132573  0.61517009  1
  O  O22  1  0.63557885  0.15845527  0.61525270  1
  O  O23  1  0.86930306  0.54551441  0.38612403  1
  O  O24  1  0.93943289  0.07431594  0.35823632  1
  O  O25  1  0.55929080  0.71364032  0.64298812  1
