# generated using pymatgen
data_CaVP2O7
_symmetry_space_group_name_H-M   'P 1'
_cell_length_a   7.42539588
_cell_length_b   8.90577787
_cell_length_c   9.05435340
_cell_angle_alpha   90.00000000
_cell_angle_beta   112.04352444
_cell_angle_gamma   90.00000000
_symmetry_Int_Tables_number   1
_chemical_formula_structural   CaVP2O7
_chemical_formula_sum   'Ca4 V4 P8 O28'
_cell_volume   554.98511525
_cell_formula_units_Z   4
loop_
 _symmetry_equiv_pos_site_id
 _symmetry_equiv_pos_as_xyz
  1  'x, y, z'
loop_
 _atom_site_type_symbol
 _atom_site_label
 _atom_site_symmetry_multiplicity
 _atom_site_fract_x
 _atom_site_fract_y
 _atom_site_fract_z
 _atom_site_occupancy
  Ca  Ca0  1  0.13922180  0.95042477  0.85384389  1
  Ca  Ca1  1  0.36077820  0.45042477  0.64615611  1
  Ca  Ca2  1  0.63922180  0.54957523  0.35384389  1
  Ca  Ca3  1  0.86077820  0.04957523  0.14615611  1
  V  V4  1  0.38543963  0.07502735  0.61350589  1
  V  V5  1  0.61456037  0.92497265  0.38649411  1
  V  V6  1  0.11456037  0.57502735  0.88649411  1
  V  V7  1  0.88543963  0.42497265  0.11350589  1
  P  P8  1  0.18559304  0.72406781  0.24068867  1
  P  P9  1  0.43461246  0.24226273  0.97033751  1
  P  P10  1  0.68559304  0.77593219  0.74068867  1
  P  P11  1  0.93461246  0.25773727  0.47033751  1
  P  P12  1  0.31440696  0.22406781  0.25931133  1
  P  P13  1  0.06538754  0.74226273  0.52966249  1
  P  P14  1  0.56538754  0.75773727  0.02966249  1
  P  P15  1  0.81440696  0.27593219  0.75931133  1
  O  O16  1  0.36091643  0.17543017  0.10406945  1
  O  O17  1  0.58040790  0.63172550  0.66909716  1
  O  O18  1  0.08040790  0.86827450  0.16909716  1
  O  O19  1  0.33039365  0.38953517  0.90160776  1
  O  O20  1  0.63908357  0.82456983  0.89593055  1
  O  O21  1  0.38647816  0.08678687  0.36976067  1
  O  O22  1  0.66960635  0.61046483  0.09839224  1
  O  O23  1  0.37922456  0.11099957  0.85148885  1
  O  O24  1  0.15602366  0.24123180  0.55044916  1
  O  O25  1  0.61352184  0.91321313  0.63023933  1
  O  O26  1  0.88647816  0.41321313  0.86976067  1
  O  O27  1  0.90833465  0.76280456  0.80645729  1
  O  O28  1  0.59166535  0.26280456  0.69354271  1
  O  O29  1  0.86091643  0.32456983  0.60406945  1
  O  O30  1  0.11352184  0.58678687  0.13023933  1
  O  O31  1  0.91959210  0.13172550  0.83090284  1
  O  O32  1  0.09166535  0.23719544  0.19354271  1
  O  O33  1  0.62077544  0.88900043  0.14851115  1
  O  O34  1  0.65602366  0.25876820  0.05044916  1
  O  O35  1  0.34397634  0.74123180  0.94955084  1
  O  O36  1  0.16960635  0.88953517  0.59839224  1
  O  O37  1  0.87922456  0.38900043  0.35148885  1
  O  O38  1  0.12077544  0.61099957  0.64851115  1
  O  O39  1  0.41959210  0.36827450  0.33090284  1
  O  O40  1  0.40833465  0.73719544  0.30645729  1
  O  O41  1  0.83039365  0.11046483  0.40160776  1
  O  O42  1  0.84397634  0.75876820  0.44955084  1
  O  O43  1  0.13908357  0.67543017  0.39593055  1
