# generated using pymatgen
data_SrMgCo(PO4)2
_symmetry_space_group_name_H-M   'P 1'
_cell_length_a   5.54386240
_cell_length_b   6.95546862
_cell_length_c   9.37522494
_cell_angle_alpha   110.72573762
_cell_angle_beta   101.76663084
_cell_angle_gamma   98.31715430
_symmetry_Int_Tables_number   1
_chemical_formula_structural   SrMgCo(PO4)2
_chemical_formula_sum   'Sr2 Mg2 Co2 P4 O16'
_cell_volume   321.59567468
_cell_formula_units_Z   2
loop_
 _symmetry_equiv_pos_site_id
 _symmetry_equiv_pos_as_xyz
  1  'x, y, z'
loop_
 _atom_site_type_symbol
 _atom_site_label
 _atom_site_symmetry_multiplicity
 _atom_site_fract_x
 _atom_site_fract_y
 _atom_site_fract_z
 _atom_site_occupancy
  Sr  Sr0  1  0.25182709  0.80259478  0.05177687  1
  Sr  Sr1  1  0.74817291  0.19740522  0.94822313  1
  Mg  Mg2  1  0.98715522  0.38205593  0.64984111  1
  Mg  Mg3  1  0.01284478  0.61794407  0.35015889  1
  Co  Co4  1  0.63579380  0.84822213  0.55859819  1
  Co  Co5  1  0.36420620  0.15177787  0.44140181  1
  P  P6  1  0.39638845  0.42586064  0.23734604  1
  P  P7  1  0.60361155  0.57413936  0.76265396  1
  P  P8  1  0.84431982  0.02508032  0.30358162  1
  P  P9  1  0.15568018  0.97491968  0.69641838  1
  O  O10  1  0.81749365  0.55202245  0.88740902  1
  O  O11  1  0.66202477  0.47451025  0.21133672  1
  O  O12  1  0.65920943  0.79757597  0.76115916  1
  O  O13  1  0.95397448  0.11510080  0.69425850  1
  O  O14  1  0.33797523  0.52548975  0.78866328  1
  O  O15  1  0.00251398  0.74637055  0.57609180  1
  O  O16  1  0.99748602  0.25362945  0.42390820  1
  O  O17  1  0.25985532  0.99588400  0.86595697  1
  O  O18  1  0.34079057  0.20242403  0.23884084  1
  O  O19  1  0.74014468  0.00411600  0.13404303  1
  O  O20  1  0.18250635  0.44797755  0.11259098  1
  O  O21  1  0.37754672  0.59273211  0.39832457  1
  O  O22  1  0.62245328  0.40726789  0.60167543  1
  O  O23  1  0.62440270  0.95127376  0.36785775  1
  O  O24  1  0.04602552  0.88489920  0.30574150  1
  O  O25  1  0.37559730  0.04872624  0.63214225  1
