# generated using pymatgen
data_TiZnCo(PO4)3
_symmetry_space_group_name_H-M   'P 1'
_cell_length_a   8.50779339
_cell_length_b   8.50779262
_cell_length_c   8.50779297
_cell_angle_alpha   60.91590647
_cell_angle_beta   60.91590996
_cell_angle_gamma   60.91591283
_symmetry_Int_Tables_number   1
_chemical_formula_structural   TiZnCo(PO4)3
_chemical_formula_sum   'Ti2 Zn2 Co2 P6 O24'
_cell_volume   444.43615130
_cell_formula_units_Z   2
loop_
 _symmetry_equiv_pos_site_id
 _symmetry_equiv_pos_as_xyz
  1  'x, y, z'
loop_
 _atom_site_type_symbol
 _atom_site_label
 _atom_site_symmetry_multiplicity
 _atom_site_fract_x
 _atom_site_fract_y
 _atom_site_fract_z
 _atom_site_occupancy
  Ti  Ti0  1  0.14416340  0.14416340  0.14416340  1
  Ti  Ti1  1  0.64416340  0.64416340  0.64416340  1
  Zn  Zn2  1  0.99547293  0.99547293  0.99547293  1
  Zn  Zn3  1  0.49547293  0.49547293  0.49547293  1
  Co  Co4  1  0.35345330  0.35345330  0.35345330  1
  Co  Co5  1  0.85345330  0.85345330  0.85345330  1
  P  P6  1  0.04584831  0.45619078  0.75123810  1
  P  P7  1  0.45619078  0.75123810  0.04584831  1
  P  P8  1  0.75123810  0.04584831  0.45619078  1
  P  P9  1  0.25123810  0.95619078  0.54584831  1
  P  P10  1  0.54584831  0.25123810  0.95619078  1
  P  P11  1  0.95619078  0.54584831  0.25123810  1
  O  O12  1  0.11125718  0.50600013  0.31980420  1
  O  O13  1  0.31980420  0.11125718  0.50600013  1
  O  O14  1  0.05473948  0.25913329  0.91379355  1
  O  O15  1  0.50600013  0.31980420  0.11125718  1
  O  O16  1  0.00600013  0.61125718  0.81980420  1
  O  O17  1  0.23957460  0.43889661  0.58909927  1
  O  O18  1  0.25913329  0.91379355  0.05473948  1
  O  O19  1  0.43889661  0.58909927  0.23957460  1
  O  O20  1  0.18747952  0.00399015  0.37986319  1
  O  O21  1  0.58909927  0.23957460  0.43889661  1
  O  O22  1  0.08909927  0.93889661  0.73957460  1
  O  O23  1  0.37986319  0.18747952  0.00399015  1
  O  O24  1  0.61125718  0.81980420  0.00600013  1
  O  O25  1  0.91379355  0.05473948  0.25913329  1
  O  O26  1  0.41379355  0.75913329  0.55473948  1
  O  O27  1  0.81980420  0.00600013  0.61125718  1
  O  O28  1  0.55473948  0.41379355  0.75913329  1
  O  O29  1  0.73957460  0.08909927  0.93889661  1
  O  O30  1  0.75913329  0.55473948  0.41379355  1
  O  O31  1  0.00399015  0.37986319  0.18747952  1
  O  O32  1  0.50399015  0.68747952  0.87986319  1
  O  O33  1  0.93889661  0.73957460  0.08909927  1
  O  O34  1  0.68747952  0.87986319  0.50399015  1
  O  O35  1  0.87986319  0.50399015  0.68747952  1
