# generated using pymatgen
data_CaPr(CoO3)2
_symmetry_space_group_name_H-M   'P 1'
_cell_length_a   5.43840033
_cell_length_b   5.48246795
_cell_length_c   7.59391260
_cell_angle_alpha   89.74020550
_cell_angle_beta   89.37467707
_cell_angle_gamma   90.54150787
_symmetry_Int_Tables_number   1
_chemical_formula_structural   CaPr(CoO3)2
_chemical_formula_sum   'Ca2 Pr2 Co4 O12'
_cell_volume   226.39296972
_cell_formula_units_Z   2
loop_
 _symmetry_equiv_pos_site_id
 _symmetry_equiv_pos_as_xyz
  1  'x, y, z'
loop_
 _atom_site_type_symbol
 _atom_site_label
 _atom_site_symmetry_multiplicity
 _atom_site_fract_x
 _atom_site_fract_y
 _atom_site_fract_z
 _atom_site_occupancy
  Ca  Ca0  1  0.48715110  0.45676419  0.75153170  1
  Ca  Ca1  1  0.99277538  0.04352119  0.24767962  1
  Pr  Pr2  1  0.00723734  0.96028701  0.75262901  1
  Pr  Pr3  1  0.51197938  0.53973838  0.24775461  1
  Co  Co4  1  0.00047724  0.49912555  -0.00021271  1
  Co  Co5  1  0.00067695  0.49834200  0.50028185  1
  Co  Co6  1  0.50056547  0.00160775  0.50012293  1
  Co  Co7  1  0.49882521  0.00347125  0.00058167  1
  O  O8  1  0.07029472  0.48367367  0.25387126  1
  O  O9  1  0.20654918  0.22579932  0.96108161  1
  O  O10  1  0.21487983  0.21593118  0.53722864  1
  O  O11  1  0.29717236  0.72164976  0.53903863  1
  O  O12  1  0.27795981  0.70724872  0.95681773  1
  O  O13  1  0.42591895  0.98546881  0.23896813  1
  O  O14  1  0.56831187  0.01631136  0.76147454  1
  O  O15  1  0.72529821  0.28993797  0.03983208  1
  O  O16  1  0.70585948  0.27523518  0.46449996  1
  O  O17  1  0.79670102  0.77739981  0.04185818  1
  O  O18  1  0.78805765  0.78549639  0.45895910  1
  O  O19  1  0.92330584  0.51299150  0.74600046  1
