# generated using pymatgen
data_Ba2AlFe2F11
_symmetry_space_group_name_H-M   'P 1'
_cell_length_a   7.44947089
_cell_length_b   7.44947094
_cell_length_c   14.53670076
_cell_angle_alpha   90.00000000
_cell_angle_beta   90.00000000
_cell_angle_gamma   119.99999982
_symmetry_Int_Tables_number   1
_chemical_formula_structural   Ba2AlFe2F11
_chemical_formula_sum   'Ba6 Al3 Fe6 F33'
_cell_volume   698.63017679
_cell_formula_units_Z   3
loop_
 _symmetry_equiv_pos_site_id
 _symmetry_equiv_pos_as_xyz
  1  'x, y, z'
loop_
 _atom_site_type_symbol
 _atom_site_label
 _atom_site_symmetry_multiplicity
 _atom_site_fract_x
 _atom_site_fract_y
 _atom_site_fract_z
 _atom_site_occupancy
  Ba  Ba0  1  0.53909514  0.19081294  0.66600938  1
  Ba  Ba1  1  0.17805379  0.49596461  0.79799234  1
  Ba  Ba2  1  0.65171780  0.46090486  0.99934238  1
  Ba  Ba3  1  0.50403539  0.68208818  0.46465834  1
  Ba  Ba4  1  0.31791182  0.82194621  0.13132534  1
  Ba  Ba5  1  0.80918706  0.34828220  0.33267538  1
  Al  Al6  1  0.16461363  0.00931020  0.87427959  1
  Al  Al7  1  0.84469757  0.83538637  0.20761259  1
  Al  Al8  1  0.99068980  0.15530243  0.54094559  1
  Fe  Fe9  1  0.64260867  0.99357093  0.88521615  1
  Fe  Fe10  1  0.80099906  0.76824834  0.72417750  1
  Fe  Fe11  1  0.23175166  0.03275072  0.39084350  1
  Fe  Fe12  1  0.35096226  0.35739133  0.21854915  1
  Fe  Fe13  1  0.96724928  0.19900094  0.05751050  1
  Fe  Fe14  1  0.00642907  0.64903774  0.55188215  1
  F  F15  1  0.65706641  0.07974961  0.02377655  1
  F  F16  1  0.50255662  0.69615515  0.92417568  1
  F  F17  1  0.42268320  0.34293359  0.35710955  1
  F  F18  1  0.08923240  0.42052409  0.49523266  1
  F  F19  1  0.53241826  0.23996779  0.17964824  1
  F  F20  1  0.91034352  0.63166198  0.19076997  1
  F  F21  1  0.57947591  0.66870731  0.16189966  1
  F  F22  1  0.36833802  0.27868155  0.85743697  1
  F  F23  1  0.70754853  0.46758174  0.51298124  1
  F  F24  1  0.27779795  0.34786575  0.08068160  1
  F  F25  1  0.33129269  0.91076760  0.82856666  1
  F  F26  1  0.92025039  0.57731680  0.69044355  1
  F  F27  1  0.25930492  0.00583244  0.98573191  1
  F  F28  1  0.02456503  0.48811483  0.02517658  1
  F  F29  1  0.74652852  0.74069508  0.31906491  1
  F  F30  1  0.30384485  0.80640147  0.59084168  1
  F  F31  1  0.98989168  0.11307482  0.91275874  1
  F  F32  1  0.07006780  0.72220205  0.41401460  1
  F  F33  1  0.98154008  0.07625995  0.41864501  1
  F  F34  1  0.99416756  0.25347148  0.65239791  1
  F  F35  1  0.09471988  0.01845992  0.75197901  1
  F  F36  1  0.51188517  0.53645019  0.69184358  1
  F  F37  1  0.46354981  0.97543497  0.35850958  1
  F  F38  1  0.12318314  0.01010832  0.24609174  1
  F  F39  1  0.65213425  0.92993220  0.74734860  1
  F  F40  1  0.76003221  0.29245147  0.84631524  1
  F  F41  1  0.19359853  0.49744338  0.25750868  1
  F  F42  1  0.93343025  0.74853808  0.87369810  1
  F  F43  1  0.81510783  0.06656975  0.20703110  1
  F  F44  1  0.92374005  0.90528012  0.08531201  1
  F  F45  1  0.72131845  0.08965648  0.52410297  1
  F  F46  1  0.88692518  0.87681686  0.57942474  1
  F  F47  1  0.25146192  0.18489217  0.54036410  1
