# generated using pymatgen
data_CaMn(GeO3)2
_symmetry_space_group_name_H-M   'P 1'
_cell_length_a   5.38408027
_cell_length_b   9.33619737
_cell_length_c   10.43083452
_cell_angle_alpha   90.00000000
_cell_angle_beta   104.70771269
_cell_angle_gamma   90.00000000
_symmetry_Int_Tables_number   1
_chemical_formula_structural   CaMn(GeO3)2
_chemical_formula_sum   'Ca4 Mn4 Ge8 O24'
_cell_volume   507.14479618
_cell_formula_units_Z   4
loop_
 _symmetry_equiv_pos_site_id
 _symmetry_equiv_pos_as_xyz
  1  'x, y, z'
loop_
 _atom_site_type_symbol
 _atom_site_label
 _atom_site_symmetry_multiplicity
 _atom_site_fract_x
 _atom_site_fract_y
 _atom_site_fract_z
 _atom_site_occupancy
  Ca  Ca0  1  0.47365107  0.44918767  0.27224067  1
  Ca  Ca1  1  0.02634993  0.94918767  0.72775933  1
  Ca  Ca2  1  0.52634893  0.55081233  0.72775933  1
  Ca  Ca3  1  0.97365107  0.05081233  0.27224067  1
  Mn  Mn4  1  0.96672907  0.65912157  0.23654825  1
  Mn  Mn5  1  0.53327093  0.15912157  0.76345175  1
  Mn  Mn6  1  0.03327093  0.34087843  0.76345175  1
  Mn  Mn7  1  0.46672907  0.84087843  0.23654825  1
  Ge  Ge8  1  0.82136697  0.34559926  0.04308062  1
  Ge  Ge9  1  0.67863303  0.84559926  0.95691938  1
  Ge  Ge10  1  0.17863303  0.65440074  0.95691938  1
  Ge  Ge11  1  0.32136697  0.15440074  0.04308062  1
  Ge  Ge12  1  0.11247953  0.35068032  0.48054629  1
  Ge  Ge13  1  0.38752047  0.85068032  0.51945371  1
  Ge  Ge14  1  0.88752047  0.64931968  0.51945371  1
  Ge  Ge15  1  0.61247953  0.14931968  0.48054629  1
  O  O16  1  0.32161972  0.24132795  0.39430132  1
  O  O17  1  0.17838028  0.74132795  0.60569868  1
  O  O18  1  0.67838028  0.75867205  0.60569868  1
  O  O19  1  0.82161972  0.25867205  0.39430132  1
  O  O20  1  0.16420352  0.30785716  0.09933510  1
  O  O21  1  0.33579648  0.80785716  0.90066590  1
  O  O22  1  0.83579648  0.69214284  0.90066590  1
  O  O23  1  0.66420352  0.19214284  0.09933510  1
  O  O24  1  0.65672769  0.98067878  0.41272216  1
  O  O25  1  0.84327231  0.48067878  0.58727784  1
  O  O26  1  0.34327231  0.01932122  0.58727784  1
  O  O27  1  0.15672769  0.51932122  0.41272216  1
  O  O28  1  0.25290673  0.01464206  0.13569706  1
  O  O29  1  0.24709327  0.51464206  0.86430294  1
  O  O30  1  0.74709327  0.98535794  0.86430294  1
  O  O31  1  0.75290673  0.48535794  0.13569706  1
  O  O32  1  0.73990715  0.35112019  0.86910119  1
  O  O33  1  0.76009285  0.85112019  0.13089881  1
  O  O34  1  0.26009285  0.64887981  0.13089881  1
  O  O35  1  0.23990715  0.14887981  0.86910119  1
  O  O36  1  0.30326212  0.33331909  0.64454419  1
  O  O37  1  0.19673788  0.83331909  0.35545581  1
  O  O38  1  0.69673788  0.66668091  0.35545581  1
  O  O39  1  0.80326212  0.16668091  0.64454419  1
