# generated using pymatgen
data_CaNiP2O7
_symmetry_space_group_name_H-M   'P 1'
_cell_length_a   7.29802866
_cell_length_b   8.76314134
_cell_length_c   8.76853301
_cell_angle_alpha   90.00000000
_cell_angle_beta   111.45022751
_cell_angle_gamma   90.00000000
_symmetry_Int_Tables_number   1
_chemical_formula_structural   CaNiP2O7
_chemical_formula_sum   'Ca4 Ni4 P8 O28'
_cell_volume   521.93767282
_cell_formula_units_Z   4
loop_
 _symmetry_equiv_pos_site_id
 _symmetry_equiv_pos_as_xyz
  1  'x, y, z'
loop_
 _atom_site_type_symbol
 _atom_site_label
 _atom_site_symmetry_multiplicity
 _atom_site_fract_x
 _atom_site_fract_y
 _atom_site_fract_z
 _atom_site_occupancy
  Ca  Ca0  1  0.15245044  0.95424490  0.88137391  1
  Ca  Ca1  1  0.34754956  0.45424490  0.61862609  1
  Ca  Ca2  1  0.65245044  0.54575510  0.38137391  1
  Ca  Ca3  1  0.84754956  0.04575510  0.11862609  1
  Ni  Ni4  1  0.39057505  0.07528451  0.61474839  1
  Ni  Ni5  1  0.60942495  0.92471549  0.38525161  1
  Ni  Ni6  1  0.10942495  0.57528451  0.88525161  1
  Ni  Ni7  1  0.89057505  0.42471549  0.11474839  1
  P  P8  1  0.18770012  0.72286785  0.23601069  1
  P  P9  1  0.43999980  0.24988268  0.96364834  1
  P  P10  1  0.68770012  0.77713215  0.73601069  1
  P  P11  1  0.93999980  0.25011732  0.46364834  1
  P  P12  1  0.31229988  0.22286785  0.26398931  1
  P  P13  1  0.06000020  0.74988268  0.53635166  1
  P  P14  1  0.56000020  0.75011732  0.03635166  1
  P  P15  1  0.81229988  0.27713215  0.76398931  1
  O  O16  1  0.36602245  0.18299201  0.10452427  1
  O  O17  1  0.58698783  0.63217813  0.65139154  1
  O  O18  1  0.08698783  0.86782187  0.15139154  1
  O  O19  1  0.32666691  0.39402815  0.88784344  1
  O  O20  1  0.63397755  0.81700799  0.89547573  1
  O  O21  1  0.38683088  0.07885658  0.37204487  1
  O  O22  1  0.67333309  0.60597185  0.11215656  1
  O  O23  1  0.39182348  0.10845255  0.85018993  1
  O  O24  1  0.16265084  0.23017508  0.54629625  1
  O  O25  1  0.61316912  0.92114342  0.62795513  1
  O  O26  1  0.88683088  0.42114342  0.87204487  1
  O  O27  1  0.91268685  0.76646176  0.80651773  1
  O  O28  1  0.58731315  0.26646176  0.69348227  1
  O  O29  1  0.86602245  0.31700799  0.60452427  1
  O  O30  1  0.11316912  0.57885658  0.12795513  1
  O  O31  1  0.91301217  0.13217813  0.84860846  1
  O  O32  1  0.08731315  0.23353824  0.19348227  1
  O  O33  1  0.60817652  0.89154745  0.14981007  1
  O  O34  1  0.66265084  0.26982492  0.04629625  1
  O  O35  1  0.33734916  0.73017508  0.95370375  1
  O  O36  1  0.17333309  0.89402815  0.61215656  1
  O  O37  1  0.89182348  0.39154745  0.35018993  1
  O  O38  1  0.10817652  0.60845255  0.64981007  1
  O  O39  1  0.41301217  0.36782187  0.34860846  1
  O  O40  1  0.41268685  0.73353824  0.30651773  1
  O  O41  1  0.82666691  0.10597185  0.38784344  1
  O  O42  1  0.83734916  0.76982492  0.45370375  1
  O  O43  1  0.13397755  0.68299201  0.39547573  1
