# generated using pymatgen
data_SrMgV(PO4)2
_symmetry_space_group_name_H-M   'P 1'
_cell_length_a   5.56195572
_cell_length_b   7.00550107
_cell_length_c   9.48439346
_cell_angle_alpha   111.26062564
_cell_angle_beta   101.13368985
_cell_angle_gamma   98.01004721
_symmetry_Int_Tables_number   1
_chemical_formula_structural   SrMgV(PO4)2
_chemical_formula_sum   'Sr2 Mg2 V2 P4 O16'
_cell_volume   328.94223331
_cell_formula_units_Z   2
loop_
 _symmetry_equiv_pos_site_id
 _symmetry_equiv_pos_as_xyz
  1  'x, y, z'
loop_
 _atom_site_type_symbol
 _atom_site_label
 _atom_site_symmetry_multiplicity
 _atom_site_fract_x
 _atom_site_fract_y
 _atom_site_fract_z
 _atom_site_occupancy
  Sr  Sr0  1  0.24841561  0.80099386  0.04793368  1
  Sr  Sr1  1  0.75158439  0.19900614  0.95206632  1
  Mg  Mg2  1  0.98962341  0.38266966  0.65285195  1
  Mg  Mg3  1  0.01037659  0.61733034  0.34714805  1
  V  V4  1  0.64277356  0.85192254  0.56163344  1
  V  V5  1  0.35722644  0.14807746  0.43836656  1
  P  P6  1  0.39186232  0.42390701  0.23414058  1
  P  P7  1  0.60813768  0.57609299  0.76585942  1
  P  P8  1  0.84087556  0.02404305  0.30233413  1
  P  P9  1  0.15912444  0.97595695  0.69766587  1
  O  O10  1  0.81674742  0.54943310  0.88835721  1
  O  O11  1  0.65976925  0.47409483  0.21180966  1
  O  O12  1  0.66720732  0.80080287  0.77136317  1
  O  O13  1  0.96264058  0.12000846  0.69898691  1
  O  O14  1  0.34023075  0.52590517  0.78819034  1
  O  O15  1  0.00395191  0.75108265  0.57474034  1
  O  O16  1  0.99604809  0.24891735  0.42525966  1
  O  O17  1  0.25912011  0.99263060  0.86375651  1
  O  O18  1  0.33279268  0.19919713  0.22863683  1
  O  O19  1  0.74087989  0.00736940  0.13624349  1
  O  O20  1  0.18325258  0.45056690  0.11164279  1
  O  O21  1  0.36832178  0.58416930  0.39460744  1
  O  O22  1  0.63167822  0.41583070  0.60539256  1
  O  O23  1  0.62186751  0.95270143  0.36594248  1
  O  O24  1  0.03735942  0.87999154  0.30101309  1
  O  O25  1  0.37813249  0.04729857  0.63405752  1
