# generated using pymatgen
data_K5Na3Nb6(WO12)2
_symmetry_space_group_name_H-M   'P 1'
_cell_length_a   8.05916004
_cell_length_b   8.05916004
_cell_length_c   8.07839826
_cell_angle_alpha   90.00000000
_cell_angle_beta   90.00000000
_cell_angle_gamma   90.36932109
_symmetry_Int_Tables_number   1
_chemical_formula_structural   K5Na3Nb6(WO12)2
_chemical_formula_sum   'K5 Na3 Nb6 W2 O24'
_cell_volume   524.68155543
_cell_formula_units_Z   1
loop_
 _symmetry_equiv_pos_site_id
 _symmetry_equiv_pos_as_xyz
  1  'x, y, z'
loop_
 _atom_site_type_symbol
 _atom_site_label
 _atom_site_symmetry_multiplicity
 _atom_site_fract_x
 _atom_site_fract_y
 _atom_site_fract_z
 _atom_site_occupancy
  K  K0  1  0.24954753  0.24954753  0.25000000  1
  K  K1  1  0.25106288  0.74882958  0.25000000  1
  K  K2  1  0.74882958  0.25106288  0.25000000  1
  K  K3  1  0.74957798  0.74957798  0.25000000  1
  K  K4  1  0.75041377  0.75041377  0.75000000  1
  Na  Na5  1  0.25066814  0.25066814  0.75000000  1
  Na  Na6  1  0.25124022  0.74890836  0.75000000  1
  Na  Na7  1  0.74890836  0.25124022  0.75000000  1
  Nb  Nb8  1  0.00063327  0.49907677  0.99811871  1
  Nb  Nb9  1  0.00063327  0.49907677  0.50188129  1
  Nb  Nb10  1  0.49907677  0.00063327  0.99811871  1
  Nb  Nb11  1  0.49907677  0.00063327  0.50188129  1
  Nb  Nb12  1  0.49929463  0.49929463  0.99798990  1
  Nb  Nb13  1  0.49929463  0.49929463  0.50201010  1
  W  W14  1  0.00044314  0.00044314  0.99837945  1
  W  W15  1  0.00044314  0.00044314  0.50162055  1
  O  O16  1  0.24798450  0.99806054  0.99572282  1
  O  O17  1  0.24798450  0.99806054  0.50427718  1
  O  O18  1  0.25022907  0.49921877  0.99627689  1
  O  O19  1  0.25022907  0.49921877  0.50372311  1
  O  O20  1  0.75223268  0.00394919  0.99833842  1
  O  O21  1  0.75223268  0.00394919  0.50166158  1
  O  O22  1  0.74979627  0.49874759  0.99765059  1
  O  O23  1  0.74979627  0.49874759  0.50234941  1
  O  O24  1  0.99806054  0.24798450  0.99572282  1
  O  O25  1  0.99806054  0.24798450  0.50427718  1
  O  O26  1  0.00394919  0.75223268  0.99833842  1
  O  O27  1  0.00394919  0.75223268  0.50166158  1
  O  O28  1  0.49921877  0.25022907  0.99627689  1
  O  O29  1  0.49921877  0.25022907  0.50372311  1
  O  O30  1  0.49874759  0.74979627  0.99765059  1
  O  O31  1  0.49874759  0.74979627  0.50234941  1
  O  O32  1  0.99832537  0.99832537  0.25000000  1
  O  O33  1  0.00400110  0.00400110  0.75000000  1
  O  O34  1  -0.00005726  0.49952398  0.25000000  1
  O  O35  1  0.00204906  0.49867346  0.75000000  1
  O  O36  1  0.49952398  -0.00005726  0.25000000  1
  O  O37  1  0.49867346  0.00204906  0.75000000  1
  O  O38  1  0.49956722  0.49956722  0.25000000  1
  O  O39  1  0.49833574  0.49833574  0.75000000  1
