# generated using pymatgen
data_V2ZnO4
_symmetry_space_group_name_H-M   'P 1'
_cell_length_a   6.06376864
_cell_length_b   6.07277970
_cell_length_c   18.24945810
_cell_angle_alpha   60.03749871
_cell_angle_beta   60.07479185
_cell_angle_gamma   60.02274584
_symmetry_Int_Tables_number   1
_chemical_formula_structural   V2ZnO4
_chemical_formula_sum   'V12 Zn6 O24'
_cell_volume   475.67222768
_cell_formula_units_Z   6
loop_
 _symmetry_equiv_pos_site_id
 _symmetry_equiv_pos_as_xyz
  1  'x, y, z'
loop_
 _atom_site_type_symbol
 _atom_site_label
 _atom_site_symmetry_multiplicity
 _atom_site_fract_x
 _atom_site_fract_y
 _atom_site_fract_z
 _atom_site_occupancy
  V  V0  1  0.00194695  0.49808585  0.16704550  1
  V  V1  1  0.49826000  0.49809086  0.16744578  1
  V  V2  1  0.00100677  0.50112795  0.49944202  1
  V  V3  1  0.49840378  0.00230496  0.16678290  1
  V  V4  1  0.49989055  0.49960413  0.33312331  1
  V  V5  1  0.50059006  0.50026782  0.49976868  1
  V  V6  1  0.00184743  0.49997453  0.83298588  1
  V  V7  1  0.50134501  0.00089888  0.49947047  1
  V  V8  1  0.49924596  0.00219715  0.83291408  1
  V  V9  1  0.50100147  0.50119522  0.66542866  1
  V  V10  1  0.49899402  0.50008831  0.83285339  1
  V  V11  1  0.87479790  0.87487050  0.95850258  1
  Zn  Zn12  1  0.11996148  0.11973435  0.04671280  1
  Zn  Zn13  1  0.12484819  0.12493710  0.37494506  1
  Zn  Zn14  1  0.49842591  0.49860265  0.00166974  1
  Zn  Zn15  1  0.12559879  0.12555620  0.70764103  1
  Zn  Zn16  1  0.87609756  0.87630773  0.29063801  1
  Zn  Zn17  1  0.87506115  0.87517759  0.62489400  1
  O  O18  1  0.25287464  0.25317154  0.09154116  1
  O  O19  1  0.25874647  0.25822475  0.24132906  1
  O  O20  1  0.25293519  0.71955107  0.09150017  1
  O  O21  1  0.71945860  0.25308973  0.09155135  1
  O  O22  1  0.28246737  0.73871179  0.24628549  1
  O  O23  1  0.26236528  0.26221252  0.41930697  1
  O  O24  1  0.74010121  0.28196522  0.24572962  1
  O  O25  1  0.74430497  0.74460399  0.08900865  1
  O  O26  1  0.26100234  0.71876389  0.42006258  1
  O  O27  1  0.26212435  0.26075495  0.57181056  1
  O  O28  1  0.73751492  0.73686205  0.24737933  1
  O  O29  1  0.71810473  0.26164499  0.41992890  1
  O  O30  1  0.28115164  0.73894398  0.58032146  1
  O  O31  1  0.26137965  0.26205011  0.75241161  1
  O  O32  1  0.74084240  0.28021699  0.57987249  1
  O  O33  1  0.73843600  0.73982760  0.42775196  1
  O  O34  1  0.26144654  0.26048124  0.90575737  1
  O  O35  1  0.26171205  0.71933347  0.75229848  1
  O  O36  1  0.73977561  0.74023438  0.57976033  1
  O  O37  1  0.71854348  0.26279646  0.75185280  1
  O  O38  1  0.27095186  0.74930035  0.91012903  1
  O  O39  1  0.73749408  0.73846076  0.76192353  1
  O  O40  1  0.74923717  0.27052489  0.91024098  1
  O  O41  1  0.74970050  0.74925152  0.90998222  1
