# generated using pymatgen
data_CaLaCr2O6
_symmetry_space_group_name_H-M   'P 1'
_cell_length_a   5.46530097
_cell_length_b   5.52499643
_cell_length_c   7.72482938
_cell_angle_alpha   90.00000000
_cell_angle_beta   89.88789862
_cell_angle_gamma   90.00000000
_symmetry_Int_Tables_number   1
_chemical_formula_structural   CaLaCr2O6
_chemical_formula_sum   'Ca2 La2 Cr4 O12'
_cell_volume   233.25671172
_cell_formula_units_Z   2
loop_
 _symmetry_equiv_pos_site_id
 _symmetry_equiv_pos_as_xyz
  1  'x, y, z'
loop_
 _atom_site_type_symbol
 _atom_site_label
 _atom_site_symmetry_multiplicity
 _atom_site_fract_x
 _atom_site_fract_y
 _atom_site_fract_z
 _atom_site_occupancy
  Ca  Ca0  1  0.48991130  0.45788272  0.74956888  1
  Ca  Ca1  1  0.98991130  0.04211728  0.24956888  1
  La  La2  1  0.00724152  0.96786132  0.75046301  1
  La  La3  1  0.50724152  0.53213868  0.25046301  1
  Cr  Cr4  1  0.50022085  0.00014962  0.49953836  1
  Cr  Cr5  1  0.00022085  0.49985038  0.99953836  1
  Cr  Cr6  1  0.50028006  0.99978011  0.00073829  1
  Cr  Cr7  1  0.00028006  0.50021989  0.50073829  1
  O  O8  1  0.07283559  0.47875792  0.24572614  1
  O  O9  1  0.21184594  0.21846996  0.96087259  1
  O  O10  1  0.22116687  0.21347126  0.53977717  1
  O  O11  1  0.28289655  0.70873067  0.95701224  1
  O  O12  1  0.29471221  0.71437820  0.54146458  1
  O  O13  1  0.41888710  0.98189012  0.25483775  1
  O  O14  1  0.57283559  0.02124208  0.74572614  1
  O  O15  1  0.71184594  0.28153004  0.46087259  1
  O  O16  1  0.72116687  0.28652874  0.03977717  1
  O  O17  1  0.78289655  0.79126933  0.45701224  1
  O  O18  1  0.79471221  0.78562180  0.04146458  1
  O  O19  1  0.91888710  0.51810988  0.75483775  1
