# generated using pymatgen
data_CuSnAu
_symmetry_space_group_name_H-M   'P 1'
_cell_length_a   4.18039573
_cell_length_b   4.18039573
_cell_length_c   7.12993538
_cell_angle_alpha   107.04711802
_cell_angle_beta   107.04711802
_cell_angle_gamma   90.00000000
_symmetry_Int_Tables_number   1
_chemical_formula_structural   CuSnAu
_chemical_formula_sum   'Cu2 Sn2 Au2'
_cell_volume   113.38775698
_cell_formula_units_Z   2
loop_
 _symmetry_equiv_pos_site_id
 _symmetry_equiv_pos_as_xyz
  1  'x, y, z'
loop_
 _atom_site_type_symbol
 _atom_site_label
 _atom_site_symmetry_multiplicity
 _atom_site_fract_x
 _atom_site_fract_y
 _atom_site_fract_z
 _atom_site_occupancy
  Cu  Cu0  1  0.50000000  -0.00000000  -0.00000000  1
  Cu  Cu1  1  -0.00000000  0.50000000  -0.00000000  1
  Sn  Sn2  1  0.65598183  0.65598183  0.31196366  1
  Sn  Sn3  1  0.34401817  0.34401817  0.68803634  1
  Au  Au4  1  0.87075914  0.87075914  0.74151828  1
  Au  Au5  1  0.12924086  0.12924086  0.25848172  1
