# generated using pymatgen
data_NiHO2
_symmetry_space_group_name_H-M   'P 1'
_cell_length_a   3.03225320
_cell_length_b   2.85250629
_cell_length_c   4.54881651
_cell_angle_alpha   89.99999713
_cell_angle_beta   77.27442204
_cell_angle_gamma   61.94226662
_symmetry_Int_Tables_number   1
_chemical_formula_structural   NiHO2
_chemical_formula_sum   'Ni1 H1 O2'
_cell_volume   33.62190081
_cell_formula_units_Z   1
loop_
 _symmetry_equiv_pos_site_id
 _symmetry_equiv_pos_as_xyz
  1  'x, y, z'
loop_
 _atom_site_type_symbol
 _atom_site_label
 _atom_site_symmetry_multiplicity
 _atom_site_fract_x
 _atom_site_fract_y
 _atom_site_fract_z
 _atom_site_occupancy
  Ni  Ni0  1  0.99552447  0.00223777  0.99754309  1
  H  H1  1  0.01641417  0.49179292  0.46815846  1
  O  O2  1  0.19740753  0.40129623  0.22556187  1
  O  O3  1  0.79065383  0.60467308  0.77548658  1
