# generated using pymatgen
data_BaSr7Mn2(Fe3O10)2
_symmetry_space_group_name_H-M   'P 1'
_cell_length_a   11.27378279
_cell_length_b   11.45795603
_cell_length_c   17.91144038
_cell_angle_alpha   108.81047641
_cell_angle_beta   108.26089770
_cell_angle_gamma   89.79652194
_symmetry_Int_Tables_number   1
_chemical_formula_structural   BaSr7Mn2(Fe3O10)2
_chemical_formula_sum   'Ba4 Sr28 Mn8 Fe24 O80'
_cell_volume   2067.56578168
_cell_formula_units_Z   4
loop_
 _symmetry_equiv_pos_site_id
 _symmetry_equiv_pos_as_xyz
  1  'x, y, z'
loop_
 _atom_site_type_symbol
 _atom_site_label
 _atom_site_symmetry_multiplicity
 _atom_site_fract_x
 _atom_site_fract_y
 _atom_site_fract_z
 _atom_site_occupancy
  Ba  Ba0  1  0.30904529  0.06202884  0.11600385  1
  Ba  Ba1  1  0.30767694  0.56107291  0.11352937  1
  Ba  Ba2  1  0.80811810  0.06305151  0.11495508  1
  Ba  Ba3  1  0.05577813  0.80261039  0.11350966  1
  Sr  Sr4  1  0.30730445  0.06031804  0.60892522  1
  Sr  Sr5  1  0.30673009  0.55884873  0.60762034  1
  Sr  Sr6  1  0.80568352  0.06120636  0.60823095  1
  Sr  Sr7  1  0.80573629  0.56122110  0.10867587  1
  Sr  Sr8  1  0.80712125  0.55915269  0.60753159  1
  Sr  Sr9  1  0.19766009  0.43784235  0.39182699  1
  Sr  Sr10  1  0.19929933  0.43967614  0.89063995  1
  Sr  Sr11  1  0.19754272  0.93759694  0.39373634  1
  Sr  Sr12  1  0.19880228  0.94018733  0.89048604  1
  Sr  Sr13  1  0.69677437  0.43705644  0.39116245  1
  Sr  Sr14  1  0.69797799  0.43814094  0.88951706  1
  Sr  Sr15  1  0.69914248  0.93891991  0.39198543  1
  Sr  Sr16  1  0.69763330  0.93929063  0.89160103  1
  Sr  Sr17  1  0.05518207  0.29749920  0.10792748  1
  Sr  Sr18  1  0.05730764  0.29851463  0.60813752  1
  Sr  Sr19  1  0.05652033  0.79854585  0.60792749  1
  Sr  Sr20  1  0.55461791  0.29693816  0.10780190  1
  Sr  Sr21  1  0.55836298  0.29848068  0.60901951  1
  Sr  Sr22  1  0.55870366  0.79595136  0.10813910  1
  Sr  Sr23  1  0.55670160  0.79628991  0.60745819  1
  Sr  Sr24  1  0.44731347  0.20311424  0.39345856  1
  Sr  Sr25  1  0.44888101  0.20087074  0.88981465  1
  Sr  Sr26  1  0.44823822  0.70588938  0.39503002  1
  Sr  Sr27  1  0.44834700  0.69973294  0.89041809  1
  Sr  Sr28  1  0.94853348  0.20630016  0.39348504  1
  Sr  Sr29  1  0.94610895  0.20197348  0.88953432  1
  Sr  Sr30  1  0.94754725  0.70456867  0.39273368  1
  Sr  Sr31  1  0.94809278  0.69948777  0.89023046  1
  Mn  Mn32  1  0.11178742  0.09360974  0.74884879  1
  Mn  Mn33  1  0.11112752  0.59469701  0.74870153  1
  Mn  Mn34  1  0.61067637  0.59494574  0.74868269  1
  Mn  Mn35  1  0.36119604  0.40469643  0.74916304  1
  Mn  Mn36  1  0.36753726  0.90387393  0.25448392  1
  Mn  Mn37  1  0.36047104  0.90135160  0.74880021  1
  Mn  Mn38  1  0.86144919  0.40430626  0.74893328  1
  Mn  Mn39  1  0.85926200  0.90578721  0.74825252  1
  Fe  Fe40  1  0.99836249  0.99689952  0.99119924  1
  Fe  Fe41  1  0.00381195  0.00037617  0.50121016  1
  Fe  Fe42  1  0.99959164  0.49700191  0.99505983  1
  Fe  Fe43  1  0.00396036  0.50091720  0.50105145  1
  Fe  Fe44  1  0.49916236  0.99702936  0.99356857  1
  Fe  Fe45  1  0.50365582  0.00094039  0.49958842  1
  Fe  Fe46  1  0.50180485  0.49773055  0.99573002  1
  Fe  Fe47  1  0.50390779  0.49940694  0.50080610  1
  Fe  Fe48  1  0.25031630  0.24714741  0.99454413  1
  Fe  Fe49  1  0.25392954  0.25108814  0.50089763  1
  Fe  Fe50  1  0.25099598  0.74844196  0.99490503  1
  Fe  Fe51  1  0.25408672  0.75081827  0.50191883  1
  Fe  Fe52  1  0.75296162  0.25102006  0.99846061  1
  Fe  Fe53  1  0.75432121  0.25084212  0.50033819  1
  Fe  Fe54  1  0.74893316  0.74552720  0.99389238  1
  Fe  Fe55  1  0.75401449  0.75078290  0.50024308  1
  Fe  Fe56  1  0.11426854  0.09296663  0.25569712  1
  Fe  Fe57  1  0.10577650  0.58864019  0.25111169  1
  Fe  Fe58  1  0.61575883  0.09287041  0.25336143  1
  Fe  Fe59  1  0.61063704  0.08754594  0.74940273  1
  Fe  Fe60  1  0.61342822  0.59181651  0.25294061  1
  Fe  Fe61  1  0.36014822  0.41073855  0.25288494  1
  Fe  Fe62  1  0.85830699  0.41196742  0.25040174  1
  Fe  Fe63  1  0.85967200  0.90511940  0.25300485  1
  O  O64  1  0.12395417  0.12248256  0.49281231  1
  O  O65  1  0.12171127  0.12318023  0.99150143  1
  O  O66  1  0.12393107  0.62212835  0.49243678  1
  O  O67  1  0.12209607  0.62083059  0.98959438  1
  O  O68  1  0.62480037  0.12321990  0.49272873  1
  O  O69  1  0.62175502  0.12359161  0.99011849  1
  O  O70  1  0.62373229  0.62217381  0.49239266  1
  O  O71  1  0.62336387  0.62151367  0.99244251  1
  O  O72  1  0.12681019  0.37364991  0.00247249  1
  O  O73  1  0.13128532  0.37790179  0.50724879  1
  O  O74  1  0.12558330  0.87507284  0.99897190  1
  O  O75  1  0.13191992  0.87720467  0.50748319  1
  O  O76  1  0.63063864  0.37770220  0.00572934  1
  O  O77  1  0.63185424  0.37754649  0.50703502  1
  O  O78  1  0.62655446  0.87418900  0.00347714  1
  O  O79  1  0.63112950  0.87826674  0.50734551  1
  O  O80  1  0.37501402  0.12177432  0.49511238  1
  O  O81  1  0.37373792  0.12024807  0.99093950  1
  O  O82  1  0.37398643  0.62034268  0.49242372  1
  O  O83  1  0.37498163  0.62117526  0.99260870  1
  O  O84  1  0.87418497  0.12048910  0.49275812  1
  O  O85  1  0.87322852  0.12135293  0.99029711  1
  O  O86  1  0.87364930  0.62016616  0.49250982  1
  O  O87  1  0.87039756  0.61738965  0.99025334  1
  O  O88  1  0.38115674  0.37598374  0.00295448  1
  O  O89  1  0.38199834  0.38075355  0.50825642  1
  O  O90  1  0.38012803  0.87584105  0.00186956  1
  O  O91  1  0.38280768  0.88143892  0.50950919  1
  O  O92  1  0.87997872  0.37881652  0.00532772  1
  O  O93  1  0.88202884  0.38067029  0.50753090  1
  O  O94  1  0.87589154  0.87625379  -0.00003805  1
  O  O95  1  0.88153233  0.88035408  0.50801264  1
  O  O96  1  0.07717961  0.09618566  0.14541655  1
  O  O97  1  0.07503581  0.08484441  0.63492644  1
  O  O98  1  0.07255028  0.58461482  0.13983933  1
  O  O99  1  0.07453881  0.58487731  0.63508787  1
  O  O100  1  0.57718804  0.09820645  0.14347452  1
  O  O101  1  0.58455563  0.09560766  0.64111391  1
  O  O102  1  0.58250282  0.59577764  0.14347873  1
  O  O103  1  0.57472866  0.58491239  0.63506688  1
  O  O104  1  0.44021954  0.40127605  0.36028620  1
  O  O105  1  0.43945736  0.41593882  0.86352871  1
  O  O106  1  0.44116182  0.91233461  0.36693664  1
  O  O107  1  0.43858187  0.91485504  0.86321541  1
  O  O108  1  0.94116423  0.40475903  0.35851886  1
  O  O109  1  0.93824655  0.41480063  0.86289730  1
  O  O110  1  0.93968556  0.90208453  0.36192197  1
  O  O111  1  0.93662204  0.91649512  0.86190664  1
  O  O112  1  0.33249005  0.30845684  0.14076600  1
  O  O113  1  0.32403977  0.30113927  0.63570246  1
  O  O114  1  0.32729165  0.81342483  0.13824246  1
  O  O115  1  0.32353804  0.79895586  0.63465641  1
  O  O116  1  0.83072156  0.30614350  0.13866751  1
  O  O117  1  0.82567215  0.30139466  0.63519670  1
  O  O118  1  0.82382094  0.79662783  0.14112089  1
  O  O119  1  0.82306743  0.80104561  0.63501009  1
  O  O120  1  0.19480085  0.20939350  0.36295816  1
  O  O121  1  0.18960658  0.19841909  0.86316349  1
  O  O122  1  0.19192116  0.70411466  0.35880483  1
  O  O123  1  0.19001320  0.69736541  0.86248447  1
  O  O124  1  0.69837061  0.20725332  0.36151849  1
  O  O125  1  0.69166924  0.20409116  0.85834309  1
  O  O126  1  0.69538665  0.70693844  0.36121751  1
  O  O127  1  0.68648682  0.69714709  0.86304072  1
  O  O128  1  0.45671026  0.05425760  0.26160520  1
  O  O129  1  0.44217200  0.05784221  0.74904001  1
  O  O130  1  0.44786281  0.56181264  0.26065750  1
  O  O131  1  0.44209243  0.56090375  0.74864612  1
  O  O132  1  0.94901724  0.05425165  0.25984652  1
  O  O133  1  0.94039203  0.05877786  0.74877941  1
  O  O134  1  0.93508299  0.56400057  0.25228227  1
  O  O135  1  0.94295243  0.56122966  0.74900265  1
  O  O136  1  0.18757294  0.43909316  0.25094525  1
  O  O137  1  0.19259344  0.43776336  0.74935640  1
  O  O138  1  0.19867193  0.94744903  0.25931746  1
  O  O139  1  0.19038078  0.93495303  0.74896840  1
  O  O140  1  0.68726531  0.43807515  0.25042742  1
  O  O141  1  0.69369975  0.44037835  0.74926355  1
  O  O142  1  0.68987989  0.93970165  0.25066998  1
  O  O143  1  0.68371169  0.93304312  0.74942842  1
