# generated using pymatgen
data_Sr5Ca3MnFe7O24
_symmetry_space_group_name_H-M   'P 1'
_cell_length_a   7.77616934
_cell_length_b   7.77140506
_cell_length_c   7.77616934
_cell_angle_alpha   90.00983992
_cell_angle_beta   89.98590053
_cell_angle_gamma   90.00983992
_symmetry_Int_Tables_number   1
_chemical_formula_structural   Sr5Ca3MnFe7O24
_chemical_formula_sum   'Sr5 Ca3 Mn1 Fe7 O24'
_cell_volume   469.92758438
_cell_formula_units_Z   1
loop_
 _symmetry_equiv_pos_site_id
 _symmetry_equiv_pos_as_xyz
  1  'x, y, z'
loop_
 _atom_site_type_symbol
 _atom_site_label
 _atom_site_symmetry_multiplicity
 _atom_site_fract_x
 _atom_site_fract_y
 _atom_site_fract_z
 _atom_site_occupancy
  Sr  Sr0  1  0.24962486  0.25045965  0.25033239  1
  Sr  Sr1  1  0.24960541  0.25045693  0.74960541  1
  Sr  Sr2  1  0.75038261  0.25039397  0.25038261  1
  Sr  Sr3  1  0.75033239  0.25045965  0.74962486  1
  Sr  Sr4  1  0.75037093  0.74954016  0.25037093  1
  Ca  Ca5  1  0.24947053  0.74934990  0.25056339  1
  Ca  Ca6  1  0.24940117  0.74935669  0.74940117  1
  Ca  Ca7  1  0.75056339  0.74934990  0.74947053  1
  Mn  Mn8  1  0.00071893  0.50206547  0.50071893  1
  Fe  Fe9  1  0.00072047  0.99777435  0.99925480  1
  Fe  Fe10  1  0.00068260  0.99797453  0.50068260  1
  Fe  Fe11  1  0.00069768  0.50211950  0.99934574  1
  Fe  Fe12  1  0.49929276  0.99784757  0.99929276  1
  Fe  Fe13  1  0.49925480  0.99777435  0.50072047  1
  Fe  Fe14  1  0.49927078  0.50220162  0.99927078  1
  Fe  Fe15  1  0.49934574  0.50211950  0.50069768  1
  O  O16  1  0.24935101  0.99413128  0.99936817  1
  O  O17  1  0.25119965  0.99409255  0.50061468  1
  O  O18  1  0.25117314  0.50590521  0.99935060  1
  O  O19  1  0.24795407  0.50615850  0.50062734  1
  O  O20  1  0.75067667  0.99610148  0.99728253  1
  O  O21  1  0.74878104  0.99606725  0.50275340  1
  O  O22  1  0.74879240  0.50387833  0.99724688  1
  O  O23  1  0.75209584  0.50403003  0.50287756  1
  O  O24  1  0.00054098  0.24877063  0.99943180  1
  O  O25  1  0.00055780  0.25210619  0.50055780  1
  O  O26  1  0.00255950  0.75117261  0.99745091  1
  O  O27  1  0.00269615  0.74796439  0.50269615  1
  O  O28  1  0.49942838  0.25069356  0.99942838  1
  O  O29  1  0.49943180  0.24877063  0.50054098  1
  O  O30  1  0.49745448  0.74937640  0.99745448  1
  O  O31  1  0.49745091  0.75117261  0.50255950  1
  O  O32  1  0.00275340  0.99606725  0.24878104  1
  O  O33  1  0.00061468  0.99409255  0.75119965  1
  O  O34  1  0.00287756  0.50403003  0.25209584  1
  O  O35  1  0.00062734  0.50615850  0.74795407  1
  O  O36  1  0.49728253  0.99610148  0.25067667  1
  O  O37  1  0.49936817  0.99413128  0.74935101  1
  O  O38  1  0.49724688  0.50387833  0.24879240  1
  O  O39  1  0.49935060  0.50590521  0.75117314  1
