# generated using pymatgen
data_CrFeO3
_symmetry_space_group_name_H-M   'P 1'
_cell_length_a   5.11362915
_cell_length_b   5.11362915
_cell_length_c   5.48695603
_cell_angle_alpha   62.22630033
_cell_angle_beta   62.22630033
_cell_angle_gamma   59.99999267
_symmetry_Int_Tables_number   1
_chemical_formula_structural   CrFeO3
_chemical_formula_sum   'Cr2 Fe2 O6'
_cell_volume   104.73632742
_cell_formula_units_Z   2
loop_
 _symmetry_equiv_pos_site_id
 _symmetry_equiv_pos_as_xyz
  1  'x, y, z'
loop_
 _atom_site_type_symbol
 _atom_site_label
 _atom_site_symmetry_multiplicity
 _atom_site_fract_x
 _atom_site_fract_y
 _atom_site_fract_z
 _atom_site_occupancy
  Cr  Cr0  1  0.34665248  0.34665248  0.96004255  1
  Cr  Cr1  1  0.65334752  0.65334752  0.03995745  1
  Fe  Fe2  1  0.14450394  0.14450394  0.56648817  1
  Fe  Fe3  1  0.85549606  0.85549606  0.43351183  1
  O  O4  1  0.94631190  0.25174655  0.24941048  1
  O  O5  1  0.25174655  0.55253107  0.24941048  1
  O  O6  1  0.55253107  0.94631190  0.24941048  1
  O  O7  1  0.05368810  0.74825345  0.75058952  1
  O  O8  1  0.74825345  0.44746893  0.75058952  1
  O  O9  1  0.44746893  0.05368810  0.75058952  1
