# generated using pymatgen
data_CeCdCu
_symmetry_space_group_name_H-M   'P 1'
_cell_length_a   4.07548957
_cell_length_b   7.52039393
_cell_length_c   7.52072608
_cell_angle_alpha   119.99854425
_cell_angle_beta   90.00000000
_cell_angle_gamma   90.00000000
_symmetry_Int_Tables_number   1
_chemical_formula_structural   CeCdCu
_chemical_formula_sum   'Ce3 Cd3 Cu3'
_cell_volume   199.62602075
_cell_formula_units_Z   3
loop_
 _symmetry_equiv_pos_site_id
 _symmetry_equiv_pos_as_xyz
  1  'x, y, z'
loop_
 _atom_site_type_symbol
 _atom_site_label
 _atom_site_symmetry_multiplicity
 _atom_site_fract_x
 _atom_site_fract_y
 _atom_site_fract_z
 _atom_site_occupancy
  Ce  Ce0  1  0.50000000  0.58885850  1.00000000  1
  Ce  Ce1  1  0.50000000  0.41117043  0.41119573  1
  Ce  Ce2  1  0.50000000  0.99997470  0.58880427  1
  Cd  Cd3  1  -0.00000000  0.24967887  1.00000000  1
  Cd  Cd4  1  -0.00000000  0.75031766  0.75032360  1
  Cd  Cd5  1  -0.00000000  0.99999407  0.24967640  1
  Cu  Cu6  1  0.00000000  0.33330983  0.66669580  1
  Cu  Cu7  1  0.00000000  0.66661403  0.33330420  1
  Cu  Cu8  1  0.50000000  0.99998192  1.00000000  1
