# generated using pymatgen
data_Lu(BC)2
_symmetry_space_group_name_H-M   'P 1'
_cell_length_a   3.43865522
_cell_length_b   5.31922935
_cell_length_c   5.31922935
_cell_angle_alpha   90.00000000
_cell_angle_beta   90.00000000
_cell_angle_gamma   90.00000000
_symmetry_Int_Tables_number   1
_chemical_formula_structural   Lu(BC)2
_chemical_formula_sum   'Lu2 B4 C4'
_cell_volume   97.29400154
_cell_formula_units_Z   2
loop_
 _symmetry_equiv_pos_site_id
 _symmetry_equiv_pos_as_xyz
  1  'x, y, z'
loop_
 _atom_site_type_symbol
 _atom_site_label
 _atom_site_symmetry_multiplicity
 _atom_site_fract_x
 _atom_site_fract_y
 _atom_site_fract_z
 _atom_site_occupancy
  B  B0  1  0.50000000  0.63597377  0.13597377  1
  B  B1  1  0.50000000  0.86402623  0.63597377  1
  B  B2  1  0.50000000  0.36402623  0.86402623  1
  B  B3  1  0.50000000  0.13597377  0.36402623  1
  C  C4  1  0.50000000  0.66263038  0.83736962  1
  C  C5  1  0.50000000  0.83736962  0.33736962  1
  C  C6  1  0.50000000  0.16263038  0.66263038  1
  C  C7  1  0.50000000  0.33736962  0.16263038  1
  Lu  Lu8  1  0.00000000  0.50000000  0.50000000  1
  Lu  Lu9  1  0.00000000  0.00000000  0.00000000  1
