# generated using pymatgen
data_NpH3
_symmetry_space_group_name_H-M   'P 1'
_cell_length_a   3.71297158
_cell_length_b   3.71297158
_cell_length_c   6.62890755
_cell_angle_alpha   90.00000000
_cell_angle_beta   90.00000000
_cell_angle_gamma   119.99347765
_symmetry_Int_Tables_number   1
_chemical_formula_structural   NpH3
_chemical_formula_sum   'Np2 H6'
_cell_volume   79.14880896
_cell_formula_units_Z   2
loop_
 _symmetry_equiv_pos_site_id
 _symmetry_equiv_pos_as_xyz
  1  'x, y, z'
loop_
 _atom_site_type_symbol
 _atom_site_label
 _atom_site_symmetry_multiplicity
 _atom_site_fract_x
 _atom_site_fract_y
 _atom_site_fract_z
 _atom_site_occupancy
  Np  Np0  1  0.66698927  0.33301073  0.75000000  1
  Np  Np1  1  0.33301073  0.66698927  0.25000000  1
  H  H2  1  -0.00031937  0.00031937  0.75000000  1
  H  H3  1  0.00031937  -0.00031937  0.25000000  1
  H  H4  1  0.66667964  0.33332036  0.09499660  1
  H  H5  1  0.33332036  0.66667964  0.90500340  1
  H  H6  1  0.33332036  0.66667964  0.59499660  1
  H  H7  1  0.66667964  0.33332036  0.40500340  1
