# generated using pymatgen
data_Sr10Fe10O27
_symmetry_space_group_name_H-M   'P 1'
_cell_length_a   7.90967688
_cell_length_b   19.70347144
_cell_length_c   3.86644861
_cell_angle_alpha   90.00000000
_cell_angle_beta   90.00000000
_cell_angle_gamma   90.00000000
_symmetry_Int_Tables_number   1
_chemical_formula_structural   Sr10Fe10O27
_chemical_formula_sum   'Sr10 Fe10 O27'
_cell_volume   602.57864064
_cell_formula_units_Z   1
loop_
 _symmetry_equiv_pos_site_id
 _symmetry_equiv_pos_as_xyz
  1  'x, y, z'
loop_
 _atom_site_type_symbol
 _atom_site_label
 _atom_site_symmetry_multiplicity
 _atom_site_fract_x
 _atom_site_fract_y
 _atom_site_fract_z
 _atom_site_occupancy
  Sr  Sr0  1  0.26707519  0.09768451  0.49999900  1
  Sr  Sr1  1  0.24965182  0.30080228  0.49999900  1
  Sr  Sr2  1  0.24218949  0.50351929  0.49999900  1
  Sr  Sr3  1  0.25738529  0.69795604  0.49999900  1
  Sr  Sr4  1  0.26540425  0.89929312  0.49999900  1
  Sr  Sr5  1  0.73292481  0.09768451  0.49999900  1
  Sr  Sr6  1  0.75034818  0.30080228  0.49999900  1
  Sr  Sr7  1  0.75781051  0.50351929  0.49999900  1
  Sr  Sr8  1  0.74261471  0.69795604  0.49999900  1
  Sr  Sr9  1  0.73459575  0.89929312  0.49999900  1
  Fe  Fe10  1  -0.00000000  0.00764816  -0.00000000  1
  Fe  Fe11  1  -0.00000000  0.20026785  0.00000000  1
  Fe  Fe12  1  -0.00000000  0.39964723  0.00000000  1
  Fe  Fe13  1  -0.00000000  0.59936622  -0.00000000  1
  Fe  Fe14  1  -0.00000000  0.79451429  0.00000000  1
  Fe  Fe15  1  0.50000000  0.99845827  -0.00000000  1
  Fe  Fe16  1  0.50000000  0.20162480  -0.00000000  1
  Fe  Fe17  1  0.50000000  0.40033581  -0.00000000  1
  Fe  Fe18  1  0.50000000  0.59817407  0.00000000  1
  Fe  Fe19  1  0.50000000  0.80004514  0.00000000  1
  O  O20  1  0.24131905  0.99472765  -0.00000000  1
  O  O21  1  0.23651763  0.19974768  0.00000000  1
  O  O22  1  0.26280395  0.39905599  -0.00000000  1
  O  O23  1  0.25219852  0.60014573  -0.00000000  1
  O  O24  1  0.23975443  0.80662696  -0.00000000  1
  O  O25  1  0.75868095  0.99472765  -0.00000000  1
  O  O26  1  0.76348237  0.19974768  -0.00000000  1
  O  O27  1  0.73719605  0.39905599  -0.00000000  1
  O  O28  1  0.74780148  0.60014573  -0.00000000  1
  O  O29  1  0.76024557  0.80662696  -0.00000000  1
  O  O30  1  -0.00000000  0.10467187  0.00000000  1
  O  O31  1  -0.00000000  0.29444256  0.00000000  1
  O  O32  1  -0.00000000  0.50057012  0.00000000  1
  O  O33  1  -0.00000000  0.69926383  -0.00000000  1
  O  O34  1  0.50000000  0.09865071  -0.00000000  1
  O  O35  1  0.50000000  0.30507649  -0.00000000  1
  O  O36  1  0.50000000  0.49435997  0.00000000  1
  O  O37  1  0.50000000  0.70243510  -0.00000000  1
  O  O38  1  0.50000000  0.89962492  -0.00000000  1
  O  O39  1  -0.00000000  0.98701874  0.49999900  1
  O  O40  1  -0.00000000  0.39683902  0.49999900  1
  O  O41  1  -0.00000000  0.59956704  0.49999900  1
  O  O42  1  -0.00000000  0.81715533  0.49999900  1
  O  O43  1  0.50000000  0.00066796  0.49999900  1
  O  O44  1  0.50000000  0.20149282  0.49999900  1
  O  O45  1  0.50000000  0.59889730  0.49999900  1
  O  O46  1  0.50000000  0.80006583  0.49999900  1
