# generated using pymatgen
data_BaTaSe3
_symmetry_space_group_name_H-M   'P 1'
_cell_length_a   5.92588821
_cell_length_b   7.27847318
_cell_length_c   7.27847318
_cell_angle_alpha   120.00107366
_cell_angle_beta   90.00000000
_cell_angle_gamma   90.00000000
_symmetry_Int_Tables_number   1
_chemical_formula_structural   BaTaSe3
_chemical_formula_sum   'Ba2 Ta2 Se6'
_cell_volume   271.86916868
_cell_formula_units_Z   2
loop_
 _symmetry_equiv_pos_site_id
 _symmetry_equiv_pos_as_xyz
  1  'x, y, z'
loop_
 _atom_site_type_symbol
 _atom_site_label
 _atom_site_symmetry_multiplicity
 _atom_site_fract_x
 _atom_site_fract_y
 _atom_site_fract_z
 _atom_site_occupancy
  Ba  Ba0  1  0.25000000  0.66668127  0.33331873  1
  Ba  Ba1  1  0.75000000  0.33331873  0.66668127  1
  Ta  Ta2  1  0.50000000  0.00000000  -0.00000000  1
  Ta  Ta3  1  0.00000000  0.00000000  -0.00000000  1
  Se  Se4  1  0.75000000  0.82756589  0.65514365  1
  Se  Se5  1  0.75000000  0.82757465  0.17242535  1
  Se  Se6  1  0.75000000  0.34485635  0.17243411  1
  Se  Se7  1  0.25000000  0.17243411  0.34485635  1
  Se  Se8  1  0.25000000  0.17242535  0.82757465  1
  Se  Se9  1  0.25000000  0.65514365  0.82756589  1
