# generated using pymatgen
data_Zn(BiO2)2
_symmetry_space_group_name_H-M   'P 1'
_cell_length_a   6.78808088
_cell_length_b   7.05420406
_cell_length_c   20.72104342
_cell_angle_alpha   59.12205539
_cell_angle_beta   57.31871375
_cell_angle_gamma   58.47597658
_symmetry_Int_Tables_number   1
_chemical_formula_structural   Zn(BiO2)2
_chemical_formula_sum   'Zn6 Bi12 O24'
_cell_volume   674.01931968
_cell_formula_units_Z   6
loop_
 _symmetry_equiv_pos_site_id
 _symmetry_equiv_pos_as_xyz
  1  'x, y, z'
loop_
 _atom_site_type_symbol
 _atom_site_label
 _atom_site_symmetry_multiplicity
 _atom_site_fract_x
 _atom_site_fract_y
 _atom_site_fract_z
 _atom_site_occupancy
  Zn  Zn0  1  0.15389853  0.11055787  0.04144941  1
  Zn  Zn1  1  0.45570083  0.51740191  0.33873315  1
  Zn  Zn2  1  0.94619082  0.48200804  0.19682840  1
  Zn  Zn3  1  0.51443602  0.49874208  0.66361027  1
  Zn  Zn4  1  0.99901401  0.49725555  0.50357492  1
  Zn  Zn5  1  0.99208121  0.54109342  0.80954197  1
  Bi  Bi6  1  0.51134217  0.99190503  0.16532879  1
  Bi  Bi7  1  0.16688810  0.10903859  0.37303910  1
  Bi  Bi8  1  0.51613893  0.49334358  0.99855776  1
  Bi  Bi9  1  0.51425643  0.50021473  0.16479766  1
  Bi  Bi10  1  0.50606821  0.00051493  0.49970178  1
  Bi  Bi11  1  0.12349351  0.11381147  0.71719177  1
  Bi  Bi12  1  0.50435551  0.49888416  0.50015176  1
  Bi  Bi13  1  0.46902648  0.02238064  0.83387103  1
  Bi  Bi14  1  0.86707480  0.88742755  0.28610617  1
  Bi  Bi15  1  0.46826635  0.50835993  0.83425025  1
  Bi  Bi16  1  0.85777432  0.89624141  0.61662227  1
  Bi  Bi17  1  0.80894049  0.89852353  0.96372066  1
  O  O18  1  0.30776645  0.20329053  0.07758649  1
  O  O19  1  0.21778632  0.27934742  0.23991849  1
  O  O20  1  0.30818683  0.75488507  0.07731874  1
  O  O21  1  0.77060004  0.25557316  0.07331894  1
  O  O22  1  0.24323975  0.29646951  0.42514125  1
  O  O23  1  0.28259380  0.73153614  0.25201493  1
  O  O24  1  0.25194192  0.24462914  0.58596914  1
  O  O25  1  0.71610850  0.28643754  0.26229526  1
  O  O26  1  0.23561024  0.70893652  0.42266921  1
  O  O27  1  0.79147825  0.69623333  0.10483499  1
  O  O28  1  0.77067965  0.23174199  0.42314153  1
  O  O29  1  0.71438204  0.70970833  0.26291860  1
  O  O30  1  0.26114329  0.30406872  0.74587664  1
  O  O31  1  0.26379194  0.75001729  0.58013357  1
  O  O32  1  0.74149805  0.31042204  0.57914322  1
  O  O33  1  0.25956533  0.70569806  0.74577495  1
  O  O34  1  0.29830682  0.22440697  0.91845377  1
  O  O35  1  0.73518435  0.75453096  0.41824868  1
  O  O36  1  0.71344800  0.26814792  0.74896090  1
  O  O37  1  0.74672544  0.70450275  0.58030918  1
  O  O38  1  0.20930494  0.77141958  0.91456110  1
  O  O39  1  0.77853143  0.29405341  0.89971060  1
  O  O40  1  0.75288198  0.75488809  0.74721576  1
  O  O41  1  0.77910392  0.72663211  0.89892595  1
