# generated using pymatgen
data_Eu2SnSe5
_symmetry_space_group_name_H-M   'P 1'
_cell_length_a   4.14902885
_cell_length_b   8.21392698
_cell_length_c   12.02984848
_cell_angle_alpha   90.00000000
_cell_angle_beta   90.00000000
_cell_angle_gamma   90.00000000
_symmetry_Int_Tables_number   1
_chemical_formula_structural   Eu2SnSe5
_chemical_formula_sum   'Eu4 Sn2 Se10'
_cell_volume   409.97507097
_cell_formula_units_Z   2
loop_
 _symmetry_equiv_pos_site_id
 _symmetry_equiv_pos_as_xyz
  1  'x, y, z'
loop_
 _atom_site_type_symbol
 _atom_site_label
 _atom_site_symmetry_multiplicity
 _atom_site_fract_x
 _atom_site_fract_y
 _atom_site_fract_z
 _atom_site_occupancy
  Eu  Eu0  1  0.50000000  0.57783932  0.17220124  1
  Eu  Eu1  1  0.50000000  0.42216068  0.82779876  1
  Eu  Eu2  1  0.50000000  0.92216068  0.67220124  1
  Eu  Eu3  1  0.50000000  0.07783932  0.32779876  1
  Sn  Sn4  1  0.00000000  0.50000000  0.50000000  1
  Sn  Sn5  1  -0.00000000  -0.00000000  -0.00000000  1
  Se  Se6  1  0.00000000  0.00000000  0.50000000  1
  Se  Se7  1  -0.00000000  0.50000000  -0.00000000  1
  Se  Se8  1  0.00000000  0.85788364  0.20449761  1
  Se  Se9  1  0.00000000  0.14211636  0.79550239  1
  Se  Se10  1  -0.00000000  0.64211636  0.70449761  1
  Se  Se11  1  0.00000000  0.35788364  0.29550239  1
  Se  Se12  1  0.50000000  0.69910377  0.42830239  1
  Se  Se13  1  0.50000000  0.30089623  0.57169761  1
  Se  Se14  1  0.50000000  0.80089623  0.92830239  1
  Se  Se15  1  0.50000000  0.19910377  0.07169761  1
