# generated using pymatgen
data_Mg5Cd
_symmetry_space_group_name_H-M   'P 1'
_cell_length_a   5.34347132
_cell_length_b   5.34347141
_cell_length_c   16.55346053
_cell_angle_alpha   90.00000000
_cell_angle_beta   90.00000000
_cell_angle_gamma   119.99999945
_symmetry_Int_Tables_number   1
_chemical_formula_structural   Mg5Cd
_chemical_formula_sum   'Mg15 Cd3'
_cell_volume   409.32324123
_cell_formula_units_Z   3
loop_
 _symmetry_equiv_pos_site_id
 _symmetry_equiv_pos_as_xyz
  1  'x, y, z'
loop_
 _atom_site_type_symbol
 _atom_site_label
 _atom_site_symmetry_multiplicity
 _atom_site_fract_x
 _atom_site_fract_y
 _atom_site_fract_z
 _atom_site_occupancy
  Mg  Mg0  1  0.66455888  0.66455888  0.00000000  1
  Mg  Mg1  1  0.00000000  -0.00000000  0.16733547  1
  Mg  Mg2  1  0.00000000  0.33544112  0.00000000  1
  Mg  Mg3  1  0.33544112  -0.00000000  0.00000000  1
  Mg  Mg4  1  0.66666700  0.33333300  0.16599853  1
  Mg  Mg5  1  0.33122488  0.99789188  0.33333300  1
  Mg  Mg6  1  0.66666700  0.33333300  0.50066847  1
  Mg  Mg7  1  0.66666700  0.66877512  0.33333300  1
  Mg  Mg8  1  0.00210812  0.33333300  0.33333300  1
  Mg  Mg9  1  0.33333300  0.66666700  0.49933153  1
  Mg  Mg10  1  0.99789188  0.33122488  0.66666700  1
  Mg  Mg11  1  0.33333300  0.66666700  0.83400147  1
  Mg  Mg12  1  0.33333300  0.00210812  0.66666700  1
  Mg  Mg13  1  0.66877512  0.66666700  0.66666700  1
  Mg  Mg14  1  0.00000000  -0.00000000  0.83266453  1
  Cd  Cd15  1  0.33333300  0.66666700  0.16666700  1
  Cd  Cd16  1  0.00000000  -0.00000000  0.50000000  1
  Cd  Cd17  1  0.66666700  0.33333300  0.83333300  1
