# generated using pymatgen
data_TmAsPt
_symmetry_space_group_name_H-M   'P 1'
_cell_length_a   4.25684436
_cell_length_b   4.25684436
_cell_length_c   15.33632576
_cell_angle_alpha   90.00000000
_cell_angle_beta   90.00000000
_cell_angle_gamma   119.90789190
_symmetry_Int_Tables_number   1
_chemical_formula_structural   TmAsPt
_chemical_formula_sum   'Tm4 As4 Pt4'
_cell_volume   240.89613888
_cell_formula_units_Z   4
loop_
 _symmetry_equiv_pos_site_id
 _symmetry_equiv_pos_as_xyz
  1  'x, y, z'
loop_
 _atom_site_type_symbol
 _atom_site_label
 _atom_site_symmetry_multiplicity
 _atom_site_fract_x
 _atom_site_fract_y
 _atom_site_fract_z
 _atom_site_occupancy
  Tm  Tm0  1  0.00000000  -0.00000000  0.50000000  1
  Tm  Tm1  1  0.00000000  -0.00000000  -0.00000000  1
  Tm  Tm2  1  0.00020092  0.99979908  0.75000000  1
  Tm  Tm3  1  0.99979908  0.00020092  0.25000000  1
  As  As4  1  0.66704537  0.33295463  0.11507659  1
  As  As5  1  0.33295463  0.66704537  0.88492341  1
  As  As6  1  0.33295463  0.66704537  0.61507659  1
  As  As7  1  0.66704537  0.33295463  0.38492341  1
  Pt  Pt8  1  0.66651293  0.33348707  0.63570160  1
  Pt  Pt9  1  0.33348707  0.66651293  0.36429840  1
  Pt  Pt10  1  0.33348707  0.66651293  0.13570160  1
  Pt  Pt11  1  0.66651293  0.33348707  0.86429840  1
