# generated using pymatgen
data_LiMg
_symmetry_space_group_name_H-M   'P 1'
_cell_length_a   5.07856625
_cell_length_b   9.17088393
_cell_length_c   5.36447924
_cell_angle_alpha   90.00000000
_cell_angle_beta   90.00000000
_cell_angle_gamma   90.00000000
_symmetry_Int_Tables_number   1
_chemical_formula_structural   LiMg
_chemical_formula_sum   'Li6 Mg6'
_cell_volume   249.85030737
_cell_formula_units_Z   6
loop_
 _symmetry_equiv_pos_site_id
 _symmetry_equiv_pos_as_xyz
  1  'x, y, z'
loop_
 _atom_site_type_symbol
 _atom_site_label
 _atom_site_symmetry_multiplicity
 _atom_site_fract_x
 _atom_site_fract_y
 _atom_site_fract_z
 _atom_site_occupancy
  Li  Li0  1  0.00000000  -0.00000000  0.33358996  1
  Li  Li1  1  0.50000000  0.83358253  0.50005344  1
  Li  Li2  1  0.50000000  0.16641747  0.50005344  1
  Li  Li3  1  0.00000000  0.50000000  0.83358996  1
  Li  Li4  1  0.50000000  0.33358253  0.00005344  1
  Li  Li5  1  0.50000000  0.66641747  0.00005344  1
  Mg  Mg6  1  -0.00000000  0.66794868  0.33172384  1
  Mg  Mg7  1  -0.00000000  0.33205132  0.33172384  1
  Mg  Mg8  1  0.50000000  -0.00000000  0.00285447  1
  Mg  Mg9  1  -0.00000000  0.16794868  0.83172384  1
  Mg  Mg10  1  -0.00000000  0.83205132  0.83172384  1
  Mg  Mg11  1  0.50000000  0.50000000  0.50285447  1
