# generated using pymatgen
data_MgZn5
_symmetry_space_group_name_H-M   'P 1'
_cell_length_a   4.71849564
_cell_length_b   4.71849497
_cell_length_c   15.03343034
_cell_angle_alpha   90.00000000
_cell_angle_beta   90.00000000
_cell_angle_gamma   119.99999823
_symmetry_Int_Tables_number   1
_chemical_formula_structural   MgZn5
_chemical_formula_sum   'Mg3 Zn15'
_cell_volume   289.86500286
_cell_formula_units_Z   3
loop_
 _symmetry_equiv_pos_site_id
 _symmetry_equiv_pos_as_xyz
  1  'x, y, z'
loop_
 _atom_site_type_symbol
 _atom_site_label
 _atom_site_symmetry_multiplicity
 _atom_site_fract_x
 _atom_site_fract_y
 _atom_site_fract_z
 _atom_site_occupancy
  Mg  Mg0  1  0.33333300  0.66666700  0.16666700  1
  Mg  Mg1  1  0.00000000  0.00000000  0.50000000  1
  Mg  Mg2  1  0.66666700  0.33333300  0.83333300  1
  Zn  Zn3  1  0.33668669  0.00335369  0.33333300  1
  Zn  Zn4  1  0.66666700  0.33333300  0.16846111  1
  Zn  Zn5  1  0.99664631  0.33333300  0.33333300  1
  Zn  Zn6  1  0.66666700  0.66331331  0.33333300  1
  Zn  Zn7  1  0.00000000  0.00000000  0.16487289  1
  Zn  Zn8  1  0.00335369  0.33668669  0.66666700  1
  Zn  Zn9  1  0.33333300  0.66666700  0.50179411  1
  Zn  Zn10  1  0.66331331  0.66666700  0.66666700  1
  Zn  Zn11  1  0.33333300  0.99664631  0.66666700  1
  Zn  Zn12  1  0.66666700  0.33333300  0.49820589  1
  Zn  Zn13  1  0.67002069  0.67002069  0.00000000  1
  Zn  Zn14  1  0.00000000  0.00000000  0.83512711  1
  Zn  Zn15  1  0.32997931  0.00000000  0.00000000  1
  Zn  Zn16  1  1.00000000  0.32997931  0.00000000  1
  Zn  Zn17  1  0.33333300  0.66666700  0.83153889  1
