# generated using pymatgen
data_Li9Mn7O16
_symmetry_space_group_name_H-M   'P 1'
_cell_length_a   5.09361457
_cell_length_b   10.43312661
_cell_length_c   6.05994677
_cell_angle_alpha   96.98677190
_cell_angle_beta   103.87237828
_cell_angle_gamma   104.16468752
_symmetry_Int_Tables_number   1
_chemical_formula_structural   Li9Mn7O16
_chemical_formula_sum   'Li9 Mn7 O16'
_cell_volume   297.52739375
_cell_formula_units_Z   1
loop_
 _symmetry_equiv_pos_site_id
 _symmetry_equiv_pos_as_xyz
  1  'x, y, z'
loop_
 _atom_site_type_symbol
 _atom_site_label
 _atom_site_symmetry_multiplicity
 _atom_site_fract_x
 _atom_site_fract_y
 _atom_site_fract_z
 _atom_site_occupancy
  Li  Li0  1  0.62000489  0.12175491  0.18693144  1
  Li  Li1  1  0.63259502  0.12076034  0.68505266  1
  Li  Li2  1  0.88001297  0.37449285  0.56474277  1
  Li  Li3  1  0.87344950  0.37473052  0.06222327  1
  Li  Li4  1  0.12655050  0.62526948  0.93777673  1
  Li  Li5  1  0.11998703  0.62550715  0.43525723  1
  Li  Li6  1  0.36740498  0.87923966  0.31494734  1
  Li  Li7  1  0.37999511  0.87824509  0.81306856  1
  Li  Li8  1  0.00000000  0.00000000  0.50000000  1
  Mn  Mn9  1  0.00000000  0.00000000  0.00000000  1
  Mn  Mn10  1  0.24275376  0.24575017  0.37263125  1
  Mn  Mn11  1  0.24081123  0.24585024  0.86324345  1
  Mn  Mn12  1  0.50158257  0.50001714  0.75055619  1
  Mn  Mn13  1  0.49841743  0.49998286  0.24944381  1
  Mn  Mn14  1  0.75918877  0.75414976  0.13675655  1
  Mn  Mn15  1  0.75724624  0.75424983  0.62736875  1
  O  O16  1  0.29475677  0.06901626  0.85553510  1
  O  O17  1  0.28012792  0.06430905  0.30972394  1
  O  O18  1  0.53585175  0.31597350  0.21473387  1
  O  O19  1  0.55148459  0.31654380  0.73079489  1
  O  O20  1  0.80040502  0.56763550  0.60806592  1
  O  O21  1  0.80068279  0.57047681  0.10722397  1
  O  O22  1  0.05713340  0.82240171  0.98665732  1
  O  O23  1  0.03491387  0.80620932  0.46425231  1
  O  O24  1  0.96508613  0.19379068  0.53574669  1
  O  O25  1  0.94286660  0.17759829  0.01334168  1
  O  O26  1  0.19931721  0.42952319  0.89277503  1
  O  O27  1  0.19959498  0.43236450  0.39193308  1
  O  O28  1  0.44851541  0.68345620  0.26920411  1
  O  O29  1  0.46414825  0.68402650  0.78526613  1
  O  O30  1  0.71987208  0.93569095  0.69027606  1
  O  O31  1  0.70524323  0.93098374  0.14446590  1
