# generated using pymatgen
data_Li9Mn7O16
_symmetry_space_group_name_H-M   'P 1'
_cell_length_a   5.09692219
_cell_length_b   10.12263949
_cell_length_c   6.06212474
_cell_angle_alpha   86.73877238
_cell_angle_beta   103.77066398
_cell_angle_gamma   79.82233811
_symmetry_Int_Tables_number   1
_chemical_formula_structural   Li9Mn7O16
_chemical_formula_sum   'Li9 Mn7 O16'
_cell_volume   297.39478392
_cell_formula_units_Z   1
loop_
 _symmetry_equiv_pos_site_id
 _symmetry_equiv_pos_as_xyz
  1  'x, y, z'
loop_
 _atom_site_type_symbol
 _atom_site_label
 _atom_site_symmetry_multiplicity
 _atom_site_fract_x
 _atom_site_fract_y
 _atom_site_fract_z
 _atom_site_occupancy
  Li  Li0  1  0.50643578  0.12374503  0.12714625  1
  Li  Li1  1  0.49725333  0.12577190  0.62490865  1
  Li  Li2  1  0.49356422  0.37625497  0.37285375  1
  Li  Li3  1  0.50274667  0.37422810  0.87509135  1
  Li  Li4  1  0.50192922  0.62796042  0.62359970  1
  Li  Li5  1  0.48798233  0.62954853  0.12555524  1
  Li  Li6  1  0.49807078  0.87203958  0.87640030  1
  Li  Li7  1  0.51201767  0.87045147  0.37444476  1
  Li  Li8  1  -0.00000000  0.75000000  0.25000000  1
  Mn  Mn9  1  0.99674721  0.99599934  0.99900921  1
  Mn  Mn10  1  -0.00000000  0.75000000  0.75000000  1
  Mn  Mn11  1  0.99575176  0.99572152  0.49142812  1
  Mn  Mn12  1  -0.00000000  0.25000000  0.25000000  1
  Mn  Mn13  1  -0.00000000  0.25000000  0.75000000  1
  Mn  Mn14  1  0.00325279  0.50400066  0.50099079  1
  Mn  Mn15  1  0.00424824  0.50427848  0.00857188  1
  O  O16  1  0.22005831  0.06561998  0.80702162  1
  O  O17  1  0.23368307  0.06711418  0.32277869  1
  O  O18  1  0.22999115  0.31921745  0.07180724  1
  O  O19  1  0.23238733  0.31884838  0.57455386  1
  O  O20  1  0.22839096  0.55602982  0.31066864  1
  O  O21  1  0.23458640  0.57240545  0.82639368  1
  O  O22  1  0.22631608  0.81891814  0.57096292  1
  O  O23  1  0.21415023  0.81447478  0.02630096  1
  O  O24  1  0.77000885  0.18078255  0.42819276  1
  O  O25  1  0.76761267  0.18115162  0.92544614  1
  O  O26  1  0.77994169  0.43438002  0.69297838  1
  O  O27  1  0.76631693  0.43288582  0.17722131  1
  O  O28  1  0.77368392  0.68108186  0.92903708  1
  O  O29  1  0.78584977  0.68552522  0.47369904  1
  O  O30  1  0.77160904  0.94397018  0.18933136  1
  O  O31  1  0.76541360  0.92759455  0.67360632  1
