# generated using pymatgen
data_Mg3Ga
_symmetry_space_group_name_H-M   'P 1'
_cell_length_a   6.20156496
_cell_length_b   6.20156570
_cell_length_c   4.95198228
_cell_angle_alpha   90.00000000
_cell_angle_beta   90.00000000
_cell_angle_gamma   120.00000136
_symmetry_Int_Tables_number   1
_chemical_formula_structural   Mg3Ga
_chemical_formula_sum   'Mg6 Ga2'
_cell_volume   164.93482129
_cell_formula_units_Z   2
loop_
 _symmetry_equiv_pos_site_id
 _symmetry_equiv_pos_as_xyz
  1  'x, y, z'
loop_
 _atom_site_type_symbol
 _atom_site_label
 _atom_site_symmetry_multiplicity
 _atom_site_fract_x
 _atom_site_fract_y
 _atom_site_fract_z
 _atom_site_occupancy
  Mg  Mg0  1  0.66211841  0.83105921  0.75000000  1
  Mg  Mg1  1  0.16894079  0.33788159  0.75000000  1
  Mg  Mg2  1  0.16894079  0.83105921  0.75000000  1
  Mg  Mg3  1  0.83105921  0.66211841  0.25000000  1
  Mg  Mg4  1  0.83105921  0.16894079  0.25000000  1
  Mg  Mg5  1  0.33788159  0.16894079  0.25000000  1
  Ga  Ga6  1  0.66666700  0.33333300  0.75000000  1
  Ga  Ga7  1  0.33333300  0.66666700  0.25000000  1
