# generated using pymatgen
data_Mg14ZrMn
_symmetry_space_group_name_H-M   'P 1'
_cell_length_a   6.36967817
_cell_length_b   6.36967765
_cell_length_c   10.11663802
_cell_angle_alpha   90.00000000
_cell_angle_beta   90.00000000
_cell_angle_gamma   120.00000273
_symmetry_Int_Tables_number   1
_chemical_formula_structural   Mg14ZrMn
_chemical_formula_sum   'Mg14 Zr1 Mn1'
_cell_volume   355.46903524
_cell_formula_units_Z   1
loop_
 _symmetry_equiv_pos_site_id
 _symmetry_equiv_pos_as_xyz
  1  'x, y, z'
loop_
 _atom_site_type_symbol
 _atom_site_label
 _atom_site_symmetry_multiplicity
 _atom_site_fract_x
 _atom_site_fract_y
 _atom_site_fract_z
 _atom_site_occupancy
  Mg  Mg0  1  0.16602963  0.83301432  0.12500000  1
  Mg  Mg1  1  0.17248159  0.83624029  0.62500000  1
  Mg  Mg2  1  0.66698568  0.33397037  0.12500000  1
  Mg  Mg3  1  0.66375971  0.32751841  0.62500000  1
  Mg  Mg4  1  0.66698568  0.83301432  0.12500000  1
  Mg  Mg5  1  0.66375971  0.83624029  0.62500000  1
  Mg  Mg6  1  0.32927558  0.17072442  0.37205814  1
  Mg  Mg7  1  0.32927558  0.17072442  0.87794186  1
  Mg  Mg8  1  0.32927558  0.65855217  0.37205814  1
  Mg  Mg9  1  0.32927558  0.65855217  0.87794186  1
  Mg  Mg10  1  0.84144783  0.17072442  0.37205814  1
  Mg  Mg11  1  0.84144783  0.17072442  0.87794186  1
  Mg  Mg12  1  0.83333300  0.66666700  0.37775669  1
  Mg  Mg13  1  0.83333300  0.66666700  0.87224331  1
  Zr  Zr14  1  0.16666700  0.33333300  0.62500000  1
  Mn  Mn15  1  0.16666700  0.33333300  0.12500000  1
