# generated using pymatgen
data_Li9Mn7O16
_symmetry_space_group_name_H-M   'P 1'
_cell_length_a   6.06115694
_cell_length_b   8.01493044
_cell_length_c   6.50378554
_cell_angle_alpha   85.48722967
_cell_angle_beta   76.67587857
_cell_angle_gamma   74.85121485
_symmetry_Int_Tables_number   1
_chemical_formula_structural   Li9Mn7O16
_chemical_formula_sum   'Li9 Mn7 O16'
_cell_volume   296.70650937
_cell_formula_units_Z   1
loop_
 _symmetry_equiv_pos_site_id
 _symmetry_equiv_pos_as_xyz
  1  'x, y, z'
loop_
 _atom_site_type_symbol
 _atom_site_label
 _atom_site_symmetry_multiplicity
 _atom_site_fract_x
 _atom_site_fract_y
 _atom_site_fract_z
 _atom_site_occupancy
  Li  Li0  1  0.94011811  0.38091177  0.87253280  1
  Li  Li1  1  0.19269348  0.87179740  0.38080040  1
  Li  Li2  1  0.43446986  0.37565795  0.87503034  1
  Li  Li3  1  0.06893756  0.62461890  0.11910663  1
  Li  Li4  1  0.31553014  0.12434205  0.62496966  1
  Li  Li5  1  0.55730652  0.62820260  0.11919960  1
  Li  Li6  1  0.68106244  0.87538110  0.38089337  1
  Li  Li7  1  0.80988189  0.11908823  0.62746720  1
  Li  Li8  1  0.37500000  0.75000000  0.75000000  1
  Mn  Mn9  1  0.00073391  0.99476863  0.99819103  1
  Mn  Mn10  1  0.87500000  0.75000000  0.75000000  1
  Mn  Mn11  1  0.25702217  0.50674073  0.50076769  1
  Mn  Mn12  1  0.49297783  0.99325927  0.99923231  1
  Mn  Mn13  1  0.74926609  0.50523137  0.50180897  1
  Mn  Mn14  1  0.62496225  0.25043378  0.25015977  1
  Mn  Mn15  1  0.12503775  0.24956622  0.24984023  1
  O  O16  1  0.71887332  0.17743223  0.95475595  1
  O  O17  1  0.98145915  0.68930334  0.45451236  1
  O  O18  1  0.23043076  0.18427972  0.94933358  1
  O  O19  1  0.85903537  0.43219701  0.20266843  1
  O  O20  1  0.06448829  0.92062004  0.70847545  1
  O  O21  1  0.35506098  0.43655200  0.20311612  1
  O  O22  1  0.47706146  0.66872001  0.44322385  1
  O  O23  1  0.60396497  0.93277965  0.70553170  1
  O  O24  1  0.14603403  0.56722035  0.79446830  1
  O  O25  1  0.39493902  0.06344800  0.29688388  1
  O  O26  1  0.68551071  0.57937996  0.79152455  1
  O  O27  1  0.27293754  0.83127999  0.05677615  1
  O  O28  1  0.51956924  0.31572028  0.55066642  1
  O  O29  1  0.76853985  0.81069666  0.04548764  1
  O  O30  1  0.89096463  0.06780299  0.29733157  1
  O  O31  1  0.03112568  0.32256777  0.54524405  1
