# generated using pymatgen
data_TiCrSO8
_symmetry_space_group_name_H-M   'P 1'
_cell_length_a   9.27799984
_cell_length_b   9.20447192
_cell_length_c   9.05971339
_cell_angle_alpha   57.38768125
_cell_angle_beta   56.33747131
_cell_angle_gamma   55.43297646
_symmetry_Int_Tables_number   1
_chemical_formula_structural   TiCrSO8
_chemical_formula_sum   'Ti3 Cr3 S3 O24'
_cell_volume   501.03125805
_cell_formula_units_Z   3
loop_
 _symmetry_equiv_pos_site_id
 _symmetry_equiv_pos_as_xyz
  1  'x, y, z'
loop_
 _atom_site_type_symbol
 _atom_site_label
 _atom_site_symmetry_multiplicity
 _atom_site_fract_x
 _atom_site_fract_y
 _atom_site_fract_z
 _atom_site_occupancy
  Ti  Ti0  1  0.15534367  0.14297463  0.14209276  1
  Ti  Ti1  1  0.35614128  0.34283333  0.37022781  1
  Ti  Ti2  1  0.63711539  0.64792585  0.63206422  1
  Cr  Cr3  1  0.03517084  0.74969704  0.47222482  1
  Cr  Cr4  1  0.74317109  0.46057213  0.04355904  1
  Cr  Cr5  1  0.25735986  0.52875518  0.96319604  1
  S  S6  1  0.46964745  0.03297994  0.74585657  1
  S  S7  1  0.53054334  0.96880083  0.24793748  1
  S  S8  1  0.97263527  0.25976402  0.52039092  1
  O  O9  1  0.11257602  0.31970271  0.48697962  1
  O  O10  1  0.31598627  0.48520495  0.13197274  1
  O  O11  1  0.04352642  0.96314710  0.30866826  1
  O  O12  1  0.48255617  0.11167974  0.32039466  1
  O  O13  1  0.01577712  0.72504268  0.66841632  1
  O  O14  1  0.24188838  0.58216510  0.39757496  1
  O  O15  1  0.37134561  0.21595094  0.62101833  1
  O  O16  1  0.32712118  0.02257613  0.94412935  1
  O  O17  1  0.59537845  0.36579573  0.24731221  1
  O  O18  1  0.04736672  0.67345566  0.99304439  1
  O  O19  1  0.27904909  0.32475201  0.98383096  1
  O  O20  1  0.34870355  0.98528438  0.27100364  1
  O  O21  1  0.64138725  0.02382707  0.71794227  1
  O  O22  1  0.70465935  0.65071475  0.04500365  1
  O  O23  1  0.96944501  0.30710931  0.03077750  1
  O  O24  1  0.40910304  0.61748250  0.75054689  1
  O  O25  1  0.66474967  0.98890997  0.06184571  1
  O  O26  1  0.60085189  0.78350059  0.38950363  1
  O  O27  1  0.78294898  0.41192423  0.58059783  1
  O  O28  1  0.99627902  0.28053651  0.33211011  1
  O  O29  1  0.49170952  0.88009556  0.70737389  1
  O  O30  1  0.98549210  0.07862504  0.65544149  1
  O  O31  1  0.69863035  0.50658540  0.86281696  1
  O  O32  1  0.86399165  0.70927800  0.50179396  1
