# generated using pymatgen
data_Li9Mn7O16
_symmetry_space_group_name_H-M   'P 1'
_cell_length_a   5.84023424
_cell_length_b   9.88326073
_cell_length_c   6.02116627
_cell_angle_alpha   77.62229161
_cell_angle_beta   61.57030825
_cell_angle_gamma   81.81730496
_symmetry_Int_Tables_number   1
_chemical_formula_structural   Li9Mn7O16
_chemical_formula_sum   'Li9 Mn7 O16'
_cell_volume   298.19923148
_cell_formula_units_Z   1
loop_
 _symmetry_equiv_pos_site_id
 _symmetry_equiv_pos_as_xyz
  1  'x, y, z'
loop_
 _atom_site_type_symbol
 _atom_site_label
 _atom_site_symmetry_multiplicity
 _atom_site_fract_x
 _atom_site_fract_y
 _atom_site_fract_z
 _atom_site_occupancy
  Li  Li0  1  0.12500000  0.25000000  0.12500000  1
  Li  Li1  1  0.75250217  0.49599703  0.24724961  1
  Li  Li2  1  0.37306337  0.75331524  0.37681307  1
  Li  Li3  1  0.00478068  0.00061012  0.49627888  1
  Li  Li4  1  0.62500000  0.25000000  0.62500000  1
  Li  Li5  1  0.24521932  0.49938988  0.75372112  1
  Li  Li6  1  0.87693663  0.74668476  0.87318693  1
  Li  Li7  1  0.49749783  0.00400297  0.00275039  1
  Li  Li8  1  0.12500000  0.25000000  0.62500000  1
  Mn  Mn9  1  0.99710086  0.00452644  0.00207098  1
  Mn  Mn10  1  0.62500000  0.25000000  0.12500000  1
  Mn  Mn11  1  0.25289914  0.49547356  0.24792902  1
  Mn  Mn12  1  0.37430794  0.75052070  0.87336978  1
  Mn  Mn13  1  0.49104222  0.00653030  0.51002208  1
  Mn  Mn14  1  0.75895778  0.49346970  0.73997792  1
  Mn  Mn15  1  0.87569206  0.74947930  0.37663022  1
  O  O16  1  0.30220209  0.11227956  0.81030966  1
  O  O17  1  0.91254181  0.37590466  0.93892452  1
  O  O18  1  0.54985419  0.62115864  0.04922472  1
  O  O19  1  0.16183795  0.87541001  0.19524863  1
  O  O20  1  0.78566778  0.13182665  0.32287492  1
  O  O21  1  0.45039876  0.36735619  0.39175612  1
  O  O22  1  0.04358997  0.62602409  0.56733372  1
  O  O23  1  0.66169709  0.87879667  0.69257194  1
  O  O24  1  0.94779791  0.38772044  0.43969034  1
  O  O25  1  0.58830191  0.62120333  0.55742806  1
  O  O26  1  0.20640903  0.87397591  0.68266728  1
  O  O27  1  0.79960024  0.13264381  0.85824488  1
  O  O28  1  0.46433122  0.36817335  0.92712608  1
  O  O29  1  0.08816105  0.62458999  0.05475137  1
  O  O30  1  0.70014481  0.87884136  0.20077528  1
  O  O31  1  0.33745719  0.12409534  0.31107648  1
