# generated using pymatgen
data_Li9Mn7O16
_symmetry_space_group_name_H-M   'P 1'
_cell_length_a   6.05701111
_cell_length_b   8.19371462
_cell_length_c   6.51329682
_cell_angle_alpha   89.23503688
_cell_angle_beta   113.46704265
_cell_angle_gamma   90.87462963
_symmetry_Int_Tables_number   1
_chemical_formula_structural   Li9Mn7O16
_chemical_formula_sum   'Li9 Mn7 O16'
_cell_volume   296.47094828
_cell_formula_units_Z   1
loop_
 _symmetry_equiv_pos_site_id
 _symmetry_equiv_pos_as_xyz
  1  'x, y, z'
loop_
 _atom_site_type_symbol
 _atom_site_label
 _atom_site_symmetry_multiplicity
 _atom_site_fract_x
 _atom_site_fract_y
 _atom_site_fract_z
 _atom_site_occupancy
  Li  Li0  1  0.24349256  0.99848167  0.49630740  1
  Li  Li1  1  0.87018351  0.24596120  0.25016229  1
  Li  Li2  1  0.62344849  0.75621879  0.75796233  1
  Li  Li3  1  0.00000000  0.50000000  0.00000000  1
  Li  Li4  1  0.37655151  0.24378121  0.24203767  1
  Li  Li5  1  0.75650744  0.00151833  0.50369260  1
  Li  Li6  1  0.12981649  0.75403880  0.74983771  1
  Li  Li7  1  0.50000000  0.50000000  0.00000000  1
  Li  Li8  1  0.50000000  0.00000000  0.00000000  1
  Mn  Mn9  1  0.00000000  0.00000000  0.00000000  1
  Mn  Mn10  1  0.62792315  0.24684684  0.75551462  1
  Mn  Mn11  1  0.24954293  0.49953391  0.49995237  1
  Mn  Mn12  1  0.86266073  0.75246413  0.24230626  1
  Mn  Mn13  1  0.13733927  0.24753587  0.75769374  1
  Mn  Mn14  1  0.75045707  0.50046609  0.50004763  1
  Mn  Mn15  1  0.37207685  0.75315316  0.24448538  1
  O  O16  1  0.88374673  0.98812946  0.23932491  1
  O  O17  1  0.49292667  0.25065874  0.97790587  1
  O  O18  1  0.24544156  0.74086244  0.48421434  1
  O  O19  1  0.63738345  0.48929746  0.74041429  1
  O  O20  1  0.01605955  0.23651122  0.99840017  1
  O  O21  1  0.33489283  0.98886994  0.22528498  1
  O  O22  1  0.75993496  0.74228786  0.49169489  1
  O  O23  1  0.13516440  0.48688804  0.74257089  1
  O  O24  1  0.66510717  0.01113006  0.77471502  1
  O  O25  1  0.24006404  0.25771214  0.50830511  1
  O  O26  1  0.98394045  0.76348878  0.00159983  1
  O  O27  1  0.36261655  0.51070254  0.25958571  1
  O  O28  1  0.75455944  0.25913756  0.51578566  1
  O  O29  1  0.11625327  0.01187054  0.76067509  1
  O  O30  1  0.50707233  0.74934126  0.02209413  1
  O  O31  1  0.86483560  0.51311196  0.25742911  1
