# generated using pymatgen
data_Li9Mn7O16
_symmetry_space_group_name_H-M   'P 1'
_cell_length_a   5.28602696
_cell_length_b   6.06836767
_cell_length_c   10.11957373
_cell_angle_alpha   93.36484329
_cell_angle_beta   78.18293972
_cell_angle_gamma   110.42557350
_symmetry_Int_Tables_number   1
_chemical_formula_structural   Li9Mn7O16
_chemical_formula_sum   'Li9 Mn7 O16'
_cell_volume   297.72569117
_cell_formula_units_Z   1
loop_
 _symmetry_equiv_pos_site_id
 _symmetry_equiv_pos_as_xyz
  1  'x, y, z'
loop_
 _atom_site_type_symbol
 _atom_site_label
 _atom_site_symmetry_multiplicity
 _atom_site_fract_x
 _atom_site_fract_y
 _atom_site_fract_z
 _atom_site_occupancy
  Li  Li0  1  0.50267796  0.12328283  0.12549091  1
  Li  Li1  1  0.49860953  0.87336829  0.37645122  1
  Li  Li2  1  0.49635144  0.63243238  0.62861149  1
  Li  Li3  1  0.50574311  0.38321046  0.87053384  1
  Li  Li4  1  0.50139047  0.62663171  0.12354878  1
  Li  Li5  1  0.49732204  0.37671717  0.37450909  1
  Li  Li6  1  0.49425689  0.11678954  0.62946616  1
  Li  Li7  1  0.50364856  0.86756762  0.87138851  1
  Li  Li8  1  0.00000000  0.75000000  0.75000000  1
  Mn  Mn9  1  0.99678545  0.00002493  0.99615566  1
  Mn  Mn10  1  0.00000000  0.25000000  0.75000000  1
  Mn  Mn11  1  0.00000000  0.75000000  0.25000000  1
  Mn  Mn12  1  0.00321455  0.49997507  0.50384434  1
  Mn  Mn13  1  0.99551514  0.50717542  0.99554561  1
  Mn  Mn14  1  0.00000000  0.25000000  0.25000000  1
  Mn  Mn15  1  0.00448486  0.99282458  0.50445439  1
  O  O16  1  0.21909582  0.30211481  0.06621825  1
  O  O17  1  0.23016284  0.04303698  0.31983228  1
  O  O18  1  0.22573949  0.80364445  0.55620568  1
  O  O19  1  0.23142952  0.54419993  0.81833402  1
  O  O20  1  0.23491201  0.79546353  0.06640132  1
  O  O21  1  0.23199728  0.54191722  0.31834229  1
  O  O22  1  0.23681152  0.29065457  0.57235923  1
  O  O23  1  0.20855966  0.08183078  0.81482568  1
  O  O24  1  0.76800272  0.95808278  0.18165771  1
  O  O25  1  0.76508799  0.70453647  0.43359868  1
  O  O26  1  0.79144034  0.41816922  0.68517432  1
  O  O27  1  0.76318848  0.20934543  0.92764077  1
  O  O28  1  0.76983716  0.45696302  0.18016772  1
  O  O29  1  0.78090418  0.19788519  0.43378175  1
  O  O30  1  0.76857048  0.95580007  0.68166598  1
  O  O31  1  0.77426051  0.69635555  0.94379432  1
