# generated using pymatgen
data_Li9Mn7O16
_symmetry_space_group_name_H-M   'P 1'
_cell_length_a   5.99610780
_cell_length_b   6.05680358
_cell_length_c   8.19276176
_cell_angle_alpha   90.82662369
_cell_angle_beta   89.62493748
_cell_angle_gamma   85.79483607
_symmetry_Int_Tables_number   1
_chemical_formula_structural   Li9Mn7O16
_chemical_formula_sum   'Li9 Mn7 O16'
_cell_volume   296.69803375
_cell_formula_units_Z   1
loop_
 _symmetry_equiv_pos_site_id
 _symmetry_equiv_pos_as_xyz
  1  'x, y, z'
loop_
 _atom_site_type_symbol
 _atom_site_label
 _atom_site_symmetry_multiplicity
 _atom_site_fract_x
 _atom_site_fract_y
 _atom_site_fract_z
 _atom_site_occupancy
  Li  Li0  1  0.50348265  0.00637204  0.00437636  1
  Li  Li1  1  0.25000000  0.25000000  0.25000000  1
  Li  Li2  1  0.75000000  0.25000000  0.75000000  1
  Li  Li3  1  0.50499102  0.49363158  0.00606004  1
  Li  Li4  1  0.99651735  0.49362796  0.49562364  1
  Li  Li5  1  0.75000000  0.75000000  0.75000000  1
  Li  Li6  1  0.25000000  0.75000000  0.25000000  1
  Li  Li7  1  0.99500898  0.00636842  0.49393996  1
  Li  Li8  1  0.75000000  0.25000000  0.25000000  1
  Mn  Mn9  1  0.99354690  0.99986110  0.00262452  1
  Mn  Mn10  1  0.75000000  0.75000000  0.25000000  1
  Mn  Mn11  1  0.50645310  0.50013890  0.49737548  1
  Mn  Mn12  1  0.25000000  0.75000000  0.75000000  1
  Mn  Mn13  1  0.99315594  0.49191508  0.00296757  1
  Mn  Mn14  1  0.50684406  0.00808492  0.49703243  1
  Mn  Mn15  1  0.25000000  0.25000000  0.75000000  1
  O  O16  1  0.22972825  0.75292875  0.98914977  1
  O  O17  1  0.97333480  0.97197582  0.23811059  1
  O  O18  1  0.49004064  0.01528825  0.73708211  1
  O  O19  1  0.24550065  0.26354048  0.99423211  1
  O  O20  1  0.72577109  0.25312000  0.50089420  1
  O  O21  1  0.49102214  0.51590751  0.73868334  1
  O  O22  1  0.99066000  0.51431788  0.23789343  1
  O  O23  1  0.74953632  0.76712819  0.48641347  1
  O  O24  1  0.77422891  0.24688000  0.99910580  1
  O  O25  1  0.52666520  0.52802418  0.26188941  1
  O  O26  1  0.00995936  0.48471175  0.76291789  1
  O  O27  1  0.75046368  0.73287181  0.01358653  1
  O  O28  1  0.27027175  0.74707125  0.51085023  1
  O  O29  1  0.00897786  0.98409249  0.76131666  1
  O  O30  1  0.50934000  0.98568212  0.26210657  1
  O  O31  1  0.25449935  0.23645952  0.50576789  1
