# generated using pymatgen
data_Li9Mn7O16
_symmetry_space_group_name_H-M   'P 1'
_cell_length_a   6.07528096
_cell_length_b   7.81463686
_cell_length_c   6.50459821
_cell_angle_alpha   89.73051325
_cell_angle_beta   76.74792607
_cell_angle_gamma   83.19069013
_symmetry_Int_Tables_number   1
_chemical_formula_structural   Li9Mn7O16
_chemical_formula_sum   'Li9 Mn7 O16'
_cell_volume   298.38865651
_cell_formula_units_Z   1
loop_
 _symmetry_equiv_pos_site_id
 _symmetry_equiv_pos_as_xyz
  1  'x, y, z'
loop_
 _atom_site_type_symbol
 _atom_site_label
 _atom_site_symmetry_multiplicity
 _atom_site_fract_x
 _atom_site_fract_y
 _atom_site_fract_z
 _atom_site_occupancy
  Li  Li0  1  0.87918643  0.37128851  0.12319306  1
  Li  Li1  1  0.37733281  0.87849715  0.63140622  1
  Li  Li2  1  0.62490830  0.62881862  0.87662691  1
  Li  Li3  1  0.13111030  0.12543851  0.36866110  1
  Li  Li4  1  0.37509170  0.37118138  0.12337309  1
  Li  Li5  1  0.86888970  0.87456149  0.63133890  1
  Li  Li6  1  0.12081357  0.62871149  0.87680694  1
  Li  Li7  1  0.62266719  0.12150285  0.36859378  1
  Li  Li8  1  0.50000000  -0.00000000  0.00000000  1
  Mn  Mn9  1  0.00000000  -0.00000000  0.00000000  1
  Mn  Mn10  1  0.75393778  0.24393340  0.75057365  1
  Mn  Mn11  1  0.50000000  0.50000000  0.50000000  1
  Mn  Mn12  1  0.24606222  0.75606660  0.24942635  1
  Mn  Mn13  1  0.00000000  0.50000000  0.50000000  1
  Mn  Mn14  1  0.26173431  0.24345365  0.75050244  1
  Mn  Mn15  1  0.73826569  0.75654635  0.24949756  1
  O  O16  1  0.18024205  0.18334076  0.04464175  1
  O  O17  1  0.67426189  0.68628613  0.54895596  1
  O  O18  1  0.94555464  0.42468166  0.79419812  1
  O  O19  1  0.43894209  0.91871832  0.30703969  1
  O  O20  1  0.72595419  0.17051027  0.04045504  1
  O  O21  1  0.17450413  0.68351235  0.54753921  1
  O  O22  1  0.42800609  0.43631987  0.80127967  1
  O  O23  1  0.92123801  0.93961050  0.29600794  1
  O  O24  1  0.57199391  0.56368013  0.19872033  1
  O  O25  1  0.07876199  0.06038950  0.70399206  1
  O  O26  1  0.27404581  0.82948973  0.95954496  1
  O  O27  1  0.82549587  0.31648765  0.45246079  1
  O  O28  1  0.05444536  0.57531834  0.20580188  1
  O  O29  1  0.56105791  0.08128168  0.69296031  1
  O  O30  1  0.81975795  0.81665924  0.95535825  1
  O  O31  1  0.32573811  0.31371387  0.45104404  1
