# generated using pymatgen
data_MnTl(VS2)4
_symmetry_space_group_name_H-M   'P 1'
_cell_length_a   3.28952373
_cell_length_b   8.48739087
_cell_length_c   8.91440852
_cell_angle_alpha   104.32860102
_cell_angle_beta   100.63233023
_cell_angle_gamma   90.00000000
_symmetry_Int_Tables_number   1
_chemical_formula_structural   MnTl(VS2)4
_chemical_formula_sum   'Mn1 Tl1 V4 S8'
_cell_volume   236.73061278
_cell_formula_units_Z   1
loop_
 _symmetry_equiv_pos_site_id
 _symmetry_equiv_pos_as_xyz
  1  'x, y, z'
loop_
 _atom_site_type_symbol
 _atom_site_label
 _atom_site_symmetry_multiplicity
 _atom_site_fract_x
 _atom_site_fract_y
 _atom_site_fract_z
 _atom_site_occupancy
  Mn  Mn0  1  0.00000000  0.50000000  0.00000000  1
  Tl  Tl1  1  0.50000000  0.00000000  0.00000000  1
  V  V2  1  0.71135582  0.85945677  0.42271164  1
  V  V3  1  0.28864418  0.14054323  0.57728836  1
  V  V4  1  0.64857776  0.49782910  0.29715552  1
  V  V5  1  0.35142224  0.50217090  0.70284448  1
  S  S6  1  0.84085286  0.00420253  0.68170572  1
  S  S7  1  0.15914714  0.99579747  0.31829428  1
  S  S8  1  0.75877263  0.33781088  0.51754527  1
  S  S9  1  0.24122737  0.66218912  0.48245473  1
  S  S10  1  0.91832887  0.67701980  0.83665773  1
  S  S11  1  0.08167113  0.32298020  0.16334227  1
  S  S12  1  0.57102704  0.67389865  0.14205407  1
  S  S13  1  0.42897296  0.32610135  0.85794593  1
