# generated using pymatgen
data_CsHSO2
_symmetry_space_group_name_H-M   'P 1'
_cell_length_a   5.81737087
_cell_length_b   6.41132670
_cell_length_c   12.03870366
_cell_angle_alpha   93.73447919
_cell_angle_beta   90.00000013
_cell_angle_gamma   116.97998482
_symmetry_Int_Tables_number   1
_chemical_formula_structural   CsHSO2
_chemical_formula_sum   'Cs4 H4 S4 O8'
_cell_volume   399.07036712
_cell_formula_units_Z   4
loop_
 _symmetry_equiv_pos_site_id
 _symmetry_equiv_pos_as_xyz
  1  'x, y, z'
loop_
 _atom_site_type_symbol
 _atom_site_label
 _atom_site_symmetry_multiplicity
 _atom_site_fract_x
 _atom_site_fract_y
 _atom_site_fract_z
 _atom_site_occupancy
  Cs  Cs0  1  0.22664534  0.45329067  0.34398457  1
  Cs  Cs1  1  0.77335466  0.54670933  0.65601543  1
  Cs  Cs2  1  0.85344883  0.70689765  0.08112198  1
  Cs  Cs3  1  0.14655117  0.29310235  0.91887802  1
  H  H4  1  0.80591815  0.88238396  0.37189344  1
  H  H5  1  0.07646582  0.88238396  0.37189344  1
  H  H6  1  0.19408185  0.11761604  0.62810656  1
  H  H7  1  0.92353418  0.11761604  0.62810656  1
  S  S8  1  0.54094527  0.08189054  0.35988147  1
  S  S9  1  0.45905473  0.91810946  0.64011853  1
  S  S10  1  0.53324669  0.06649338  0.18874470  1
  S  S11  1  0.46675331  0.93350662  0.81125530  1
  O  O12  1  0.88879883  0.77759765  0.37293667  1
  O  O13  1  0.11120117  0.22240235  0.62706333  1
  O  O14  1  0.80376959  0.18561172  0.15211035  1
  O  O15  1  0.38184213  0.18561172  0.15211035  1
  O  O16  1  0.19623041  0.81438828  0.84788965  1
  O  O17  1  0.61815787  0.81438828  0.84788965  1
  O  O18  1  0.40641556  0.81283111  0.14856486  1
  O  O19  1  0.59358444  0.18716889  0.85143514  1
