# generated using pymatgen
data_Tb(CrGe)6
_symmetry_space_group_name_H-M   'P 1'
_cell_length_a   5.11591781
_cell_length_b   5.11658470
_cell_length_c   8.32722777
_cell_angle_alpha   90.00000000
_cell_angle_beta   90.00000000
_cell_angle_gamma   119.99568399
_symmetry_Int_Tables_number   1
_chemical_formula_structural   Tb(CrGe)6
_chemical_formula_sum   'Tb1 Cr6 Ge6'
_cell_volume   188.77900339
_cell_formula_units_Z   1
loop_
 _symmetry_equiv_pos_site_id
 _symmetry_equiv_pos_as_xyz
  1  'x, y, z'
loop_
 _atom_site_type_symbol
 _atom_site_label
 _atom_site_symmetry_multiplicity
 _atom_site_fract_x
 _atom_site_fract_y
 _atom_site_fract_z
 _atom_site_occupancy
  Tb  Tb0  1  0.99997962  1.00000000  0.00000000  1
  Cr  Cr1  1  0.49998769  0.00000000  0.25050343  1
  Cr  Cr2  1  0.49998885  0.50000103  0.25045011  1
  Cr  Cr3  1  0.99998782  0.49999897  0.25045011  1
  Cr  Cr4  1  0.49998769  0.00000000  0.74949657  1
  Cr  Cr5  1  0.49998885  0.50000103  0.74954989  1
  Cr  Cr6  1  0.99998782  0.49999897  0.74954989  1
  Ge  Ge7  1  0.33324420  0.66652181  0.00000000  1
  Ge  Ge8  1  0.66672239  0.33347819  0.00000000  1
  Ge  Ge9  1  0.33325650  0.66655590  0.50000000  1
  Ge  Ge10  1  0.66670061  0.33344410  0.50000000  1
  Ge  Ge11  1  0.99998398  0.00000000  0.34612568  1
  Ge  Ge12  1  0.99998398  0.00000000  0.65387432  1
