# generated using pymatgen
data_EuZnGe
_symmetry_space_group_name_H-M   'P 1'
_cell_length_a   4.28122534
_cell_length_b   4.28122534
_cell_length_c   17.12739736
_cell_angle_alpha   90.00000000
_cell_angle_beta   90.00000000
_cell_angle_gamma   120.00330858
_symmetry_Int_Tables_number   1
_chemical_formula_structural   EuZnGe
_chemical_formula_sum   'Eu4 Zn4 Ge4'
_cell_volume   271.85899074
_cell_formula_units_Z   4
loop_
 _symmetry_equiv_pos_site_id
 _symmetry_equiv_pos_as_xyz
  1  'x, y, z'
loop_
 _atom_site_type_symbol
 _atom_site_label
 _atom_site_symmetry_multiplicity
 _atom_site_fract_x
 _atom_site_fract_y
 _atom_site_fract_z
 _atom_site_occupancy
  Eu  Eu0  1  -0.00000000  -0.00000000  0.50000000  1
  Eu  Eu1  1  -0.00000000  -0.00000000  0.00000000  1
  Eu  Eu2  1  0.00002060  0.99997940  0.75000000  1
  Eu  Eu3  1  0.99997940  0.00002060  0.25000000  1
  Zn  Zn4  1  0.66669612  0.33330388  0.62531460  1
  Zn  Zn5  1  0.33330388  0.66669612  0.37468540  1
  Zn  Zn6  1  0.33330388  0.66669612  0.12531460  1
  Zn  Zn7  1  0.66669612  0.33330388  0.87468540  1
  Ge  Ge8  1  0.33328514  0.66671486  0.62401037  1
  Ge  Ge9  1  0.66671486  0.33328514  0.37598963  1
  Ge  Ge10  1  0.66671486  0.33328514  0.12401037  1
  Ge  Ge11  1  0.33328514  0.66671486  0.87598963  1
