# generated using pymatgen
data_U(Fe2Ge)2
_symmetry_space_group_name_H-M   'P 1'
_cell_length_a   4.05332793
_cell_length_b   7.06681147
_cell_length_c   7.06681147
_cell_angle_alpha   90.00000000
_cell_angle_beta   90.00000000
_cell_angle_gamma   90.00000000
_symmetry_Int_Tables_number   1
_chemical_formula_structural   U(Fe2Ge)2
_chemical_formula_sum   'U2 Fe8 Ge4'
_cell_volume   202.42248487
_cell_formula_units_Z   2
loop_
 _symmetry_equiv_pos_site_id
 _symmetry_equiv_pos_as_xyz
  1  'x, y, z'
loop_
 _atom_site_type_symbol
 _atom_site_label
 _atom_site_symmetry_multiplicity
 _atom_site_fract_x
 _atom_site_fract_y
 _atom_site_fract_z
 _atom_site_occupancy
  U  U0  1  0.00000000  0.50000000  0.50000000  1
  U  U1  1  0.50000000  -0.00000000  0.00000000  1
  Fe  Fe2  1  0.50000000  0.60466713  0.13591489  1
  Fe  Fe3  1  0.50000000  0.39533287  0.86408511  1
  Fe  Fe4  1  -0.00000000  0.89533287  0.63591489  1
  Fe  Fe5  1  0.00000000  0.10466713  0.36408511  1
  Fe  Fe6  1  0.50000000  0.13591489  0.60466713  1
  Fe  Fe7  1  0.50000000  0.86408511  0.39533287  1
  Fe  Fe8  1  -0.00000000  0.63591489  0.89533287  1
  Fe  Fe9  1  -0.00000000  0.36408511  0.10466713  1
  Ge  Ge10  1  0.50000000  0.28916912  0.28916912  1
  Ge  Ge11  1  0.50000000  0.71083088  0.71083088  1
  Ge  Ge12  1  -0.00000000  0.21083088  0.78916912  1
  Ge  Ge13  1  -0.00000000  0.78916912  0.21083088  1
