# generated using pymatgen
data_Tb5Pt3
_symmetry_space_group_name_H-M   'P 1'
_cell_length_a   6.29347057
_cell_length_b   8.45069043
_cell_length_c   8.45178013
_cell_angle_alpha   119.99573263
_cell_angle_beta   90.00000000
_cell_angle_gamma   90.00000000
_symmetry_Int_Tables_number   1
_chemical_formula_structural   Tb5Pt3
_chemical_formula_sum   'Tb10 Pt6'
_cell_volume   389.29595761
_cell_formula_units_Z   2
loop_
 _symmetry_equiv_pos_site_id
 _symmetry_equiv_pos_as_xyz
  1  'x, y, z'
loop_
 _atom_site_type_symbol
 _atom_site_label
 _atom_site_symmetry_multiplicity
 _atom_site_fract_x
 _atom_site_fract_y
 _atom_site_fract_z
 _atom_site_occupancy
  Tb  Tb0  1  0.50000055  0.33331320  0.66666844  1
  Tb  Tb1  1  0.50000055  0.66664476  0.33333156  1
  Tb  Tb2  1  0.00000055  0.66668680  0.33333156  1
  Tb  Tb3  1  0.00000055  0.33335524  0.66666844  1
  Tb  Tb4  1  0.75001354  0.24701576  1.00000000  1
  Tb  Tb5  1  0.74999312  0.75297249  0.75298081  1
  Tb  Tb6  1  0.74999312  -0.00000832  0.24701919  1
  Tb  Tb7  1  0.25001354  0.75298424  0.00000000  1
  Tb  Tb8  1  0.24999312  0.24702751  0.24701919  1
  Tb  Tb9  1  0.24999312  0.00000832  0.75298081  1
  Pt  Pt10  1  0.74999895  0.60604660  0.00000000  1
  Pt  Pt11  1  0.75000009  0.39394266  0.39394317  1
  Pt  Pt12  1  0.75000009  0.99999949  0.60605683  1
  Pt  Pt13  1  0.24999895  0.39395340  1.00000000  1
  Pt  Pt14  1  0.25000009  0.60605734  0.60605683  1
  Pt  Pt15  1  0.25000009  0.00000051  0.39394317  1
