# generated using pymatgen
data_UCo4B
_symmetry_space_group_name_H-M   'P 1'
_cell_length_a   4.87847713
_cell_length_b   4.87750973
_cell_length_c   6.90029452
_cell_angle_alpha   90.00000000
_cell_angle_beta   90.00000000
_cell_angle_gamma   120.00656606
_symmetry_Int_Tables_number   1
_chemical_formula_structural   UCo4B
_chemical_formula_sum   'U2 Co8 B2'
_cell_volume   142.18439641
_cell_formula_units_Z   2
loop_
 _symmetry_equiv_pos_site_id
 _symmetry_equiv_pos_as_xyz
  1  'x, y, z'
loop_
 _atom_site_type_symbol
 _atom_site_label
 _atom_site_symmetry_multiplicity
 _atom_site_fract_x
 _atom_site_fract_y
 _atom_site_fract_z
 _atom_site_occupancy
  U  U0  1  -0.00000062  0.00000000  0.00000000  1
  U  U1  1  0.99999459  1.00000000  0.50000000  1
  Co  Co2  1  0.33329678  0.66669010  -0.00000000  1
  Co  Co3  1  0.66660668  0.33330990  -0.00000000  1
  Co  Co4  1  0.49999954  0.00000000  0.28854046  1
  Co  Co5  1  0.49999730  0.50000233  0.28853119  1
  Co  Co6  1  0.99999497  0.49999767  0.28853119  1
  Co  Co7  1  0.49999954  0.00000000  0.71145954  1
  Co  Co8  1  0.49999730  0.50000233  0.71146881  1
  Co  Co9  1  0.99999497  0.49999767  0.71146881  1
  B  B10  1  0.33331882  0.66671871  0.50000000  1
  B  B11  1  0.66660011  0.33328129  0.50000000  1
