# generated using pymatgen
data_Nb3P
_symmetry_space_group_name_H-M   'P 1'
_cell_length_a   5.10481557
_cell_length_b   7.66544530
_cell_length_c   7.66544530
_cell_angle_alpha   83.63436405
_cell_angle_beta   70.55050563
_cell_angle_gamma   70.55050563
_symmetry_Int_Tables_number   1
_chemical_formula_structural   Nb3P
_chemical_formula_sum   'Nb12 P4'
_cell_volume   266.69734322
_cell_formula_units_Z   4
loop_
 _symmetry_equiv_pos_site_id
 _symmetry_equiv_pos_as_xyz
  1  'x, y, z'
loop_
 _atom_site_type_symbol
 _atom_site_label
 _atom_site_symmetry_multiplicity
 _atom_site_fract_x
 _atom_site_fract_y
 _atom_site_fract_z
 _atom_site_occupancy
  Nb  Nb0  1  0.65675997  0.18365724  0.01604568  1
  Nb  Nb1  1  0.85646290  0.81634276  0.98395432  1
  Nb  Nb2  1  0.15958278  0.98395432  0.18365724  1
  Nb  Nb3  1  0.32719435  0.01604568  0.81634276  1
  Nb  Nb4  1  0.99802986  0.37728933  0.66171003  1
  Nb  Nb5  1  0.03702921  0.62271067  0.33828997  1
  Nb  Nb6  1  0.62468082  0.33828997  0.37728933  1
  Nb  Nb7  1  0.34026012  0.66171003  0.62271067  1
  Nb  Nb8  1  0.03879030  0.40318099  0.03132032  1
  Nb  Nb9  1  0.47329161  0.59681901  0.96867968  1
  Nb  Nb10  1  0.55802871  0.96867968  0.40318099  1
  Nb  Nb11  1  0.92988938  0.03132032  0.59681901  1
  P  P12  1  0.48540642  0.32586288  0.73944888  1
  P  P13  1  0.55071818  0.67413712  0.26055112  1
  P  P14  1  0.18873070  0.26055112  0.32586288  1
  P  P15  1  0.77514470  0.73944888  0.67413712  1
