# generated using pymatgen
data_Pr2Co7
_symmetry_space_group_name_H-M   'P 1'
_cell_length_a   5.05035130
_cell_length_b   5.05035130
_cell_length_c   12.65243942
_cell_angle_alpha   78.48759373
_cell_angle_beta   78.48759373
_cell_angle_gamma   60.00000553
_symmetry_Int_Tables_number   1
_chemical_formula_structural   Pr2Co7
_chemical_formula_sum   'Pr4 Co14'
_cell_volume   271.95556406
_cell_formula_units_Z   2
loop_
 _symmetry_equiv_pos_site_id
 _symmetry_equiv_pos_as_xyz
  1  'x, y, z'
loop_
 _atom_site_type_symbol
 _atom_site_label
 _atom_site_symmetry_multiplicity
 _atom_site_fract_x
 _atom_site_fract_y
 _atom_site_fract_z
 _atom_site_occupancy
  Pr  Pr0  1  0.05119022  0.05119022  0.84642935  1
  Pr  Pr1  1  0.94880978  0.94880978  0.15357065  1
  Pr  Pr2  1  0.14819491  0.14819491  0.55541527  1
  Pr  Pr3  1  0.85180509  0.85180509  0.44458473  1
  Co  Co4  1  0.50000000  0.50000000  0.50000000  1
  Co  Co5  1  0.27895776  0.27895776  0.16312672  1
  Co  Co6  1  0.72104224  0.72104224  0.83687328  1
  Co  Co7  1  0.38685689  0.38685689  0.83942934  1
  Co  Co8  1  0.61314311  0.61314311  0.16057066  1
  Co  Co9  1  0.50000000  0.50000000  -0.00000000  1
  Co  Co10  1  0.50000000  0.00000000  -0.00000000  1
  Co  Co11  1  0.00000000  0.50000000  -0.00000000  1
  Co  Co12  1  0.11219149  0.60464433  0.67851986  1
  Co  Co13  1  0.60464433  0.60464433  0.67851986  1
  Co  Co14  1  0.60464433  0.11219149  0.67851986  1
  Co  Co15  1  0.88780851  0.39535567  0.32148014  1
  Co  Co16  1  0.39535567  0.39535567  0.32148014  1
  Co  Co17  1  0.39535567  0.88780851  0.32148014  1
