# generated using pymatgen
data_Cs2AsAuBr6
_symmetry_space_group_name_H-M   'P 1'
_cell_length_a   7.82539039
_cell_length_b   7.82539074
_cell_length_c   7.82539073
_cell_angle_alpha   59.99999880
_cell_angle_beta   59.99999824
_cell_angle_gamma   59.99999835
_symmetry_Int_Tables_number   1
_chemical_formula_structural   Cs2AsAuBr6
_chemical_formula_sum   'Cs2 As1 Au1 Br6'
_cell_volume   338.84654621
_cell_formula_units_Z   1
loop_
 _symmetry_equiv_pos_site_id
 _symmetry_equiv_pos_as_xyz
  1  'x, y, z'
loop_
 _atom_site_type_symbol
 _atom_site_label
 _atom_site_symmetry_multiplicity
 _atom_site_fract_x
 _atom_site_fract_y
 _atom_site_fract_z
 _atom_site_occupancy
  Cs  Cs0  1  0.25000000  0.25000000  0.25000000  1
  Cs  Cs1  1  0.75000000  0.75000000  0.75000000  1
  As  As2  1  0.00000000  0.00000000  -0.00000000  1
  Au  Au3  1  0.50000000  0.50000000  0.50000000  1
  Br  Br4  1  0.24439574  0.75560426  0.24439574  1
  Br  Br5  1  0.75560426  0.75560426  0.24439574  1
  Br  Br6  1  0.75560426  0.24439574  0.75560426  1
  Br  Br7  1  0.75560426  0.24439574  0.24439574  1
  Br  Br8  1  0.24439574  0.75560426  0.75560426  1
  Br  Br9  1  0.24439574  0.24439574  0.75560426  1
