# generated using pymatgen
data_Li3YBr6
_symmetry_space_group_name_H-M   'P 1'
_cell_length_a   6.93736933
_cell_length_b   6.93736910
_cell_length_c   13.40124710
_cell_angle_alpha   94.85309069
_cell_angle_beta   94.85308729
_cell_angle_gamma   119.50731536
_symmetry_Int_Tables_number   1
_chemical_formula_structural   Li3YBr6
_chemical_formula_sum   'Li6 Y2 Br12'
_cell_volume   553.33333945
_cell_formula_units_Z   2
loop_
 _symmetry_equiv_pos_site_id
 _symmetry_equiv_pos_as_xyz
  1  'x, y, z'
loop_
 _atom_site_type_symbol
 _atom_site_label
 _atom_site_symmetry_multiplicity
 _atom_site_fract_x
 _atom_site_fract_y
 _atom_site_fract_z
 _atom_site_occupancy
  Li  Li0  1  0.67940736  0.33976845  0.00054330  1
  Li  Li1  1  0.09242004  0.40757996  0.25000000  1
  Li  Li2  1  0.16023155  0.82059264  0.49945670  1
  Li  Li3  1  0.83976845  0.17940736  0.50054330  1
  Li  Li4  1  0.90757996  0.59242004  0.75000000  1
  Li  Li5  1  0.32059264  0.66023155  0.99945670  1
  Y  Y6  1  -0.00000000  -0.00000000  -0.00000000  1
  Y  Y7  1  0.50000000  0.50000000  0.50000000  1
  Br  Br8  1  0.36583968  0.37792432  0.11913188  1
  Br  Br9  1  0.71523195  0.05551572  0.12099461  1
  Br  Br10  1  0.04010434  0.70057264  0.11876921  1
  Br  Br11  1  0.79942736  0.45989566  0.38123079  1
  Br  Br12  1  0.44448428  0.78476805  0.37900539  1
  Br  Br13  1  0.12207568  0.13416032  0.38086812  1
  Br  Br14  1  0.87792432  0.86583968  0.61913188  1
  Br  Br15  1  0.20057264  0.54010434  0.61876921  1
  Br  Br16  1  0.55551572  0.21523195  0.62099461  1
  Br  Br17  1  0.95989566  0.29942736  0.88123079  1
  Br  Br18  1  0.28476805  0.94448428  0.87900539  1
  Br  Br19  1  0.63416032  0.62207568  0.88086812  1
