# generated using pymatgen
data_Li16(CoO4)3
_symmetry_space_group_name_H-M   'P 1'
_cell_length_a   6.54618168
_cell_length_b   6.53781061
_cell_length_c   14.02860669
_cell_angle_alpha   89.98814775
_cell_angle_beta   90.11377570
_cell_angle_gamma   88.81195989
_symmetry_Int_Tables_number   1
_chemical_formula_structural   Li16(CoO4)3
_chemical_formula_sum   'Li32 Co6 O24'
_cell_volume   600.26177838
_cell_formula_units_Z   2
loop_
 _symmetry_equiv_pos_site_id
 _symmetry_equiv_pos_as_xyz
  1  'x, y, z'
loop_
 _atom_site_type_symbol
 _atom_site_label
 _atom_site_symmetry_multiplicity
 _atom_site_fract_x
 _atom_site_fract_y
 _atom_site_fract_z
 _atom_site_occupancy
  Li  Li0  1  0.02902876  0.53561575  0.58816691  1
  Li  Li1  1  0.03721501  0.95428638  0.25914293  1
  Li  Li2  1  0.03878421  0.95587173  0.91505817  1
  Li  Li3  1  0.22186840  0.27109188  0.22867607  1
  Li  Li4  1  0.22903532  0.23125095  0.56728384  1
  Li  Li5  1  0.27303152  0.22131042  0.06189847  1
  Li  Li6  1  0.22503026  0.27070448  0.89590802  1
  Li  Li7  1  0.25013764  0.25177901  0.39564220  1
  Li  Li8  1  0.25067496  0.25187848  0.73098895  1
  Li  Li9  1  0.45533212  0.53753484  0.24601143  1
  Li  Li10  1  0.47586869  0.52642798  0.58341570  1
  Li  Li11  1  0.45338727  0.53683821  0.91089193  1
  Li  Li12  1  0.47694884  0.97491452  0.23906000  1
  Li  Li13  1  0.46737673  0.96946507  0.58116670  1
  Li  Li14  1  0.47383963  0.97777102  0.92517591  1
  Li  Li15  1  0.52734166  0.03316372  0.75162471  1
  Li  Li16  1  0.53574796  0.45527889  0.07671641  1
  Li  Li17  1  0.53173751  0.46173607  0.74594133  1
  Li  Li18  1  0.53426369  0.03435181  0.41011069  1
  Li  Li19  1  0.53807259  0.46372176  0.41694048  1
  Li  Li20  1  0.74269010  0.75334611  0.43774450  1
  Li  Li21  1  0.72250463  0.77373786  0.10402189  1
  Li  Li22  1  0.77277875  0.72412806  0.27098282  1
  Li  Li23  1  0.76867991  0.77260987  0.60130900  1
  Li  Li24  1  0.74403866  0.74770137  0.76988683  1
  Li  Li25  1  0.77185331  0.72458733  0.93722510  1
  Li  Li26  1  0.95605743  0.03554599  0.08920987  1
  Li  Li27  1  0.96769883  0.02830150  0.43380436  1
  Li  Li28  1  0.97965139  0.47844554  0.08225179  1
  Li  Li29  1  0.96794959  0.47682012  0.40972564  1
  Li  Li30  1  0.97417927  0.02716240  0.73574360  1
  Li  Li31  1  0.97904000  0.47553741  0.76305295  1
  Co  Co32  1  0.25407932  0.75453186  0.08276127  1
  Co  Co33  1  0.25153011  0.75055620  0.74942502  1
  Co  Co34  1  0.25311382  0.75228814  0.41730350  1
  Co  Co35  1  0.75738161  0.25659331  0.24856437  1
  Co  Co36  1  0.75764251  0.24383919  0.58433723  1
  Co  Co37  1  0.75535476  0.25425083  0.91740301  1
  O  O38  1  0.99906407  0.23751875  0.32234833  1
  O  O39  1  0.00794185  0.26999383  0.65881354  1
  O  O40  1  0.99904727  0.23377104  0.98897584  1
  O  O41  1  0.23598753  0.00075226  0.15569055  1
  O  O42  1  0.26570935  0.01300583  0.47502943  1
  O  O43  1  0.25303472  0.01293204  0.82158379  1
  O  O44  1  0.26435630  0.48816630  0.13843393  1
  O  O45  1  0.25379735  0.48983139  0.48235243  1
  O  O46  1  0.26456891  0.48831336  0.81158896  1
  O  O47  1  0.48476274  0.24525911  0.65169422  1
  O  O48  1  0.49078901  0.25732512  0.31150152  1
  O  O49  1  0.49301506  0.26105430  0.97429095  1
  O  O50  1  0.49997958  0.73811739  0.01255182  1
  O  O51  1  0.51482631  0.75312257  0.68007447  1
  O  O52  1  0.50753140  0.74616726  0.34347270  1
  O  O53  1  0.72797100  0.99336087  0.50944361  1
  O  O54  1  0.76332729  0.99106545  0.19446744  1
  O  O55  1  0.75325754  0.99084915  0.85304020  1
  O  O56  1  0.75259381  0.51248563  0.51147678  1
  O  O57  1  0.73563707  0.49832292  0.17785205  1
  O  O58  1  0.73498523  0.50038145  0.84793786  1
  O  O59  1  0.98801114  0.76510402  0.02794435  1
  O  O60  1  0.98999316  0.75894501  0.35982177  1
  O  O61  1  0.98300549  0.74133887  0.69170685  1
