# generated using pymatgen
data_Li5GeP3
_symmetry_space_group_name_H-M   'P 1'
_cell_length_a   8.34013066
_cell_length_b   12.43687736
_cell_length_c   10.19366363
_cell_angle_alpha   35.01742011
_cell_angle_beta   35.09816084
_cell_angle_gamma   59.72168630
_symmetry_Int_Tables_number   1
_chemical_formula_structural   Li5GeP3
_chemical_formula_sum   'Li10 Ge2 P6'
_cell_volume   301.57183674
_cell_formula_units_Z   2
loop_
 _symmetry_equiv_pos_site_id
 _symmetry_equiv_pos_as_xyz
  1  'x, y, z'
loop_
 _atom_site_type_symbol
 _atom_site_label
 _atom_site_symmetry_multiplicity
 _atom_site_fract_x
 _atom_site_fract_y
 _atom_site_fract_z
 _atom_site_occupancy
  Li  Li0  1  0.99801794  0.33189944  0.24996802  1
  Li  Li1  1  0.50916867  0.33693333  0.24261369  1
  Li  Li2  1  0.00634671  0.00143356  0.24566734  1
  Li  Li3  1  0.49480294  0.99639967  0.25341469  1
  Li  Li4  1  0.50519706  0.33693333  0.74658531  1
  Li  Li5  1  0.00429403  0.66666700  0.24570597  1
  Li  Li6  1  0.99365329  0.33189944  0.75433266  1
  Li  Li7  1  0.49083133  0.99639967  0.75738631  1
  Li  Li8  1  0.99570597  0.66666700  0.75429403  1
  Li  Li9  1  0.00198206  0.00143356  0.75003198  1
  Ge  Ge10  1  0.48310191  0.66666700  0.26689809  1
  Ge  Ge11  1  0.51689809  0.66666700  0.73310191  1
  P  P12  1  0.96518869  0.98422017  0.04380347  1
  P  P13  1  0.03481131  0.34911283  0.95619653  1
  P  P14  1  0.50545613  0.98422017  0.00353603  1
  P  P15  1  -0.00000000  0.66666700  -0.00000000  1
  P  P16  1  0.49454387  0.34911283  0.99646397  1
  P  P17  1  0.50000000  0.66666700  -0.00000000  1
