# generated using pymatgen
data_P2S3
_symmetry_space_group_name_H-M   'P 1'
_cell_length_a   4.63098608
_cell_length_b   10.47886344
_cell_length_c   10.71711548
_cell_angle_alpha   90.00000000
_cell_angle_beta   89.46552683
_cell_angle_gamma   90.00000000
_symmetry_Int_Tables_number   1
_chemical_formula_structural   P2S3
_chemical_formula_sum   'P8 S12'
_cell_volume   520.05188016
_cell_formula_units_Z   4
loop_
 _symmetry_equiv_pos_site_id
 _symmetry_equiv_pos_as_xyz
  1  'x, y, z'
loop_
 _atom_site_type_symbol
 _atom_site_label
 _atom_site_symmetry_multiplicity
 _atom_site_fract_x
 _atom_site_fract_y
 _atom_site_fract_z
 _atom_site_occupancy
  P  P0  1  0.39140761  0.19889034  0.72847994  1
  P  P1  1  0.60859239  0.80110966  0.27152006  1
  P  P2  1  0.10859239  0.69889034  0.77152006  1
  P  P3  1  0.89140761  0.30110966  0.22847994  1
  P  P4  1  0.88969530  0.31323915  0.51985613  1
  P  P5  1  0.11030470  0.68676085  0.48014387  1
  P  P6  1  0.61030470  0.81323915  0.98014387  1
  P  P7  1  0.38969530  0.18676085  0.01985613  1
  S  S8  1  0.07215630  0.14194869  0.59720105  1
  S  S9  1  0.92784370  0.85805131  0.40279895  1
  S  S10  1  0.42784370  0.64194869  0.90279895  1
  S  S11  1  0.57215630  0.35805131  0.09720105  1
  S  S12  1  0.57072607  0.37310713  0.65354807  1
  S  S13  1  0.42927393  0.62689287  0.34645193  1
  S  S14  1  0.92927393  0.87310713  0.84645193  1
  S  S15  1  0.07072607  0.12689287  0.15354807  1
  S  S16  1  0.14560591  0.28449210  0.87809603  1
  S  S17  1  0.85439409  0.71550790  0.12190397  1
  S  S18  1  0.35439409  0.78449210  0.62190397  1
  S  S19  1  0.64560591  0.21550790  0.37809603  1
