# generated using pymatgen
data_SrLi3La11(CoO8)3
_symmetry_space_group_name_H-M   'P 1'
_cell_length_a   10.70331021
_cell_length_b   7.56233158
_cell_length_c   21.66729594
_cell_angle_alpha   95.01063105
_cell_angle_beta   75.70039761
_cell_angle_gamma   44.95412970
_symmetry_Int_Tables_number   1
_chemical_formula_structural   SrLi3La11(CoO8)3
_chemical_formula_sum   'Sr2 Li6 La22 Co6 O48'
_cell_volume   1109.24290162
_cell_formula_units_Z   2
loop_
 _symmetry_equiv_pos_site_id
 _symmetry_equiv_pos_as_xyz
  1  'x, y, z'
loop_
 _atom_site_type_symbol
 _atom_site_label
 _atom_site_symmetry_multiplicity
 _atom_site_fract_x
 _atom_site_fract_y
 _atom_site_fract_z
 _atom_site_occupancy
  Sr  Sr0  1  0.05215658  0.63636519  0.75932265  1
  Sr  Sr1  1  0.94784342  0.36363481  0.24067735  1
  Li  Li2  1  0.08528884  0.49646933  0.33105779  1
  Li  Li3  1  0.24968123  0.50000000  0.00000000  1
  Li  Li4  1  0.41281695  0.50353067  0.66894221  1
  Li  Li5  1  0.58718305  0.49646933  0.33105779  1
  Li  Li6  1  0.75031877  0.50000000  1.00000000  1
  Li  Li7  1  0.91471116  0.50353067  0.66894221  1
  La  La8  1  0.21948707  0.13925141  0.42550143  1
  La  La9  1  0.38314068  0.14056507  0.09260647  1
  La  La10  1  0.05397299  0.13869070  0.75810127  1
  La  La11  1  0.45197419  0.35588846  0.24016215  1
  La  La12  1  0.22268290  0.63091645  0.42371675  1
  La  La13  1  0.38233795  0.64397143  0.09135268  1
  La  La14  1  0.27931965  0.36332686  0.57803484  1
  La  La15  1  0.11390868  0.36367301  0.90850963  1
  La  La16  1  0.88368778  0.14056507  0.09260647  1
  La  La17  1  0.45076396  0.86130930  0.24189873  1
  La  La18  1  0.71575909  0.13925141  0.42550143  1
  La  La19  1  0.28424091  0.86074859  0.57449857  1
  La  La20  1  0.54923604  0.13869070  0.75810127  1
  La  La21  1  0.11631222  0.85943493  0.90739353  1
  La  La22  1  0.88609132  0.63632699  0.09149037  1
  La  La23  1  0.77731710  0.36908355  0.57628325  1
  La  La24  1  0.54802581  0.64411154  0.75983785  1
  La  La25  1  0.72068035  0.63667314  0.42196516  1
  La  La26  1  0.61766205  0.35602857  0.90864732  1
  La  La27  1  0.78051293  0.86074859  0.57449857  1
  La  La28  1  0.94602701  0.86130930  0.24189873  1
  La  La29  1  0.61685932  0.85943493  0.90739353  1
  Co  Co30  1  0.25119305  0.99831005  0.99930385  1
  Co  Co31  1  0.08351758  0.99922822  0.33373561  1
  Co  Co32  1  0.58261859  0.00113516  0.33362666  1
  Co  Co33  1  0.74880695  0.00168995  0.00069615  1
  Co  Co34  1  0.41738141  0.99886484  0.66637334  1
  Co  Co35  1  0.91648242  0.00077178  0.66626439  1
  O  O36  1  0.00590764  0.24413384  0.99885557  1
  O  O37  1  0.10954175  0.16582335  0.11509415  1
  O  O38  1  0.25110295  0.24413384  0.99885557  1
  O  O39  1  0.08399934  0.24225517  0.33539825  1
  O  O40  1  0.24327581  0.31975869  0.21229807  1
  O  O41  1  0.10130085  0.68024572  0.12139811  1
  O  O42  1  0.06325696  0.32024283  0.54579725  1
  O  O43  1  0.25528321  0.74850874  0.99873991  1
  O  O44  1  0.50253187  0.25149126  0.00126009  1
  O  O45  1  0.08440251  0.75550452  0.33440717  1
  O  O46  1  0.33614956  0.24995105  0.33465035  1
  O  O47  1  0.17504566  0.23835858  0.66434851  1
  O  O48  1  0.60050358  0.18015656  0.11883728  1
  O  O49  1  0.22104046  0.83162937  0.22629071  1
  O  O50  1  0.27349667  0.16641758  0.78658809  1
  O  O51  1  0.42830107  0.18841583  0.45498204  1
  O  O52  1  0.05006914  0.84216258  0.55769913  1
  O  O53  1  0.74471679  0.25149126  0.00126009  1
  O  O54  1  0.49746813  0.74850874  0.99873991  1
  O  O55  1  0.42224824  0.23835858  0.66434851  1
  O  O56  1  0.57924804  0.24995105  0.33465035  1
  O  O57  1  0.16165376  0.75774483  0.66460175  1
  O  O58  1  0.32568480  0.75550452  0.33440717  1
  O  O59  1  0.27533157  0.68024131  0.78770193  1
  O  O60  1  0.72466843  0.31975869  0.21229807  1
  O  O61  1  0.57070295  0.32024283  0.54579725  1
  O  O62  1  0.59705632  0.68024572  0.12139811  1
  O  O63  1  0.40294368  0.31975428  0.87860189  1
  O  O64  1  0.42929705  0.67975717  0.45420275  1
  O  O65  1  0.83834624  0.24225517  0.33539825  1
  O  O66  1  0.42075196  0.75004895  0.66534965  1
  O  O67  1  0.57775176  0.76164142  0.33565149  1
  O  O68  1  0.74889705  0.75586616  0.00114443  1
  O  O69  1  0.67431520  0.24449548  0.66559283  1
  O  O70  1  0.77895954  0.16837063  0.77370929  1
  O  O71  1  0.94993086  0.15783742  0.44230087  1
  O  O72  1  0.39949642  0.81984344  0.88116272  1
  O  O73  1  0.57169893  0.81158417  0.54501796  1
  O  O74  1  0.72650333  0.83358242  0.21341191  1
  O  O75  1  0.91559749  0.24449548  0.66559283  1
  O  O76  1  0.66385044  0.75004895  0.66534965  1
  O  O77  1  0.82495434  0.76164142  0.33565149  1
  O  O78  1  0.99409236  0.75586616  0.00114443  1
  O  O79  1  0.75672419  0.68024131  0.78770193  1
  O  O80  1  0.89869915  0.31975428  0.87860189  1
  O  O81  1  0.93674304  0.67975717  0.45420275  1
  O  O82  1  0.91600066  0.75774483  0.66460175  1
  O  O83  1  0.89045825  0.83417665  0.88490585  1
