# generated using pymatgen
data_MnFeCo(PO4)3
_symmetry_space_group_name_H-M   'P 1'
_cell_length_a   9.88983502
_cell_length_b   5.96220257
_cell_length_c   14.60488772
_cell_angle_alpha   90.00000000
_cell_angle_beta   90.20023410
_cell_angle_gamma   90.00000000
_symmetry_Int_Tables_number   1
_chemical_formula_structural   MnFeCo(PO4)3
_chemical_formula_sum   'Mn4 Fe4 Co4 P12 O48'
_cell_volume   861.17486382
_cell_formula_units_Z   4
loop_
 _symmetry_equiv_pos_site_id
 _symmetry_equiv_pos_as_xyz
  1  'x, y, z'
loop_
 _atom_site_type_symbol
 _atom_site_label
 _atom_site_symmetry_multiplicity
 _atom_site_fract_x
 _atom_site_fract_y
 _atom_site_fract_z
 _atom_site_occupancy
  Mn  Mn0  1  0.21384029  0.75000000  0.47935433  1
  Mn  Mn1  1  0.21734603  0.75000000  0.14632560  1
  Mn  Mn2  1  0.28370712  0.25000000  0.31291129  1
  Mn  Mn3  1  0.71754170  0.75000000  0.02001780  1
  Fe  Fe4  1  0.22340118  0.75000000  0.81837983  1
  Fe  Fe5  1  0.27975925  0.25000000  0.65312410  1
  Fe  Fe6  1  0.27592521  0.25000000  0.98622117  1
  Fe  Fe7  1  0.72220826  0.75000000  0.34926105  1
  Co  Co8  1  0.72832270  0.75000000  0.67552750  1
  Co  Co9  1  0.77539910  0.25000000  0.51440712  1
  Co  Co10  1  0.78101458  0.25000000  0.84785946  1
  Co  Co11  1  0.77715633  0.25000000  0.18380923  1
  P  P12  1  0.09596737  0.25000000  0.47183511  1
  P  P13  1  0.09635328  0.25000000  0.13797628  1
  P  P14  1  0.09757375  0.25000000  0.80299493  1
  P  P15  1  0.40068135  0.75000000  0.97293927  1
  P  P16  1  0.40329477  0.75000000  0.63862151  1
  P  P17  1  0.39936611  0.75000000  0.30518977  1
  P  P18  1  0.59880319  0.25000000  0.02916611  1
  P  P19  1  0.59761943  0.25000000  0.36198989  1
  P  P20  1  0.60378570  0.25000000  0.69879974  1
  P  P21  1  0.90075949  0.75000000  0.19317273  1
  P  P22  1  0.90271837  0.75000000  0.53052653  1
  P  P23  1  0.89909766  0.75000000  0.85892985  1
  O  O24  1  0.05242327  0.75000000  0.21516837  1
  O  O25  1  0.05519387  0.75000000  0.55224999  1
  O  O26  1  0.05080645  0.75000000  0.88044503  1
  O  O27  1  0.11971937  0.25000000  0.24177605  1
  O  O28  1  0.12134916  0.25000000  0.57481316  1
  O  O29  1  0.12024787  0.25000000  0.90699983  1
  O  O30  1  0.16556379  0.04788600  0.42198070  1
  O  O31  1  0.16556379  0.45211400  0.42198070  1
  O  O32  1  0.17093952  0.05041202  0.08803347  1
  O  O33  1  0.17093952  0.44958798  0.08803347  1
  O  O34  1  0.17421359  0.04859834  0.75591215  1
  O  O35  1  0.17421359  0.45140166  0.75591215  1
  O  O36  1  0.32772175  0.54877290  0.92441536  1
  O  O37  1  0.32772175  0.95122710  0.92441536  1
  O  O38  1  0.33313258  0.54552196  0.59111381  1
  O  O39  1  0.33313258  0.95447804  0.59111381  1
  O  O40  1  0.32699702  0.54850291  0.25609632  1
  O  O41  1  0.32699702  0.95149709  0.25609632  1
  O  O42  1  0.38005499  0.75000000  0.07758628  1
  O  O43  1  0.38127936  0.75000000  0.74262686  1
  O  O44  1  0.37722984  0.75000000  0.40924734  1
  O  O45  1  0.44732594  0.25000000  0.05139153  1
  O  O46  1  0.44565222  0.25000000  0.38498048  1
  O  O47  1  0.45181672  0.25000000  0.71568187  1
  O  O48  1  0.55271134  0.75000000  0.95298921  1
  O  O49  1  0.55778916  0.75000000  0.61974334  1
  O  O50  1  0.55112185  0.75000000  0.28531949  1
  O  O51  1  0.61627803  0.25000000  0.25754773  1
  O  O52  1  0.61948599  0.25000000  0.92612423  1
  O  O53  1  0.62908996  0.25000000  0.59353779  1
  O  O54  1  0.67289768  0.05022212  0.08022852  1
  O  O55  1  0.67289768  0.44977788  0.08022852  1
  O  O56  1  0.67070756  0.04689648  0.40992411  1
  O  O57  1  0.67070756  0.45310352  0.40992411  1
  O  O58  1  0.67430705  0.04788387  0.74727257  1
  O  O59  1  0.67430705  0.45211613  0.74727257  1
  O  O60  1  0.82717546  0.54799025  0.24181496  1
  O  O61  1  0.82717546  0.95200975  0.24181496  1
  O  O62  1  0.83119348  0.54807337  0.57928564  1
  O  O63  1  0.83119348  0.95192663  0.57928564  1
  O  O64  1  0.82731470  0.54513496  0.90639776  1
  O  O65  1  0.82731470  0.95486504  0.90639776  1
  O  O66  1  0.88008820  0.75000000  0.42649427  1
  O  O67  1  0.87812018  0.75000000  0.75460647  1
  O  O68  1  0.88170534  0.75000000  0.08868371  1
  O  O69  1  0.94163400  0.25000000  0.45269992  1
  O  O70  1  0.94563013  0.25000000  0.11607048  1
  O  O71  1  0.94768319  0.25000000  0.77834065  1
