# generated using pymatgen
data_Mn2V3Co(PO4)6
_symmetry_space_group_name_H-M   'P 1'
_cell_length_a   8.58394809
_cell_length_b   8.59901715
_cell_length_c   8.59901686
_cell_angle_alpha   60.00000048
_cell_angle_beta   59.94190998
_cell_angle_gamma   59.94191053
_symmetry_Int_Tables_number   1
_chemical_formula_structural   Mn2V3Co(PO4)6
_chemical_formula_sum   'Mn2 V3 Co1 P6 O24'
_cell_volume   448.42293991
_cell_formula_units_Z   1
loop_
 _symmetry_equiv_pos_site_id
 _symmetry_equiv_pos_as_xyz
  1  'x, y, z'
loop_
 _atom_site_type_symbol
 _atom_site_label
 _atom_site_symmetry_multiplicity
 _atom_site_fract_x
 _atom_site_fract_y
 _atom_site_fract_z
 _atom_site_occupancy
  Mn  Mn0  1  0.99199630  0.00266823  0.00266823  1
  Mn  Mn1  1  0.49892262  0.50035946  0.50035946  1
  V  V2  1  0.06644987  0.64451704  0.64451704  1
  V  V3  1  0.43090325  0.85636592  0.85636592  1
  V  V4  1  0.93162241  0.35612553  0.35612553  1
  Co  Co5  1  0.56220021  0.14593360  0.14593360  1
  P  P6  1  0.25241733  0.24884430  0.54157754  1
  P  P7  1  0.25241733  0.95716184  0.24884430  1
  P  P8  1  0.25241733  0.54157754  0.95716184  1
  P  P9  1  0.74967986  0.45808209  0.04038456  1
  P  P10  1  0.74967986  0.04038456  0.75185349  1
  P  P11  1  0.74967986  0.75185349  0.45808209  1
  O  O12  1  0.06906236  0.11971672  0.30220391  1
  O  O13  1  0.06906236  0.50901701  0.11971672  1
  O  O14  1  0.06906236  0.30220391  0.50901701  1
  O  O15  1  0.24108001  0.08493803  0.73808006  1
  O  O16  1  0.43547413  0.19551364  0.38334712  1
  O  O17  1  0.25720291  0.41610577  0.56398014  1
  O  O18  1  0.24108001  0.93590290  0.08493803  1
  O  O19  1  0.25720291  0.76271118  0.41610577  1
  O  O20  1  0.56808652  0.62000976  0.00116815  1
  O  O21  1  0.25720291  0.56398014  0.76271118  1
  O  O22  1  0.76638309  0.26726253  0.05177577  1
  O  O23  1  0.56808652  0.00116815  0.81073557  1
  O  O24  1  0.43547413  0.98566512  0.19551364  1
  O  O25  1  0.24108001  0.73808006  0.93590290  1
  O  O26  1  0.73526031  0.44617829  0.23384052  1
  O  O27  1  0.43547413  0.38334712  0.98566512  1
  O  O28  1  0.73526031  0.23384052  0.58472188  1
  O  O29  1  0.76638309  0.05177577  0.91457861  1
  O  O30  1  0.73526031  0.58472188  0.44617829  1
  O  O31  1  0.56808652  0.81073557  0.62000976  1
  O  O32  1  0.76638309  0.91457861  0.26726253  1
  O  O33  1  0.93132227  0.68709939  0.50062175  1
  O  O34  1  0.93132227  0.50062175  0.88095659  1
  O  O35  1  0.93132227  0.88095659  0.68709939  1
