# generated using pymatgen
data_Na6Np2H10S4O25
_symmetry_space_group_name_H-M   'P 1'
_cell_length_a   7.10548785
_cell_length_b   7.93815786
_cell_length_c   10.81729193
_cell_angle_alpha   89.05253223
_cell_angle_beta   90.08499662
_cell_angle_gamma   90.29444212
_symmetry_Int_Tables_number   1
_chemical_formula_structural   Na6Np2H10S4O25
_chemical_formula_sum   'Na6 Np2 H10 S4 O25'
_cell_volume   610.05169769
_cell_formula_units_Z   1
loop_
 _symmetry_equiv_pos_site_id
 _symmetry_equiv_pos_as_xyz
  1  'x, y, z'
loop_
 _atom_site_type_symbol
 _atom_site_label
 _atom_site_symmetry_multiplicity
 _atom_site_fract_x
 _atom_site_fract_y
 _atom_site_fract_z
 _atom_site_occupancy
  Na  Na0  1  0.00175855  0.99947510  0.49888336  1
  Na  Na1  1  0.25228311  0.99597956  0.77884751  1
  Na  Na2  1  0.44873599  0.68242622  0.04914213  1
  Na  Na3  1  0.50235256  0.00056302  0.50007222  1
  Na  Na4  1  0.75201926  0.01136723  0.21967779  1
  Na  Na5  1  0.96568244  0.30326634  0.96817315  1
  Np  Np6  1  0.25303940  0.36397768  0.30933917  1
  Np  Np7  1  0.75269682  0.63315999  0.69005598  1
  H  H8  1  0.98152667  0.71559405  0.33019542  1
  H  H9  1  0.08593448  0.84575106  0.24524776  1
  H  H10  1  0.40268173  0.85289845  0.25632885  1
  H  H11  1  0.50641912  0.71610276  0.33685046  1
  H  H12  1  0.48653054  0.28330980  0.66991920  1
  H  H13  1  0.58798178  0.15375799  0.75573970  1
  H  H14  1  0.71176693  0.48044587  0.96686764  1
  H  H15  1  0.79290898  0.58900931  0.07344540  1
  H  H16  1  0.90153564  0.14633065  0.74687225  1
  H  H17  1  0.00238582  0.28288275  0.66451774  1
  S  S18  1  0.25294748  0.63904529  0.59789218  1
  S  S19  1  0.25301985  0.08869136  0.09987336  1
  S  S20  1  0.75285313  0.36194031  0.40603612  1
  S  S21  1  0.74951218  0.90353230  0.90359537  1
  O  O22  1  0.00823985  0.16446246  0.68977182  1
  O  O23  1  0.08143403  0.16344457  0.16153266  1
  O  O24  1  0.08243572  0.57116374  0.66255487  1
  O  O25  1  0.25585195  0.58195668  0.46800816  1
  O  O26  1  0.25247281  0.82644625  0.59950759  1
  O  O27  1  0.25151596  0.19386191  0.42929432  1
  O  O28  1  0.25330603  0.52687548  0.18510964  1
  O  O29  1  0.24525011  0.13193384  0.96702514  1
  O  O30  1  0.25423370  0.90228567  0.12015453  1
  O  O31  1  0.42048732  0.57227976  0.66602020  1
  O  O32  1  0.41991227  0.16502762  0.16282974  1
  O  O33  1  0.49577650  0.16263832  0.68793740  1
  O  O34  1  0.51142467  0.83482450  0.31169622  1
  O  O35  1  0.57696948  0.82886883  0.84265922  1
  O  O36  1  0.58230837  0.43048345  0.34341590  1
  O  O37  1  0.72427981  0.48415203  0.05854592  1
  O  O38  1  0.75215743  0.17464015  0.40237017  1
  O  O39  1  0.75548627  0.41528543  0.53732960  1
  O  O40  1  0.75470402  0.08989288  0.88488218  1
  O  O41  1  0.75903766  0.46487727  0.81284582  1
  O  O42  1  0.74999627  0.80381295  0.57099403  1
  O  O43  1  0.74496592  0.85864435  0.03691192  1
  O  O44  1  0.92191169  0.43102471  0.34058613  1
  O  O45  1  0.91527945  0.82665952  0.84031008  1
  O  O46  1  0.99159023  0.83595056  0.31213399  1
