# generated using pymatgen
data_Li4Mn3O7
_symmetry_space_group_name_H-M   'P 1'
_cell_length_a   5.09128947
_cell_length_b   8.78273000
_cell_length_c   5.98737993
_cell_angle_alpha   90.61717204
_cell_angle_beta   76.61469169
_cell_angle_gamma   93.96479935
_symmetry_Int_Tables_number   1
_chemical_formula_structural   Li4Mn3O7
_chemical_formula_sum   'Li8 Mn6 O14'
_cell_volume   259.82832466
_cell_formula_units_Z   2
loop_
 _symmetry_equiv_pos_site_id
 _symmetry_equiv_pos_as_xyz
  1  'x, y, z'
loop_
 _atom_site_type_symbol
 _atom_site_label
 _atom_site_symmetry_multiplicity
 _atom_site_fract_x
 _atom_site_fract_y
 _atom_site_fract_z
 _atom_site_occupancy
  Li  Li0  1  0.57142746  0.14285343  0.35714159  1
  Li  Li1  1  0.15195203  0.28156276  0.20944619  1
  Li  Li2  1  0.99090920  0.00415032  0.50485255  1
  Li  Li3  1  0.42962662  0.86167394  0.65305045  1
  Li  Li4  1  0.71324691  0.42403847  0.06123334  1
  Li  Li5  1  0.28637681  0.56703195  0.92737724  1
  Li  Li6  1  0.85647745  0.71868927  0.78690572  1
  Li  Li7  1  0.57142382  0.14285508  0.85713948  1
  Mn  Mn8  1  0.00666699  0.00364889  0.98583406  1
  Mn  Mn9  1  0.13622305  0.28207673  0.72841279  1
  Mn  Mn10  1  0.70567176  0.42287861  0.58411005  1
  Mn  Mn11  1  0.28120568  0.56939164  0.43115583  1
  Mn  Mn12  1  0.86164407  0.71630612  0.28313962  1
  Mn  Mn13  1  0.43719053  0.86283639  0.13016582  1
  O  O14  1  0.88900245  0.20963349  0.01039417  1
  O  O15  1  0.40351873  0.35017902  0.88815624  1
  O  O16  1  0.27637878  0.05600027  0.17133464  1
  O  O17  1  0.73840816  0.93052009  0.28406322  1
  O  O18  1  0.98624059  0.48234591  0.75344557  1
  O  O19  1  0.55946551  0.62855949  0.59968736  1
  O  O20  1  0.13604337  0.77160276  0.45675011  1
  O  O21  1  0.25384528  0.07608405  0.70391310  1
  O  O22  1  0.86649142  0.22971721  0.54293695  1
  O  O23  1  0.73933766  0.93553390  0.82615493  1
  O  O24  1  0.15661476  0.80336579  0.96082697  1
  O  O25  1  0.40444882  0.35520048  0.43023033  1
  O  O26  1  0.00679213  0.51411125  0.25752614  1
  O  O27  1  0.58336997  0.65715269  0.11461555  1
