# generated using pymatgen
data_Li4Mn3O7
_symmetry_space_group_name_H-M   'P 1'
_cell_length_a   6.54148844
_cell_length_b   6.50858727
_cell_length_c   6.92512474
_cell_angle_alpha   71.52197111
_cell_angle_beta   106.23168682
_cell_angle_gamma   107.80676456
_symmetry_Int_Tables_number   1
_chemical_formula_structural   Li4Mn3O7
_chemical_formula_sum   'Li8 Mn6 O14'
_cell_volume   260.74558658
_cell_formula_units_Z   2
loop_
 _symmetry_equiv_pos_site_id
 _symmetry_equiv_pos_as_xyz
  1  'x, y, z'
loop_
 _atom_site_type_symbol
 _atom_site_label
 _atom_site_symmetry_multiplicity
 _atom_site_fract_x
 _atom_site_fract_y
 _atom_site_fract_z
 _atom_site_occupancy
  Li  Li0  1  0.78834272  0.92605204  0.36451993  1
  Li  Li1  1  0.64022828  0.21680496  0.92119407  1
  Li  Li2  1  0.50536694  0.50677789  0.49195472  1
  Li  Li3  1  0.92320406  0.63607911  0.79375928  1
  Li  Li4  1  0.06980030  0.36910630  0.21725176  1
  Li  Li5  1  0.21428600  0.07142900  0.64285700  1
  Li  Li6  1  0.35877170  0.77375070  0.06846324  1
  Li  Li7  1  0.71428600  0.57142900  0.14285700  1
  Mn  Mn8  1  0.00017697  0.99285200  0.99645076  1
  Mn  Mn9  1  0.42839403  0.15000500  0.28926324  1
  Mn  Mn10  1  0.85296938  0.28717429  0.56293318  1
  Mn  Mn11  1  0.57560262  0.85568271  0.72278182  1
  Mn  Mn12  1  0.29365138  0.43114888  0.86523644  1
  Mn  Mn13  1  0.13491962  0.71170812  0.42047756  1
  O  O14  1  0.68536986  0.89560624  0.00318600  1
  O  O15  1  0.55669674  0.17009275  0.61940713  1
  O  O16  1  0.38886498  0.44598034  0.18756572  1
  O  O17  1  0.83563870  0.59377014  0.47534553  1
  O  O18  1  0.96994371  0.31126703  0.86401305  1
  O  O19  1  0.11713293  0.02215436  0.32876893  1
  O  O20  1  0.27754998  0.74504304  0.76273622  1
  O  O21  1  0.87187426  0.97276425  0.66630687  1
  O  O22  1  0.74320114  0.24725076  0.28252800  1
  O  O23  1  0.59293230  0.54908686  0.81036847  1
  O  O24  1  0.03970702  0.69687666  0.09814928  1
  O  O25  1  0.15102202  0.39781496  0.52297778  1
  O  O26  1  0.31143907  0.12070264  0.95694607  1
  O  O27  1  0.45862729  0.83158997  0.42170095  1
