# generated using pymatgen
data_Li2MnCoO4
_symmetry_space_group_name_H-M   'P 1'
_cell_length_a   5.13350656
_cell_length_b   5.95264050
_cell_length_c   5.05992893
_cell_angle_alpha   89.93188761
_cell_angle_beta   99.37728336
_cell_angle_gamma   107.12827879
_symmetry_Int_Tables_number   1
_chemical_formula_structural   Li2MnCoO4
_chemical_formula_sum   'Li4 Mn2 Co2 O8'
_cell_volume   145.60885710
_cell_formula_units_Z   2
loop_
 _symmetry_equiv_pos_site_id
 _symmetry_equiv_pos_as_xyz
  1  'x, y, z'
loop_
 _atom_site_type_symbol
 _atom_site_label
 _atom_site_symmetry_multiplicity
 _atom_site_fract_x
 _atom_site_fract_y
 _atom_site_fract_z
 _atom_site_occupancy
  Li  Li0  1  0.49804205  0.37101272  0.24634131  1
  Li  Li1  1  0.50000000  0.62500000  0.75000000  1
  Li  Li2  1  0.50195795  0.87898728  0.25365869  1
  Li  Li3  1  0.50000000  0.12500000  0.75000000  1
  Mn  Mn4  1  0.99920802  0.49866321  -0.00055473  1
  Mn  Mn5  1  0.00079198  0.75133679  0.50055473  1
  Co  Co6  1  0.00055450  0.00545473  0.00017881  1
  Co  Co7  1  0.99944550  0.24454527  0.49982119  1
  O  O8  1  0.22141128  0.57026464  0.35580020  1
  O  O9  1  0.22479187  0.79028898  0.85823181  1
  O  O10  1  0.23618228  0.03893773  0.38674117  1
  O  O11  1  0.23123257  0.33005302  0.88510780  1
  O  O12  1  0.76381772  0.21106227  0.11325883  1
  O  O13  1  0.77520813  0.45971102  0.64176819  1
  O  O14  1  0.77858872  0.67973536  0.14419980  1
  O  O15  1  0.76876743  0.91994698  0.61489220  1
