# generated using pymatgen
data_Sr18La2MgRu9O40
_symmetry_space_group_name_H-M   'P 1'
_cell_length_a   3.95694562
_cell_length_b   3.95694563
_cell_length_c   69.32449472
_cell_angle_alpha   106.51151102
_cell_angle_beta   106.51151270
_cell_angle_gamma   89.95739359
_symmetry_Int_Tables_number   1
_chemical_formula_structural   Sr18La2MgRu9O40
_chemical_formula_sum   'Sr18 La2 Mg1 Ru9 O40'
_cell_volume   993.97818805
_cell_formula_units_Z   1
loop_
 _symmetry_equiv_pos_site_id
 _symmetry_equiv_pos_as_xyz
  1  'x, y, z'
loop_
 _atom_site_type_symbol
 _atom_site_label
 _atom_site_symmetry_multiplicity
 _atom_site_fract_x
 _atom_site_fract_y
 _atom_site_fract_z
 _atom_site_occupancy
  Sr  Sr0  1  0.36243784  0.36243784  0.97141176  1
  Sr  Sr1  1  0.35488498  0.35488498  0.77112733  1
  Sr  Sr2  1  0.63756216  0.63756216  0.82858824  1
  Sr  Sr3  1  0.35726255  0.35726255  0.67098096  1
  Sr  Sr4  1  0.64437730  0.64437730  0.72898885  1
  Sr  Sr5  1  0.35779842  0.35779843  0.57095867  1
  Sr  Sr6  1  0.64169909  0.64169909  0.62878206  1
  Sr  Sr7  1  0.35714001  0.35714001  0.47107124  1
  Sr  Sr8  1  0.64193186  0.64193186  0.52879203  1
  Sr  Sr9  1  0.35742854  0.35742854  0.37106230  1
  Sr  Sr10  1  0.64257146  0.64257146  0.42893770  1
  Sr  Sr11  1  0.35806814  0.35806814  0.27120797  1
  Sr  Sr12  1  0.64285999  0.64285999  0.32892876  1
  Sr  Sr13  1  0.35830091  0.35830091  0.17121794  1
  Sr  Sr14  1  0.64220158  0.64220157  0.22904133  1
  Sr  Sr15  1  0.35562270  0.35562270  0.07101115  1
  Sr  Sr16  1  0.64273745  0.64273745  0.12901904  1
  Sr  Sr17  1  0.64511502  0.64511502  0.02887267  1
  La  La18  1  0.33023908  0.33023909  0.87255600  1
  La  La19  1  0.66976092  0.66976091  0.92744400  1
  Mg  Mg20  1  -0.00000000  0.00000000  0.90000000  1
  Ru  Ru21  1  0.00119049  0.00119049  0.80018110  1
  Ru  Ru22  1  0.00015338  0.00015338  0.69984167  1
  Ru  Ru23  1  -0.00024422  -0.00024422  0.59988206  1
  Ru  Ru24  1  0.99977234  0.99977234  0.49996248  1
  Ru  Ru25  1  -0.00000000  0.00000000  0.40000000  1
  Ru  Ru26  1  -0.00119049  -0.00119049  0.99981890  1
  Ru  Ru27  1  0.00022766  0.00022766  0.30003752  1
  Ru  Ru28  1  0.00024422  0.00024422  0.20011794  1
  Ru  Ru29  1  -0.00015338  -0.00015338  0.10015833  1
  O  O30  1  0.13374481  0.13374481  0.93443724  1
  O  O31  1  0.16601430  0.16601430  0.83312054  1
  O  O32  1  0.50000000  0.00000000  0.90000000  1
  O  O33  1  0.16265369  0.16265369  0.73236869  1
  O  O34  1  0.83398570  0.83398570  0.96687946  1
  O  O35  1  0.49976137  0.00154838  0.79981605  1
  O  O36  1  0.16338175  0.16338175  0.63232943  1
  O  O37  1  0.86625519  0.86625519  0.86556276  1
  O  O38  1  -0.00000000  0.50000000  0.90000000  1
  O  O39  1  0.50028590  0.00053813  0.69987170  1
  O  O40  1  0.00000071  0.49987695  0.49998123  1
  O  O41  1  0.16253186  0.16253186  0.53243351  1
  O  O42  1  0.83976046  0.83976046  0.76760178  1
  O  O43  1  0.00154838  0.49976137  0.79981605  1
  O  O44  1  0.49958229  0.99943457  0.59984838  1
  O  O45  1  0.16297223  0.16297223  0.43246819  1
  O  O46  1  0.83734775  0.83734775  0.66740856  1
  O  O47  1  0.00053813  0.50028590  0.69987170  1
  O  O48  1  0.49987695  0.00000071  0.49998123  1
  O  O49  1  0.16291994  0.16291994  0.33250643  1
  O  O50  1  0.83595988  0.83595988  0.56738328  1
  O  O51  1  0.99943457  0.49958229  0.59984838  1
  O  O52  1  0.50000000  0.00000000  0.40000000  1
  O  O53  1  0.00056543  0.50041771  0.20015162  1
  O  O54  1  0.16404012  0.16404012  0.23261672  1
  O  O55  1  0.83708006  0.83708006  0.46749357  1
  O  O56  1  0.50012305  -0.00000071  0.30001877  1
  O  O57  1  0.16265225  0.16265225  0.13259144  1
  O  O58  1  0.83702777  0.83702777  0.36753181  1
  O  O59  1  -0.00000000  0.50000000  0.40000000  1
  O  O60  1  0.50041771  0.00056543  0.20015162  1
  O  O61  1  0.99845162  0.50023863  0.00018395  1
  O  O62  1  0.16023954  0.16023954  0.03239822  1
  O  O63  1  0.83746814  0.83746814  0.26756649  1
  O  O64  1  -0.00000071  0.50012305  0.30001877  1
  O  O65  1  0.49971410  0.99946187  0.10012830  1
  O  O66  1  0.83661825  0.83661825  0.16767057  1
  O  O67  1  0.50023863  0.99845162  0.00018395  1
  O  O68  1  0.83734631  0.83734631  0.06763131  1
  O  O69  1  0.99946187  0.49971410  0.10012830  1
