# generated using pymatgen
data_Li7Mn4CoO12
_symmetry_space_group_name_H-M   'P 1'
_cell_length_a   5.03146287
_cell_length_b   9.89395047
_cell_length_c   5.03039419
_cell_angle_alpha   93.13924851
_cell_angle_beta   62.37235159
_cell_angle_gamma   101.13785083
_symmetry_Int_Tables_number   1
_chemical_formula_structural   Li7Mn4CoO12
_chemical_formula_sum   'Li7 Mn4 Co1 O12'
_cell_volume   217.51213202
_cell_formula_units_Z   1
loop_
 _symmetry_equiv_pos_site_id
 _symmetry_equiv_pos_as_xyz
  1  'x, y, z'
loop_
 _atom_site_type_symbol
 _atom_site_label
 _atom_site_symmetry_multiplicity
 _atom_site_fract_x
 _atom_site_fract_y
 _atom_site_fract_z
 _atom_site_occupancy
  Li  Li0  1  0.74929253  0.24868561  0.99487879  1
  Li  Li1  1  0.58404047  0.75131439  0.33845421  1
  Li  Li2  1  0.41661078  0.24828882  0.66821415  1
  Li  Li3  1  0.07895812  0.24424071  0.34009849  1
  Li  Li4  1  0.91672322  0.75171118  0.66511985  1
  Li  Li5  1  0.25437488  0.75575929  0.99323451  1
  Li  Li6  1  0.66666700  -0.00000000  0.66666700  1
  Mn  Mn7  1  0.99867478  0.99997976  0.99906071  1
  Mn  Mn8  1  0.33465822  0.00002024  0.33427229  1
  Mn  Mn9  1  0.83326465  0.49958886  0.33487103  1
  Mn  Mn10  1  0.50006835  0.50041114  -0.00153803  1
  Co  Co11  1  0.16666700  0.50000000  0.66666700  1
  O  O12  1  0.07137992  0.10938002  0.65398239  1
  O  O13  1  0.85272288  0.61655877  0.01860625  1
  O  O14  1  0.71626070  0.10992296  0.29756535  1
  O  O15  1  0.34805770  0.11331421  0.02275951  1
  O  O16  1  0.18204314  0.61478703  0.36298495  1
  O  O17  1  0.51360991  0.61878524  0.68898041  1
  O  O18  1  0.48061012  0.38344123  0.31472675  1
  O  O19  1  0.26195308  0.89061998  0.67935061  1
  O  O20  1  0.15129086  0.38521297  0.97034905  1
  O  O21  1  0.81972309  0.38121476  0.64435259  1
  O  O22  1  0.61707330  0.89007704  0.03576865  1
  O  O23  1  0.98527530  0.88668579  0.31057349  1
