# generated using pymatgen
data_MnFeCo(PO4)3
_symmetry_space_group_name_H-M   'P 1'
_cell_length_a   9.90311943
_cell_length_b   5.97244169
_cell_length_c   14.54577314
_cell_angle_alpha   90.00000000
_cell_angle_beta   89.67980852
_cell_angle_gamma   90.00000000
_symmetry_Int_Tables_number   1
_chemical_formula_structural   MnFeCo(PO4)3
_chemical_formula_sum   'Mn4 Fe4 Co4 P12 O48'
_cell_volume   860.30800350
_cell_formula_units_Z   4
loop_
 _symmetry_equiv_pos_site_id
 _symmetry_equiv_pos_as_xyz
  1  'x, y, z'
loop_
 _atom_site_type_symbol
 _atom_site_label
 _atom_site_symmetry_multiplicity
 _atom_site_fract_x
 _atom_site_fract_y
 _atom_site_fract_z
 _atom_site_occupancy
  Mn  Mn0  1  0.21572605  0.75000000  0.14657080  1
  Mn  Mn1  1  0.21602839  0.75000000  0.81283392  1
  Mn  Mn2  1  0.28664703  0.25000000  0.31109389  1
  Mn  Mn3  1  0.28657045  0.25000000  0.97843767  1
  Fe  Fe4  1  0.21984289  0.75000000  0.48710303  1
  Fe  Fe5  1  0.27439714  0.25000000  0.65322989  1
  Fe  Fe6  1  0.72827816  0.75000000  0.01033535  1
  Fe  Fe7  1  0.72297553  0.75000000  0.34787860  1
  Co  Co8  1  0.72162104  0.75000000  0.68200068  1
  Co  Co9  1  0.77752864  0.25000000  0.51171715  1
  Co  Co10  1  0.78174359  0.25000000  0.18436153  1
  Co  Co11  1  0.77143093  0.25000000  0.84254090  1
  P  P12  1  0.10012740  0.25000000  0.13876507  1
  P  P13  1  0.09845870  0.25000000  0.47204821  1
  P  P14  1  0.09599540  0.25000000  0.80687170  1
  P  P15  1  0.40146972  0.75000000  0.30519639  1
  P  P16  1  0.40102816  0.75000000  0.63852183  1
  P  P17  1  0.40106097  0.75000000  0.97147100  1
  P  P18  1  0.60372723  0.25000000  0.03009944  1
  P  P19  1  0.59839649  0.25000000  0.36177188  1
  P  P20  1  0.59861455  0.25000000  0.69194499  1
  P  P21  1  0.90290446  0.75000000  0.19418952  1
  P  P22  1  0.90212733  0.75000000  0.86015609  1
  P  P23  1  0.89924166  0.75000000  0.53173487  1
  O  O24  1  0.05354008  0.75000000  0.21927240  1
  O  O25  1  0.05441600  0.75000000  0.88379579  1
  O  O26  1  0.05004943  0.75000000  0.55395591  1
  O  O27  1  0.12095371  0.25000000  0.24351198  1
  O  O28  1  0.12032183  0.25000000  0.91062447  1
  O  O29  1  0.11780068  0.25000000  0.57651404  1
  O  O30  1  0.17150132  0.45143889  0.08998964  1
  O  O31  1  0.17150132  0.04856111  0.08998964  1
  O  O32  1  0.16772298  0.04531309  0.42513767  1
  O  O33  1  0.16772298  0.45468691  0.42513767  1
  O  O34  1  0.16893513  0.05149912  0.75570941  1
  O  O35  1  0.16893513  0.44850088  0.75570941  1
  O  O36  1  0.32600726  0.54892600  0.59135380  1
  O  O37  1  0.32600726  0.95107400  0.59135380  1
  O  O38  1  0.32927153  0.54892569  0.25638719  1
  O  O39  1  0.32927153  0.95107431  0.25638719  1
  O  O40  1  0.32849260  0.54906718  0.92276496  1
  O  O41  1  0.32849260  0.95093282  0.92276496  1
  O  O42  1  0.37843322  0.75000000  0.40912608  1
  O  O43  1  0.37906128  0.75000000  0.07626925  1
  O  O44  1  0.37977349  0.75000000  0.74383362  1
  O  O45  1  0.44838477  0.25000000  0.71674576  1
  O  O46  1  0.45052548  0.25000000  0.04790436  1
  O  O47  1  0.44647569  0.25000000  0.38474888  1
  O  O48  1  0.55165495  0.75000000  0.61646915  1
  O  O49  1  0.55327737  0.75000000  0.28352814  1
  O  O50  1  0.55250352  0.75000000  0.95139300  1
  O  O51  1  0.62787875  0.25000000  0.92443773  1
  O  O52  1  0.61859356  0.25000000  0.25692103  1
  O  O53  1  0.61877950  0.25000000  0.58762069  1
  O  O54  1  0.67416502  0.04724988  0.07750363  1
  O  O55  1  0.67416502  0.45275012  0.07750363  1
  O  O56  1  0.67333150  0.04796055  0.74091778  1
  O  O57  1  0.67333150  0.45203945  0.74091778  1
  O  O58  1  0.67107677  0.04831636  0.41045729  1
  O  O59  1  0.67107677  0.45168364  0.41045729  1
  O  O60  1  0.82811103  0.54901636  0.24351188  1
  O  O61  1  0.82811103  0.95098364  0.24351188  1
  O  O62  1  0.82553866  0.54874385  0.58019970  1
  O  O63  1  0.82553866  0.95125615  0.58019970  1
  O  O64  1  0.82976962  0.55014573  0.91053782  1
  O  O65  1  0.82976962  0.94985427  0.91053782  1
  O  O66  1  0.88471862  0.75000000  0.75596073  1
  O  O67  1  0.87869596  0.75000000  0.42728477  1
  O  O68  1  0.88419927  0.75000000  0.09062850  1
  O  O69  1  0.94785857  0.25000000  0.11843324  1
  O  O70  1  0.94403091  0.25000000  0.78742044  1
  O  O71  1  0.94402161  0.25000000  0.45228012  1
