# generated using pymatgen
data_Li6V3P8O29
_symmetry_space_group_name_H-M   'P 1'
_cell_length_a   9.81105568
_cell_length_b   9.81991770
_cell_length_c   13.99262959
_cell_angle_alpha   89.96367492
_cell_angle_beta   89.92998531
_cell_angle_gamma   59.84155899
_symmetry_Int_Tables_number   1
_chemical_formula_structural   Li6V3P8O29
_chemical_formula_sum   'Li12 V6 P16 O58'
_cell_volume   1165.62174738
_cell_formula_units_Z   2
loop_
 _symmetry_equiv_pos_site_id
 _symmetry_equiv_pos_as_xyz
  1  'x, y, z'
loop_
 _atom_site_type_symbol
 _atom_site_label
 _atom_site_symmetry_multiplicity
 _atom_site_fract_x
 _atom_site_fract_y
 _atom_site_fract_z
 _atom_site_occupancy
  Li  Li0  1  0.90618522  0.76862545  0.05723627  1
  Li  Li1  1  0.75869185  0.90541938  0.56499918  1
  Li  Li2  1  0.89877802  0.33945501  0.56491913  1
  Li  Li3  1  0.66830250  0.66418176  0.88325557  1
  Li  Li4  1  0.76871755  0.32596256  0.05966737  1
  Li  Li5  1  0.32483963  0.90548540  0.05712470  1
  Li  Li6  1  0.33488861  0.76308690  0.56484157  1
  Li  Li7  1  0.33542852  0.33290014  0.10825728  1
  Li  Li8  1  0.09938619  0.66455394  0.44315240  1
  Li  Li9  1  0.23506517  0.10042332  0.44281056  1
  Li  Li10  1  0.99691641  0.00283476  0.98351402  1
  Li  Li11  1  0.95486375  0.02862747  0.50466715  1
  V  V12  1  0.56842381  0.43178694  0.25175380  1
  V  V13  1  0.43775466  0.56102937  0.74984329  1
  V  V14  1  0.56115034  0.00379230  0.75190023  1
  V  V15  1  0.43605120  0.99775447  0.25051958  1
  V  V16  1  0.99936048  0.56635945  0.24819025  1
  V  V17  1  0.00294252  0.43509743  0.75258817  1
  P  P18  1  0.90725783  0.77844033  0.84304222  1
  P  P19  1  0.77256188  0.91521515  0.34576466  1
  P  P20  1  0.91544554  0.31467192  0.34268801  1
  P  P21  1  0.66595394  0.66604493  0.12626713  1
  P  P22  1  0.66764723  0.66826445  0.62868388  1
  P  P23  1  0.77805658  0.31315351  0.84577447  1
  P  P24  1  0.69589318  0.22172822  0.66041453  1
  P  P25  1  0.31489408  0.90611601  0.84149088  1
  P  P26  1  0.69033356  0.08716421  0.16028601  1
  P  P27  1  0.31382403  0.76988639  0.34450061  1
  P  P28  1  0.22384181  0.68936809  0.15873478  1
  P  P29  1  0.33230599  0.33384404  0.36864735  1
  P  P30  1  0.33277578  0.33473332  0.86978857  1
  P  P31  1  0.08619761  0.68745196  0.65880270  1
  P  P32  1  0.22571037  0.08582030  0.65781425  1
  P  P33  1  0.08969367  0.22154498  0.15813460  1
  O  O34  1  0.99758426  0.78039040  0.57036322  1
  O  O35  1  0.91614467  0.74649782  0.33700568  1
  O  O36  1  0.79177703  0.99175963  0.07896572  1
  O  O37  1  0.73995292  0.91909989  0.83684086  1
  O  O38  1  0.89422415  0.62705732  0.83082905  1
  O  O39  1  0.81213303  0.67389577  0.16436643  1
  O  O40  1  0.91593323  0.47008570  0.32593072  1
  O  O41  1  0.99514436  0.21468357  0.07693970  1
  O  O42  1  0.91880500  0.33885948  0.83678486  1
  O  O43  1  0.67244582  0.81549908  0.66982704  1
  O  O44  1  0.61616036  0.91535906  0.32850516  1
  O  O45  1  0.81429689  0.51608087  0.67104296  1
  O  O46  1  0.66305715  0.66827998  0.01849800  1
  O  O47  1  0.67155773  0.66690121  0.52167432  1
  O  O48  1  0.67446961  0.51273039  0.16523061  1
  O  O49  1  0.47922271  0.89269043  0.82937132  1
  O  O50  1  0.51303229  0.81268448  0.16688648  1
  O  O51  1  0.74777282  0.34208492  0.33582880  1
  O  O52  1  0.78861367  0.20086778  0.75910989  1
  O  O53  1  0.80347608  0.20880695  0.57960284  1
  O  O54  1  0.78211875  0.23063945  0.93690138  1
  O  O55  1  0.62766264  0.47778759  0.83075149  1
  O  O56  1  0.51415748  0.67522279  0.66806035  1
  O  O57  1  0.66220952  0.25803949  0.15866692  1
  O  O58  1  0.47135237  0.61784003  0.32693612  1
  O  O59  1  0.33319784  0.91666122  0.34042817  1
  O  O60  1  0.78645757  0.01365151  0.25874842  1
  O  O61  1  0.78040363  0.98689047  0.43870765  1
  O  O62  1  0.22329900  0.99776340  0.56891338  1
  O  O63  1  0.66145575  0.08556841  0.65817581  1
  O  O64  1  0.54307609  0.38347413  0.66707454  1
  O  O65  1  0.34277747  0.73751331  0.83402358  1
  O  O66  1  0.48179276  0.32455102  0.32265476  1
  O  O67  1  0.37529382  0.52633956  0.16796068  1
  O  O68  1  0.21465399  0.79194883  0.07748910  1
  O  O69  1  0.23195666  0.76813973  0.43576258  1
  O  O70  1  0.20037758  0.78615943  0.25713076  1
  O  O71  1  0.25429943  0.66302158  0.65856879  1
  O  O72  1  0.47645963  0.18299850  0.82663410  1
  O  O73  1  0.52566257  0.10168758  0.16989291  1
  O  O74  1  0.33805167  0.47648576  0.82608961  1
  O  O75  1  0.33119476  0.33237462  0.97634893  1
  O  O76  1  0.32436671  0.33849930  0.47517760  1
  O  O77  1  0.18490465  0.48922745  0.32770901  1
  O  O78  1  0.38158942  0.08479140  0.66794192  1
  O  O79  1  0.32247072  0.18651565  0.32995254  1
  O  O80  1  0.08148515  0.65970440  0.15778161  1
  O  O81  1  0.00137187  0.79230002  0.75196076  1
  O  O82  1  0.98901084  0.78167630  0.93276708  1
  O  O83  1  0.08649211  0.53226738  0.66804890  1
  O  O84  1  0.18295019  0.33911550  0.82621780  1
  O  O85  1  0.10431829  0.37098906  0.16783274  1
  O  O86  1  0.26082294  0.07793747  0.15837919  1
  O  O87  1  0.22989168  0.98554485  0.93178731  1
  O  O88  1  0.20602063  0.00024531  0.75117105  1
  O  O89  1  0.08310537  0.25355815  0.65803665  1
  O  O90  1  0.99624961  0.23299610  0.43470504  1
  O  O91  1  0.01460856  0.20007461  0.25651392  1
