# generated using pymatgen
data_LiV3O3F7
_symmetry_space_group_name_H-M   'P 1'
_cell_length_a   8.43468693
_cell_length_b   7.49804514
_cell_length_c   7.42417832
_cell_angle_alpha   59.70518304
_cell_angle_beta   63.94484314
_cell_angle_gamma   77.02872619
_symmetry_Int_Tables_number   1
_chemical_formula_structural   LiV3O3F7
_chemical_formula_sum   'Li2 V6 O6 F14'
_cell_volume   364.20942918
_cell_formula_units_Z   2
loop_
 _symmetry_equiv_pos_site_id
 _symmetry_equiv_pos_as_xyz
  1  'x, y, z'
loop_
 _atom_site_type_symbol
 _atom_site_label
 _atom_site_symmetry_multiplicity
 _atom_site_fract_x
 _atom_site_fract_y
 _atom_site_fract_z
 _atom_site_occupancy
  Li  Li0  1  0.49983936  0.51482150  0.31380120  1
  Li  Li1  1  0.00027690  0.00115165  0.06188893  1
  V  V2  1  0.51543834  0.00701385  0.25478261  1
  V  V3  1  0.01642176  0.50199356  0.47591573  1
  V  V4  1  0.49867651  0.48174297  0.76910205  1
  V  V5  1  0.98360800  0.48122785  0.02708186  1
  V  V6  1  0.48409777  0.99196967  0.77609224  1
  V  V7  1  0.00021965  0.02046334  0.49405708  1
  O  O8  1  0.49697711  0.93234579  0.02008055  1
  O  O9  1  0.99833379  0.57002301  0.18617165  1
  O  O10  1  0.50120642  0.28803823  0.01588658  1
  O  O11  1  0.00461236  0.20975661  0.55274109  1
  O  O12  1  0.99673525  0.21786429  0.18955595  1
  O  O13  1  0.50322881  0.06674629  0.45003576  1
  F  F14  1  0.25353687  0.98333589  0.36637387  1
  F  F15  1  0.76156406  0.99332873  0.10586312  1
  F  F16  1  0.00334036  0.80686197  0.38191965  1
  F  F17  1  0.99361171  0.77677549  0.77387552  1
  F  F18  1  0.48823294  0.70510475  0.83234248  1
  F  F19  1  0.50876516  0.69660004  0.44587656  1
  F  F20  1  0.26465748  0.50664021  0.35629907  1
  F  F21  1  0.75303082  0.51014827  0.61048887  1
  F  F22  1  0.24512502  0.50947907  0.84957046  1
  F  F23  1  0.74120341  0.50196901  0.11211204  1
  F  F24  1  0.00147771  0.41954264  0.78356469  1
  F  F25  1  0.50071857  0.30120021  0.64100556  1
  F  F26  1  0.23854074  0.00898630  0.85707367  1
  F  F27  1  0.74652414  0.99486881  0.61011817  1
