# generated using pymatgen
data_Li5Fe2P2(CO7)2
_symmetry_space_group_name_H-M   'P 1'
_cell_length_a   10.25995174
_cell_length_b   6.39859444
_cell_length_c   9.47318879
_cell_angle_alpha   96.18135840
_cell_angle_beta   62.60241855
_cell_angle_gamma   93.86787787
_symmetry_Int_Tables_number   1
_chemical_formula_structural   Li5Fe2P2(CO7)2
_chemical_formula_sum   'Li10 Fe4 P4 C4 O28'
_cell_volume   548.82834536
_cell_formula_units_Z   2
loop_
 _symmetry_equiv_pos_site_id
 _symmetry_equiv_pos_as_xyz
  1  'x, y, z'
loop_
 _atom_site_type_symbol
 _atom_site_label
 _atom_site_symmetry_multiplicity
 _atom_site_fract_x
 _atom_site_fract_y
 _atom_site_fract_z
 _atom_site_occupancy
  Li  Li0  1  0.07659684  0.34802185  0.07865214  1
  Li  Li1  1  0.22758544  0.61360732  0.21285630  1
  Li  Li2  1  0.26321558  0.14473624  0.22542675  1
  Li  Li3  1  0.28895208  0.03614926  0.72354717  1
  Li  Li4  1  0.32453030  0.56694875  0.73622299  1
  Li  Li5  1  0.71616925  0.59270549  0.21266167  1
  Li  Li6  1  0.47393550  0.83339528  0.87121109  1
  Li  Li7  1  0.76053359  0.13336258  0.23045041  1
  Li  Li8  1  0.79192973  0.04819839  0.71874671  1
  Li  Li9  1  0.83662027  0.58894584  0.73672523  1
  Fe  Fe10  1  0.10746587  0.33740041  0.63101755  1
  Fe  Fe11  1  0.44531738  0.84464351  0.31767750  1
  Fe  Fe12  1  0.59700510  0.33461038  0.63740271  1
  Fe  Fe13  1  0.95527208  0.84734412  0.31219765  1
  P  P14  1  0.09629145  0.83476374  0.56112529  1
  P  P15  1  0.45652129  0.34735953  0.38745929  1
  P  P16  1  0.59517173  0.83122783  0.55045704  1
  P  P17  1  0.95714955  0.35063020  0.39896662  1
  C  C18  1  0.16252253  0.84802171  0.02097152  1
  C  C19  1  0.63433863  0.84417198  0.02509952  1
  C  C20  1  0.38897876  0.33280286  0.92827116  1
  C  C21  1  0.91870117  0.33802318  0.92367052  1
  O  O22  1  0.02869964  0.82669914  0.04936782  1
  O  O23  1  0.01178130  0.53348453  0.28824579  1
  O  O24  1  0.19343077  0.88362408  0.14280497  1
  O  O25  1  0.08958664  0.29213052  0.42807556  1
  O  O26  1  0.27789659  0.34852776  0.07166668  1
  O  O27  1  0.05687834  0.64610001  0.66480034  1
  O  O28  1  0.23243933  0.77578297  0.39682685  1
  O  O29  1  0.05987236  0.36049390  0.87807465  1
  O  O30  1  0.14132421  0.03109525  0.64231067  1
  O  O31  1  0.49330918  0.82179986  0.06997857  1
  O  O32  1  0.32025769  0.40654745  0.55161740  1
  O  O33  1  0.41146709  0.15095678  0.30634933  1
  O  O34  1  0.49598685  0.53589059  0.28362845  1
  O  O35  1  0.27301188  0.83182729  0.87717569  1
  O  O36  1  0.46291366  0.88950137  0.52097137  1
  O  O37  1  0.35915412  0.29690652  0.80566048  1
  O  O38  1  0.66889983  0.87471220  0.14410600  1
  O  O39  1  0.59233356  0.29976231  0.40736635  1
  O  O40  1  0.82562438  0.34701758  0.06974289  1
  O  O41  1  0.54045566  0.64852745  0.66139698  1
  O  O42  1  0.72842500  0.77491950  0.38955887  1
  O  O43  1  0.52249232  0.35492575  0.90090170  1
  O  O44  1  0.62709610  0.01763275  0.65032236  1
  O  O45  1  0.82399569  0.40686335  0.55996972  1
  O  O46  1  0.92520267  0.16437241  0.29901840  1
  O  O47  1  0.72822197  0.83494018  0.87936104  1
  O  O48  1  0.96037454  0.88260739  0.54150093  1
  O  O49  1  0.88336255  0.30759166  0.80530232  1
