# generated using pymatgen
data_Li3MnV(PO4)3
_symmetry_space_group_name_H-M   'P 1'
_cell_length_a   8.64933860
_cell_length_b   8.69018037
_cell_length_c   12.44584424
_cell_angle_alpha   90.15612280
_cell_angle_beta   91.40052810
_cell_angle_gamma   89.75672036
_symmetry_Int_Tables_number   1
_chemical_formula_structural   Li3MnV(PO4)3
_chemical_formula_sum   'Li12 Mn4 V4 P12 O48'
_cell_volume   935.19221904
_cell_formula_units_Z   4
loop_
 _symmetry_equiv_pos_site_id
 _symmetry_equiv_pos_as_xyz
  1  'x, y, z'
loop_
 _atom_site_type_symbol
 _atom_site_label
 _atom_site_symmetry_multiplicity
 _atom_site_fract_x
 _atom_site_fract_y
 _atom_site_fract_z
 _atom_site_occupancy
  Li  Li0  1  0.08306914  0.09295967  0.69517516  1
  Li  Li1  1  0.07811826  0.70355906  0.75491939  1
  Li  Li2  1  0.20819113  0.77658911  0.17710113  1
  Li  Li3  1  0.28856892  0.27471072  0.32208440  1
  Li  Li4  1  0.41868132  0.19993554  0.74391309  1
  Li  Li5  1  0.42008711  0.59581357  0.80333161  1
  Li  Li6  1  0.58196164  0.40678478  0.19734163  1
  Li  Li7  1  0.58476159  0.79784683  0.25960324  1
  Li  Li8  1  0.71248284  0.72300748  0.67644609  1
  Li  Li9  1  0.79212509  0.22013714  0.82633254  1
  Li  Li10  1  0.91188450  0.30014710  0.24150745  1
  Li  Li11  1  0.91576456  0.90824689  0.30219411  1
  Mn  Mn12  1  0.25197782  0.03502240  0.89637981  1
  Mn  Mn13  1  0.74694213  0.96212642  0.10228798  1
  Mn  Mn14  1  0.75415738  0.54265336  0.89075567  1
  Mn  Mn15  1  0.75036209  0.46283862  0.39953059  1
  V  V16  1  0.24850422  0.53349349  0.60843831  1
  V  V17  1  0.24614779  0.45702506  0.11149327  1
  V  V18  1  0.25274836  0.95701707  0.38872437  1
  V  V19  1  0.74748040  0.04236437  0.61143417  1
  P  P20  1  0.03875489  0.24855047  0.49344994  1
  P  P21  1  0.10547307  0.38926584  0.85388363  1
  P  P22  1  0.09785369  0.09753427  0.15188504  1
  P  P23  1  0.39550320  0.88892188  0.64301724  1
  P  P24  1  0.39709972  0.59632887  0.35115661  1
  P  P25  1  0.46118083  0.74779827  0.00644231  1
  P  P26  1  0.53873327  0.24464362  0.99680114  1
  P  P27  1  0.60692092  0.40323397  0.65718072  1
  P  P28  1  0.60464713  0.11317515  0.35865970  1
  P  P29  1  0.90234808  0.90473268  0.84591013  1
  P  P30  1  0.89302896  0.61286033  0.13828697  1
  P  P31  1  0.95794087  0.75064780  0.50361871  1
  O  O32  1  0.04688843  0.86371594  0.43217075  1
  O  O33  1  0.06389745  0.67646424  0.59176803  1
  O  O34  1  0.06857015  0.59354594  0.16354932  1
  O  O35  1  0.08425767  0.89509642  0.84922235  1
  O  O36  1  0.11394352  0.36272785  0.57318721  1
  O  O37  1  0.15143171  0.41544627  0.97170511  1
  O  O38  1  0.14778651  0.22064088  0.81998172  1
  O  O39  1  0.14177014  0.97698372  0.24164202  1
  O  O40  1  0.14915883  0.26214828  0.18806993  1
  O  O41  1  0.16758987  0.16757675  0.43027526  1
  O  O42  1  0.16703819  0.04450317  0.04811605  1
  O  O43  1  0.19101833  0.50831383  0.78270555  1
  O  O44  1  0.30388311  0.01112885  0.70650057  1
  O  O45  1  0.33028797  0.54616629  0.45651632  1
  O  O46  1  0.33324921  0.66666849  0.06963470  1
  O  O47  1  0.34482911  0.75945713  0.31259782  1
  O  O48  1  0.35309130  0.72129500  0.67919174  1
  O  O49  1  0.35288618  0.47495462  0.26167835  1
  O  O50  1  0.35720445  0.90550327  0.52266317  1
  O  O51  1  0.38940650  0.86072928  0.92429380  1
  O  O52  1  0.42647354  0.39581452  0.65709059  1
  O  O53  1  0.42897909  0.09449497  0.33395090  1
  O  O54  1  0.43077924  0.17046927  0.90812142  1
  O  O55  1  0.45012879  0.36015711  0.06776579  1
  O  O56  1  0.55057802  0.63191472  0.93558524  1
  O  O57  1  0.56672937  0.82284193  0.09496591  1
  O  O58  1  0.57103386  0.90685768  0.66730958  1
  O  O59  1  0.57825167  0.60451729  0.35065674  1
  O  O60  1  0.60505992  0.12922475  0.08027560  1
  O  O61  1  0.64017809  0.09876009  0.47917574  1
  O  O62  1  0.64727418  0.52521588  0.74794234  1
  O  O63  1  0.64718018  0.28182955  0.32249620  1
  O  O64  1  0.65931318  0.23951893  0.69203038  1
  O  O65  1  0.66787977  0.32112619  0.93464804  1
  O  O66  1  0.67531347  0.46112392  0.55470940  1
  O  O67  1  0.69641428  0.99085600  0.29567659  1
  O  O68  1  0.79995375  0.49114533  0.19879591  1
  O  O69  1  0.83013144  0.95751201  0.94890538  1
  O  O70  1  0.82677813  0.83255493  0.56397391  1
  O  O71  1  0.85393152  0.74312135  0.80528472  1
  O  O72  1  0.86319864  0.02688769  0.75631466  1
  O  O73  1  0.85156297  0.78121056  0.17580199  1
  O  O74  1  0.86533173  0.60249196  0.01568230  1
  O  O75  1  0.88787976  0.63498830  0.42149545  1
  O  O76  1  0.91675401  0.10640962  0.15172004  1
  O  O77  1  0.92781080  0.40585632  0.83531023  1
  O  O78  1  0.93240683  0.32492443  0.40542942  1
  O  O79  1  0.95100521  0.13513567  0.56413362  1
