# generated using pymatgen
data_Li6V3P8O29
_symmetry_space_group_name_H-M   'P 1'
_cell_length_a   9.83379495
_cell_length_b   9.76173740
_cell_length_c   13.94422244
_cell_angle_alpha   90.12413025
_cell_angle_beta   90.02169273
_cell_angle_gamma   59.98973428
_symmetry_Int_Tables_number   1
_chemical_formula_structural   Li6V3P8O29
_chemical_formula_sum   'Li12 V6 P16 O58'
_cell_volume   1159.11654447
_cell_formula_units_Z   2
loop_
 _symmetry_equiv_pos_site_id
 _symmetry_equiv_pos_as_xyz
  1  'x, y, z'
loop_
 _atom_site_type_symbol
 _atom_site_label
 _atom_site_symmetry_multiplicity
 _atom_site_fract_x
 _atom_site_fract_y
 _atom_site_fract_z
 _atom_site_occupancy
  Li  Li0  1  0.90939496  0.76717155  0.05999951  1
  Li  Li1  1  0.91008034  0.32311157  0.56039680  1
  Li  Li2  1  0.66272294  0.67526784  0.38683435  1
  Li  Li3  1  0.66245409  0.66719647  0.88729180  1
  Li  Li4  1  0.32883626  0.90932955  0.06447518  1
  Li  Li5  1  0.66194550  0.23576482  0.43811663  1
  Li  Li6  1  0.32720527  0.76098198  0.56484344  1
  Li  Li7  1  0.66396825  0.10157089  0.93833042  1
  Li  Li8  1  0.10107046  0.66298469  0.44108979  1
  Li  Li9  1  0.09946289  0.23451372  0.94111231  1
  Li  Li10  1  0.00312935  0.99326795  0.99899918  1
  Li  Li11  1  0.99892883  0.00524641  0.49941138  1
  V  V12  1  0.56739575  0.43274207  0.24296726  1
  V  V13  1  0.43421371  0.55832636  0.75619233  1
  V  V14  1  0.56389505  0.99829647  0.74255372  1
  V  V15  1  0.43381050  0.00546310  0.25643511  1
  V  V16  1  0.00097719  0.56570696  0.24582979  1
  V  V17  1  0.00033488  0.43494000  0.74704281  1
  P  P18  1  0.90672281  0.78011063  0.84333363  1
  P  P19  1  0.78139304  0.91237014  0.34046582  1
  P  P20  1  0.90632860  0.31627690  0.34285065  1
  P  P21  1  0.66506456  0.67200563  0.12924682  1
  P  P22  1  0.66243622  0.66335539  0.62907895  1
  P  P23  1  0.78178410  0.30704854  0.83960658  1
  P  P24  1  0.68839429  0.22683014  0.65403278  1
  P  P25  1  0.31696436  0.90973594  0.84518993  1
  P  P26  1  0.68529075  0.08462910  0.15470721  1
  P  P27  1  0.31681665  0.77130464  0.34531937  1
  P  P28  1  0.22231122  0.69628998  0.15834782  1
  P  P29  1  0.33506342  0.33911622  0.37096740  1
  P  P30  1  0.33407059  0.32596038  0.87074661  1
  P  P31  1  0.08613878  0.69059977  0.65860796  1
  P  P32  1  0.22228649  0.08145229  0.65816779  1
  P  P33  1  0.08540816  0.22245213  0.15820182  1
  O  O34  1  0.01003548  0.77062750  0.56653831  1
  O  O35  1  0.92304398  0.73968510  0.33997859  1
  O  O36  1  0.77336926  0.00412127  0.06393621  1
  O  O37  1  0.73976552  0.92505496  0.83885888  1
  O  O38  1  0.89299975  0.62928173  0.82948665  1
  O  O39  1  0.81322835  0.68136245  0.16430317  1
  O  O40  1  0.89244212  0.48071155  0.32968051  1
  O  O41  1  0.00974317  0.21755013  0.06629851  1
  O  O42  1  0.92191937  0.33943392  0.84071777  1
  O  O43  1  0.66873537  0.80777496  0.67357193  1
  O  O44  1  0.63078004  0.89865029  0.33453934  1
  O  O45  1  0.81193609  0.50890060  0.66504067  1
  O  O46  1  0.65772051  0.68077855  0.02162264  1
  O  O47  1  0.65842225  0.66503054  0.52132428  1
  O  O48  1  0.67613416  0.52110111  0.17280106  1
  O  O49  1  0.47955957  0.89678303  0.83138856  1
  O  O50  1  0.51434461  0.81823534  0.17284731  1
  O  O51  1  0.73854566  0.33866153  0.33842375  1
  O  O52  1  0.80367260  0.21331985  0.74094669  1
  O  O53  1  0.77434822  0.22440303  0.56319791  1
  O  O54  1  0.79134060  0.20238281  0.92053428  1
  O  O55  1  0.63015204  0.47221272  0.83323104  1
  O  O56  1  0.51156247  0.67018575  0.67074518  1
  O  O57  1  0.65913596  0.25415582  0.16207898  1
  O  O58  1  0.47843454  0.61874139  0.32953788  1
  O  O59  1  0.34516778  0.91135852  0.34338799  1
  O  O60  1  0.80037527  0.98724181  0.24199890  1
  O  O61  1  0.79254458  0.00663779  0.42146394  1
  O  O62  1  0.20337582  0.98888216  0.57842163  1
  O  O63  1  0.66239397  0.08631803  0.66065770  1
  O  O64  1  0.53444289  0.38415734  0.66875977  1
  O  O65  1  0.34162598  0.74218189  0.84169990  1
  O  O66  1  0.48761620  0.32890653  0.32833345  1
  O  O67  1  0.37851541  0.54087414  0.16565770  1
  O  O68  1  0.20447798  0.80639450  0.07843988  1
  O  O69  1  0.23370630  0.76633511  0.43549169  1
  O  O70  1  0.20220517  0.78977986  0.25844112  1
  O  O71  1  0.25515759  0.65944871  0.66413503  1
  O  O72  1  0.48139831  0.18040867  0.82294586  1
  O  O73  1  0.53092236  0.08551895  0.16795760  1
  O  O74  1  0.33458752  0.47509465  0.82728047  1
  O  O75  1  0.34723865  0.31406970  0.97702658  1
  O  O76  1  0.33742393  0.34131281  0.47752743  1
  O  O77  1  0.18689883  0.48705653  0.32925392  1
  O  O78  1  0.37834787  0.08115523  0.66234764  1
  O  O79  1  0.33645845  0.18772862  0.32655135  1
  O  O80  1  0.08050789  0.66677999  0.15839961  1
  O  O81  1  0.99688713  0.79634551  0.75065906  1
  O  O82  1  0.98881700  0.78389244  0.93311900  1
  O  O83  1  0.08381686  0.53278417  0.67457027  1
  O  O84  1  0.18394243  0.32781575  0.83265861  1
  O  O85  1  0.08336762  0.38250928  0.17361509  1
  O  O86  1  0.25428696  0.08312647  0.16442968  1
  O  O87  1  0.23248922  0.99812233  0.93547399  1
  O  O88  1  0.20342015  0.00903917  0.75850347  1
  O  O89  1  0.08058467  0.25367430  0.65912352  1
  O  O90  1  0.98699973  0.22968964  0.43251464  1
  O  O91  1  0.99534051  0.20818228  0.25040745  1
