# generated using pymatgen
data_Li5Ta12O32
_symmetry_space_group_name_H-M   'P 1'
_cell_length_a   16.97288060
_cell_length_b   7.78348187
_cell_length_c   8.98277370
_cell_angle_alpha   90.00000000
_cell_angle_beta   90.00000000
_cell_angle_gamma   90.00000000
_symmetry_Int_Tables_number   1
_chemical_formula_structural   Li5Ta12O32
_chemical_formula_sum   'Li10 Ta24 O64'
_cell_volume   1186.69724198
_cell_formula_units_Z   2
loop_
 _symmetry_equiv_pos_site_id
 _symmetry_equiv_pos_as_xyz
  1  'x, y, z'
loop_
 _atom_site_type_symbol
 _atom_site_label
 _atom_site_symmetry_multiplicity
 _atom_site_fract_x
 _atom_site_fract_y
 _atom_site_fract_z
 _atom_site_occupancy
  Li  Li0  1  0.00493882  0.25000000  0.53214560  1
  Li  Li1  1  0.09031337  0.75000000  0.07906689  1
  Li  Li2  1  0.25000000  0.25000000  0.31773640  1
  Li  Li3  1  0.40968663  0.75000000  0.07906689  1
  Li  Li4  1  0.49506118  0.25000000  0.53214560  1
  Li  Li5  1  0.50493882  0.75000000  0.46785440  1
  Li  Li6  1  0.59031337  0.25000000  0.92093311  1
  Li  Li7  1  0.75000000  0.75000000  0.68226360  1
  Li  Li8  1  0.90968663  0.25000000  0.92093311  1
  Li  Li9  1  0.99506118  0.75000000  0.46785440  1
  Ta  Ta10  1  0.06002554  0.50138128  0.81001565  1
  Ta  Ta11  1  0.06002554  0.99861872  0.81001565  1
  Ta  Ta12  1  0.13043705  0.99649431  0.39293622  1
  Ta  Ta13  1  0.13043705  0.50350569  0.39293622  1
  Ta  Ta14  1  0.25000000  0.49801738  0.68495588  1
  Ta  Ta15  1  0.25000000  0.99805710  0.05055324  1
  Ta  Ta16  1  0.25000000  0.50194290  0.05055324  1
  Ta  Ta17  1  0.25000000  0.00198262  0.68495588  1
  Ta  Ta18  1  0.36956295  0.99649431  0.39293622  1
  Ta  Ta19  1  0.36956295  0.50350569  0.39293622  1
  Ta  Ta20  1  0.43997446  0.50138128  0.81001565  1
  Ta  Ta21  1  0.43997446  0.99861872  0.81001565  1
  Ta  Ta22  1  0.56002554  0.00138128  0.18998435  1
  Ta  Ta23  1  0.56002554  0.49861872  0.18998435  1
  Ta  Ta24  1  0.63043705  0.49649431  0.60706378  1
  Ta  Ta25  1  0.63043705  0.00350569  0.60706378  1
  Ta  Ta26  1  0.75000000  0.99801738  0.31504412  1
  Ta  Ta27  1  0.75000000  0.50198262  0.31504412  1
  Ta  Ta28  1  0.75000000  0.49805710  0.94944676  1
  Ta  Ta29  1  0.75000000  0.00194290  0.94944676  1
  Ta  Ta30  1  0.86956295  0.49649431  0.60706378  1
  Ta  Ta31  1  0.86956295  0.00350569  0.60706378  1
  Ta  Ta32  1  0.93997446  0.00138128  0.18998435  1
  Ta  Ta33  1  0.93997446  0.49861872  0.18998435  1
  O  O34  1  0.00000000  -0.00000000  -0.00000000  1
  O  O35  1  0.00000000  0.50000000  -0.00000000  1
  O  O36  1  0.01943236  0.03897981  0.34712272  1
  O  O37  1  0.01943236  0.46102019  0.34712272  1
  O  O38  1  0.04010082  0.25000000  0.79276719  1
  O  O39  1  0.07320600  0.75000000  0.84295604  1
  O  O40  1  0.10670765  0.75000000  0.41395223  1
  O  O41  1  0.13180445  0.00673477  0.61746202  1
  O  O42  1  0.13180445  0.49326523  0.61746202  1
  O  O43  1  0.14427627  0.25000000  0.38539075  1
  O  O44  1  0.16135757  0.54027914  0.18612804  1
  O  O45  1  0.16135757  0.95972086  0.18612804  1
  O  O46  1  0.17420772  0.02678245  0.87535040  1
  O  O47  1  0.17420772  0.47321755  0.87535040  1
  O  O48  1  0.25000000  0.98318615  0.44808920  1
  O  O49  1  0.25000000  0.25000000  0.67053178  1
  O  O50  1  0.25000000  0.51681385  0.44808920  1
  O  O51  1  0.25000000  0.75000000  0.01594435  1
  O  O52  1  0.25000000  0.75000000  0.69634544  1
  O  O53  1  0.25000000  0.25000000  0.09845980  1
  O  O54  1  0.32579228  0.02678245  0.87535040  1
  O  O55  1  0.32579228  0.47321755  0.87535040  1
  O  O56  1  0.33864243  0.54027914  0.18612804  1
  O  O57  1  0.33864243  0.95972086  0.18612804  1
  O  O58  1  0.35572373  0.25000000  0.38539075  1
  O  O59  1  0.36819555  0.00673477  0.61746202  1
  O  O60  1  0.36819555  0.49326523  0.61746202  1
  O  O61  1  0.39329235  0.75000000  0.41395223  1
  O  O62  1  0.42679400  0.75000000  0.84295604  1
  O  O63  1  0.45989918  0.25000000  0.79276719  1
  O  O64  1  0.48056764  0.03897981  0.34712272  1
  O  O65  1  0.48056764  0.46102019  0.34712272  1
  O  O66  1  0.50000000  -0.00000000  -0.00000000  1
  O  O67  1  0.50000000  0.50000000  -0.00000000  1
  O  O68  1  0.51943236  0.53897981  0.65287728  1
  O  O69  1  0.51943236  0.96102019  0.65287728  1
  O  O70  1  0.54010082  0.75000000  0.20723281  1
  O  O71  1  0.57320600  0.25000000  0.15704396  1
  O  O72  1  0.60670765  0.25000000  0.58604777  1
  O  O73  1  0.63180445  0.50673477  0.38253798  1
  O  O74  1  0.63180445  0.99326523  0.38253798  1
  O  O75  1  0.64427627  0.75000000  0.61460925  1
  O  O76  1  0.66135757  0.04027914  0.81387196  1
  O  O77  1  0.66135757  0.45972086  0.81387196  1
  O  O78  1  0.67420772  0.52678245  0.12465060  1
  O  O79  1  0.67420772  0.97321755  0.12465060  1
  O  O80  1  0.75000000  0.25000000  0.30365456  1
  O  O81  1  0.75000000  0.25000000  0.98405565  1
  O  O82  1  0.75000000  0.48318615  0.55191080  1
  O  O83  1  0.75000000  0.75000000  0.32946822  1
  O  O84  1  0.75000000  0.75000000  0.90154020  1
  O  O85  1  0.75000000  0.01681385  0.55191080  1
  O  O86  1  0.82579228  0.52678245  0.12465060  1
  O  O87  1  0.82579228  0.97321755  0.12465060  1
  O  O88  1  0.83864243  0.04027914  0.81387196  1
  O  O89  1  0.83864243  0.45972086  0.81387196  1
  O  O90  1  0.85572373  0.75000000  0.61460925  1
  O  O91  1  0.86819555  0.50673477  0.38253798  1
  O  O92  1  0.86819555  0.99326523  0.38253798  1
  O  O93  1  0.89329235  0.25000000  0.58604777  1
  O  O94  1  0.92679400  0.25000000  0.15704396  1
  O  O95  1  0.95989918  0.75000000  0.20723281  1
  O  O96  1  0.98056764  0.53897981  0.65287728  1
  O  O97  1  0.98056764  0.96102019  0.65287728  1
