# generated using pymatgen
data_LiV3O6
_symmetry_space_group_name_H-M   'P 1'
_cell_length_a   5.52270951
_cell_length_b   5.45949907
_cell_length_c   5.48427662
_cell_angle_alpha   55.62362266
_cell_angle_beta   53.75266714
_cell_angle_gamma   55.55764199
_symmetry_Int_Tables_number   1
_chemical_formula_structural   LiV3O6
_chemical_formula_sum   'Li1 V3 O6'
_cell_volume   103.17976913
_cell_formula_units_Z   1
loop_
 _symmetry_equiv_pos_site_id
 _symmetry_equiv_pos_as_xyz
  1  'x, y, z'
loop_
 _atom_site_type_symbol
 _atom_site_label
 _atom_site_symmetry_multiplicity
 _atom_site_fract_x
 _atom_site_fract_y
 _atom_site_fract_z
 _atom_site_occupancy
  Li  Li0  1  0.28706271  0.28381814  0.27003633  1
  V  V1  1  0.80146809  0.80951164  0.79176733  1
  V  V2  1  0.99584425  0.00659088  0.00241509  1
  V  V3  1  0.50134342  0.48727198  0.50558388  1
  O  O4  1  0.08023231  0.72243888  0.41856259  1
  O  O5  1  0.40821589  0.08653732  0.73207636  1
  O  O6  1  0.70959048  0.40643226  0.10513006  1
  O  O7  1  0.22285514  0.61628835  0.85939530  1
  O  O8  1  0.62406027  0.86934244  0.20125906  1
  O  O9  1  0.87012845  0.21256913  0.61377400  1
