# generated using pymatgen
data_Li3Fe4(BO3)4
_symmetry_space_group_name_H-M   'P 1'
_cell_length_a   5.22355752
_cell_length_b   5.24776764
_cell_length_c   20.41596888
_cell_angle_alpha   89.36792240
_cell_angle_beta   90.80816729
_cell_angle_gamma   60.33063111
_symmetry_Int_Tables_number   1
_chemical_formula_structural   Li3Fe4(BO3)4
_chemical_formula_sum   'Li6 Fe8 B8 O24'
_cell_volume   486.11870934
_cell_formula_units_Z   2
loop_
 _symmetry_equiv_pos_site_id
 _symmetry_equiv_pos_as_xyz
  1  'x, y, z'
loop_
 _atom_site_type_symbol
 _atom_site_label
 _atom_site_symmetry_multiplicity
 _atom_site_fract_x
 _atom_site_fract_y
 _atom_site_fract_z
 _atom_site_occupancy
  Li  Li0  1  0.32308930  0.65368708  0.66993850  1
  Li  Li1  1  0.32576733  0.65076901  0.16881454  1
  Li  Li2  1  0.35074617  0.67500570  0.41586477  1
  Li  Li3  1  0.65785220  0.33608132  0.79511907  1
  Li  Li4  1  0.66598180  0.34570111  0.54339462  1
  Li  Li5  1  0.65860372  0.34950284  0.04140779  1
  Fe  Fe6  1  0.01172299  0.67441276  0.81192240  1
  Fe  Fe7  1  0.98987073  0.67262296  0.30749359  1
  Fe  Fe8  1  0.67058708  0.99525892  0.93276217  1
  Fe  Fe9  1  0.68418431  0.00601334  0.43332409  1
  Fe  Fe10  1  0.32523749  0.00091830  0.55833715  1
  Fe  Fe11  1  0.32042421  0.00537366  0.05941566  1
  Fe  Fe12  1  0.00812551  0.31989401  0.68496956  1
  Fe  Fe13  1  0.99237994  0.31912861  0.18633814  1
  B  B14  1  0.99974015  0.33733156  0.93679957  1
  B  B15  1  0.00480849  0.33659621  0.43527038  1
  B  B16  1  0.33324587  0.00425670  0.81221652  1
  B  B17  1  0.33100271  0.00659760  0.31230446  1
  B  B18  1  0.66063073  0.99804202  0.68719277  1
  B  B19  1  0.65730335  0.00024642  0.18662448  1
  B  B20  1  0.99497206  0.66795511  0.56139785  1
  B  B21  1  0.99533364  0.66668748  0.06048649  1
  O  O22  1  0.07189030  0.25798595  0.79491739  1
  O  O23  1  0.09936540  0.27225464  0.29015963  1
  O  O24  1  0.27310615  0.10161825  0.95510686  1
  O  O25  1  0.98038961  0.60015894  0.91694586  1
  O  O26  1  0.25925748  0.07169975  0.45029697  1
  O  O27  1  0.02729238  0.57890694  0.41299592  1
  O  O28  1  0.58130950  0.03111383  0.83248848  1
  O  O29  1  0.26817805  0.65122626  0.56766982  1
  O  O30  1  0.60127730  0.98441477  0.32854487  1
  O  O31  1  0.26291985  0.65677878  0.06907112  1
  O  O32  1  0.35858708  0.73290034  0.80911528  1
  O  O33  1  0.29702826  0.76434647  0.32032980  1
  O  O34  1  0.63969924  0.26928636  0.69414164  1
  O  O35  1  0.64565717  0.26517300  0.18414492  1
  O  O36  1  0.75053247  0.31180368  0.94165982  1
  O  O37  1  0.41277815  0.97922622  0.66650719  1
  O  O38  1  0.73007968  0.36220622  0.44338618  1
  O  O39  1  0.41370697  0.97327319  0.16858553  1
  O  O40  1  0.97180631  0.42007985  0.57629760  1
  O  O41  1  0.97145794  0.42043402  0.07676240  1
  O  O42  1  0.74770463  0.92949947  0.54052273  1
  O  O43  1  0.74597804  0.92332439  0.03727470  1
  O  O44  1  0.92395492  0.74176788  0.70260706  1
  O  O45  1  0.92273234  0.74508209  0.20754867  1
