# generated using pymatgen
data_Gd4As2O9
_symmetry_space_group_name_H-M   'P 1'
_cell_length_a   7.39936257
_cell_length_b   10.92489165
_cell_length_c   12.30841470
_cell_angle_alpha   90.00000000
_cell_angle_beta   107.13955043
_cell_angle_gamma   90.00000000
_symmetry_Int_Tables_number   1
_chemical_formula_structural   Gd4As2O9
_chemical_formula_sum   'Gd16 As8 O36'
_cell_volume   950.79103819
_cell_formula_units_Z   4
loop_
 _symmetry_equiv_pos_site_id
 _symmetry_equiv_pos_as_xyz
  1  'x, y, z'
loop_
 _atom_site_type_symbol
 _atom_site_label
 _atom_site_symmetry_multiplicity
 _atom_site_fract_x
 _atom_site_fract_y
 _atom_site_fract_z
 _atom_site_occupancy
  Gd  Gd0  1  0.00623053  0.13834006  0.76625569  1
  Gd  Gd1  1  0.00623053  0.36165994  0.26625569  1
  Gd  Gd2  1  0.16987434  0.89872223  0.58893876  1
  Gd  Gd3  1  0.32626245  0.39529391  0.90558894  1
  Gd  Gd4  1  0.16987434  0.60127777  0.08893876  1
  Gd  Gd5  1  0.32626245  0.10470609  0.40558894  1
  Gd  Gd6  1  0.50406427  0.65765785  0.75968437  1
  Gd  Gd7  1  0.49593573  0.15765785  0.74031563  1
  Gd  Gd8  1  0.50406427  0.84234215  0.25968437  1
  Gd  Gd9  1  0.49593573  0.34234215  0.24031563  1
  Gd  Gd10  1  0.67373755  0.89529391  0.59441106  1
  Gd  Gd11  1  0.83012566  0.39872223  0.91106124  1
  Gd  Gd12  1  0.67373755  0.60470609  0.09441106  1
  Gd  Gd13  1  0.83012566  0.10127777  0.41106124  1
  Gd  Gd14  1  0.99376947  0.63834006  0.73374431  1
  Gd  Gd15  1  0.99376947  0.86165994  0.23374431  1
  As  As16  1  0.18697235  0.38681871  0.60317391  1
  As  As17  1  0.33526224  0.88847223  0.89902142  1
  As  As18  1  0.18697235  0.11318129  0.10317391  1
  As  As19  1  0.33526224  0.61152777  0.39902142  1
  As  As20  1  0.66473776  0.38847223  0.60097858  1
  As  As21  1  0.81302765  0.88681871  0.89682609  1
  As  As22  1  0.66473776  0.11152777  0.10097858  1
  As  As23  1  0.81302765  0.61318129  0.39682609  1
  O  O24  1  0.07575085  0.26859836  0.91265039  1
  O  O25  1  0.07569104  0.53851606  0.90429663  1
  O  O26  1  0.24502320  0.76801003  0.79985346  1
  O  O27  1  0.20000512  0.26799447  0.70559452  1
  O  O28  1  0.07575085  0.23140164  0.41265039  1
  O  O29  1  0.07569104  0.96148394  0.40429663  1
  O  O30  1  0.28725154  0.01180256  0.79491915  1
  O  O31  1  0.24633844  0.51016544  0.70933238  1
  O  O32  1  0.24502320  0.73198997  0.29985346  1
  O  O33  1  0.20000512  0.23200553  0.20559452  1
  O  O34  1  0.42571716  0.77491198  0.60571200  1
  O  O35  1  0.28725154  0.48819744  0.29491915  1
  O  O36  1  0.42231900  0.34118486  0.59455870  1
  O  O37  1  0.58462541  0.54025292  0.91486941  1
  O  O38  1  0.24633844  0.98983456  0.20933238  1
  O  O39  1  0.41537459  0.04025292  0.58513059  1
  O  O40  1  0.57768100  0.84118486  0.90544130  1
  O  O41  1  0.57428284  0.27491198  0.89428800  1
  O  O42  1  0.42571716  0.72508802  0.10571200  1
  O  O43  1  0.42231900  0.15881514  0.09455870  1
  O  O44  1  0.58462541  0.95974708  0.41486941  1
  O  O45  1  0.75366156  0.01016544  0.79066762  1
  O  O46  1  0.41537459  0.45974708  0.08513059  1
  O  O47  1  0.57768100  0.65881514  0.40544130  1
  O  O48  1  0.71274846  0.51180256  0.70508085  1
  O  O49  1  0.57428284  0.22508802  0.39428800  1
  O  O50  1  0.79999488  0.76799447  0.79440548  1
  O  O51  1  0.75497680  0.26801003  0.70014654  1
  O  O52  1  0.75366156  0.48983456  0.29066762  1
  O  O53  1  0.71274846  0.98819744  0.20508085  1
  O  O54  1  0.92430896  0.03851606  0.59570337  1
  O  O55  1  0.92424915  0.76859836  0.58734961  1
  O  O56  1  0.79999488  0.73200553  0.29440548  1
  O  O57  1  0.75497680  0.23198997  0.20014654  1
  O  O58  1  0.92430896  0.46148394  0.09570337  1
  O  O59  1  0.92424915  0.73140164  0.08734961  1
