# generated using pymatgen
data_Li2MnPCO7
_symmetry_space_group_name_H-M   'P 1'
_cell_length_a   9.56070820
_cell_length_b   10.03378876
_cell_length_c   6.47671338
_cell_angle_alpha   90.00000000
_cell_angle_beta   90.00000000
_cell_angle_gamma   62.49590563
_symmetry_Int_Tables_number   1
_chemical_formula_structural   Li2MnPCO7
_chemical_formula_sum   'Li8 Mn4 P4 C4 O28'
_cell_volume   551.08991354
_cell_formula_units_Z   4
loop_
 _symmetry_equiv_pos_site_id
 _symmetry_equiv_pos_as_xyz
  1  'x, y, z'
loop_
 _atom_site_type_symbol
 _atom_site_label
 _atom_site_symmetry_multiplicity
 _atom_site_fract_x
 _atom_site_fract_y
 _atom_site_fract_z
 _atom_site_occupancy
  Li  Li0  1  0.73606052  0.26556635  0.96048041  1
  Li  Li1  1  0.73651588  0.26672289  0.53376878  1
  Li  Li2  1  0.73606052  0.76556635  0.53951959  1
  Li  Li3  1  0.73651588  0.76672289  0.96623122  1
  Li  Li4  1  0.26658468  0.23461690  0.46770179  1
  Li  Li5  1  0.26658468  0.73461690  0.03229821  1
  Li  Li6  1  0.11041006  0.05144951  0.25757468  1
  Li  Li7  1  0.11041006  0.55144951  0.24242532  1
  Mn  Mn8  1  0.66229110  0.07539431  0.24912698  1
  Mn  Mn9  1  0.66229110  0.57539431  0.25087302  1
  Mn  Mn10  1  0.32592105  0.43130147  0.75019673  1
  Mn  Mn11  1  0.32592105  0.93130147  0.74980327  1
  P  P12  1  0.58451195  0.07782650  0.74290663  1
  P  P13  1  0.58451195  0.57782650  0.75709337  1
  P  P14  1  0.41661978  0.43225134  0.24535867  1
  P  P15  1  0.41661978  0.93225134  0.25464133  1
  C  C16  1  0.95070702  0.37660915  0.27087572  1
  C  C17  1  0.95070702  0.87660915  0.22912428  1
  C  C18  1  0.04369301  0.11335078  0.75279995  1
  C  C19  1  0.04369301  0.61335078  0.74720005  1
  O  O20  1  0.92910186  0.01299148  0.23979327  1
  O  O21  1  0.92910186  0.51299148  0.26020673  1
  O  O22  1  0.90303782  0.21809987  0.74849188  1
  O  O23  1  0.81758182  0.36147218  0.26252555  1
  O  O24  1  0.90303782  0.71809987  0.75150812  1
  O  O25  1  0.81758182  0.86147218  0.23747445  1
  O  O26  1  0.66766626  0.09564875  0.93921179  1
  O  O27  1  0.68857479  0.07836426  0.55758872  1
  O  O28  1  0.68857479  0.57836426  0.94241128  1
  O  O29  1  0.66766626  0.59564875  0.56078821  1
  O  O30  1  0.58330502  0.29203740  0.25572029  1
  O  O31  1  0.56890566  0.42994965  0.75067948  1
  O  O32  1  0.58330502  0.79203740  0.24427971  1
  O  O33  1  0.56890566  0.92994965  0.74932052  1
  O  O34  1  0.44606000  0.07053769  0.26714894  1
  O  O35  1  0.41665981  0.21179192  0.71961376  1
  O  O36  1  0.44606000  0.57053769  0.23285106  1
  O  O37  1  0.41665981  0.71179192  0.78038624  1
  O  O38  1  0.31707284  0.42962067  0.06012889  1
  O  O39  1  0.31275497  0.43539388  0.43056661  1
  O  O40  1  0.31707284  0.92962067  0.43987111  1
  O  O41  1  0.31275497  0.93539388  0.06943339  1
  O  O42  1  0.16559968  0.14273550  0.72893987  1
  O  O43  1  0.08166491  0.26031638  0.28879286  1
  O  O44  1  0.16559968  0.64273550  0.77106013  1
  O  O45  1  0.08166491  0.76031638  0.21120714  1
  O  O46  1  0.08491952  0.47300717  0.72042102  1
  O  O47  1  0.08491952  0.97300717  0.77957898  1
