# generated using pymatgen
data_Li12Mn3V5(PO4)12
_symmetry_space_group_name_H-M   'P 1'
_cell_length_a   8.68800563
_cell_length_b   12.40275776
_cell_length_c   8.65224605
_cell_angle_alpha   89.74761893
_cell_angle_beta   90.02911393
_cell_angle_gamma   91.75908228
_symmetry_Int_Tables_number   1
_chemical_formula_structural   Li12Mn3V5(PO4)12
_chemical_formula_sum   'Li12 Mn3 V5 P12 O48'
_cell_volume   931.87628183
_cell_formula_units_Z   1
loop_
 _symmetry_equiv_pos_site_id
 _symmetry_equiv_pos_as_xyz
  1  'x, y, z'
loop_
 _atom_site_type_symbol
 _atom_site_label
 _atom_site_symmetry_multiplicity
 _atom_site_fract_x
 _atom_site_fract_y
 _atom_site_fract_z
 _atom_site_occupancy
  Li  Li0  1  0.07705700  0.69707440  0.08094111  1
  Li  Li1  1  0.08467350  0.76004593  0.69764754  1
  Li  Li2  1  0.20777250  0.17485403  0.78258441  1
  Li  Li3  1  0.29126672  0.32592893  0.28090563  1
  Li  Li4  1  0.41613657  0.73838412  0.19465014  1
  Li  Li5  1  0.42537775  0.80215577  0.58358691  1
  Li  Li6  1  0.57721724  0.19849154  0.41902589  1
  Li  Li7  1  0.58584479  0.26235112  0.80400953  1
  Li  Li8  1  0.70770850  0.67370049  0.71800232  1
  Li  Li9  1  0.79195321  0.82533966  0.21714076  1
  Li  Li10  1  0.91275231  0.23901098  0.30442239  1
  Li  Li11  1  0.92216342  0.30205673  0.91895923  1
  Mn  Mn12  1  0.25302322  0.89607847  0.03432685  1
  Mn  Mn13  1  0.74714594  0.10374472  0.96554639  1
  Mn  Mn14  1  0.75280910  0.39657641  0.46546713  1
  V  V15  1  0.24862029  0.60784423  0.53088111  1
  V  V16  1  0.24678722  0.11013754  0.46097398  1
  V  V17  1  0.25230173  0.39027283  0.96042347  1
  V  V18  1  0.74707067  0.60989228  0.03814598  1
  V  V19  1  0.75315051  0.88960312  0.53949259  1
  P  P20  1  0.03712230  0.49274162  0.24718338  1
  P  P21  1  0.10475717  0.85297454  0.38257660  1
  P  P22  1  0.10171685  0.15096894  0.10343213  1
  P  P23  1  0.39625399  0.35156733  0.60289755  1
  P  P24  1  0.39607948  0.64502492  0.88409670  1
  P  P25  1  0.46168715  0.00691886  0.74894019  1
  P  P26  1  0.53875238  0.99356450  0.25092412  1
  P  P27  1  0.60379909  0.35560081  0.11728079  1
  P  P28  1  0.60412158  0.65208840  0.39609650  1
  P  P29  1  0.89850122  0.84892006  0.89667954  1
  P  P30  1  0.89545430  0.14378288  0.61793854  1
  P  P31  1  0.96094508  0.50670035  0.75074990  1
  O  O32  1  0.04574229  0.43431296  0.86709975  1
  O  O33  1  0.07869442  0.85192238  0.88424780  1
  O  O34  1  0.06825788  0.59631151  0.68074913  1
  O  O35  1  0.07039017  0.16683665  0.59894222  1
  O  O36  1  0.10724319  0.57103500  0.36620778  1
  O  O37  1  0.14329311  0.82097188  0.21144876  1
  O  O38  1  0.14830448  0.97189153  0.41084785  1
  O  O39  1  0.14131179  0.24288116  0.98308118  1
  O  O40  1  0.15754833  0.18708082  0.26764080  1
  O  O41  1  0.17001239  0.43254176  0.16898673  1
  O  O42  1  0.17095408  0.04842991  0.04752944  1
  O  O43  1  0.19543099  0.78224373  0.49929514  1
  O  O44  1  0.30385078  0.71022713  0.00298114  1
  O  O45  1  0.32815918  0.45589747  0.54913474  1
  O  O46  1  0.32958969  0.06767604  0.66908938  1
  O  O47  1  0.34035198  0.31303163  0.76604430  1
  O  O48  1  0.35592646  0.52475465  0.90708299  1
  O  O49  1  0.35728542  0.68013314  0.71421484  1
  O  O50  1  0.35607848  0.26041996  0.48205202  1
  O  O51  1  0.39368830  0.92613595  0.86814967  1
  O  O52  1  0.43205747  0.90290258  0.18108618  1
  O  O53  1  0.42455087  0.64927698  0.38459757  1
  O  O54  1  0.42875143  0.33245436  0.09792622  1
  O  O55  1  0.45392896  0.06584366  0.36602845  1
  O  O56  1  0.54667718  0.93515393  0.63349966  1
  O  O57  1  0.57120772  0.66799379  0.90301085  1
  O  O58  1  0.57640179  0.35345003  0.61490391  1
  O  O59  1  0.56784209  0.09766772  0.81890415  1
  O  O60  1  0.60609276  0.07406738  0.13064094  1
  O  O61  1  0.64163180  0.74338669  0.51757872  1
  O  O62  1  0.64297955  0.32120088  0.28832062  1
  O  O63  1  0.64373241  0.47558575  0.09425704  1
  O  O64  1  0.65924933  0.68946582  0.23269360  1
  O  O65  1  0.67142249  0.93333922  0.33003237  1
  O  O66  1  0.67283494  0.54943404  0.45345852  1
  O  O67  1  0.69573968  0.28965571  0.99879496  1
  O  O68  1  0.80305794  0.21007403  0.49972174  1
  O  O69  1  0.82904800  0.95162647  0.95246485  1
  O  O70  1  0.82758264  0.56599866  0.82896251  1
  O  O71  1  0.84269826  0.81179373  0.73319021  1
  O  O72  1  0.85942938  0.75711913  0.01717750  1
  O  O73  1  0.85566068  0.02383648  0.59432234  1
  O  O74  1  0.85649206  0.17761119  0.78895472  1
  O  O75  1  0.89448174  0.42542759  0.63133072  1
  O  O76  1  0.92970502  0.83146277  0.40246043  1
  O  O77  1  0.93052420  0.40197804  0.31803564  1
  O  O78  1  0.92161961  0.14853788  0.11585912  1
  O  O79  1  0.95245980  0.56451974  0.13103148  1
