# generated using pymatgen
data_V2Ni(H4O5)2
_symmetry_space_group_name_H-M   'P 1'
_cell_length_a   8.38398467
_cell_length_b   8.38398467
_cell_length_c   6.92232137
_cell_angle_alpha   72.84193269
_cell_angle_beta   107.15806731
_cell_angle_gamma   108.27818615
_symmetry_Int_Tables_number   1
_chemical_formula_structural   V2Ni(H4O5)2
_chemical_formula_sum   'V4 Ni2 H16 O20'
_cell_volume   430.33052749
_cell_formula_units_Z   2
loop_
 _symmetry_equiv_pos_site_id
 _symmetry_equiv_pos_as_xyz
  1  'x, y, z'
loop_
 _atom_site_type_symbol
 _atom_site_label
 _atom_site_symmetry_multiplicity
 _atom_site_fract_x
 _atom_site_fract_y
 _atom_site_fract_z
 _atom_site_occupancy
  V  V0  1  0.13433541  0.92524255  0.69387601  1
  V  V1  1  0.92524255  0.13433541  0.80612399  1
  V  V2  1  0.86566459  0.07475745  0.30612399  1
  V  V3  1  0.07475745  0.86566459  0.19387601  1
  Ni  Ni4  1  -0.00000000  0.50000000  0.00000000  1
  Ni  Ni5  1  0.50000000  -0.00000000  0.50000000  1
  H  H6  1  0.62060562  0.22889209  0.96651422  1
  H  H7  1  0.22889209  0.62060562  0.53348578  1
  H  H8  1  0.37939438  0.77110791  0.03348578  1
  H  H9  1  0.77110791  0.37939438  0.46651422  1
  H  H10  1  0.43641134  0.19353744  0.82447545  1
  H  H11  1  0.19353744  0.43641134  0.67552455  1
  H  H12  1  0.56358866  0.80646256  0.17552455  1
  H  H13  1  0.80646256  0.56358866  0.32447545  1
  H  H14  1  0.46559369  0.23215447  0.15063712  1
  H  H15  1  0.23215447  0.46559369  0.34936288  1
  H  H16  1  0.53440631  0.76784553  0.84936288  1
  H  H17  1  0.76784553  0.53440631  0.65063712  1
  H  H18  1  0.51566703  0.32495022  0.33604500  1
  H  H19  1  0.32495022  0.51566703  0.16395500  1
  H  H20  1  0.48433297  0.67504978  0.66395500  1
  H  H21  1  0.67504978  0.48433297  0.83604500  1
  O  O22  1  0.10564663  0.98853725  0.92433400  1
  O  O23  1  0.98853725  0.10564663  0.57566600  1
  O  O24  1  0.89435337  0.01146275  0.07566600  1
  O  O25  1  0.01146275  0.89435337  0.42433400  1
  O  O26  1  0.02798767  0.33800089  0.82988750  1
  O  O27  1  0.33800089  0.02798767  0.67011250  1
  O  O28  1  0.97201233  0.66199911  0.17011250  1
  O  O29  1  0.66199911  0.97201233  0.32988750  1
  O  O30  1  0.86333943  0.28140312  0.17929999  1
  O  O31  1  0.28140312  0.86333943  0.32070001  1
  O  O32  1  0.13666057  0.71859688  0.82070001  1
  O  O33  1  0.71859688  0.13666057  0.67929999  1
  O  O34  1  0.44894682  0.21681793  0.29329064  1
  O  O35  1  0.21681793  0.44894682  0.20670936  1
  O  O36  1  0.55105318  0.78318207  0.70670936  1
  O  O37  1  0.78318207  0.55105318  0.79329064  1
  O  O38  1  0.51326563  0.26701901  0.92093261  1
  O  O39  1  0.26701901  0.51326563  0.57906739  1
  O  O40  1  0.48673437  0.73298099  0.07906739  1
  O  O41  1  0.73298099  0.48673437  0.42093261  1
