# generated using pymatgen
data_V2CoO6
_symmetry_space_group_name_H-M   'P 1'
_cell_length_a   3.54041608
_cell_length_b   5.02858941
_cell_length_c   6.73244627
_cell_angle_alpha   109.86150030
_cell_angle_beta   90.00000000
_cell_angle_gamma   110.61144681
_symmetry_Int_Tables_number   1
_chemical_formula_structural   V2CoO6
_chemical_formula_sum   'V2 Co1 O6'
_cell_volume   104.53580286
_cell_formula_units_Z   1
loop_
 _symmetry_equiv_pos_site_id
 _symmetry_equiv_pos_as_xyz
  1  'x, y, z'
loop_
 _atom_site_type_symbol
 _atom_site_label
 _atom_site_symmetry_multiplicity
 _atom_site_fract_x
 _atom_site_fract_y
 _atom_site_fract_z
 _atom_site_occupancy
  V  V0  1  0.79308702  0.61295619  0.34422235  1
  V  V1  1  0.18013083  0.38704381  0.65577765  1
  Co  Co2  1  0.99931377  0.00000000  -0.00000000  1
  O  O3  1  0.67982150  0.38560542  0.56491277  1
  O  O4  1  0.02240800  0.07121594  0.72457473  1
  O  O5  1  0.95119206  0.92878406  0.27542527  1
  O  O6  1  0.29421608  0.61439458  0.43508723  1
  O  O7  1  0.33039354  0.69395635  0.88907877  1
  O  O8  1  0.63643719  0.30604365  0.11092123  1
