# generated using pymatgen
data_Li2Cr3WO8
_symmetry_space_group_name_H-M   'P 1'
_cell_length_a   6.03768086
_cell_length_b   6.03768098
_cell_length_c   6.03768072
_cell_angle_alpha   59.77800245
_cell_angle_beta   59.77799990
_cell_angle_gamma   59.77800229
_symmetry_Int_Tables_number   1
_chemical_formula_structural   Li2Cr3WO8
_chemical_formula_sum   'Li2 Cr3 W1 O8'
_cell_volume   154.84635094
_cell_formula_units_Z   1
loop_
 _symmetry_equiv_pos_site_id
 _symmetry_equiv_pos_as_xyz
  1  'x, y, z'
loop_
 _atom_site_type_symbol
 _atom_site_label
 _atom_site_symmetry_multiplicity
 _atom_site_fract_x
 _atom_site_fract_y
 _atom_site_fract_z
 _atom_site_occupancy
  Li  Li0  1  0.12867874  0.12867874  0.12867874  1
  Li  Li1  1  0.87132126  0.87132126  0.87132126  1
  Cr  Cr2  1  -0.00000000  0.50000000  0.50000000  1
  Cr  Cr3  1  0.50000000  0.00000000  0.50000000  1
  Cr  Cr4  1  0.50000000  0.50000000  0.00000000  1
  W  W5  1  0.50000000  0.50000000  0.50000000  1
  O  O6  1  0.26469819  0.26469819  0.26469819  1
  O  O7  1  0.26339702  0.26339702  0.71919087  1
  O  O8  1  0.26339702  0.71919087  0.26339702  1
  O  O9  1  0.71919087  0.26339702  0.26339702  1
  O  O10  1  0.28080913  0.73660298  0.73660298  1
  O  O11  1  0.73660298  0.28080913  0.73660298  1
  O  O12  1  0.73660298  0.73660298  0.28080913  1
  O  O13  1  0.73530181  0.73530181  0.73530181  1
