# generated using pymatgen
data_CeCuSe2
_symmetry_space_group_name_H-M   'P 1'
_cell_length_a   6.69560435
_cell_length_b   7.24446494
_cell_length_c   7.51159524
_cell_angle_alpha   90.00000000
_cell_angle_beta   90.00000000
_cell_angle_gamma   96.88179153
_symmetry_Int_Tables_number   1
_chemical_formula_structural   CeCuSe2
_chemical_formula_sum   'Ce4 Cu4 Se8'
_cell_volume   361.73294409
_cell_formula_units_Z   4
loop_
 _symmetry_equiv_pos_site_id
 _symmetry_equiv_pos_as_xyz
  1  'x, y, z'
loop_
 _atom_site_type_symbol
 _atom_site_label
 _atom_site_symmetry_multiplicity
 _atom_site_fract_x
 _atom_site_fract_y
 _atom_site_fract_z
 _atom_site_occupancy
  Cu  Cu0  1  0.06188989  0.53908777  0.83802689  1
  Cu  Cu1  1  0.93811011  0.46091223  0.16197311  1
  Cu  Cu2  1  0.06188989  0.03908777  0.66197311  1
  Cu  Cu3  1  0.93811011  0.96091223  0.33802689  1
  Se  Se4  1  0.41285971  0.00022101  0.72458716  1
  Se  Se5  1  0.41285971  0.50022101  0.77541284  1
  Se  Se6  1  0.58714029  0.49977899  0.22458716  1
  Se  Se7  1  0.58714029  0.99977899  0.27541284  1
  Se  Se8  1  0.90050090  0.71606381  0.61242660  1
  Se  Se9  1  0.09949910  0.78393619  0.11242660  1
  Se  Se10  1  0.09949910  0.28393619  0.38757340  1
  Se  Se11  1  0.90050090  0.21606381  0.88757340  1
  Ce  Ce12  1  0.69104852  0.29958353  0.54759106  1
  Ce  Ce13  1  0.30895148  0.20041647  0.04759106  1
  Ce  Ce14  1  0.30895148  0.70041647  0.45240894  1
  Ce  Ce15  1  0.69104852  0.79958353  0.95240894  1
