# generated using pymatgen
data_Li2VF6
_symmetry_space_group_name_H-M   'P 1'
_cell_length_a   9.87388000
_cell_length_b   11.30155162
_cell_length_c   9.96160582
_cell_angle_alpha   64.07947280
_cell_angle_beta   90.14119285
_cell_angle_gamma   64.24437821
_symmetry_Int_Tables_number   1
_chemical_formula_structural   Li2VF6
_chemical_formula_sum   'Li16 V8 F48'
_cell_volume   874.69575831
_cell_formula_units_Z   8
loop_
 _symmetry_equiv_pos_site_id
 _symmetry_equiv_pos_as_xyz
  1  'x, y, z'
loop_
 _atom_site_type_symbol
 _atom_site_label
 _atom_site_symmetry_multiplicity
 _atom_site_fract_x
 _atom_site_fract_y
 _atom_site_fract_z
 _atom_site_occupancy
  Li  Li0  1  0.12626057  0.24727090  0.87496499  1
  Li  Li1  1  0.37724699  0.23703115  0.64043483  1
  Li  Li2  1  0.19020848  0.63612930  0.68074451  1
  Li  Li3  1  0.32191486  0.37258652  0.30136937  1
  Li  Li4  1  0.29495273  0.87292696  0.80767057  1
  Li  Li5  1  0.38284502  0.70443440  0.15436340  1
  Li  Li6  1  0.29793750  0.88312842  0.31282854  1
  Li  Li7  1  0.67779435  0.13001233  0.18853341  1
  Li  Li8  1  0.68159296  0.61153776  0.70069219  1
  Li  Li9  1  0.81111778  0.37512935  0.31099157  1
  Li  Li10  1  0.63210579  0.75352274  0.88867060  1
  Li  Li11  1  0.87167641  0.25174813  0.64229691  1
  Li  Li12  1  0.63629626  0.75390967  0.36569801  1
  Li  Li13  1  0.89903333  0.23688841  0.12220125  1
  Li  Li14  1  0.85389539  0.80136372  0.61512036  1
  Li  Li15  1  0.87944239  0.74747810  0.12561242  1
  V  V16  1  0.00000868  0.99949687  0.50115605  1
  V  V17  1  0.00474709  0.99299512  0.00269884  1
  V  V18  1  0.00475063  0.50231692  0.49904986  1
  V  V19  1  0.00311437  0.50045137  0.99715034  1
  V  V20  1  0.48943466  0.00646571  0.49381260  1
  V  V21  1  0.50244616  0.00158245  0.00291818  1
  V  V22  1  0.49724475  0.49962164  0.50327568  1
  V  V23  1  0.50042181  0.49762321  0.00002810  1
  F  F24  1  0.02364303  0.15469586  0.01125207  1
  F  F25  1  0.13214356  0.00774729  0.37031960  1
  F  F26  1  0.15800672  0.34405296  0.97913938  1
  F  F27  1  0.00460060  0.65786332  0.32683832  1
  F  F28  1  0.36543731  0.99174727  0.63058789  1
  F  F29  1  0.02351347  0.64260633  0.81503666  1
  F  F30  1  0.18684225  0.36279333  0.47556797  1
  F  F31  1  0.12909626  0.49843925  0.13153030  1
  F  F32  1  0.12693474  0.50930890  0.63021392  1
  F  F33  1  0.32683263  0.16092460  0.83432557  1
  F  F34  1  0.00781291  0.82675597  0.50066766  1
  F  F35  1  0.34269651  0.16265143  0.32035157  1
  F  F36  1  0.17228609  0.85654269  0.67071309  1
  F  F37  1  0.50307357  0.15454509  0.52499233  1
  F  F38  1  0.19086175  0.85352800  0.16802319  1
  F  F39  1  0.53529195  0.13217957  0.04416942  1
  F  F40  1  0.37914964  0.50468270  0.85779087  1
  F  F41  1  0.38101251  0.50972172  0.34252847  1
  F  F42  1  0.62285585  0.99345718  0.86869199  1
  F  F43  1  0.13613004  0.00166265  0.86882162  1
  F  F44  1  0.32917815  0.64462778  0.52295916  1
  F  F45  1  0.47086670  0.35448691  0.16674636  1
  F  F46  1  0.33020490  0.66919972  0.99508363  1
  F  F47  1  0.46761303  0.35052442  0.65227986  1
  F  F48  1  0.50994426  0.66994359  0.33650622  1
  F  F49  1  0.68380027  0.33327717  0.01608959  1
  F  F50  1  0.54156164  0.64643692  0.83805600  1
  F  F51  1  0.67746083  0.36973810  0.47414676  1
  F  F52  1  0.87516869  0.00522527  0.13473346  1
  F  F53  1  0.37573063  0.98628508  0.13694746  1
  F  F54  1  0.63362696  0.49325951  0.64292821  1
  F  F55  1  0.61657341  0.51096930  0.13790295  1
  F  F56  1  0.46826486  0.85238653  0.97009811  1
  F  F57  1  0.84181668  0.13756766  0.82869692  1
  F  F58  1  0.47834057  0.85601333  0.45609130  1
  F  F59  1  0.83579750  0.14924700  0.31374063  1
  F  F60  1  0.65962151  0.82957509  0.67587262  1
  F  F61  1  0.98060277  0.16858087  0.51531155  1
  F  F62  1  0.67875297  0.83648879  0.17022640  1
  F  F63  1  0.87170242  0.49127062  0.37901023  1
  F  F64  1  0.85947465  0.50803940  0.86751053  1
  F  F65  1  0.82066246  0.64661821  0.52912163  1
  F  F66  1  0.95356423  0.36376374  0.16251574  1
  F  F67  1  0.65022702  0.98774706  0.39197858  1
  F  F68  1  0.99307738  0.34120425  0.67122903  1
  F  F69  1  0.83171353  0.66278257  0.01205580  1
  F  F70  1  0.85929650  0.98721832  0.61464824  1
  F  F71  1  0.98483812  0.83918555  0.00187457  1
