# generated using pymatgen
data_CeMg14Sn
_symmetry_space_group_name_H-M   'P 1'
_cell_length_a   6.39902460
_cell_length_b   6.39902408
_cell_length_c   10.51181491
_cell_angle_alpha   90.00000000
_cell_angle_beta   90.00000000
_cell_angle_gamma   120.00000270
_symmetry_Int_Tables_number   1
_chemical_formula_structural   CeMg14Sn
_chemical_formula_sum   'Ce1 Mg14 Sn1'
_cell_volume   372.76561870
_cell_formula_units_Z   1
loop_
 _symmetry_equiv_pos_site_id
 _symmetry_equiv_pos_as_xyz
  1  'x, y, z'
loop_
 _atom_site_type_symbol
 _atom_site_label
 _atom_site_symmetry_multiplicity
 _atom_site_fract_x
 _atom_site_fract_y
 _atom_site_fract_z
 _atom_site_occupancy
  Ce  Ce0  1  0.16666700  0.33333300  0.62500000  1
  Mg  Mg1  1  0.16163629  0.83081765  0.12500000  1
  Mg  Mg2  1  0.17791189  0.83895545  0.62500000  1
  Mg  Mg3  1  0.66918235  0.33836371  0.12500000  1
  Mg  Mg4  1  0.66104455  0.32208811  0.62500000  1
  Mg  Mg5  1  0.66918235  0.83081765  0.12500000  1
  Mg  Mg6  1  0.66104455  0.83895545  0.62500000  1
  Mg  Mg7  1  0.33309232  0.16690768  0.36991555  1
  Mg  Mg8  1  0.33309232  0.16690768  0.88008445  1
  Mg  Mg9  1  0.33309232  0.66618565  0.36991555  1
  Mg  Mg10  1  0.33309232  0.66618565  0.88008445  1
  Mg  Mg11  1  0.83381435  0.16690768  0.36991555  1
  Mg  Mg12  1  0.83381435  0.16690768  0.88008445  1
  Mg  Mg13  1  0.83333300  0.66666700  0.38792042  1
  Mg  Mg14  1  0.83333300  0.66666700  0.86207958  1
  Sn  Sn15  1  0.16666700  0.33333300  0.12500000  1
