# generated using pymatgen
data_CrP2H16N3O10
_symmetry_space_group_name_H-M   'P 1'
_cell_length_a   8.10617205
_cell_length_b   10.19144765
_cell_length_c   15.68674676
_cell_angle_alpha   90.00000000
_cell_angle_beta   105.16357139
_cell_angle_gamma   90.00000000
_symmetry_Int_Tables_number   1
_chemical_formula_structural   CrP2H16N3O10
_chemical_formula_sum   'Cr4 P8 H64 N12 O40'
_cell_volume   1250.81835068
_cell_formula_units_Z   4
loop_
 _symmetry_equiv_pos_site_id
 _symmetry_equiv_pos_as_xyz
  1  'x, y, z'
loop_
 _atom_site_type_symbol
 _atom_site_label
 _atom_site_symmetry_multiplicity
 _atom_site_fract_x
 _atom_site_fract_y
 _atom_site_fract_z
 _atom_site_occupancy
  Cr  Cr0  1  0.34574185  0.31208701  0.56665502  1
  Cr  Cr1  1  0.65425815  0.81208701  0.93334498  1
  Cr  Cr2  1  0.65425815  0.68791299  0.43334498  1
  Cr  Cr3  1  0.34574185  0.18791299  0.06665502  1
  P  P4  1  0.68708638  0.22522638  0.50412227  1
  P  P5  1  0.31291362  0.72522638  0.99587773  1
  P  P6  1  0.31291362  0.77477362  0.49587773  1
  P  P7  1  0.68708638  0.27477362  0.00412227  1
  P  P8  1  0.64516461  0.11235863  0.67201268  1
  P  P9  1  0.35483539  0.61235863  0.82798732  1
  P  P10  1  0.35483539  0.88764137  0.32798732  1
  P  P11  1  0.64516461  0.38764137  0.17201268  1
  H  H12  1  0.50047772  0.93539606  0.60711142  1
  H  H13  1  0.49952228  0.43539606  0.89288858  1
  H  H14  1  0.49952228  0.06460394  0.39288858  1
  H  H15  1  0.50047772  0.56460394  0.10711142  1
  H  H16  1  0.19549070  0.54021914  0.49308523  1
  H  H17  1  0.80450930  0.04021914  0.00691477  1
  H  H18  1  0.80450930  0.45978086  0.50691477  1
  H  H19  1  0.19549070  0.95978086  0.99308523  1
  H  H20  1  0.16975085  0.42720464  0.41469742  1
  H  H21  1  0.83024915  0.92720464  0.08530258  1
  H  H22  1  0.83024915  0.57279536  0.58530258  1
  H  H23  1  0.16975085  0.07279536  0.91469742  1
  H  H24  1  0.19704796  0.26356900  0.69581207  1
  H  H25  1  0.80295204  0.76356900  0.80418793  1
  H  H26  1  0.80295204  0.73643100  0.30418793  1
  H  H27  1  0.19704796  0.23643100  0.19581207  1
  H  H28  1  0.15947971  0.41847810  0.66624089  1
  H  H29  1  0.84052029  0.91847810  0.83375911  1
  H  H30  1  0.84052029  0.58152190  0.33375911  1
  H  H31  1  0.15947971  0.08152190  0.16624089  1
  H  H32  1  0.04360364  0.30237502  0.60484541  1
  H  H33  1  0.95639636  0.80237502  0.89515459  1
  H  H34  1  0.95639636  0.69762498  0.39515459  1
  H  H35  1  0.04360364  0.19762498  0.10484541  1
  H  H36  1  0.40309026  0.53067233  0.66499977  1
  H  H37  1  0.59690974  0.03067233  0.83500023  1
  H  H38  1  0.59690974  0.46932767  0.33500023  1
  H  H39  1  0.40309026  0.96932767  0.16499977  1
  H  H40  1  0.52757487  0.52874884  0.59767735  1
  H  H41  1  0.47242513  0.02874884  0.90232265  1
  H  H42  1  0.47242513  0.47125116  0.40232265  1
  H  H43  1  0.52757487  0.97125116  0.09767735  1
  H  H44  1  0.58067255  0.44154860  0.69125943  1
  H  H45  1  0.41932745  0.94154860  0.80874057  1
  H  H46  1  0.41932745  0.55845140  0.30874057  1
  H  H47  1  0.58067255  0.05845140  0.19125943  1
  H  H48  1  0.22374259  0.07169025  0.51505901  1
  H  H49  1  0.77625741  0.57169025  0.98494099  1
  H  H50  1  0.77625741  0.92830975  0.48494099  1
  H  H51  1  0.22374259  0.42830975  0.01505901  1
  H  H52  1  0.22131663  0.16092706  0.42788741  1
  H  H53  1  0.77868337  0.66092706  0.07211259  1
  H  H54  1  0.77868337  0.83907294  0.57211259  1
  H  H55  1  0.22131663  0.33907294  0.92788741  1
  H  H56  1  0.06766034  0.18399643  0.47850034  1
  H  H57  1  0.93233966  0.68399643  0.02149966  1
  H  H58  1  0.93233966  0.81600357  0.52149966  1
  H  H59  1  0.06766034  0.31600357  0.97850034  1
  H  H60  1  0.13281108  0.47619601  0.27070418  1
  H  H61  1  0.86718892  0.97619601  0.22929582  1
  H  H62  1  0.86718892  0.52380399  0.72929582  1
  H  H63  1  0.13281108  0.02380399  0.77070418  1
  H  H64  1  0.98051829  0.39283166  0.28954027  1
  H  H65  1  0.01948171  0.89283166  0.21045973  1
  H  H66  1  0.01948171  0.60716834  0.71045973  1
  H  H67  1  0.98051829  0.10716834  0.78954027  1
  H  H68  1  0.79174928  0.30227464  0.78436586  1
  H  H69  1  0.20825072  0.80227464  0.71563414  1
  H  H70  1  0.20825072  0.69772536  0.21563414  1
  H  H71  1  0.79174928  0.19772536  0.28436586  1
  H  H72  1  0.75432998  0.40660529  0.84866602  1
  H  H73  1  0.24567002  0.90660529  0.65133398  1
  H  H74  1  0.24567002  0.59339471  0.15133398  1
  H  H75  1  0.75432998  0.09339471  0.34866602  1
  N  N76  1  0.16481536  0.32519415  0.64236917  1
  N  N77  1  0.83518464  0.82519415  0.85763083  1
  N  N78  1  0.83518464  0.67480585  0.35763083  1
  N  N79  1  0.16481536  0.17480585  0.14236917  1
  N  N80  1  0.48033209  0.47067287  0.63928569  1
  N  N81  1  0.51966791  0.97067287  0.86071431  1
  N  N82  1  0.51966791  0.52932713  0.36071431  1
  N  N83  1  0.48033209  0.02932713  0.13928569  1
  N  N84  1  0.19541874  0.16418877  0.48843539  1
  N  N85  1  0.80458126  0.66418877  0.01156461  1
  N  N86  1  0.80458126  0.83581123  0.51156461  1
  N  N87  1  0.19541874  0.33581123  0.98843539  1
  O  O88  1  0.51627203  0.29785029  0.49430449  1
  O  O89  1  0.48372797  0.79785029  0.00569551  1
  O  O90  1  0.48372797  0.70214971  0.50569551  1
  O  O91  1  0.51627203  0.20214971  0.99430449  1
  O  O92  1  0.83244761  0.31279321  0.49492111  1
  O  O93  1  0.16755239  0.81279321  0.00507889  1
  O  O94  1  0.16755239  0.68720679  0.50507889  1
  O  O95  1  0.83244761  0.18720679  0.99492111  1
  O  O96  1  0.66565874  0.10181970  0.44570989  1
  O  O97  1  0.33434126  0.60181970  0.05429011  1
  O  O98  1  0.33434126  0.89818030  0.55429011  1
  O  O99  1  0.66565874  0.39818030  0.94570989  1
  O  O100  1  0.75048587  0.17474834  0.60745485  1
  O  O101  1  0.24951413  0.67474834  0.89254515  1
  O  O102  1  0.24951413  0.82525166  0.39254515  1
  O  O103  1  0.75048587  0.32525166  0.10745485  1
  O  O104  1  0.47156941  0.18091774  0.65464019  1
  O  O105  1  0.52843059  0.68091774  0.84535981  1
  O  O106  1  0.52843059  0.81908226  0.34535981  1
  O  O107  1  0.47156941  0.31908226  0.15464019  1
  O  O108  1  0.75900605  0.12753923  0.76474451  1
  O  O109  1  0.24099395  0.62753923  0.73525549  1
  O  O110  1  0.24099395  0.87246077  0.23525549  1
  O  O111  1  0.75900605  0.37246077  0.26474451  1
  O  O112  1  0.62080592  0.96255880  0.64887305  1
  O  O113  1  0.37919408  0.46255880  0.85112695  1
  O  O114  1  0.37919408  0.03744120  0.35112695  1
  O  O115  1  0.62080592  0.53744120  0.14887305  1
  O  O116  1  0.21069538  0.44271418  0.48055721  1
  O  O117  1  0.78930462  0.94271418  0.01944279  1
  O  O118  1  0.78930462  0.55728582  0.51944279  1
  O  O119  1  0.21069538  0.05728582  0.98055721  1
  O  O120  1  0.10653534  0.40574781  0.30864976  1
  O  O121  1  0.89346466  0.90574781  0.19135024  1
  O  O122  1  0.89346466  0.59425219  0.69135024  1
  O  O123  1  0.10653534  0.09425219  0.80864976  1
  O  O124  1  0.78969019  0.39865638  0.79314044  1
  O  O125  1  0.21030981  0.89865638  0.70685956  1
  O  O126  1  0.21030981  0.60134362  0.20685956  1
  O  O127  1  0.78969019  0.10134362  0.29314044  1
