# generated using pymatgen
data_RbNaB4H4O13
_symmetry_space_group_name_H-M   'P 1'
_cell_length_a   7.28003820
_cell_length_b   11.19499561
_cell_length_c   14.42230303
_cell_angle_alpha   90.00000000
_cell_angle_beta   93.05250465
_cell_angle_gamma   90.00000000
_symmetry_Int_Tables_number   1
_chemical_formula_structural   RbNaB4H4O13
_chemical_formula_sum   'Rb4 Na4 B16 H16 O52'
_cell_volume   1173.74990076
_cell_formula_units_Z   4
loop_
 _symmetry_equiv_pos_site_id
 _symmetry_equiv_pos_as_xyz
  1  'x, y, z'
loop_
 _atom_site_type_symbol
 _atom_site_label
 _atom_site_symmetry_multiplicity
 _atom_site_fract_x
 _atom_site_fract_y
 _atom_site_fract_z
 _atom_site_occupancy
  Rb  Rb0  1  0.03392767  0.41366792  0.61742108  1
  Rb  Rb1  1  0.96607233  0.91366792  0.88257892  1
  Rb  Rb2  1  0.96607233  0.58633208  0.38257892  1
  Rb  Rb3  1  0.03392767  0.08633208  0.11742108  1
  Na  Na4  1  0.97625682  0.39849687  0.84348600  1
  Na  Na5  1  0.02374318  0.89849687  0.65651400  1
  Na  Na6  1  0.02374318  0.60150313  0.15651400  1
  Na  Na7  1  0.97625682  0.10150313  0.34348600  1
  B  B8  1  0.63564458  0.40305477  0.41037847  1
  B  B9  1  0.36435542  0.90305477  0.08962153  1
  B  B10  1  0.36435542  0.59694523  0.58962153  1
  B  B11  1  0.63564458  0.09694523  0.91037847  1
  B  B12  1  0.37073939  0.18412108  0.29378354  1
  B  B13  1  0.62926061  0.68412108  0.20621646  1
  B  B14  1  0.62926061  0.81587892  0.70621646  1
  B  B15  1  0.37073939  0.31587892  0.79378354  1
  B  B16  1  0.36478556  0.40226050  0.29051454  1
  B  B17  1  0.63521444  0.90226050  0.20948546  1
  B  B18  1  0.63521444  0.59773950  0.70948546  1
  B  B19  1  0.36478556  0.09773950  0.79051454  1
  B  B20  1  0.65327405  0.30032721  0.25879443  1
  B  B21  1  0.34672595  0.80032721  0.24120557  1
  B  B22  1  0.34672595  0.69967279  0.74120557  1
  B  B23  1  0.65327405  0.19967279  0.75879443  1
  H  H24  1  0.68103808  0.43257189  0.74939635  1
  H  H25  1  0.31896192  0.93257189  0.75060365  1
  H  H26  1  0.31896192  0.56742811  0.25060365  1
  H  H27  1  0.68103808  0.06742811  0.24939635  1
  H  H28  1  0.64553179  0.48806398  0.53647783  1
  H  H29  1  0.35446821  0.98806398  0.96352217  1
  H  H30  1  0.35446821  0.51193602  0.46352217  1
  H  H31  1  0.64553179  0.01193602  0.03647783  1
  H  H32  1  0.72990384  0.22903948  0.63207706  1
  H  H33  1  0.27009616  0.72903948  0.86792294  1
  H  H34  1  0.27009616  0.77096052  0.36792294  1
  H  H35  1  0.72990384  0.27096052  0.13207706  1
  H  H36  1  0.36204522  0.00436225  0.29535102  1
  H  H37  1  0.63795478  0.50436225  0.20464898  1
  H  H38  1  0.63795478  0.99563775  0.70464898  1
  H  H39  1  0.36204522  0.49563775  0.79535102  1
  O  O40  1  0.51760415  0.38980104  0.22703461  1
  O  O41  1  0.48239585  0.88980104  0.27296539  1
  O  O42  1  0.48239585  0.61019896  0.77296539  1
  O  O43  1  0.51760415  0.11019896  0.72703461  1
  O  O44  1  0.55610685  0.18537410  0.27958913  1
  O  O45  1  0.44389315  0.68537410  0.22041087  1
  O  O46  1  0.44389315  0.81462590  0.72041087  1
  O  O47  1  0.55610685  0.31462590  0.77958913  1
  O  O48  1  0.74454736  0.34550498  0.34834280  1
  O  O49  1  0.25545264  0.84550498  0.15165720  1
  O  O50  1  0.25545264  0.65449502  0.65165720  1
  O  O51  1  0.74454736  0.15449502  0.84834280  1
  O  O52  1  0.45500016  0.43076537  0.38784511  1
  O  O53  1  0.54499984  0.93076537  0.11215489  1
  O  O54  1  0.54499984  0.56923463  0.61215489  1
  O  O55  1  0.45500016  0.06923463  0.88784511  1
  O  O56  1  0.26710870  0.28672808  0.29622222  1
  O  O57  1  0.73289130  0.78672808  0.20377778  1
  O  O58  1  0.73289130  0.71327192  0.70377778  1
  O  O59  1  0.26710870  0.21327192  0.79622222  1
  O  O60  1  0.23898409  0.49694502  0.26170175  1
  O  O61  1  0.76101591  0.99694502  0.23829825  1
  O  O62  1  0.76101591  0.50305498  0.73829825  1
  O  O63  1  0.23898409  0.00305498  0.76170175  1
  O  O64  1  0.72084061  0.43819961  0.49397112  1
  O  O65  1  0.27915939  0.93819961  0.00602888  1
  O  O66  1  0.27915939  0.56180039  0.50602888  1
  O  O67  1  0.72084061  0.06180039  0.99397112  1
  O  O68  1  0.79394352  0.27889422  0.19274908  1
  O  O69  1  0.20605648  0.77889422  0.30725092  1
  O  O70  1  0.20605648  0.72110578  0.80725092  1
  O  O71  1  0.79394352  0.22110578  0.69274908  1
  O  O72  1  0.27859599  0.07679914  0.30270797  1
  O  O73  1  0.72140401  0.57679914  0.19729203  1
  O  O74  1  0.72140401  0.92320086  0.69729203  1
  O  O75  1  0.27859599  0.42320086  0.80270797  1
  O  O76  1  0.01957129  0.28700814  0.41971759  1
  O  O77  1  0.98042871  0.78700814  0.08028241  1
  O  O78  1  0.98042871  0.71299186  0.58028241  1
  O  O79  1  0.01957129  0.21299186  0.91971759  1
  O  O80  1  0.54057013  0.45203289  0.00329214  1
  O  O81  1  0.45942987  0.95203289  0.49670786  1
  O  O82  1  0.45942987  0.54796711  0.99670786  1
  O  O83  1  0.54057013  0.04796711  0.50329214  1
  O  O84  1  0.26321104  0.34802269  0.06074602  1
  O  O85  1  0.73678896  0.84802269  0.43925398  1
  O  O86  1  0.73678896  0.65197731  0.93925398  1
  O  O87  1  0.26321104  0.15197731  0.56074602  1
  O  O88  1  0.16525257  0.43683496  0.04719155  1
  O  O89  1  0.83474743  0.93683496  0.45280845  1
  O  O90  1  0.83474743  0.56316504  0.95280845  1
  O  O91  1  0.16525257  0.06316504  0.54719155  1
