# generated using pymatgen
data_KV5Zn(H8O11)2
_symmetry_space_group_name_H-M   'P 1'
_cell_length_a   10.82406474
_cell_length_b   11.28158418
_cell_length_c   8.94943459
_cell_angle_alpha   104.78825738
_cell_angle_beta   107.89486915
_cell_angle_gamma   65.48366230
_symmetry_Int_Tables_number   1
_chemical_formula_structural   KV5Zn(H8O11)2
_chemical_formula_sum   'K2 V10 Zn2 H32 O44'
_cell_volume   935.85344767
_cell_formula_units_Z   2
loop_
 _symmetry_equiv_pos_site_id
 _symmetry_equiv_pos_as_xyz
  1  'x, y, z'
loop_
 _atom_site_type_symbol
 _atom_site_label
 _atom_site_symmetry_multiplicity
 _atom_site_fract_x
 _atom_site_fract_y
 _atom_site_fract_z
 _atom_site_occupancy
  K  K0  1  0.41576819  0.77638950  0.68492809  1
  K  K1  1  0.58423181  0.22361050  0.31507191  1
  V  V2  1  0.00639637  0.52061157  0.32728648  1
  V  V3  1  0.99360363  0.47938843  0.67271352  1
  V  V4  1  0.71700008  0.55507194  0.38898690  1
  V  V5  1  0.28299992  0.44492806  0.61101310  1
  V  V6  1  0.05372833  0.72409033  0.64714337  1
  V  V7  1  0.94627167  0.27590967  0.35285663  1
  V  V8  1  0.76304101  0.75771463  0.69588639  1
  V  V9  1  0.23695899  0.24228537  0.30411361  1
  V  V10  1  0.77790083  0.80240892  0.36853721  1
  V  V11  1  0.22209917  0.19759108  0.63146279  1
  Zn  Zn12  1  0.22521048  0.79384355  0.22805084  1
  Zn  Zn13  1  0.77478952  0.20615645  0.77194916  1
  H  H14  1  0.51416235  0.18618460  0.64587528  1
  H  H15  1  0.48583765  0.81381540  0.35412472  1
  H  H16  1  0.98575518  0.25315137  0.01342373  1
  H  H17  1  0.01424482  0.74684863  0.98657627  1
  H  H18  1  0.62749902  0.04458658  0.60084247  1
  H  H19  1  0.37250098  0.95541342  0.39915753  1
  H  H20  1  0.74768303  0.38943963  0.60233402  1
  H  H21  1  0.25231697  0.61056037  0.39766598  1
  H  H22  1  0.90752735  0.99765294  0.56922464  1
  H  H23  1  0.09247265  0.00234706  0.43077536  1
  H  H24  1  0.30700528  0.68859240  0.95703585  1
  H  H25  1  0.69299472  0.31140760  0.04296415  1
  H  H26  1  0.95364349  0.11861621  0.57769367  1
  H  H27  1  0.04635651  0.88138379  0.42230633  1
  H  H28  1  0.00302833  0.29025927  0.86131477  1
  H  H29  1  0.99697167  0.70974073  0.13868523  1
  H  H30  1  0.88258884  0.96796323  0.87022072  1
  H  H31  1  0.11741116  0.03203677  0.12977928  1
  H  H32  1  0.75703601  0.06956220  0.94980065  1
  H  H33  1  0.24296399  0.93043780  0.05019935  1
  H  H34  1  0.65713250  0.62213206  0.04278892  1
  H  H35  1  0.34286750  0.37786794  0.95721108  1
  H  H36  1  0.73565640  0.57940011  0.90707280  1
  H  H37  1  0.26434360  0.42059989  0.09292720  1
  H  H38  1  0.61105374  0.00636374  0.97243810  1
  H  H39  1  0.38894626  0.99363626  0.02756190  1
  H  H40  1  0.34841498  0.57494842  0.05653874  1
  H  H41  1  0.65158502  0.42505158  0.94346126  1
  H  H42  1  0.61084328  0.44177540  0.67319715  1
  H  H43  1  0.38915672  0.55822460  0.32680285  1
  H  H44  1  0.51379936  0.14335907  0.92313542  1
  H  H45  1  0.48620064  0.85664093  0.07686458  1
  O  O46  1  0.70102395  0.87046972  0.54690976  1
  O  O47  1  0.29897605  0.12953028  0.45309024  1
  O  O48  1  0.90467877  0.61925242  0.51700219  1
  O  O49  1  0.09532123  0.38074758  0.48299781  1
  O  O50  1  0.14701408  0.58732512  0.47764374  1
  O  O51  1  0.85298592  0.41267488  0.52235626  1
  O  O52  1  0.91102695  0.66508876  0.24121765  1
  O  O53  1  0.08897305  0.33491124  0.75878235  1
  O  O54  1  0.13518762  0.55214277  0.73607912  1
  O  O55  1  0.86481238  0.44785723  0.26392088  1
  O  O56  1  0.65734613  0.65819539  0.56619083  1
  O  O57  1  0.34265387  0.34180461  0.43380917  1
  O  O58  1  0.59734416  0.49029766  0.30440275  1
  O  O59  1  0.40265584  0.50970234  0.69559725  1
  O  O60  1  0.66670905  0.69768468  0.28476874  1
  O  O61  1  0.33329095  0.30231532  0.71523126  1
  O  O62  1  0.94455014  0.83516497  0.49614625  1
  O  O63  1  0.05544986  0.16483503  0.50385375  1
  O  O64  1  0.17781559  0.78162926  0.74096140  1
  O  O65  1  0.82218441  0.21837074  0.25903860  1
  O  O66  1  0.93066648  0.79561340  0.77898445  1
  O  O67  1  0.06933352  0.20438660  0.22101555  1
  O  O68  1  0.30050641  0.07767249  0.73724685  1
  O  O69  1  0.69949359  0.92232751  0.26275315  1
  O  O70  1  0.88183189  0.58795233  0.79108384  1
  O  O71  1  0.11816811  0.41204767  0.20891616  1
  O  O72  1  0.67174893  0.84295897  0.82985424  1
  O  O73  1  0.32825107  0.15704103  0.17014576  1
  O  O74  1  0.68203922  0.36263047  0.63263125  1
  O  O75  1  0.31796078  0.63736953  0.36736875  1
  O  O76  1  0.34886445  0.66456366  0.06396519  1
  O  O77  1  0.65113555  0.33543634  0.93603481  1
  O  O78  1  0.88067529  0.09516781  0.59476989  1
  O  O79  1  0.11932471  0.90483219  0.40523011  1
  O  O80  1  0.60565113  0.14095637  0.61843637  1
  O  O81  1  0.39434887  0.85904363  0.38156363  1
  O  O82  1  0.94010794  0.27118844  0.90350757  1
  O  O83  1  0.05989206  0.72881156  0.09649243  1
  O  O84  1  0.83914845  0.06151615  0.91451112  1
  O  O85  1  0.16085155  0.93848385  0.08548888  1
  O  O86  1  0.65211488  0.58185187  0.93089933  1
  O  O87  1  0.34788512  0.41814813  0.06910067  1
  O  O88  1  0.59774540  0.10040095  0.99971579  1
  O  O89  1  0.40225460  0.89959905  0.00028421  1
