# generated using pymatgen
data_Hg2ClO
_symmetry_space_group_name_H-M   'P 1'
_cell_length_a   7.40634620
_cell_length_b   7.27329377
_cell_length_c   9.74592472
_cell_angle_alpha   104.60014528
_cell_angle_beta   90.00000001
_cell_angle_gamma   120.60700862
_symmetry_Int_Tables_number   1
_chemical_formula_structural   Hg2ClO
_chemical_formula_sum   'Hg8 Cl4 O4'
_cell_volume   432.04213602
_cell_formula_units_Z   4
loop_
 _symmetry_equiv_pos_site_id
 _symmetry_equiv_pos_as_xyz
  1  'x, y, z'
loop_
 _atom_site_type_symbol
 _atom_site_label
 _atom_site_symmetry_multiplicity
 _atom_site_fract_x
 _atom_site_fract_y
 _atom_site_fract_z
 _atom_site_occupancy
  Hg  Hg0  1  0.00000000  0.50000000  0.50000000  1
  Hg  Hg1  1  0.50000000  0.50000000  0.00000000  1
  Hg  Hg2  1  0.69659343  0.00000000  0.25000000  1
  Hg  Hg3  1  0.30340657  1.00000000  0.75000000  1
  Hg  Hg4  1  0.19393412  0.90888916  0.11030654  1
  Hg  Hg5  1  0.28504495  0.09111084  0.38969346  1
  Hg  Hg6  1  0.80606588  0.09111084  0.88969346  1
  Hg  Hg7  1  0.71495505  0.90888916  0.61030654  1
  Cl  Cl8  1  0.99041581  0.64098298  0.87392597  1
  Cl  Cl9  1  0.34943282  0.35901702  0.62607403  1
  Cl  Cl10  1  0.00958419  0.35901702  0.12607403  1
  Cl  Cl11  1  0.65056718  0.64098298  0.37392597  1
  O  O12  1  0.60071338  0.82826610  0.03540450  1
  O  O13  1  0.77244728  0.17173390  0.46459550  1
  O  O14  1  0.39928662  0.17173390  0.96459550  1
  O  O15  1  0.22755272  0.82826610  0.53540450  1
