# generated using pymatgen
data_Mo3NO9
_symmetry_space_group_name_H-M   'P 1'
_cell_length_a   11.27375361
_cell_length_b   11.27381993
_cell_length_c   3.75970767
_cell_angle_alpha   89.99874197
_cell_angle_beta   89.99951949
_cell_angle_gamma   120.00480959
_symmetry_Int_Tables_number   1
_chemical_formula_structural   Mo3NO9
_chemical_formula_sum   'Mo6 N2 O18'
_cell_volume   413.81220234
_cell_formula_units_Z   2
loop_
 _symmetry_equiv_pos_site_id
 _symmetry_equiv_pos_as_xyz
  1  'x, y, z'
loop_
 _atom_site_type_symbol
 _atom_site_label
 _atom_site_symmetry_multiplicity
 _atom_site_fract_x
 _atom_site_fract_y
 _atom_site_fract_z
 _atom_site_occupancy
  Mo  Mo0  1  0.89265250  0.35751670  0.25000968  1
  Mo  Mo1  1  0.46489258  0.10736913  0.24999442  1
  Mo  Mo2  1  0.64249178  0.53514453  0.24998719  1
  Mo  Mo3  1  0.10719779  0.64284433  0.74998735  1
  Mo  Mo4  1  0.53562081  0.89278527  0.75000365  1
  Mo  Mo5  1  0.35714648  0.46434015  0.75000959  1
  N  N6  1  0.00000301  0.00000477  0.39744565  1
  N  N7  1  0.00000289  0.00000469  0.10259757  1
  O  O8  1  0.72252861  0.22443326  0.25001189  1
  O  O9  1  0.50190581  0.27747535  0.24998721  1
  O  O10  1  0.77555031  0.49808730  0.24999325  1
  O  O11  1  0.27742705  0.77556387  0.74998554  1
  O  O12  1  0.49813515  0.72257125  0.75000818  1
  O  O13  1  0.22445387  0.50187065  0.75000260  1
  O  O14  1  0.98198393  0.27280535  0.25001575  1
  O  O15  1  0.29083605  0.01800115  0.24999748  1
  O  O16  1  0.72724109  0.70920063  0.24994715  1
  O  O17  1  0.01827334  0.72800004  0.74998295  1
  O  O18  1  0.70971480  0.98174267  0.74999936  1
  O  O19  1  0.27194660  0.29024477  0.75004599  1
  O  O20  1  0.07652649  0.57461176  0.24999356  1
  O  O21  1  0.49805760  0.92344528  0.25000196  1
  O  O22  1  0.42538324  0.50189552  0.25000614  1
  O  O23  1  0.92331645  0.42564946  0.75000390  1
  O  O24  1  0.50236109  0.07671192  0.74999463  1
  O  O25  1  0.57435168  0.49768122  0.74998837  1
