# generated using pymatgen
data_BaCu(SiO3)2
_symmetry_space_group_name_H-M   'P 1'
_cell_length_a   13.26125111
_cell_length_b   13.26125111
_cell_length_c   13.26125111
_cell_angle_alpha   134.98208209
_cell_angle_beta   134.98208209
_cell_angle_gamma   65.55804113
_symmetry_Int_Tables_number   1
_chemical_formula_structural   BaCu(SiO3)2
_chemical_formula_sum   'Ba8 Cu8 Si16 O48'
_cell_volume   1149.46352725
_cell_formula_units_Z   8
loop_
 _symmetry_equiv_pos_site_id
 _symmetry_equiv_pos_as_xyz
  1  'x, y, z'
loop_
 _atom_site_type_symbol
 _atom_site_label
 _atom_site_symmetry_multiplicity
 _atom_site_fract_x
 _atom_site_fract_y
 _atom_site_fract_z
 _atom_site_occupancy
  Ba  Ba0  1  0.24715058  0.99715258  0.74991626  1
  Ba  Ba1  1  0.74723632  0.49723432  0.75008374  1
  Ba  Ba2  1  0.99723432  0.74715058  0.74999800  1
  Ba  Ba3  1  0.49715258  0.24723632  0.75000200  1
  Ba  Ba4  1  0.75284942  0.00284742  0.25008374  1
  Ba  Ba5  1  0.25276368  0.50276568  0.24991626  1
  Ba  Ba6  1  0.00276568  0.25284942  0.25000200  1
  Ba  Ba7  1  0.50284742  0.75276368  0.24999800  1
  Cu  Cu8  1  0.43603935  0.18603935  0.25000000  1
  Cu  Cu9  1  0.68603935  0.93603935  0.75000000  1
  Cu  Cu10  1  0.56396065  0.81396065  0.75000000  1
  Cu  Cu11  1  0.31396065  0.06396065  0.25000000  1
  Cu  Cu12  1  0.93599195  0.68599195  0.25000000  1
  Cu  Cu13  1  0.18599195  0.43599195  0.75000000  1
  Cu  Cu14  1  0.06400805  0.31400805  0.75000000  1
  Cu  Cu15  1  0.81400805  0.56400805  0.25000000  1
  Si  Si16  1  0.87455298  0.89844686  0.52363992  1
  Si  Si17  1  0.87480693  0.35091305  0.97636008  1
  Si  Si18  1  0.85091305  0.37455298  0.47610612  1
  Si  Si19  1  0.39844686  0.37480693  0.02389388  1
  Si  Si20  1  0.12544702  0.10155314  0.47636008  1
  Si  Si21  1  0.12519307  0.64908695  0.02363992  1
  Si  Si22  1  0.14908695  0.62544702  0.52389388  1
  Si  Si23  1  0.60155314  0.62519307  0.97610612  1
  Si  Si24  1  0.10070164  0.12455451  0.97607990  1
  Si  Si25  1  0.64847461  0.12462174  0.52392010  1
  Si  Si26  1  0.62462174  0.60070164  0.47614713  1
  Si  Si27  1  0.62455451  0.14847461  0.02385287  1
  Si  Si28  1  0.89929836  0.87544549  0.02392010  1
  Si  Si29  1  0.35152539  0.87537826  0.47607990  1
  Si  Si30  1  0.37537826  0.39929836  0.52385287  1
  Si  Si31  1  0.37544549  0.85152539  0.97614713  1
  O  O32  1  0.00842820  0.99352285  0.74990096  1
  O  O33  1  0.74362189  0.25852724  0.75009904  1
  O  O34  1  0.75852724  0.50842820  0.51490536  1
  O  O35  1  0.49352285  0.24362189  0.98509464  1
  O  O36  1  0.99157180  0.00647715  0.25009904  1
  O  O37  1  0.25637811  0.74147276  0.24990096  1
  O  O38  1  0.24147276  0.49157180  0.48509464  1
  O  O39  1  0.50647715  0.75637811  0.01490536  1
  O  O40  1  0.11946375  0.06116468  0.05650133  1
  O  O41  1  0.50466335  0.06296242  0.44349867  1
  O  O42  1  0.56296242  0.61946375  0.55829907  1
  O  O43  1  0.56116468  0.00466335  0.94170093  1
  O  O44  1  0.88053625  0.93883532  0.94349867  1
  O  O45  1  0.49533665  0.93703758  0.55650133  1
  O  O46  1  0.43703758  0.38053625  0.44170093  1
  O  O47  1  0.43883532  0.99533665  0.05829907  1
  O  O48  1  0.74101204  0.99102217  0.48542200  1
  O  O49  1  0.00560016  0.25559004  0.01457800  1
  O  O50  1  0.75559004  0.24101204  0.24998987  1
  O  O51  1  0.49102217  0.50560016  0.25001013  1
  O  O52  1  0.25898796  0.00897783  0.51457800  1
  O  O53  1  0.99439984  0.74440996  0.98542200  1
  O  O54  1  0.24440996  0.75898796  0.75001013  1
  O  O55  1  0.50897783  0.49439984  0.74998987  1
  O  O56  1  0.18732823  0.24557552  0.55709616  1
  O  O57  1  0.18847937  0.63023207  0.94290384  1
  O  O58  1  0.13023207  0.68732823  0.44175271  1
  O  O59  1  0.74557552  0.68847937  0.05824729  1
  O  O60  1  0.81267177  0.75442448  0.44290384  1
  O  O61  1  0.81152063  0.36976793  0.05709616  1
  O  O62  1  0.86976793  0.31267177  0.55824729  1
  O  O63  1  0.25442448  0.31152063  0.94175271  1
  O  O64  1  0.93621169  0.87995128  0.44120646  1
  O  O65  1  0.93874482  0.49500523  0.05879354  1
  O  O66  1  0.99500523  0.43621169  0.55626041  1
  O  O67  1  0.37995128  0.43874482  0.94373959  1
  O  O68  1  0.06378831  0.12004872  0.55879354  1
  O  O69  1  0.06125518  0.50499477  0.94120646  1
  O  O70  1  0.00499477  0.56378831  0.44373959  1
  O  O71  1  0.62004872  0.56125518  0.05626041  1
  O  O72  1  0.68617325  0.74479283  0.55622186  1
  O  O73  1  0.68857097  0.12995139  0.94377814  1
  O  O74  1  0.62995139  0.18617325  0.44138042  1
  O  O75  1  0.24479283  0.18857097  0.05861958  1
  O  O76  1  0.31382675  0.25520717  0.44377814  1
  O  O77  1  0.31142903  0.87004861  0.05622186  1
  O  O78  1  0.37004861  0.81382675  0.55861958  1
  O  O79  1  0.75520717  0.81142903  0.94138042  1
