# generated using pymatgen
data_K(IO3)2
_symmetry_space_group_name_H-M   'P 1'
_cell_length_a   7.20533570
_cell_length_b   7.75324751
_cell_length_c   22.91294039
_cell_angle_alpha   90.00000000
_cell_angle_beta   99.62969632
_cell_angle_gamma   90.00000000
_symmetry_Int_Tables_number   1
_chemical_formula_structural   K(IO3)2
_chemical_formula_sum   'K8 I16 O48'
_cell_volume   1261.98946828
_cell_formula_units_Z   8
loop_
 _symmetry_equiv_pos_site_id
 _symmetry_equiv_pos_as_xyz
  1  'x, y, z'
loop_
 _atom_site_type_symbol
 _atom_site_label
 _atom_site_symmetry_multiplicity
 _atom_site_fract_x
 _atom_site_fract_y
 _atom_site_fract_z
 _atom_site_occupancy
  K  K0  1  0.26140362  0.61770071  0.00786129  1
  K  K1  1  0.73859638  0.11770071  0.49213871  1
  K  K2  1  0.73859638  0.38229929  0.99213871  1
  K  K3  1  0.26140362  0.88229929  0.50786129  1
  K  K4  1  0.17145876  0.86969133  0.18104762  1
  K  K5  1  0.82854124  0.36969133  0.31895238  1
  K  K6  1  0.82854124  0.13030867  0.81895238  1
  K  K7  1  0.17145876  0.63030867  0.68104762  1
  I  I8  1  0.14035449  0.35944275  0.14461272  1
  I  I9  1  0.85964551  0.85944275  0.35538728  1
  I  I10  1  0.85964551  0.64055725  0.85538728  1
  I  I11  1  0.14035449  0.14055725  0.64461272  1
  I  I12  1  0.22299488  0.10870144  0.99147797  1
  I  I13  1  0.77700512  0.60870144  0.50852203  1
  I  I14  1  0.77700512  0.89129856  0.00852203  1
  I  I15  1  0.22299488  0.39129856  0.49147797  1
  I  I16  1  0.66174695  0.13394206  0.14650639  1
  I  I17  1  0.33825305  0.63394206  0.35349361  1
  I  I18  1  0.33825305  0.86605794  0.85349361  1
  I  I19  1  0.66174695  0.36605794  0.64650639  1
  I  I20  1  0.65302044  0.61676042  0.15018640  1
  I  I21  1  0.34697956  0.11676042  0.34981360  1
  I  I22  1  0.34697956  0.38323958  0.84981360  1
  I  I23  1  0.65302044  0.88323958  0.65018640  1
  O  O24  1  0.97882238  0.17845614  0.15837408  1
  O  O25  1  0.02117762  0.67845614  0.34162592  1
  O  O26  1  0.02117762  0.82154386  0.84162592  1
  O  O27  1  0.97882238  0.32154386  0.65837408  1
  O  O28  1  0.01014124  0.54709811  0.16201754  1
  O  O29  1  0.98985876  0.04709811  0.33798246  1
  O  O30  1  0.98985876  0.45290189  0.83798246  1
  O  O31  1  0.01014124  0.95290189  0.66201754  1
  O  O32  1  0.09600525  0.36082407  0.06378630  1
  O  O33  1  0.90399475  0.86082407  0.43621370  1
  O  O34  1  0.90399475  0.63917593  0.93621370  1
  O  O35  1  0.09600525  0.13917593  0.56378630  1
  O  O36  1  0.98504590  0.13729742  0.95126121  1
  O  O37  1  0.01495410  0.63729742  0.54873879  1
  O  O38  1  0.01495410  0.86270258  0.04873879  1
  O  O39  1  0.98504590  0.36270258  0.45126121  1
  O  O40  1  0.31105948  0.92193064  0.94907878  1
  O  O41  1  0.68894052  0.42193064  0.55092122  1
  O  O42  1  0.68894052  0.07806936  0.05092122  1
  O  O43  1  0.31105948  0.57806936  0.44907878  1
  O  O44  1  0.34679118  0.29063103  0.96573371  1
  O  O45  1  0.65320982  0.79063103  0.53426629  1
  O  O46  1  0.65320982  0.70936897  0.03426629  1
  O  O47  1  0.34679118  0.20936897  0.46573371  1
  O  O48  1  0.41166576  0.09089438  0.12259932  1
  O  O49  1  0.58833424  0.59089438  0.37740068  1
  O  O50  1  0.58833424  0.90910562  0.87740068  1
  O  O51  1  0.41166576  0.40910562  0.62259932  1
  O  O52  1  0.67109929  0.20857281  0.22039330  1
  O  O53  1  0.32890071  0.70857281  0.27960670  1
  O  O54  1  0.32890071  0.79142719  0.77960670  1
  O  O55  1  0.67109929  0.29142719  0.72039330  1
  O  O56  1  0.74929617  0.90870260  0.16278315  1
  O  O57  1  0.25070383  0.40870260  0.33721685  1
  O  O58  1  0.25070383  0.09129740  0.83721685  1
  O  O59  1  0.74929617  0.59129740  0.66278315  1
  O  O60  1  0.39654898  0.62953366  0.13140213  1
  O  O61  1  0.60345102  0.12953366  0.36859787  1
  O  O62  1  0.60345102  0.37046634  0.86859787  1
  O  O63  1  0.39654898  0.87046634  0.63140213  1
  O  O64  1  0.68268436  0.59452050  0.22872879  1
  O  O65  1  0.31731564  0.09452050  0.27127121  1
  O  O66  1  0.31731564  0.40547950  0.77127121  1
  O  O67  1  0.68268436  0.90547950  0.72872879  1
  O  O68  1  0.64688753  0.36531885  0.11089183  1
  O  O69  1  0.35311247  0.86531885  0.38910817  1
  O  O70  1  0.35311247  0.63468115  0.88910817  1
  O  O71  1  0.64688753  0.13468115  0.61089183  1
