# generated using pymatgen
data_Ca2Nb2MoO8
_symmetry_space_group_name_H-M   'P 1'
_cell_length_a   5.60769716
_cell_length_b   6.33792566
_cell_length_c   10.08362605
_cell_angle_alpha   108.30260373
_cell_angle_beta   92.27310641
_cell_angle_gamma   89.98565090
_symmetry_Int_Tables_number   1
_chemical_formula_structural   Ca2Nb2MoO8
_chemical_formula_sum   'Ca4 Nb4 Mo2 O16'
_cell_volume   339.95776210
_cell_formula_units_Z   2
loop_
 _symmetry_equiv_pos_site_id
 _symmetry_equiv_pos_as_xyz
  1  'x, y, z'
loop_
 _atom_site_type_symbol
 _atom_site_label
 _atom_site_symmetry_multiplicity
 _atom_site_fract_x
 _atom_site_fract_y
 _atom_site_fract_z
 _atom_site_occupancy
  Ca  Ca0  1  0.76048603  0.47151770  0.58456355  1
  Ca  Ca1  1  0.74017086  0.88675083  0.41516632  1
  Ca  Ca2  1  0.24016634  0.52497312  0.41499575  1
  Ca  Ca3  1  0.26046544  0.10974942  0.58429011  1
  Nb  Nb4  1  0.76232294  0.25707229  0.22584800  1
  Nb  Nb5  1  0.73846538  0.03119715  0.77382216  1
  Nb  Nb6  1  0.23845728  0.73953648  0.77372683  1
  Nb  Nb7  1  0.26229516  0.96531574  0.22573461  1
  Mo  Mo8  1  0.75040773  0.63398659  0.99975016  1
  Mo  Mo9  1  0.25051926  0.36255919  0.99974400  1
  O  O10  1  0.09504815  0.19662062  0.13688830  1
  O  O11  1  0.40589414  0.05933617  0.86274743  1
  O  O12  1  0.90579164  0.80006058  0.86271419  1
  O  O13  1  0.59496181  0.93721199  0.13683814  1
  O  O14  1  0.59505703  0.42254180  0.11281889  1
  O  O15  1  0.90583460  0.30967720  0.88667255  1
  O  O16  1  0.40593882  0.57391565  0.88665334  1
  O  O17  1  0.09512702  0.68692570  0.11277260  1
  O  O18  1  0.49262131  0.23864133  0.35735713  1
  O  O19  1  0.00815255  0.88128711  0.64214324  1
  O  O20  1  0.34272025  0.83695241  0.37402587  1
  O  O21  1  0.15796399  0.46275928  0.62541694  1
  O  O22  1  0.65790338  0.15951939  0.62543507  1
  O  O23  1  0.84265174  0.53371468  0.37413336  1
  O  O24  1  0.99260910  0.11524370  0.35737058  1
  O  O25  1  0.50810105  0.75784489  0.64214584  1
