# generated using pymatgen
data_Er(Mg4Al3)4
_symmetry_space_group_name_H-M   'P 1'
_cell_length_a   9.12717916
_cell_length_b   9.12717998
_cell_length_c   9.12717916
_cell_angle_alpha   109.47122551
_cell_angle_beta   109.47122610
_cell_angle_gamma   109.47122551
_symmetry_Int_Tables_number   1
_chemical_formula_structural   Er(Mg4Al3)4
_chemical_formula_sum   'Er1 Mg16 Al12'
_cell_volume   585.31249234
_cell_formula_units_Z   1
loop_
 _symmetry_equiv_pos_site_id
 _symmetry_equiv_pos_as_xyz
  1  'x, y, z'
loop_
 _atom_site_type_symbol
 _atom_site_label
 _atom_site_symmetry_multiplicity
 _atom_site_fract_x
 _atom_site_fract_y
 _atom_site_fract_z
 _atom_site_occupancy
  Er  Er0  1  -0.00000000  -0.00000000  -0.00000000  1
  Mg  Mg1  1  0.31900674  0.60323937  0.00000000  1
  Mg  Mg2  1  0.35706325  1.00000000  0.00000100  1
  Mg  Mg3  1  1.00000000  0.35706225  1.00000000  1
  Mg  Mg4  1  0.60323937  0.31900674  0.00000100  1
  Mg  Mg5  1  0.68099326  0.68099226  0.28423263  1
  Mg  Mg6  1  0.00000000  0.60323937  0.31900674  1
  Mg  Mg7  1  0.60324037  0.00000000  0.31900774  1
  Mg  Mg8  1  0.00000100  1.00000000  0.35706325  1
  Mg  Mg9  1  0.39676063  0.71576837  0.39676063  1
  Mg  Mg10  1  0.71576837  0.39676163  0.39676063  1
  Mg  Mg11  1  0.00000100  0.31900674  0.60323937  1
  Mg  Mg12  1  0.31900774  0.00000000  0.60324037  1
  Mg  Mg13  1  0.64293775  0.64293775  0.64293775  1
  Mg  Mg14  1  0.68099326  0.28423263  0.68099326  1
  Mg  Mg15  1  0.28423263  0.68099226  0.68099326  1
  Mg  Mg16  1  0.39676063  0.39676163  0.71576837  1
  Al  Al17  1  0.63233398  0.81389797  0.00000000  1
  Al  Al18  1  0.81389797  0.63233398  -0.00000000  1
  Al  Al19  1  0.36766802  0.36766802  0.18156499  1
  Al  Al20  1  0.18610203  0.81843401  0.18610203  1
  Al  Al21  1  0.81843501  0.18610203  0.18610203  1
  Al  Al22  1  0.18156499  0.36766802  0.36766802  1
  Al  Al23  1  0.36766802  0.18156499  0.36766802  1
  Al  Al24  1  0.00000000  0.81389797  0.63233398  1
  Al  Al25  1  0.81389797  -0.00000000  0.63233398  1
  Al  Al26  1  0.63233398  -0.00000000  0.81389797  1
  Al  Al27  1  -0.00000000  0.63233398  0.81389797  1
  Al  Al28  1  0.18610203  0.18610203  0.81843501  1
