# generated using pymatgen
data_EuMg5
_symmetry_space_group_name_H-M   'P 1'
_cell_length_a   5.13550868
_cell_length_b   5.98320668
_cell_length_c   5.98320739
_cell_angle_alpha   60.00001859
_cell_angle_beta   90.00000000
_cell_angle_gamma   90.00000000
_symmetry_Int_Tables_number   1
_chemical_formula_structural   EuMg5
_chemical_formula_sum   'Eu1 Mg5'
_cell_volume   159.21436264
_cell_formula_units_Z   1
loop_
 _symmetry_equiv_pos_site_id
 _symmetry_equiv_pos_as_xyz
  1  'x, y, z'
loop_
 _atom_site_type_symbol
 _atom_site_label
 _atom_site_symmetry_multiplicity
 _atom_site_fract_x
 _atom_site_fract_y
 _atom_site_fract_z
 _atom_site_occupancy
  Eu  Eu0  1  0.50000000  0.66666600  0.33333400  1
  Mg  Mg1  1  -0.00000000  0.11652852  0.88346948  1
  Mg  Mg2  1  0.50000000  0.33333400  0.99999900  1
  Mg  Mg3  1  -0.00000000  0.21680448  0.33333300  1
  Mg  Mg4  1  0.50000000  0.00000000  0.66666700  1
  Mg  Mg5  1  0.00000000  0.66666600  0.78319652  1
