# generated using pymatgen
data_Te2MoWSeS
_symmetry_space_group_name_H-M   'P 1'
_cell_length_a   3.40116096
_cell_length_b   3.40132433
_cell_length_c   38.69715659
_cell_angle_alpha   89.99959993
_cell_angle_beta   90.00000000
_cell_angle_gamma   119.99841120
_symmetry_Int_Tables_number   1
_chemical_formula_structural   Te2MoWSeS
_chemical_formula_sum   'Te4 Mo2 W2 Se2 S2'
_cell_volume   387.69649053
_cell_formula_units_Z   2
loop_
 _symmetry_equiv_pos_site_id
 _symmetry_equiv_pos_as_xyz
  1  'x, y, z'
loop_
 _atom_site_type_symbol
 _atom_site_label
 _atom_site_symmetry_multiplicity
 _atom_site_fract_x
 _atom_site_fract_y
 _atom_site_fract_z
 _atom_site_occupancy
  Te  Te0  1  0.33335433  0.66670966  0.70615202  1
  Te  Te1  1  0.66663587  0.33327073  0.04532756  1
  Te  Te2  1  0.66664473  0.33328846  0.14254975  1
  Te  Te3  1  0.33335668  0.66671435  0.60891324  1
  Mo  Mo4  1  0.33331360  0.66662719  0.46964535  1
  Mo  Mo5  1  0.66670790  0.33341579  0.28178614  1
  W  W6  1  0.33330963  0.66661926  0.09390939  1
  W  W7  1  0.66669088  0.33338175  0.65755962  1
  Se  Se8  1  0.66664892  0.33329684  0.42715009  1
  Se  Se9  1  0.66664773  0.33329447  0.51216099  1
  S  S10  1  0.33334387  0.66668874  0.32062214  1
  S  S11  1  0.33334588  0.66669275  0.24297170  1
