# generated using pymatgen
data_MgIn2
_symmetry_space_group_name_H-M   'P 1'
_cell_length_a   3.43591838
_cell_length_b   6.04773189
_cell_length_c   8.10995678
_cell_angle_alpha   69.44351939
_cell_angle_beta   89.95110120
_cell_angle_gamma   104.94894863
_symmetry_Int_Tables_number   1
_chemical_formula_structural   MgIn2
_chemical_formula_sum   'Mg2 In4'
_cell_volume   151.66974946
_cell_formula_units_Z   2
loop_
 _symmetry_equiv_pos_site_id
 _symmetry_equiv_pos_as_xyz
  1  'x, y, z'
loop_
 _atom_site_type_symbol
 _atom_site_label
 _atom_site_symmetry_multiplicity
 _atom_site_fract_x
 _atom_site_fract_y
 _atom_site_fract_z
 _atom_site_occupancy
  Mg  Mg0  1  0.72139040  0.44399506  0.06034107  1
  Mg  Mg1  1  0.66749860  0.33378394  0.66188093  1
  In  In2  1  0.00981673  0.01541235  0.99411336  1
  In  In3  1  0.33309710  0.67133541  0.32822100  1
  In  In4  1  0.05579190  0.10644259  0.39400000  1
  In  In5  1  0.37907127  0.76236465  0.72811064  1
