# generated using pymatgen
data_MgIn2
_symmetry_space_group_name_H-M   'P 1'
_cell_length_a   3.25355239
_cell_length_b   6.57492920
_cell_length_c   7.66146860
_cell_angle_alpha   74.91303827
_cell_angle_beta   90.00000002
_cell_angle_gamma   104.32494723
_symmetry_Int_Tables_number   1
_chemical_formula_structural   MgIn2
_chemical_formula_sum   'Mg2 In4'
_cell_volume   152.96027065
_cell_formula_units_Z   2
loop_
 _symmetry_equiv_pos_site_id
 _symmetry_equiv_pos_as_xyz
  1  'x, y, z'
loop_
 _atom_site_type_symbol
 _atom_site_label
 _atom_site_symmetry_multiplicity
 _atom_site_fract_x
 _atom_site_fract_y
 _atom_site_fract_z
 _atom_site_occupancy
  Mg  Mg0  1  0.66749089  0.33498178  0.66696330  1
  Mg  Mg1  1  0.38806511  0.77612922  0.72192570  1
  In  In2  1  0.00056272  0.00112445  0.98764107  1
  In  In3  1  0.72285998  0.44572095  0.04734962  1
  In  In4  1  0.33269502  0.66539005  0.34153938  1
  In  In5  1  0.05499228  0.10998455  0.40124793  1
