# generated using pymatgen
data_MgIn5
_symmetry_space_group_name_H-M   'P 1'
_cell_length_a   3.52450222
_cell_length_b   6.14121828
_cell_length_c   8.11871602
_cell_angle_alpha   71.51231444
_cell_angle_beta   90.00000063
_cell_angle_gamma   106.67573421
_symmetry_Int_Tables_number   1
_chemical_formula_structural   MgIn5
_chemical_formula_sum   'Mg1 In5'
_cell_volume   158.84675162
_cell_formula_units_Z   1
loop_
 _symmetry_equiv_pos_site_id
 _symmetry_equiv_pos_as_xyz
  1  'x, y, z'
loop_
 _atom_site_type_symbol
 _atom_site_label
 _atom_site_symmetry_multiplicity
 _atom_site_fract_x
 _atom_site_fract_y
 _atom_site_fract_z
 _atom_site_occupancy
  Mg  Mg0  1  0.38968500  0.77936901  0.72207072  1
  In  In1  1  0.99749791  0.99499582  0.99152491  1
  In  In2  1  0.71599134  0.43198268  0.05572401  1
  In  In3  1  0.33647106  0.67294212  0.32916842  1
  In  In4  1  0.05366230  0.10732559  0.39967427  1
  In  In5  1  0.67335839  0.34671777  0.66850467  1
