# generated using pymatgen
data_Mg2Sc
_symmetry_space_group_name_H-M   'P 1'
_cell_length_a   3.23720635
_cell_length_b   6.17855324
_cell_length_c   7.59898384
_cell_angle_alpha   75.32670618
_cell_angle_beta   90.00000000
_cell_angle_gamma   105.18706004
_symmetry_Int_Tables_number   1
_chemical_formula_structural   Mg2Sc
_chemical_formula_sum   'Mg4 Sc2'
_cell_volume   141.53830387
_cell_formula_units_Z   2
loop_
 _symmetry_equiv_pos_site_id
 _symmetry_equiv_pos_as_xyz
  1  'x, y, z'
loop_
 _atom_site_type_symbol
 _atom_site_label
 _atom_site_symmetry_multiplicity
 _atom_site_fract_x
 _atom_site_fract_y
 _atom_site_fract_z
 _atom_site_occupancy
  Mg  Mg0  1  0.99978833  0.99957566  0.00087892  1
  Mg  Mg1  1  0.72172538  0.44344876  0.05522652  1
  Mg  Mg2  1  0.33383062  0.66766124  0.33366248  1
  Mg  Mg3  1  0.05576667  0.11153434  0.38801108  1
  Sc  Sc4  1  0.66658508  0.33317016  0.66699288  1
  Sc  Sc5  1  0.38897092  0.77794084  0.72189512  1
