# generated using pymatgen
data_Mg5Pb
_symmetry_space_group_name_H-M   'P 1'
_cell_length_a   3.33846176
_cell_length_b   6.13055405
_cell_length_c   7.66856151
_cell_angle_alpha   75.16206806
_cell_angle_beta   90.00000000
_cell_angle_gamma   105.80001553
_symmetry_Int_Tables_number   1
_chemical_formula_structural   Mg5Pb
_chemical_formula_sum   'Mg5 Pb1'
_cell_volume   145.57299222
_cell_formula_units_Z   1
loop_
 _symmetry_equiv_pos_site_id
 _symmetry_equiv_pos_as_xyz
  1  'x, y, z'
loop_
 _atom_site_type_symbol
 _atom_site_label
 _atom_site_symmetry_multiplicity
 _atom_site_fract_x
 _atom_site_fract_y
 _atom_site_fract_z
 _atom_site_occupancy
  Mg  Mg0  1  0.00270547  0.00541094  0.00479566  1
  Mg  Mg1  1  0.71928056  0.43856213  0.06043693  1
  Mg  Mg2  1  0.33187110  0.66374219  0.32919160  1
  Mg  Mg3  1  0.05762452  0.11524804  0.38576327  1
  Mg  Mg4  1  0.66596269  0.33192738  0.66520948  1
  Pb  Pb5  1  0.38921966  0.77844032  0.72126906  1
