# generated using pymatgen
data_MgAg2
_symmetry_space_group_name_H-M   'P 1'
_cell_length_a   3.08425756
_cell_length_b   5.52171858
_cell_length_c   7.11099343
_cell_angle_alpha   72.01432608
_cell_angle_beta   90.41770183
_cell_angle_gamma   106.38223011
_symmetry_Int_Tables_number   1
_chemical_formula_structural   MgAg2
_chemical_formula_sum   'Mg2 Ag4'
_cell_volume   110.08551576
_cell_formula_units_Z   2
loop_
 _symmetry_equiv_pos_site_id
 _symmetry_equiv_pos_as_xyz
  1  'x, y, z'
loop_
 _atom_site_type_symbol
 _atom_site_label
 _atom_site_symmetry_multiplicity
 _atom_site_fract_x
 _atom_site_fract_y
 _atom_site_fract_z
 _atom_site_occupancy
  Mg  Mg0  1  0.71580926  0.43202181  0.08072701  1
  Mg  Mg1  1  0.67301860  0.34581920  0.64148851  1
  Ag  Ag2  1  0.34103212  0.68255598  0.31763313  1
  Ag  Ag3  1  0.04779514  0.09515122  0.40460223  1
  Ag  Ag4  1  0.37407251  0.74850620  0.74341370  1
  Ag  Ag5  1  0.01493737  0.02928158  0.97879942  1
