# generated using pymatgen
data_Te2MoWS2
_symmetry_space_group_name_H-M   'P 1'
_cell_length_a   3.35896869
_cell_length_b   3.35893790
_cell_length_c   38.34067210
_cell_angle_alpha   89.99978799
_cell_angle_beta   90.00000000
_cell_angle_gamma   120.00030309
_symmetry_Int_Tables_number   1
_chemical_formula_structural   Te2MoWS2
_chemical_formula_sum   'Te4 Mo2 W2 S4'
_cell_volume   374.62517409
_cell_formula_units_Z   2
loop_
 _symmetry_equiv_pos_site_id
 _symmetry_equiv_pos_as_xyz
  1  'x, y, z'
loop_
 _atom_site_type_symbol
 _atom_site_label
 _atom_site_symmetry_multiplicity
 _atom_site_fract_x
 _atom_site_fract_y
 _atom_site_fract_z
 _atom_site_occupancy
  Te  Te0  1  0.33335273  0.66670647  0.33113596  1
  Te  Te1  1  0.33335103  0.66670305  0.70716006  1
  Te  Te2  1  0.33335562  0.66671224  0.23248634  1
  Te  Te3  1  0.33336308  0.66672716  0.60789633  1
  Mo  Mo4  1  0.33332473  0.66664945  0.46965924  1
  Mo  Mo5  1  0.66668658  0.33337317  0.28179642  1
  W  W6  1  0.33330904  0.66661807  0.09390910  1
  W  W7  1  0.66668844  0.33337688  0.65755184  1
  S  S8  1  0.66664531  0.33328962  0.05428833  1
  S  S9  1  0.66663742  0.33327384  0.43020226  1
  S  S10  1  0.66664788  0.33329477  0.13354521  1
  S  S11  1  0.66663814  0.33327528  0.50911690  1
