# generated using pymatgen
data_Pm3Ho
_symmetry_space_group_name_H-M   'P 1'
_cell_length_a   7.30101532
_cell_length_b   7.30101483
_cell_length_c   5.92435404
_cell_angle_alpha   90.00000000
_cell_angle_beta   90.00000000
_cell_angle_gamma   119.99999726
_symmetry_Int_Tables_number   1
_chemical_formula_structural   Pm3Ho
_chemical_formula_sum   'Pm6 Ho2'
_cell_volume   273.48791359
_cell_formula_units_Z   2
loop_
 _symmetry_equiv_pos_site_id
 _symmetry_equiv_pos_as_xyz
  1  'x, y, z'
loop_
 _atom_site_type_symbol
 _atom_site_label
 _atom_site_symmetry_multiplicity
 _atom_site_fract_x
 _atom_site_fract_y
 _atom_site_fract_z
 _atom_site_occupancy
  Pm  Pm0  1  0.16751828  0.33503655  0.25000000  1
  Pm  Pm1  1  0.66496245  0.83248072  0.25000000  1
  Pm  Pm2  1  0.16751828  0.83248072  0.25000000  1
  Pm  Pm3  1  0.83248172  0.66496445  0.75000100  1
  Pm  Pm4  1  0.33503655  0.16751928  0.75000100  1
  Pm  Pm5  1  0.83248172  0.16751928  0.75000100  1
  Ho  Ho6  1  0.33333300  0.66666600  0.75000100  1
  Ho  Ho7  1  0.66666800  0.33333300  0.25000000  1
