# generated using pymatgen
data_Nd2Mg
_symmetry_space_group_name_H-M   'P 1'
_cell_length_a   3.80145697
_cell_length_b   7.01510558
_cell_length_c   7.68048668
_cell_angle_alpha   74.65182838
_cell_angle_beta   90.00000000
_cell_angle_gamma   105.72066923
_symmetry_Int_Tables_number   1
_chemical_formula_structural   Nd2Mg
_chemical_formula_sum   'Nd4 Mg2'
_cell_volume   189.55893507
_cell_formula_units_Z   2
loop_
 _symmetry_equiv_pos_site_id
 _symmetry_equiv_pos_as_xyz
  1  'x, y, z'
loop_
 _atom_site_type_symbol
 _atom_site_label
 _atom_site_symmetry_multiplicity
 _atom_site_fract_x
 _atom_site_fract_y
 _atom_site_fract_z
 _atom_site_occupancy
  Nd  Nd0  1  0.34184302  0.68364818  0.30013440  1
  Nd  Nd1  1  0.04708285  0.09412882  0.42208960  1
  Nd  Nd2  1  0.36123072  0.72245441  0.76565051  1
  Nd  Nd3  1  0.02766531  0.05532359  0.95657149  1
  Mg  Mg4  1  0.70406824  0.40817638  0.08672232  1
  Mg  Mg5  1  0.68478086  0.36960162  0.63550068  1
