# generated using pymatgen
data_PmSm3
_symmetry_space_group_name_H-M   'P 1'
_cell_length_a   7.31499665
_cell_length_b   7.31499683
_cell_length_c   5.96978791
_cell_angle_alpha   90.00000000
_cell_angle_beta   90.00000000
_cell_angle_gamma   120.00000446
_symmetry_Int_Tables_number   1
_chemical_formula_structural   PmSm3
_chemical_formula_sum   'Pm2 Sm6'
_cell_volume   276.64179118
_cell_formula_units_Z   2
loop_
 _symmetry_equiv_pos_site_id
 _symmetry_equiv_pos_as_xyz
  1  'x, y, z'
loop_
 _atom_site_type_symbol
 _atom_site_label
 _atom_site_symmetry_multiplicity
 _atom_site_fract_x
 _atom_site_fract_y
 _atom_site_fract_z
 _atom_site_occupancy
  Pm  Pm0  1  0.66666600  0.33333200  0.25000100  1
  Pm  Pm1  1  0.33333300  0.66666600  0.75000000  1
  Sm  Sm2  1  0.83382722  0.16617278  0.75000000  1
  Sm  Sm3  1  0.33234457  0.16617278  0.75000000  1
  Sm  Sm4  1  0.83382822  0.66765443  0.75000000  1
  Sm  Sm5  1  0.16617278  0.83382722  0.25000100  1
  Sm  Sm6  1  0.66765343  0.83382722  0.25000100  1
  Sm  Sm7  1  0.16617178  0.33234457  0.25000100  1
