# generated using pymatgen
data_PmMg2
_symmetry_space_group_name_H-M   'P 1'
_cell_length_a   6.11008361
_cell_length_b   6.11396577
_cell_length_c   6.10958242
_cell_angle_alpha   119.99647442
_cell_angle_beta   59.96718358
_cell_angle_gamma   120.02133350
_symmetry_Int_Tables_number   1
_chemical_formula_structural   PmMg2
_chemical_formula_sum   'Pm2 Mg4'
_cell_volume   161.32452196
_cell_formula_units_Z   2
loop_
 _symmetry_equiv_pos_site_id
 _symmetry_equiv_pos_as_xyz
  1  'x, y, z'
loop_
 _atom_site_type_symbol
 _atom_site_label
 _atom_site_symmetry_multiplicity
 _atom_site_fract_x
 _atom_site_fract_y
 _atom_site_fract_z
 _atom_site_occupancy
  Pm  Pm0  1  0.87506389  0.45824951  0.37470747  1
  Pm  Pm1  1  0.12493339  0.20841469  0.62529309  1
  Mg  Mg2  1  0.50088685  0.33333304  0.00000267  1
  Mg  Mg3  1  0.49912099  0.83245632  0.00000189  1
  Mg  Mg4  1  0.99999766  0.83421484  0.99999642  1
  Mg  Mg5  1  0.49999522  0.83332860  0.49999845  1
