# generated using pymatgen
data_Pr2Mg
_symmetry_space_group_name_H-M   'P 1'
_cell_length_a   3.86784703
_cell_length_b   9.06109939
_cell_length_c   5.69409113
_cell_angle_alpha   90.00000000
_cell_angle_beta   90.00000000
_cell_angle_gamma   77.67648021
_symmetry_Int_Tables_number   1
_chemical_formula_structural   Pr2Mg
_chemical_formula_sum   'Pr4 Mg2'
_cell_volume   194.96224187
_cell_formula_units_Z   2
loop_
 _symmetry_equiv_pos_site_id
 _symmetry_equiv_pos_as_xyz
  1  'x, y, z'
loop_
 _atom_site_type_symbol
 _atom_site_label
 _atom_site_symmetry_multiplicity
 _atom_site_fract_x
 _atom_site_fract_y
 _atom_site_fract_z
 _atom_site_occupancy
  Pr  Pr0  1  0.97558084  0.04883831  0.00000000  1
  Pr  Pr1  1  0.65982765  0.68034370  -0.00000000  1
  Pr  Pr2  1  0.80219616  0.39560569  0.50000000  1
  Pr  Pr3  1  0.11794935  0.76410030  0.50000000  1
  Mg  Mg4  1  0.32037146  0.35925607  -0.00000000  1
  Mg  Mg5  1  0.45740554  0.08518793  0.50000000  1
