# generated using pymatgen
data_Te2MoWS2
_symmetry_space_group_name_H-M   'P 1'
_cell_length_a   3.36056095
_cell_length_b   3.36054463
_cell_length_c   39.85826977
_cell_angle_alpha   90.00023930
_cell_angle_beta   90.00000000
_cell_angle_gamma   120.00016056
_symmetry_Int_Tables_number   1
_chemical_formula_structural   Te2MoWS2
_chemical_formula_sum   'Te4 Mo2 W2 S4'
_cell_volume   389.82511445
_cell_formula_units_Z   2
loop_
 _symmetry_equiv_pos_site_id
 _symmetry_equiv_pos_as_xyz
  1  'x, y, z'
loop_
 _atom_site_type_symbol
 _atom_site_label
 _atom_site_symmetry_multiplicity
 _atom_site_fract_x
 _atom_site_fract_y
 _atom_site_fract_z
 _atom_site_occupancy
  Te  Te0  1  0.33338070  0.66676239  0.70676875  1
  Te  Te1  1  0.66663203  0.33326306  0.42085918  1
  Te  Te2  1  0.66665312  0.33330524  0.51571987  1
  Te  Te3  1  0.33338289  0.66676678  0.61137308  1
  Mo  Mo4  1  0.33331790  0.66663580  0.46829976  1
  Mo  Mo5  1  0.66667212  0.33334424  0.28164526  1
  W  W6  1  0.33328128  0.66656256  0.09391751  1
  W  W7  1  0.66670655  0.33341310  0.65908653  1
  S  S8  1  0.33338229  0.66676559  0.31960700  1
  S  S9  1  0.66660860  0.33321620  0.05582276  1
  S  S10  1  0.66660848  0.33321596  0.13197790  1
  S  S11  1  0.33337403  0.66674906  0.24367040  1
