# generated using pymatgen
data_Pr2Mg
_symmetry_space_group_name_H-M   'P 1'
_cell_length_a   3.80900373
_cell_length_b   7.16696497
_cell_length_c   7.64795414
_cell_angle_alpha   74.63338695
_cell_angle_beta   90.20774654
_cell_angle_gamma   105.43425660
_symmetry_Int_Tables_number   1
_chemical_formula_structural   Pr2Mg
_chemical_formula_sum   'Pr4 Mg2'
_cell_volume   193.55402675
_cell_formula_units_Z   2
loop_
 _symmetry_equiv_pos_site_id
 _symmetry_equiv_pos_as_xyz
  1  'x, y, z'
loop_
 _atom_site_type_symbol
 _atom_site_label
 _atom_site_symmetry_multiplicity
 _atom_site_fract_x
 _atom_site_fract_y
 _atom_site_fract_z
 _atom_site_occupancy
  Pr  Pr0  1  0.34624883  0.69284935  0.29082351  1
  Pr  Pr1  1  0.04270796  0.08493182  0.43153619  1
  Pr  Pr2  1  0.35616753  0.71399879  0.77537552  1
  Pr  Pr3  1  0.03268988  0.06378965  0.94675516  1
  Mg  Mg4  1  0.69756132  0.39502613  0.09741686  1
  Mg  Mg5  1  0.69129249  0.38273926  0.62475976  1
