# generated using pymatgen
data_Sc3Ga
_symmetry_space_group_name_H-M   'P 1'
_cell_length_a   6.23599869
_cell_length_b   6.23599774
_cell_length_c   5.03418453
_cell_angle_alpha   90.00000000
_cell_angle_beta   90.00000000
_cell_angle_gamma   119.99999980
_symmetry_Int_Tables_number   1
_chemical_formula_structural   Sc3Ga
_chemical_formula_sum   'Sc6 Ga2'
_cell_volume   169.53982385
_cell_formula_units_Z   2
loop_
 _symmetry_equiv_pos_site_id
 _symmetry_equiv_pos_as_xyz
  1  'x, y, z'
loop_
 _atom_site_type_symbol
 _atom_site_label
 _atom_site_symmetry_multiplicity
 _atom_site_fract_x
 _atom_site_fract_y
 _atom_site_fract_z
 _atom_site_occupancy
  Sc  Sc0  1  0.17152678  0.34305456  0.25000000  1
  Sc  Sc1  1  0.65694444  0.82847022  0.25000000  1
  Sc  Sc2  1  0.17152678  0.82847022  0.25000000  1
  Sc  Sc3  1  0.82847122  0.65694544  0.75000200  1
  Sc  Sc4  1  0.34305556  0.17152678  0.75000200  1
  Sc  Sc5  1  0.82847322  0.17152678  0.75000200  1
  Ga  Ga6  1  0.33333300  0.66666700  0.75000200  1
  Ga  Ga7  1  0.66666700  0.33333300  0.25000000  1
