# generated using pymatgen
data_Tb3Pr
_symmetry_space_group_name_H-M   'P 1'
_cell_length_a   7.28612260
_cell_length_b   7.28612128
_cell_length_c   5.86427742
_cell_angle_alpha   90.00000000
_cell_angle_beta   90.00000000
_cell_angle_gamma   119.99999546
_symmetry_Int_Tables_number   1
_chemical_formula_structural   Tb3Pr
_chemical_formula_sum   'Tb6 Pr2'
_cell_volume   269.61126194
_cell_formula_units_Z   2
loop_
 _symmetry_equiv_pos_site_id
 _symmetry_equiv_pos_as_xyz
  1  'x, y, z'
loop_
 _atom_site_type_symbol
 _atom_site_label
 _atom_site_symmetry_multiplicity
 _atom_site_fract_x
 _atom_site_fract_y
 _atom_site_fract_z
 _atom_site_occupancy
  Tb  Tb0  1  0.16532444  0.33064888  0.25000000  1
  Tb  Tb1  1  0.66935312  0.83467656  0.25000000  1
  Tb  Tb2  1  0.16532444  0.83467656  0.25000000  1
  Tb  Tb3  1  0.83467556  0.66935112  0.75000100  1
  Tb  Tb4  1  0.33064888  0.16532544  0.75000100  1
  Tb  Tb5  1  0.83467456  0.16532544  0.75000100  1
  Pr  Pr6  1  0.33333400  0.66666800  0.75000100  1
  Pr  Pr7  1  0.66666700  0.33333500  0.25000000  1
