# generated using pymatgen
data_Te2MoWS2
_symmetry_space_group_name_H-M   'P 1'
_cell_length_a   3.36092741
_cell_length_b   3.36101711
_cell_length_c   40.19480546
_cell_angle_alpha   90.00299569
_cell_angle_beta   90.00000000
_cell_angle_gamma   119.99911702
_symmetry_Int_Tables_number   1
_chemical_formula_structural   Te2MoWS2
_chemical_formula_sum   'Te4 Mo2 W2 S4'
_cell_volume   393.21880813
_cell_formula_units_Z   2
loop_
 _symmetry_equiv_pos_site_id
 _symmetry_equiv_pos_as_xyz
  1  'x, y, z'
loop_
 _atom_site_type_symbol
 _atom_site_label
 _atom_site_symmetry_multiplicity
 _atom_site_fract_x
 _atom_site_fract_y
 _atom_site_fract_z
 _atom_site_occupancy
  Te  Te0  1  0.33335540  0.66671180  0.33110991  1
  Te  Te1  1  0.66666132  0.33332164  0.04469815  1
  Te  Te2  1  0.66669105  0.33338110  0.13866880  1
  Te  Te3  1  0.33328841  0.66657783  0.23647722  1
  Mo  Mo4  1  0.33335856  0.66671712  0.09167135  1
  Mo  Mo5  1  0.33339075  0.66678150  0.46990653  1
  W  W6  1  0.66664055  0.33328109  0.28382043  1
  W  W7  1  0.66663612  0.33327223  0.65754590  1
  S  S8  1  0.33332223  0.66664546  0.69528807  1
  S  S9  1  0.66665963  0.33331827  0.43225243  1
  S  S10  1  0.66669593  0.33339085  0.50751136  1
  S  S11  1  0.33330005  0.66660110  0.61979786  1
