# generated using pymatgen
data_Te2MoWSeS
_symmetry_space_group_name_H-M   'P 1'
_cell_length_a   3.40415444
_cell_length_b   3.40414835
_cell_length_c   37.68940671
_cell_angle_alpha   89.99968618
_cell_angle_beta   90.00000000
_cell_angle_gamma   120.00005919
_symmetry_Int_Tables_number   1
_chemical_formula_structural   Te2MoWSeS
_chemical_formula_sum   'Te4 Mo2 W2 Se2 S2'
_cell_volume   378.23995791
_cell_formula_units_Z   2
loop_
 _symmetry_equiv_pos_site_id
 _symmetry_equiv_pos_as_xyz
  1  'x, y, z'
loop_
 _atom_site_type_symbol
 _atom_site_label
 _atom_site_symmetry_multiplicity
 _atom_site_fract_x
 _atom_site_fract_y
 _atom_site_fract_z
 _atom_site_occupancy
  Te  Te0  1  0.33333476  0.66667052  0.33178607  1
  Te  Te1  1  0.33333493  0.66667087  0.70751682  1
  Te  Te2  1  0.33333630  0.66667359  0.23187696  1
  Te  Te3  1  0.33333857  0.66667813  0.60754898  1
  Mo  Mo4  1  0.33336436  0.66672872  0.09386722  1
  Mo  Mo5  1  0.33330413  0.66660826  0.46966631  1
  W  W6  1  0.66666902  0.33333804  0.28182841  1
  W  W7  1  0.66667072  0.33334144  0.65755313  1
  Se  Se8  1  0.66669829  0.33339557  0.05023762  1
  Se  Se9  1  0.66669536  0.33338973  0.13753783  1
  S  S10  1  0.66662859  0.33325618  0.42978557  1
  S  S11  1  0.66662497  0.33324894  0.50954309  1
