# generated using pymatgen
data_NaB3H8
_symmetry_space_group_name_H-M   'P 1'
_cell_length_a   4.68484639
_cell_length_b   5.75011980
_cell_length_c   8.15083695
_cell_angle_alpha   90.00000000
_cell_angle_beta   90.00000000
_cell_angle_gamma   90.00000000
_symmetry_Int_Tables_number   1
_chemical_formula_structural   NaB3H8
_chemical_formula_sum   'Na2 B6 H16'
_cell_volume   219.57073421
_cell_formula_units_Z   2
loop_
 _symmetry_equiv_pos_site_id
 _symmetry_equiv_pos_as_xyz
  1  'x, y, z'
loop_
 _atom_site_type_symbol
 _atom_site_label
 _atom_site_symmetry_multiplicity
 _atom_site_fract_x
 _atom_site_fract_y
 _atom_site_fract_z
 _atom_site_occupancy
  Na  Na0  1  0.59010554  0.54905098  0.50000000  1
  Na  Na1  1  0.09010554  0.45094902  -0.00000000  1
  B  B2  1  0.09584702  0.25724561  0.60912494  1
  B  B3  1  0.09584702  0.25724561  0.39087506  1
  B  B4  1  0.59584702  0.74275439  0.89087506  1
  B  B5  1  0.59584702  0.74275439  0.10912494  1
  B  B6  1  0.19328742  0.99985723  0.50000000  1
  B  B7  1  0.69328742  0.00014277  -0.00000000  1
  H  H8  1  0.85886281  0.28597259  0.66499969  1
  H  H9  1  0.85886281  0.28597259  0.33500031  1
  H  H10  1  0.35886281  0.71402741  0.83500031  1
  H  H11  1  0.35886281  0.71402741  0.16499969  1
  H  H12  1  0.27680111  0.38005560  0.67094122  1
  H  H13  1  0.27680111  0.38005560  0.32905878  1
  H  H14  1  0.77680111  0.61994440  0.82905878  1
  H  H15  1  0.77680111  0.61994440  0.17094122  1
  H  H16  1  0.15966261  0.05981304  0.66988286  1
  H  H17  1  0.15966261  0.05981304  0.33011714  1
  H  H18  1  0.65966261  0.94018696  0.83011714  1
  H  H19  1  0.65966261  0.94018696  0.16988286  1
  H  H20  1  0.44493020  0.95195563  0.50000000  1
  H  H21  1  0.94493020  0.04804437  0.00000000  1
  H  H22  1  0.03288973  0.83428005  0.50000000  1
  H  H23  1  0.53288973  0.16571995  -0.00000000  1
