# generated using pymatgen
data_BiI3
_symmetry_space_group_name_H-M   'P 1'
_cell_length_a   7.81594937
_cell_length_b   7.78270807
_cell_length_c   15.23012465
_cell_angle_alpha   90.00000000
_cell_angle_beta   90.00000000
_cell_angle_gamma   90.00000000
_symmetry_Int_Tables_number   1
_chemical_formula_structural   BiI3
_chemical_formula_sum   'Bi4 I12'
_cell_volume   926.43709393
_cell_formula_units_Z   4
loop_
 _symmetry_equiv_pos_site_id
 _symmetry_equiv_pos_as_xyz
  1  'x, y, z'
loop_
 _atom_site_type_symbol
 _atom_site_label
 _atom_site_symmetry_multiplicity
 _atom_site_fract_x
 _atom_site_fract_y
 _atom_site_fract_z
 _atom_site_occupancy
  Bi  Bi0  1  0.10800118  0.74276789  0.75000000  1
  Bi  Bi1  1  0.60800118  0.75723211  0.75000000  1
  Bi  Bi2  1  0.89199882  0.25723211  0.25000000  1
  Bi  Bi3  1  0.39199882  0.24276789  0.25000000  1
  I  I4  1  0.86298827  0.06356888  0.75000000  1
  I  I5  1  0.36298827  0.43643112  0.75000000  1
  I  I6  1  0.13701173  0.93643112  0.25000000  1
  I  I7  1  0.63701173  0.56356888  0.25000000  1
  I  I8  1  0.34689173  0.89916627  0.88960224  1
  I  I9  1  0.84689173  0.60083373  0.61039776  1
  I  I10  1  0.65310827  0.10083373  0.38960224  1
  I  I11  1  0.15310827  0.39916627  0.11039776  1
  I  I12  1  0.65310827  0.10083373  0.11039776  1
  I  I13  1  0.15310827  0.39916627  0.38960224  1
  I  I14  1  0.34689173  0.89916627  0.61039776  1
  I  I15  1  0.84689173  0.60083373  0.88960224  1
