# generated using pymatgen
data_Zr5Ga4
_symmetry_space_group_name_H-M   'P 1'
_cell_length_a   5.76611945
_cell_length_b   8.41881073
_cell_length_c   8.41831506
_cell_angle_alpha   120.00194435
_cell_angle_beta   90.00000000
_cell_angle_gamma   90.00000000
_symmetry_Int_Tables_number   1
_chemical_formula_structural   Zr5Ga4
_chemical_formula_sum   'Zr10 Ga8'
_cell_volume   353.90090963
_cell_formula_units_Z   2
loop_
 _symmetry_equiv_pos_site_id
 _symmetry_equiv_pos_as_xyz
  1  'x, y, z'
loop_
 _atom_site_type_symbol
 _atom_site_label
 _atom_site_symmetry_multiplicity
 _atom_site_fract_x
 _atom_site_fract_y
 _atom_site_fract_z
 _atom_site_occupancy
  Zr  Zr0  1  0.50000006  0.33333172  0.66670381  1
  Zr  Zr1  1  0.50000006  0.66662791  0.33329619  1
  Zr  Zr2  1  0.00000006  0.66666828  0.33329619  1
  Zr  Zr3  1  0.00000006  0.33337209  0.66670381  1
  Zr  Zr4  1  0.74999903  0.28338632  0.00000000  1
  Zr  Zr5  1  0.75000051  0.71656062  0.71659349  1
  Zr  Zr6  1  0.75000051  0.99996713  0.28340651  1
  Zr  Zr7  1  0.24999903  0.71661368  1.00000000  1
  Zr  Zr8  1  0.25000051  0.28343938  0.28340651  1
  Zr  Zr9  1  0.25000051  0.00003287  0.71659349  1
  Ga  Ga10  1  0.50000017  0.99999535  0.00000000  1
  Ga  Ga11  1  0.00000017  0.00000465  1.00000000  1
  Ga  Ga12  1  0.74999706  0.62356562  1.00000000  1
  Ga  Ga13  1  0.75000130  0.37641852  0.37643169  1
  Ga  Ga14  1  0.75000130  0.99998683  0.62356831  1
  Ga  Ga15  1  0.24999706  0.37643438  0.00000000  1
  Ga  Ga16  1  0.25000130  0.62358148  0.62356831  1
  Ga  Ga17  1  0.25000130  0.00001317  0.37643169  1
