# generated using pymatgen
data_CeBS3
_symmetry_space_group_name_H-M   'P 1'
_cell_length_a   6.00113786
_cell_length_b   7.66587739
_cell_length_c   8.99070670
_cell_angle_alpha   90.00000000
_cell_angle_beta   90.00000000
_cell_angle_gamma   90.00000000
_symmetry_Int_Tables_number   1
_chemical_formula_structural   CeBS3
_chemical_formula_sum   'Ce4 B4 S12'
_cell_volume   413.60835446
_cell_formula_units_Z   4
loop_
 _symmetry_equiv_pos_site_id
 _symmetry_equiv_pos_as_xyz
  1  'x, y, z'
loop_
 _atom_site_type_symbol
 _atom_site_label
 _atom_site_symmetry_multiplicity
 _atom_site_fract_x
 _atom_site_fract_y
 _atom_site_fract_z
 _atom_site_occupancy
  Ce  Ce0  1  0.07007456  0.61635583  0.24410478  1
  Ce  Ce1  1  0.92992544  0.38364417  0.74410478  1
  Ce  Ce2  1  0.57007456  0.88364417  0.74410478  1
  Ce  Ce3  1  0.42992544  0.11635583  0.24410478  1
  B  B4  1  0.90488696  0.15372898  0.07295840  1
  B  B5  1  0.09511304  0.84627102  0.57295840  1
  B  B6  1  0.40488696  0.34627102  0.57295840  1
  B  B7  1  0.59511304  0.65372898  0.07295840  1
  S  S8  1  0.40852254  0.49332079  0.73014775  1
  S  S9  1  0.59147746  0.50667921  0.23014775  1
  S  S10  1  0.90852254  0.00667921  0.23014775  1
  S  S11  1  0.09147746  0.99332079  0.73014775  1
  S  S12  1  0.16479079  0.32275039  0.45043047  1
  S  S13  1  0.83520921  0.67724961  0.95043047  1
  S  S14  1  0.66479079  0.17724961  0.95043047  1
  S  S15  1  0.33520921  0.82275039  0.45043047  1
  S  S16  1  0.63669121  0.19585063  0.54311860  1
  S  S17  1  0.36330879  0.80414937  0.04311860  1
  S  S18  1  0.13669121  0.30414937  0.04311860  1
  S  S19  1  0.86330879  0.69585063  0.54311860  1
