# generated using pymatgen
data_ZrI4
_symmetry_space_group_name_H-M   'P 1'
_cell_length_a   8.03151579
_cell_length_b   8.18471493
_cell_length_c   16.94127548
_cell_angle_alpha   90.27327347
_cell_angle_beta   95.21683763
_cell_angle_gamma   91.07595350
_symmetry_Int_Tables_number   1
_chemical_formula_structural   ZrI4
_chemical_formula_sum   'Zr4 I16'
_cell_volume   1108.81400972
_cell_formula_units_Z   4
loop_
 _symmetry_equiv_pos_site_id
 _symmetry_equiv_pos_as_xyz
  1  'x, y, z'
loop_
 _atom_site_type_symbol
 _atom_site_label
 _atom_site_symmetry_multiplicity
 _atom_site_fract_x
 _atom_site_fract_y
 _atom_site_fract_z
 _atom_site_occupancy
  Zr  Zr0  1  0.38448263  0.16124117  0.30674610  1
  Zr  Zr1  1  0.61551937  0.83875983  0.69325390  1
  Zr  Zr2  1  0.13519771  0.87639215  0.10886092  1
  Zr  Zr3  1  0.86480229  0.12360885  0.89113908  1
  I  I4  1  0.33143160  0.64998044  0.70030766  1
  I  I5  1  0.66856840  0.35001956  0.29969234  1
  I  I6  1  0.82660216  0.08290711  0.05912348  1
  I  I7  1  0.17339784  0.91709289  0.94087652  1
  I  I8  1  0.07030400  0.94308363  0.27157462  1
  I  I9  1  0.92969500  0.05691637  0.72842638  1
  I  I10  1  0.31348157  0.21082293  0.13774681  1
  I  I11  1  0.68651843  0.78917607  0.86225319  1
  I  I12  1  0.93677909  0.60176301  0.10566833  1
  I  I13  1  0.06322091  0.39823599  0.89433167  1
  I  I14  1  0.21978609  0.34544452  0.40666547  1
  I  I15  1  0.78021291  0.65455448  0.59333453  1
  I  I16  1  0.52784525  0.89785041  0.38073335  1
  I  I17  1  0.47215575  0.10214959  0.61926665  1
  I  I18  1  0.43705780  0.72703580  0.13103621  1
  I  I19  1  0.56294220  0.27296220  0.86896379  1
