# generated using pymatgen
data_La3BeCrS7
_symmetry_space_group_name_H-M   'P 1'
_cell_length_a   5.97545650
_cell_length_b   10.17008201
_cell_length_c   10.16974540
_cell_angle_alpha   120.00350194
_cell_angle_beta   90.00000000
_cell_angle_gamma   90.00000000
_symmetry_Int_Tables_number   1
_chemical_formula_structural   La3BeCrS7
_chemical_formula_sum   'La6 Be2 Cr2 S14'
_cell_volume   535.20594632
_cell_formula_units_Z   2
loop_
 _symmetry_equiv_pos_site_id
 _symmetry_equiv_pos_as_xyz
  1  'x, y, z'
loop_
 _atom_site_type_symbol
 _atom_site_label
 _atom_site_symmetry_multiplicity
 _atom_site_fract_x
 _atom_site_fract_y
 _atom_site_fract_z
 _atom_site_occupancy
  La  La0  1  0.25226723  0.25261790  0.38924134  1
  La  La1  1  0.25224336  0.61076361  0.86337128  1
  La  La2  1  0.25221080  0.13661597  0.74738335  1
  La  La3  1  0.75226723  0.74738210  0.61075866  1
  La  La4  1  0.75224336  0.38923639  0.13662872  1
  La  La5  1  0.75221080  0.86338403  0.25261665  1
  Be  Be6  1  0.83883879  0.33336814  0.66669137  1
  Be  Be7  1  0.33883879  0.66663186  0.33330863  1
  Cr  Cr8  1  0.48259676  0.99998295  0.99998262  1
  Cr  Cr9  1  0.98259676  0.00001705  0.00001738  1
  S  S10  1  0.73264672  0.14117990  0.21574643  1
  S  S11  1  0.73262613  0.78430831  0.92545165  1
  S  S12  1  0.73271298  0.07455165  0.85885113  1
  S  S13  1  0.23264672  0.85882010  0.78425357  1
  S  S14  1  0.23262613  0.21569169  0.07454835  1
  S  S15  1  0.23271298  0.92544835  0.14114887  1
  S  S16  1  0.96817697  0.11269116  0.51868136  1
  S  S17  1  0.96812723  0.48132881  0.59399480  1
  S  S18  1  0.96814437  0.40604276  0.88735586  1
  S  S19  1  0.46817697  0.88730884  0.48131864  1
  S  S20  1  0.46812723  0.51867119  0.40600520  1
  S  S21  1  0.46814437  0.59395724  0.11264414  1
  S  S22  1  0.48740867  0.33332816  0.66668460  1
  S  S23  1  0.98740867  0.66667184  0.33331540  1
