# generated using pymatgen
data_Dy6Mn23
_symmetry_space_group_name_H-M   'P 1'
_cell_length_a   8.48040986
_cell_length_b   8.48040986
_cell_length_c   8.48040986
_cell_angle_alpha   60.00000000
_cell_angle_beta   60.00000000
_cell_angle_gamma   60.00000000
_symmetry_Int_Tables_number   1
_chemical_formula_structural   Dy6Mn23
_chemical_formula_sum   'Dy6 Mn23'
_cell_volume   431.25637621
_cell_formula_units_Z   1
loop_
 _symmetry_equiv_pos_site_id
 _symmetry_equiv_pos_as_xyz
  1  'x, y, z'
loop_
 _atom_site_type_symbol
 _atom_site_label
 _atom_site_symmetry_multiplicity
 _atom_site_fract_x
 _atom_site_fract_y
 _atom_site_fract_z
 _atom_site_occupancy
  Dy  Dy0  1  0.70380057  0.29619943  0.29619943  1
  Dy  Dy1  1  0.70380057  0.29619943  0.70380057  1
  Dy  Dy2  1  0.70380057  0.70380057  0.29619943  1
  Dy  Dy3  1  0.29619943  0.70380057  0.70380057  1
  Dy  Dy4  1  0.29619943  0.70380057  0.29619943  1
  Dy  Dy5  1  0.29619943  0.29619943  0.70380057  1
  Mn  Mn6  1  -0.00000000  0.00000000  -0.00000000  1
  Mn  Mn7  1  0.50000000  0.00000000  -0.00000000  1
  Mn  Mn8  1  0.50000000  0.00000000  0.50000000  1
  Mn  Mn9  1  0.50000000  0.50000000  -0.00000000  1
  Mn  Mn10  1  -0.00000000  0.50000000  0.50000000  1
  Mn  Mn11  1  -0.00000000  0.50000000  -0.00000000  1
  Mn  Mn12  1  -0.00000000  0.00000000  0.50000000  1
  Mn  Mn13  1  0.63441484  0.12186172  0.12186172  1
  Mn  Mn14  1  0.12186172  0.63441484  0.12186172  1
  Mn  Mn15  1  0.12186172  0.12186172  0.63441484  1
  Mn  Mn16  1  0.12186172  0.12186172  0.12186172  1
  Mn  Mn17  1  0.36558516  0.87813828  0.87813828  1
  Mn  Mn18  1  0.87813828  0.36558516  0.87813828  1
  Mn  Mn19  1  0.87813828  0.87813828  0.36558516  1
  Mn  Mn20  1  0.87813828  0.87813828  0.87813828  1
  Mn  Mn21  1  0.03282594  0.32239135  0.32239135  1
  Mn  Mn22  1  0.32239135  0.03282594  0.32239135  1
  Mn  Mn23  1  0.32239135  0.32239135  0.03282594  1
  Mn  Mn24  1  0.32239135  0.32239135  0.32239135  1
  Mn  Mn25  1  0.96717406  0.67760865  0.67760865  1
  Mn  Mn26  1  0.67760865  0.96717406  0.67760865  1
  Mn  Mn27  1  0.67760865  0.67760865  0.96717406  1
  Mn  Mn28  1  0.67760865  0.67760865  0.67760865  1
