# generated using pymatgen
data_Te8RuCl2
_symmetry_space_group_name_H-M   'P 1'
_cell_length_a   8.70057576
_cell_length_b   8.70057576
_cell_length_c   10.70154227
_cell_angle_alpha   102.26495870
_cell_angle_beta   102.26495870
_cell_angle_gamma   115.05449726
_symmetry_Int_Tables_number   1
_chemical_formula_structural   Te8RuCl2
_chemical_formula_sum   'Te16 Ru2 Cl4'
_cell_volume   673.99137894
_cell_formula_units_Z   2
loop_
 _symmetry_equiv_pos_site_id
 _symmetry_equiv_pos_as_xyz
  1  'x, y, z'
loop_
 _atom_site_type_symbol
 _atom_site_label
 _atom_site_symmetry_multiplicity
 _atom_site_fract_x
 _atom_site_fract_y
 _atom_site_fract_z
 _atom_site_occupancy
  Te  Te0  1  0.78488154  0.09128038  0.35342854  1
  Te  Te1  1  0.90871962  0.21511846  0.14657146  1
  Te  Te2  1  0.21511846  0.90871962  0.64657146  1
  Te  Te3  1  0.09128038  0.78488154  0.85342854  1
  Te  Te4  1  0.98117564  0.75617788  0.28908886  1
  Te  Te5  1  0.24382212  0.01882436  0.21091114  1
  Te  Te6  1  0.01882436  0.24382212  0.71091114  1
  Te  Te7  1  0.75617788  0.98117564  0.78908886  1
  Te  Te8  1  0.74862943  0.71074294  0.02896558  1
  Te  Te9  1  0.28925706  0.25137057  0.47103442  1
  Te  Te10  1  0.25137057  0.28925706  0.97103442  1
  Te  Te11  1  0.71074294  0.74862943  0.52896558  1
  Te  Te12  1  0.50961406  0.79218256  0.13226259  1
  Te  Te13  1  0.20781744  0.49038594  0.36773741  1
  Te  Te14  1  0.49038594  0.20781744  0.86773741  1
  Te  Te15  1  0.79218256  0.50961406  0.63226259  1
  Ru  Ru16  1  0.00000000  -0.00000000  0.50000000  1
  Ru  Ru17  1  0.00000000  -0.00000000  0.00000000  1
  Cl  Cl18  1  0.59203893  0.40796107  0.25000000  1
  Cl  Cl19  1  0.40796107  0.59203893  0.75000000  1
  Cl  Cl20  1  0.00000000  0.50000000  0.00000000  1
  Cl  Cl21  1  0.50000000  -0.00000000  0.50000000  1
