# generated using pymatgen
data_Ce3BeCrS7
_symmetry_space_group_name_H-M   'P 1'
_cell_length_a   5.83577006
_cell_length_b   9.93140172
_cell_length_c   9.93963200
_cell_angle_alpha   119.98805116
_cell_angle_beta   90.00000000
_cell_angle_gamma   90.00000000
_symmetry_Int_Tables_number   1
_chemical_formula_structural   Ce3BeCrS7
_chemical_formula_sum   'Ce6 Be2 Cr2 S14'
_cell_volume   498.95564026
_cell_formula_units_Z   2
loop_
 _symmetry_equiv_pos_site_id
 _symmetry_equiv_pos_as_xyz
  1  'x, y, z'
loop_
 _atom_site_type_symbol
 _atom_site_label
 _atom_site_symmetry_multiplicity
 _atom_site_fract_x
 _atom_site_fract_y
 _atom_site_fract_z
 _atom_site_occupancy
  Ce  Ce0  1  0.25018483  0.24644546  0.38226915  1
  Ce  Ce1  1  0.25001921  0.61785746  0.86421559  1
  Ce  Ce2  1  0.25019386  0.13584534  0.75351074  1
  Ce  Ce3  1  0.75018483  0.75355454  0.61773085  1
  Ce  Ce4  1  0.75001921  0.38214254  0.13578441  1
  Ce  Ce5  1  0.75019386  0.86415466  0.24648926  1
  Be  Be6  1  0.84002852  0.33333583  0.66667261  1
  Be  Be7  1  0.34002852  0.66666417  0.33332739  1
  Cr  Cr8  1  0.48285569  0.00006272  0.00000604  1
  Cr  Cr9  1  0.98285569  0.99993728  -0.00000604  1
  S  S10  1  0.73127086  0.14842514  0.22877721  1
  S  S11  1  0.73118291  0.77116542  0.91954023  1
  S  S12  1  0.73115976  0.08028008  0.85152904  1
  S  S13  1  0.23127086  0.85157486  0.77122279  1
  S  S14  1  0.23118291  0.22883458  0.08045977  1
  S  S15  1  0.23115976  0.91971992  0.14847096  1
  S  S16  1  0.97338393  0.10884332  0.51824299  1
  S  S17  1  0.97345781  0.48196003  0.59072539  1
  S  S18  1  0.97326730  0.40944988  0.89126988  1
  S  S19  1  0.47338393  0.89115668  0.48175701  1
  S  S20  1  0.47345781  0.51803997  0.40927461  1
  S  S21  1  0.47326730  0.59055012  0.10873012  1
  S  S22  1  0.48099534  0.33352010  0.66679454  1
  S  S23  1  0.98099534  0.66647990  0.33320546  1
