# generated using pymatgen
data_Ba8CuSi16
_symmetry_space_group_name_H-M   'P 1'
_cell_length_a   6.75935515
_cell_length_b   9.21122896
_cell_length_c   11.61791628
_cell_angle_alpha   89.44349439
_cell_angle_beta   90.00000000
_cell_angle_gamma   90.00000000
_symmetry_Int_Tables_number   1
_chemical_formula_structural   Ba8CuSi16
_chemical_formula_sum   'Ba8 Cu1 Si16'
_cell_volume   723.32021030
_cell_formula_units_Z   1
loop_
 _symmetry_equiv_pos_site_id
 _symmetry_equiv_pos_as_xyz
  1  'x, y, z'
loop_
 _atom_site_type_symbol
 _atom_site_label
 _atom_site_symmetry_multiplicity
 _atom_site_fract_x
 _atom_site_fract_y
 _atom_site_fract_z
 _atom_site_occupancy
  Ba  Ba0  1  0.75000000  0.98454179  0.30489048  1
  Ba  Ba1  1  0.25000000  0.51227026  0.80585270  1
  Ba  Ba2  1  0.25000000  0.00967861  0.69511565  1
  Ba  Ba3  1  0.75000000  0.48739023  0.19148493  1
  Ba  Ba4  1  0.75000000  0.16682010  0.91366101  1
  Ba  Ba5  1  0.25000000  0.34638673  0.40517401  1
  Ba  Ba6  1  0.25000000  0.84567245  0.09544835  1
  Ba  Ba7  1  0.75000000  0.63576379  0.58433933  1
  Cu  Cu8  1  0.75000000  0.92250347  0.72703718  1
  Si  Si9  1  0.75000000  0.58617110  0.90564605  1
  Si  Si10  1  0.25000000  0.91304112  0.40699060  1
  Si  Si11  1  0.25000000  0.41343580  0.09173369  1
  Si  Si12  1  0.75000000  0.09510259  0.58895552  1
  Si  Si13  1  0.75000000  0.80171101  0.03237227  1
  Si  Si14  1  0.25000000  0.70002961  0.53362069  1
  Si  Si15  1  0.25000000  0.20034038  0.96721774  1
  Si  Si16  1  0.75000000  0.30208550  0.46397258  1
  Si  Si17  1  0.94654043  0.79794525  0.86048963  1
  Si  Si18  1  0.07163322  0.69452303  0.35411107  1
  Si  Si19  1  0.42802339  0.19490893  0.14692845  1
  Si  Si20  1  0.56901386  0.30910051  0.64426446  1
  Si  Si21  1  0.07197661  0.19490893  0.14692845  1
  Si  Si22  1  0.93098614  0.30910051  0.64426446  1
  Si  Si23  1  0.55345957  0.79794525  0.86048963  1
  Si  Si24  1  0.42836678  0.69452303  0.35411107  1
