# generated using pymatgen
data_Te2MoWS2
_symmetry_space_group_name_H-M   'P 1'
_cell_length_a   3.35859159
_cell_length_b   3.35867119
_cell_length_c   38.28926198
_cell_angle_alpha   90.00007062
_cell_angle_beta   90.00000000
_cell_angle_gamma   119.99921587
_symmetry_Int_Tables_number   1
_chemical_formula_structural   Te2MoWS2
_chemical_formula_sum   'Te4 Mo2 W2 S4'
_cell_volume   374.05524121
_cell_formula_units_Z   2
loop_
 _symmetry_equiv_pos_site_id
 _symmetry_equiv_pos_as_xyz
  1  'x, y, z'
loop_
 _atom_site_type_symbol
 _atom_site_label
 _atom_site_symmetry_multiplicity
 _atom_site_fract_x
 _atom_site_fract_y
 _atom_site_fract_z
 _atom_site_occupancy
  Te  Te0  1  0.33335686  0.66671473  0.70718311  1
  Te  Te1  1  0.66662587  0.33325074  0.04454105  1
  Te  Te2  1  0.66665081  0.33330063  0.14331905  1
  Te  Te3  1  0.33335378  0.66670855  0.60789259  1
  Mo  Mo4  1  0.33331299  0.66662597  0.09390444  1
  Mo  Mo5  1  0.66669979  0.33339958  0.28179923  1
  W  W6  1  0.33331153  0.66662306  0.46965457  1
  W  W7  1  0.66668833  0.33337667  0.65756601  1
  S  S8  1  0.33335228  0.66670557  0.32129423  1
  S  S9  1  0.66664816  0.33329532  0.42998448  1
  S  S10  1  0.66664671  0.33329242  0.50931227  1
  S  S11  1  0.33335288  0.66670677  0.24229698  1
