# generated using pymatgen
data_CsH3AuN
_symmetry_space_group_name_H-M   'P 1'
_cell_length_a   5.23083965
_cell_length_b   5.23083965
_cell_length_c   18.95685375
_cell_angle_alpha   91.78069646
_cell_angle_beta   103.21379990
_cell_angle_gamma   93.38126831
_symmetry_Int_Tables_number   1
_chemical_formula_structural   CsH3AuN
_chemical_formula_sum   'Cs4 H12 Au4 N4'
_cell_volume   503.54937574
_cell_formula_units_Z   4
loop_
 _symmetry_equiv_pos_site_id
 _symmetry_equiv_pos_as_xyz
  1  'x, y, z'
loop_
 _atom_site_type_symbol
 _atom_site_label
 _atom_site_symmetry_multiplicity
 _atom_site_fract_x
 _atom_site_fract_y
 _atom_site_fract_z
 _atom_site_occupancy
  Cs  Cs0  1  0.67505976  0.48350827  0.90614478  1
  Cs  Cs1  1  0.57736350  0.26891499  0.59385522  1
  Cs  Cs2  1  0.32494024  0.51649173  0.09385522  1
  Cs  Cs3  1  0.42263650  0.73108501  0.40614478  1
  H  H4  1  0.62780412  0.83961401  0.74466207  1
  H  H5  1  0.09495194  0.38314205  0.75533793  1
  H  H6  1  0.37219588  0.16038599  0.25533793  1
  H  H7  1  0.90504806  0.61685795  0.24466207  1
  H  H8  1  0.91901568  0.92802425  0.73385011  1
  H  H9  1  0.19417413  0.68516556  0.76614989  1
  H  H10  1  0.08098432  0.07197575  0.26614989  1
  H  H11  1  0.80582587  0.31483444  0.23385011  1
  H  H12  1  0.82824030  0.02924831  0.80582995  1
  H  H13  1  0.22341837  0.52241035  0.69417005  1
  H  H14  1  0.17175970  0.97075169  0.19417005  1
  H  H15  1  0.77658163  0.47758965  0.30582995  1
  Au  Au16  1  0.78437050  0.00821142  0.04922734  1
  Au  Au17  1  0.95898408  0.23514316  0.45077266  1
  Au  Au18  1  0.21562950  0.99178858  0.95077266  1
  Au  Au19  1  0.04101592  0.76485684  0.54922734  1
  N  N20  1  0.76139393  0.99458090  0.75067402  1
  N  N21  1  0.24390689  0.51071991  0.74932598  1
  N  N22  1  0.23860607  0.00541910  0.24932598  1
  N  N23  1  0.75609311  0.48928009  0.25067402  1
