# generated using pymatgen
data_Sm3GaNiS7
_symmetry_space_group_name_H-M   'P 1'
_cell_length_a   6.18648347
_cell_length_b   9.74868185
_cell_length_c   9.74860111
_cell_angle_alpha   119.99934973
_cell_angle_beta   90.00000000
_cell_angle_gamma   90.00000000
_symmetry_Int_Tables_number   1
_chemical_formula_structural   Sm3GaNiS7
_chemical_formula_sum   'Sm6 Ga2 Ni2 S14'
_cell_volume   509.17319463
_cell_formula_units_Z   2
loop_
 _symmetry_equiv_pos_site_id
 _symmetry_equiv_pos_as_xyz
  1  'x, y, z'
loop_
 _atom_site_type_symbol
 _atom_site_label
 _atom_site_symmetry_multiplicity
 _atom_site_fract_x
 _atom_site_fract_y
 _atom_site_fract_z
 _atom_site_occupancy
  Sm  Sm0  1  0.17852125  0.84547573  0.21969682  1
  Sm  Sm1  1  0.17852345  0.78030457  0.62578081  1
  Sm  Sm2  1  0.17854162  0.37419772  0.15451204  1
  Sm  Sm3  1  0.67852125  0.15452427  0.78030318  1
  Sm  Sm4  1  0.67852345  0.21969543  0.37421919  1
  Sm  Sm5  1  0.67854162  0.62580228  0.84548796  1
  Ga  Ga6  1  0.10489002  0.33333893  0.66666943  1
  Ga  Ga7  1  0.60489002  0.66666107  0.33333057  1
  Ni  Ni8  1  0.49407658  0.99999879  -0.00000043  1
  Ni  Ni9  1  0.99407658  0.00000121  0.00000043  1
  S  S10  1  0.45146716  0.56749064  0.08802687  1
  S  S11  1  0.45148880  0.91194394  0.47944938  1
  S  S12  1  0.45146451  0.52052548  0.43250418  1
  S  S13  1  0.95146716  0.43250936  0.91197313  1
  S  S14  1  0.95148880  0.08805606  0.52055062  1
  S  S15  1  0.95146451  0.47947452  0.56749582  1
  S  S16  1  0.46957191  0.33334657  0.66667297  1
  S  S17  1  0.96957191  0.66665343  0.33332703  1
  S  S18  1  0.25905268  0.13158094  0.22823662  1
  S  S19  1  0.25905068  0.77176582  0.90335035  1
  S  S20  1  0.25905134  0.09664547  0.86840867  1
  S  S21  1  0.75905268  0.86841906  0.77176338  1
  S  S22  1  0.75905068  0.22823418  0.09664965  1
  S  S23  1  0.75905134  0.90335453  0.13159133  1
