# generated using pymatgen
data_AgClO4
_symmetry_space_group_name_H-M   'P 1'
_cell_length_a   5.72190243
_cell_length_b   7.37088791
_cell_length_c   7.93022668
_cell_angle_alpha   90.00000000
_cell_angle_beta   90.00000000
_cell_angle_gamma   90.00000000
_symmetry_Int_Tables_number   1
_chemical_formula_structural   AgClO4
_chemical_formula_sum   'Ag4 Cl4 O16'
_cell_volume   334.46128679
_cell_formula_units_Z   4
loop_
 _symmetry_equiv_pos_site_id
 _symmetry_equiv_pos_as_xyz
  1  'x, y, z'
loop_
 _atom_site_type_symbol
 _atom_site_label
 _atom_site_symmetry_multiplicity
 _atom_site_fract_x
 _atom_site_fract_y
 _atom_site_fract_z
 _atom_site_occupancy
  Ag  Ag0  1  0.25000000  0.20050191  0.69286352  1
  Ag  Ag1  1  0.25000000  0.29949809  0.19286352  1
  Ag  Ag2  1  0.75000000  0.79949809  0.30713648  1
  Ag  Ag3  1  0.75000000  0.70050191  0.80713648  1
  Cl  Cl4  1  0.25000000  0.67632961  0.54590048  1
  Cl  Cl5  1  0.25000000  0.82367039  0.04590048  1
  Cl  Cl6  1  0.75000000  0.32367039  0.45409952  1
  Cl  Cl7  1  0.75000000  0.17632961  0.95409952  1
  O  O8  1  0.54020974  0.29338585  0.94815611  1
  O  O9  1  0.95979026  0.20661415  0.44815611  1
  O  O10  1  0.04020974  0.70661415  0.05184389  1
  O  O11  1  0.45979026  0.79338585  0.55184389  1
  O  O12  1  0.45979026  0.70661415  0.05184389  1
  O  O13  1  0.04020974  0.79338585  0.55184389  1
  O  O14  1  0.95979026  0.29338585  0.94815611  1
  O  O15  1  0.54020974  0.20661415  0.44815611  1
  O  O16  1  0.25000000  0.55626310  0.69291462  1
  O  O17  1  0.25000000  0.94373690  0.19291462  1
  O  O18  1  0.75000000  0.44373690  0.30708538  1
  O  O19  1  0.75000000  0.05626310  0.80708538  1
  O  O20  1  0.25000000  0.92761272  0.88993184  1
  O  O21  1  0.25000000  0.57238728  0.38993184  1
  O  O22  1  0.75000000  0.07238728  0.11006816  1
  O  O23  1  0.75000000  0.42761272  0.61006816  1
