# generated using pymatgen
data_Na4NiMo6(H19O20)2
_symmetry_space_group_name_H-M   'P 1'
_cell_length_a   7.97357254
_cell_length_b   10.57138701
_cell_length_c   12.51261265
_cell_angle_alpha   105.95504404
_cell_angle_beta   108.92477695
_cell_angle_gamma   96.19252745
_symmetry_Int_Tables_number   1
_chemical_formula_structural   Na4NiMo6(H19O20)2
_chemical_formula_sum   'Na4 Ni1 Mo6 H38 O40'
_cell_volume   936.48607686
_cell_formula_units_Z   1
loop_
 _symmetry_equiv_pos_site_id
 _symmetry_equiv_pos_as_xyz
  1  'x, y, z'
loop_
 _atom_site_type_symbol
 _atom_site_label
 _atom_site_symmetry_multiplicity
 _atom_site_fract_x
 _atom_site_fract_y
 _atom_site_fract_z
 _atom_site_occupancy
  Na  Na0  1  0.80429088  0.86046393  0.58109921  1
  Na  Na1  1  0.19570912  0.13953607  0.41890079  1
  Na  Na2  1  0.20493015  0.86027291  0.80017151  1
  Na  Na3  1  0.79506985  0.13972709  0.19982849  1
  Ni  Ni4  1  0.00000000  0.50000000  -0.00000000  1
  Mo  Mo5  1  0.87287700  0.26340975  0.72897596  1
  Mo  Mo6  1  0.12712300  0.73659025  0.27102404  1
  Mo  Mo7  1  0.25092483  0.27035114  0.95302148  1
  Mo  Mo8  1  0.74907517  0.72964886  0.04697852  1
  Mo  Mo9  1  0.36621661  0.49753505  0.23111062  1
  Mo  Mo10  1  0.63378339  0.50246495  0.76888938  1
  H  H11  1  0.00753409  0.54125847  0.79529527  1
  H  H12  1  0.99246591  0.45874153  0.20470473  1
  H  H13  1  0.88888107  0.23585334  0.95501132  1
  H  H14  1  0.11111893  0.76414666  0.04498868  1
  H  H15  1  0.35480172  0.55861132  0.02674641  1
  H  H16  1  0.64519828  0.44138868  0.97325359  1
  H  H17  1  0.57480029  0.80173803  0.33104277  1
  H  H18  1  0.42519971  0.19826197  0.66895723  1
  H  H19  1  0.75846444  0.78723772  0.31511305  1
  H  H20  1  0.24153556  0.21276228  0.68488695  1
  H  H21  1  0.39676573  0.73000860  0.50038640  1
  H  H22  1  0.60323427  0.26999140  0.49961360  1
  H  H23  1  0.47639637  0.78238712  0.63782770  1
  H  H24  1  0.52360363  0.21761288  0.36217230  1
  H  H25  1  0.93388370  0.93942849  0.84977125  1
  H  H26  1  0.06611630  0.06057151  0.15022875  1
  H  H27  1  0.84392584  0.78740417  0.81767040  1
  H  H28  1  0.15607416  0.21259583  0.18232960  1
  H  H29  1  0.13403334  0.83862864  0.54457223  1
  H  H30  1  0.86596666  0.16137136  0.45542777  1
  H  H31  1  0.19754762  0.99339737  0.62082097  1
  H  H32  1  0.80245238  0.00660263  0.37917903  1
  H  H33  1  0.79506670  0.59038919  0.44286231  1
  H  H34  1  0.20493330  0.40961081  0.55713769  1
  H  H35  1  0.75539973  0.58557081  0.55720498  1
  H  H36  1  0.24460027  0.41442919  0.44279502  1
  H  H37  1  0.37291456  0.79457473  0.01708684  1
  H  H38  1  0.62708544  0.20542527  0.98291316  1
  H  H39  1  0.34954606  0.94477873  0.04917032  1
  H  H40  1  0.65045394  0.05522127  0.95082968  1
  H  H41  1  0.59197417  0.82013334  0.83960906  1
  H  H42  1  0.40802583  0.17986666  0.16039094  1
  H  H43  1  0.58643103  0.93463074  0.78170463  1
  H  H44  1  0.41356897  0.06536926  0.21829537  1
  H  H45  1  0.22177056  0.56741078  0.72714240  1
  H  H46  1  0.77822944  0.43258922  0.27285760  1
  H  H47  1  0.04266124  0.60182006  0.64462069  1
  H  H48  1  0.95733876  0.39817994  0.35537931  1
  O  O49  1  0.93145499  0.48791545  0.82440046  1
  O  O50  1  0.06854501  0.51208455  0.17559954  1
  O  O51  1  0.96459844  0.29297490  0.92939516  1
  O  O52  1  0.03540156  0.70702510  0.07060484  1
  O  O53  1  0.27220867  0.49226520  0.03979669  1
  O  O54  1  0.72779133  0.50773480  0.96020331  1
  O  O55  1  0.14186917  0.28773113  0.79696111  1
  O  O56  1  0.85813083  0.71226887  0.20303889  1
  O  O57  1  0.28276140  0.30450658  0.12597223  1
  O  O58  1  0.71723860  0.69549342  0.87402777  1
  O  O59  1  0.35788922  0.69048237  0.26622664  1
  O  O60  1  0.64211078  0.30951763  0.73377336  1
  O  O61  1  0.86686500  0.28398952  0.59322935  1
  O  O62  1  0.13313500  0.71601048  0.40677065  1
  O  O63  1  0.80410861  0.08993786  0.69576308  1
  O  O64  1  0.19589139  0.91006214  0.30423692  1
  O  O65  1  0.20021291  0.09516120  0.91907062  1
  O  O66  1  0.79978709  0.90483880  0.08092938  1
  O  O67  1  0.48067220  0.30936765  0.96789623  1
  O  O68  1  0.51932780  0.69063235  0.03210377  1
  O  O69  1  0.60010123  0.51937262  0.25934462  1
  O  O70  1  0.39989877  0.48062738  0.74065538  1
  O  O71  1  0.34702160  0.46726560  0.35708965  1
  O  O72  1  0.65297840  0.53273440  0.64291035  1
  O  O73  1  0.70666976  0.84333654  0.36829187  1
  O  O74  1  0.29333024  0.15666346  0.63170813  1
  O  O75  1  0.50839615  0.77982853  0.56843783  1
  O  O76  1  0.49160385  0.22017147  0.43156217  1
  O  O77  1  0.89533358  0.85242967  0.78628461  1
  O  O78  1  0.10466642  0.14757033  0.21371539  1
  O  O79  1  0.12889208  0.90587893  0.61528074  1
  O  O80  1  0.87110792  0.09412107  0.38471926  1
  O  O81  1  0.84574112  0.62618663  0.53031830  1
  O  O82  1  0.15425888  0.37381337  0.46968170  1
  O  O83  1  0.28188709  0.85155686  0.00167180  1
  O  O84  1  0.71811291  0.14844314  0.99832820  1
  O  O85  1  0.52242364  0.88890843  0.81981305  1
  O  O86  1  0.47757636  0.11109157  0.18018695  1
  O  O87  1  0.12721328  0.62084237  0.72811427  1
  O  O88  1  0.87278672  0.37915763  0.27188573  1
