# generated using pymatgen
data_Sr2CuSe2(ClO3)2
_symmetry_space_group_name_H-M   'P 1'
_cell_length_a   5.26864562
_cell_length_b   6.61791771
_cell_length_c   12.59434353
_cell_angle_alpha   90.00000000
_cell_angle_beta   91.45134622
_cell_angle_gamma   90.00000000
_symmetry_Int_Tables_number   1
_chemical_formula_structural   Sr2CuSe2(ClO3)2
_chemical_formula_sum   'Sr4 Cu2 Se4 Cl4 O12'
_cell_volume   438.99193214
_cell_formula_units_Z   2
loop_
 _symmetry_equiv_pos_site_id
 _symmetry_equiv_pos_as_xyz
  1  'x, y, z'
loop_
 _atom_site_type_symbol
 _atom_site_label
 _atom_site_symmetry_multiplicity
 _atom_site_fract_x
 _atom_site_fract_y
 _atom_site_fract_z
 _atom_site_occupancy
  Sr  Sr0  1  0.48688681  0.78268192  0.26807283  1
  Sr  Sr1  1  0.98688681  0.71731808  0.76807283  1
  Sr  Sr2  1  0.51311319  0.21731808  0.73192717  1
  Sr  Sr3  1  0.01311319  0.28268192  0.23192717  1
  Cu  Cu4  1  0.00000000  -0.00000000  0.50000000  1
  Cu  Cu5  1  0.50000000  0.50000000  -0.00000000  1
  Se  Se6  1  0.50440997  0.25418180  0.42654700  1
  Se  Se7  1  0.00440997  0.24581820  0.92654700  1
  Se  Se8  1  0.49559003  0.74581820  0.57345300  1
  Se  Se9  1  0.99559003  0.75418180  0.07345300  1
  Cl  Cl10  1  0.96762370  0.64384198  0.38506379  1
  Cl  Cl11  1  0.46762370  0.85615802  0.88506379  1
  Cl  Cl12  1  0.03237630  0.35615802  0.61493621  1
  Cl  Cl13  1  0.53237630  0.14384198  0.11493621  1
  O  O14  1  0.27173472  0.07046127  0.39582303  1
  O  O15  1  0.77173472  0.42953873  0.89582303  1
  O  O16  1  0.72826528  0.92953873  0.60417697  1
  O  O17  1  0.22826528  0.57046127  0.10417697  1
  O  O18  1  0.46163806  0.40580914  0.31922312  1
  O  O19  1  0.96163806  0.09419086  0.81922312  1
  O  O20  1  0.53836194  0.59419086  0.68077688  1
  O  O21  1  0.03836194  0.90580914  0.18077688  1
  O  O22  1  0.76441545  0.10922357  0.38638519  1
  O  O23  1  0.26441545  0.39077643  0.88638519  1
  O  O24  1  0.23558455  0.89077643  0.61361481  1
  O  O25  1  0.73558455  0.60922357  0.11361481  1
