# generated using pymatgen
data_Bi16Pt11I6
_symmetry_space_group_name_H-M   'P 1'
_cell_length_a   9.42520987
_cell_length_b   14.16764467
_cell_length_c   14.16764467
_cell_angle_alpha   90.00000000
_cell_angle_beta   90.00000000
_cell_angle_gamma   90.00000000
_symmetry_Int_Tables_number   1
_chemical_formula_structural   Bi16Pt11I6
_chemical_formula_sum   'Bi32 Pt22 I12'
_cell_volume   1891.84844110
_cell_formula_units_Z   2
loop_
 _symmetry_equiv_pos_site_id
 _symmetry_equiv_pos_as_xyz
  1  'x, y, z'
loop_
 _atom_site_type_symbol
 _atom_site_label
 _atom_site_symmetry_multiplicity
 _atom_site_fract_x
 _atom_site_fract_y
 _atom_site_fract_z
 _atom_site_occupancy
  Bi  Bi0  1  0.05372043  0.50000000  -0.00000000  1
  Bi  Bi1  1  0.94627957  -0.00000000  0.50000000  1
  Bi  Bi2  1  0.63804613  0.50000000  0.00000000  1
  Bi  Bi3  1  0.36195387  -0.00000000  0.50000000  1
  Bi  Bi4  1  0.72311847  -0.00000000  -0.00000000  1
  Bi  Bi5  1  0.27688153  0.50000000  0.50000000  1
  Bi  Bi6  1  0.27688153  -0.00000000  -0.00000000  1
  Bi  Bi7  1  0.72311847  0.50000000  0.50000000  1
  Bi  Bi8  1  0.67597519  0.17440153  0.82567500  1
  Bi  Bi9  1  0.67597519  0.82559847  0.17432500  1
  Bi  Bi10  1  0.32402481  0.67440153  0.67432500  1
  Bi  Bi11  1  0.32402481  0.32559847  0.32567500  1
  Bi  Bi12  1  0.32402481  0.82567500  0.17440153  1
  Bi  Bi13  1  0.32402481  0.17432500  0.82559847  1
  Bi  Bi14  1  0.67597519  0.67432500  0.67440153  1
  Bi  Bi15  1  0.67597519  0.32567500  0.32559847  1
  Bi  Bi16  1  0.70172605  0.42964804  0.77543080  1
  Bi  Bi17  1  0.70172605  0.57035196  0.22456920  1
  Bi  Bi18  1  0.29827395  0.92964804  0.72456920  1
  Bi  Bi19  1  0.29827395  0.07035196  0.27543080  1
  Bi  Bi20  1  0.29827395  0.77543080  0.42964804  1
  Bi  Bi21  1  0.29827395  0.22456920  0.57035196  1
  Bi  Bi22  1  0.70172605  0.72456920  0.92964804  1
  Bi  Bi23  1  0.70172605  0.27543080  0.07035196  1
  Bi  Bi24  1  0.31518838  0.43920343  0.80086444  1
  Bi  Bi25  1  0.31518838  0.56079657  0.19913556  1
  Bi  Bi26  1  0.68481162  0.93920343  0.69913556  1
  Bi  Bi27  1  0.68481162  0.06079657  0.30086444  1
  Bi  Bi28  1  0.68481162  0.80086444  0.43920343  1
  Bi  Bi29  1  0.68481162  0.19913556  0.56079657  1
  Bi  Bi30  1  0.31518838  0.69913556  0.93920343  1
  Bi  Bi31  1  0.31518838  0.30086444  0.06079657  1
  Pt  Pt32  1  0.34892267  0.50000000  0.00000000  1
  Pt  Pt33  1  0.65107733  -0.00000000  0.50000000  1
  Pt  Pt34  1  0.50000000  0.30236283  0.69763717  1
  Pt  Pt35  1  0.50000000  0.69763717  0.30236283  1
  Pt  Pt36  1  0.50000000  0.80236283  0.80236283  1
  Pt  Pt37  1  0.50000000  0.19763717  0.19763717  1
  Pt  Pt38  1  0.50731815  0.32260964  0.90532229  1
  Pt  Pt39  1  0.50731815  0.67739036  0.09467771  1
  Pt  Pt40  1  0.49268185  0.82260964  0.59467771  1
  Pt  Pt41  1  0.49268185  0.17739036  0.40532229  1
  Pt  Pt42  1  0.49268185  0.90532229  0.32260964  1
  Pt  Pt43  1  0.49268185  0.09467771  0.67739036  1
  Pt  Pt44  1  0.50731815  0.59467771  0.82260964  1
  Pt  Pt45  1  0.50731815  0.40532229  0.17739036  1
  Pt  Pt46  1  0.50268925  0.14157759  0.00297461  1
  Pt  Pt47  1  0.50268925  0.85842241  0.99702539  1
  Pt  Pt48  1  0.49731075  0.64157759  0.49702539  1
  Pt  Pt49  1  0.49731075  0.35842241  0.50297461  1
  Pt  Pt50  1  0.49731075  0.00297461  0.14157759  1
  Pt  Pt51  1  0.49731075  0.99702539  0.85842241  1
  Pt  Pt52  1  0.50268925  0.49702539  0.64157759  1
  Pt  Pt53  1  0.50268925  0.50297461  0.35842241  1
  I  I54  1  -0.00000000  0.38344017  0.61655983  1
  I  I55  1  -0.00000000  0.61655983  0.38344017  1
  I  I56  1  -0.00000000  0.88344017  0.88344017  1
  I  I57  1  -0.00000000  0.11655983  0.11655983  1
  I  I58  1  0.00786690  0.39783516  0.19548184  1
  I  I59  1  0.00786690  0.60216484  0.80451816  1
  I  I60  1  0.99213310  0.89783516  0.30451816  1
  I  I61  1  0.99213310  0.10216484  0.69548184  1
  I  I62  1  0.99213310  0.19548184  0.39783516  1
  I  I63  1  0.99213310  0.80451816  0.60216484  1
  I  I64  1  0.00786690  0.30451816  0.89783516  1
  I  I65  1  0.00786690  0.69548184  0.10216484  1
