# generated using pymatgen
data_Na5Cu3(PO4)4
_symmetry_space_group_name_H-M   'P 1'
_cell_length_a   5.15331059
_cell_length_b   8.50180210
_cell_length_c   9.19285875
_cell_angle_alpha   116.13219964
_cell_angle_beta   89.51196491
_cell_angle_gamma   106.14480721
_symmetry_Int_Tables_number   1
_chemical_formula_structural   Na5Cu3(PO4)4
_chemical_formula_sum   'Na5 Cu3 P4 O16'
_cell_volume   344.28505717
_cell_formula_units_Z   1
loop_
 _symmetry_equiv_pos_site_id
 _symmetry_equiv_pos_as_xyz
  1  'x, y, z'
loop_
 _atom_site_type_symbol
 _atom_site_label
 _atom_site_symmetry_multiplicity
 _atom_site_fract_x
 _atom_site_fract_y
 _atom_site_fract_z
 _atom_site_occupancy
  Na  Na0  1  0.50000000  -0.00000000  0.50000000  1
  Na  Na1  1  0.78774562  0.53638423  0.75567157  1
  Na  Na2  1  0.21225438  0.46361577  0.24432843  1
  Na  Na3  1  0.16445827  0.35253594  0.86441249  1
  Na  Na4  1  0.83554173  0.64746406  0.13558751  1
  Cu  Cu5  1  0.00000000  -0.00000000  -0.00000000  1
  Cu  Cu6  1  0.34805461  0.75034926  0.70726739  1
  Cu  Cu7  1  0.65194539  0.24965074  0.29273261  1
  P  P8  1  0.57072406  0.18341662  0.93118366  1
  P  P9  1  0.42927594  0.81658338  0.06881634  1
  P  P10  1  0.77780519  0.69418869  0.47656789  1
  P  P11  1  0.22219481  0.30581131  0.52343211  1
  O  O12  1  0.76276506  0.17429425  0.06162301  1
  O  O13  1  0.23723494  0.82570575  0.93837699  1
  O  O14  1  0.52758621  0.01010042  0.76595905  1
  O  O15  1  0.47241379  0.98989958  0.23404095  1
  O  O16  1  0.29756194  0.20098387  0.00277468  1
  O  O17  1  0.70243806  0.79901613  0.99722532  1
  O  O18  1  0.70296919  0.35581487  0.90905001  1
  O  O19  1  0.29703081  0.64418513  0.09094999  1
  O  O20  1  0.47171475  0.69493438  0.49584993  1
  O  O21  1  0.52828525  0.30506562  0.50415007  1
  O  O22  1  0.76145825  0.50047282  0.32488318  1
  O  O23  1  0.23854175  0.49952718  0.67511682  1
  O  O24  1  0.91767524  0.72717486  0.63688375  1
  O  O25  1  0.08232476  0.27282514  0.36311625  1
  O  O26  1  0.91293450  0.82570835  0.40711088  1
  O  O27  1  0.08706550  0.17429165  0.59288912  1
