# generated using pymatgen
data_Nb4Co2C
_symmetry_space_group_name_H-M   'P 1'
_cell_length_a   8.26440519
_cell_length_b   8.26440519
_cell_length_c   8.26440519
_cell_angle_alpha   60.00000000
_cell_angle_beta   60.00000000
_cell_angle_gamma   60.00000000
_symmetry_Int_Tables_number   1
_chemical_formula_structural   Nb4Co2C
_chemical_formula_sum   'Nb16 Co8 C4'
_cell_volume   399.13499483
_cell_formula_units_Z   4
loop_
 _symmetry_equiv_pos_site_id
 _symmetry_equiv_pos_as_xyz
  1  'x, y, z'
loop_
 _atom_site_type_symbol
 _atom_site_label
 _atom_site_symmetry_multiplicity
 _atom_site_fract_x
 _atom_site_fract_y
 _atom_site_fract_z
 _atom_site_occupancy
  Nb  Nb0  1  0.00000000  -0.00000000  0.50000000  1
  Nb  Nb1  1  0.00000000  0.50000000  0.00000000  1
  Nb  Nb2  1  0.50000000  -0.00000000  0.00000000  1
  Nb  Nb3  1  0.00000000  -0.00000000  0.00000000  1
  Nb  Nb4  1  0.43774147  0.81225853  0.81225853  1
  Nb  Nb5  1  0.81225853  0.43774147  0.43774147  1
  Nb  Nb6  1  0.81225853  0.43774147  0.81225853  1
  Nb  Nb7  1  0.43774147  0.81225853  0.43774147  1
  Nb  Nb8  1  0.81225853  0.81225853  0.43774147  1
  Nb  Nb9  1  0.43774147  0.43774147  0.81225853  1
  Nb  Nb10  1  0.56225853  0.18774147  0.18774147  1
  Nb  Nb11  1  0.18774147  0.56225853  0.56225853  1
  Nb  Nb12  1  0.18774147  0.56225853  0.18774147  1
  Nb  Nb13  1  0.56225853  0.18774147  0.56225853  1
  Nb  Nb14  1  0.18774147  0.18774147  0.56225853  1
  Nb  Nb15  1  0.56225853  0.56225853  0.18774147  1
  Co  Co16  1  0.20484307  0.20484307  0.88547079  1
  Co  Co17  1  0.20484307  0.88547079  0.20484307  1
  Co  Co18  1  0.88547079  0.20484307  0.20484307  1
  Co  Co19  1  0.20484307  0.20484307  0.20484307  1
  Co  Co20  1  0.79515693  0.79515693  0.11452921  1
  Co  Co21  1  0.79515693  0.11452921  0.79515693  1
  Co  Co22  1  0.11452921  0.79515693  0.79515693  1
  Co  Co23  1  0.79515693  0.79515693  0.79515693  1
  C  C24  1  0.50000000  0.50000000  0.00000000  1
  C  C25  1  0.50000000  -0.00000000  0.50000000  1
  C  C26  1  0.00000000  0.50000000  0.50000000  1
  C  C27  1  0.50000000  0.50000000  0.50000000  1
