# generated using pymatgen
data_Bi26Mo10O69
_symmetry_space_group_name_H-M   'P 1'
_cell_length_a   5.92003853
_cell_length_b   11.90689718
_cell_length_c   25.51111561
_cell_angle_alpha   102.20462702
_cell_angle_beta   90.38862567
_cell_angle_gamma   89.99069704
_symmetry_Int_Tables_number   1
_chemical_formula_structural   Bi26Mo10O69
_chemical_formula_sum   'Bi26 Mo10 O69'
_cell_volume   1757.57570985
_cell_formula_units_Z   1
loop_
 _symmetry_equiv_pos_site_id
 _symmetry_equiv_pos_as_xyz
  1  'x, y, z'
loop_
 _atom_site_type_symbol
 _atom_site_label
 _atom_site_symmetry_multiplicity
 _atom_site_fract_x
 _atom_site_fract_y
 _atom_site_fract_z
 _atom_site_occupancy
  Bi  Bi0  1  0.09139546  0.54169961  0.32704752  1
  Bi  Bi1  1  0.90860454  0.45830039  0.67295248  1
  Bi  Bi2  1  0.49695633  0.42900593  0.40799946  1
  Bi  Bi3  1  0.50304367  0.57099407  0.59200054  1
  Bi  Bi4  1  0.58992415  0.34471501  0.25880702  1
  Bi  Bi5  1  0.41007585  0.65528499  0.74119298  1
  Bi  Bi6  1  0.99426154  0.23251666  0.34687962  1
  Bi  Bi7  1  0.00573846  0.76748334  0.65312038  1
  Bi  Bi8  1  0.99783775  0.14222295  0.18367124  1
  Bi  Bi9  1  0.00216225  0.85777705  0.81632876  1
  Bi  Bi10  1  0.07822402  0.46293038  0.17712055  1
  Bi  Bi11  1  0.92177598  0.53706962  0.82287945  1
  Bi  Bi12  1  0.58324863  0.65928587  0.25208307  1
  Bi  Bi13  1  0.41675137  0.34071413  0.74791693  1
  Bi  Bi14  1  0.49043934  0.73241608  0.40423844  1
  Bi  Bi15  1  0.50956066  0.26758392  0.59576156  1
  Bi  Bi16  1  0.99444887  0.85873943  0.32472744  1
  Bi  Bi17  1  0.00555113  0.14126057  0.67527256  1
  Bi  Bi18  1  0.98556421  0.76959576  0.16239660  1
  Bi  Bi19  1  0.01443579  0.23040424  0.83760340  1
  Bi  Bi20  1  0.47912104  0.58241879  0.09561167  1
  Bi  Bi21  1  0.52087896  0.41758121  0.90438833  1
  Bi  Bi22  1  0.48210219  0.25980205  0.10594420  1
  Bi  Bi23  1  0.51789781  0.74019795  0.89405580  1
  Bi  Bi24  1  0.00000000  0.00000000  0.50000000  1
  Bi  Bi25  1  0.00000000  0.00000000  0.00000000  1
  Mo  Mo26  1  0.50380027  0.99723455  0.24831090  1
  Mo  Mo27  1  0.49619973  0.00276545  0.75168910  1
  Mo  Mo28  1  0.00620307  0.65771156  0.48671237  1
  Mo  Mo29  1  0.99379693  0.34228844  0.51328763  1
  Mo  Mo30  1  0.00922994  0.67422878  0.98787393  1
  Mo  Mo31  1  0.99077006  0.32577122  0.01212607  1
  Mo  Mo32  1  0.49410973  0.92825419  0.07808921  1
  Mo  Mo33  1  0.50589027  0.07174581  0.92191079  1
  Mo  Mo34  1  0.50593268  0.07696168  0.42612266  1
  Mo  Mo35  1  0.49406732  0.92303832  0.57387734  1
  O  O36  1  0.26819079  0.50087402  0.25088637  1
  O  O37  1  0.73180921  0.49912598  0.74911363  1
  O  O38  1  0.78399312  0.50025954  0.25177704  1
  O  O39  1  0.21600688  0.49974046  0.74822296  1
  O  O40  1  0.73106044  0.73806137  0.33632316  1
  O  O41  1  0.26893956  0.26193863  0.66367684  1
  O  O42  1  0.90036908  0.23750756  0.26108467  1
  O  O43  1  0.09963092  0.76249244  0.73891533  1
  O  O44  1  0.24038584  0.36318268  0.34542737  1
  O  O45  1  0.75961416  0.63681732  0.65457263  1
  O  O46  1  0.72547805  0.26378166  0.16897315  1
  O  O47  1  0.27452195  0.73621834  0.83102685  1
  O  O48  1  0.74157357  0.63203886  0.15577253  1
  O  O49  1  0.25842643  0.36796114  0.84422747  1
  O  O50  1  0.75114810  0.36854796  0.34718733  1
  O  O51  1  0.24885190  0.63145204  0.65281267  1
  O  O52  1  0.22768502  0.72560266  0.33471139  1
  O  O53  1  0.77231498  0.27439734  0.66528861  1
  O  O54  1  0.42430938  0.43956655  0.13529965  1
  O  O55  1  0.57569062  0.56043345  0.86470035  1
  O  O56  1  0.21812882  0.27656039  0.16780582  1
  O  O57  1  0.78187118  0.72343961  0.83219418  1
  O  O58  1  0.23586077  0.63815753  0.16036855  1
  O  O59  1  0.76413923  0.36184247  0.83963145  1
  O  O60  1  0.89827405  0.76365168  0.24421082  1
  O  O61  1  0.10172595  0.23634832  0.75578918  1
  O  O62  1  0.45630513  0.55536355  0.35732287  1
  O  O63  1  0.54369487  0.44463645  0.64267713  1
  O  O64  1  0.32519710  0.87211143  0.24213790  1
  O  O65  1  0.67480290  0.12788857  0.75786210  1
  O  O66  1  0.32349763  0.12200168  0.25098342  1
  O  O67  1  0.67650237  0.87799832  0.74901658  1
  O  O68  1  0.04640182  0.80502997  0.47034452  1
  O  O69  1  0.95359818  0.19497003  0.52965548  1
  O  O70  1  0.75884854  0.61996091  0.44108377  1
  O  O71  1  0.24115146  0.38003909  0.55891623  1
  O  O72  1  0.89854928  0.80414631  0.96714453  1
  O  O73  1  0.10145072  0.19585369  0.03285547  1
  O  O74  1  0.67218233  0.01300085  0.30775658  1
  O  O75  1  0.32781767  0.98699915  0.69224342  1
  O  O76  1  0.78340802  0.00492595  0.42321657  1
  O  O77  1  0.21659198  0.99507405  0.57678343  1
  O  O78  1  0.25690840  0.62482548  0.94885715  1
  O  O79  1  0.74309160  0.37517452  0.05114285  1
  O  O80  1  0.69173416  0.98077540  0.19195523  1
  O  O81  1  0.30826584  0.01922460  0.80804477  1
  O  O82  1  0.51787678  0.20299174  0.39848101  1
  O  O83  1  0.48212322  0.79700826  0.60151899  1
  O  O84  1  0.06131525  0.70026967  0.05863063  1
  O  O85  1  0.93868475  0.29973033  0.94136937  1
  O  O86  1  0.79509372  0.56880853  0.97180356  1
  O  O87  1  0.20490628  0.43119147  0.02819644  1
  O  O88  1  0.29234930  0.97634107  0.39584338  1
  O  O89  1  0.70765070  0.02365893  0.60415662  1
  O  O90  1  0.34832117  0.89950259  0.01366639  1
  O  O91  1  0.65167883  0.10049741  0.98633361  1
  O  O92  1  0.78034677  0.98419891  0.07379216  1
  O  O93  1  0.21965323  0.01580109  0.92620784  1
  O  O94  1  0.03145878  0.28735579  0.44143021  1
  O  O95  1  0.96854122  0.71264421  0.55856979  1
  O  O96  1  0.32345472  0.03801227  0.11696946  1
  O  O97  1  0.67654528  0.96198773  0.88303054  1
  O  O98  1  0.50085909  0.79961064  0.10285778  1
  O  O99  1  0.49914091  0.20038936  0.89714222  1
  O  O100  1  0.28582513  0.61603190  0.45600688  1
  O  O101  1  0.71417487  0.38396810  0.54399312  1
  O  O102  1  0.41927887  0.11732106  0.49434144  1
  O  O103  1  0.58072113  0.88267894  0.50565856  1
  O  O104  1  0.00000000  0.50000000  0.50000000  1
