# generated using pymatgen
data_Te2MoWS2
_symmetry_space_group_name_H-M   'P 1'
_cell_length_a   3.35947943
_cell_length_b   3.35928960
_cell_length_c   38.34110455
_cell_angle_alpha   90.00006160
_cell_angle_beta   90.00000000
_cell_angle_gamma   120.00186940
_symmetry_Int_Tables_number   1
_chemical_formula_structural   Te2MoWS2
_chemical_formula_sum   'Te4 Mo2 W2 S4'
_cell_volume   374.71967992
_cell_formula_units_Z   2
loop_
 _symmetry_equiv_pos_site_id
 _symmetry_equiv_pos_as_xyz
  1  'x, y, z'
loop_
 _atom_site_type_symbol
 _atom_site_label
 _atom_site_symmetry_multiplicity
 _atom_site_fract_x
 _atom_site_fract_y
 _atom_site_fract_z
 _atom_site_occupancy
  Te  Te0  1  0.66662441  0.33324781  0.04461857  1
  Te  Te1  1  0.66664946  0.33329792  0.42000841  1
  Te  Te2  1  0.66664777  0.33329453  0.14324024  1
  Te  Te3  1  0.66665013  0.33329927  0.51929425  1
  Mo  Mo4  1  0.33330394  0.66660788  0.09390865  1
  Mo  Mo5  1  0.66668916  0.33337831  0.28178799  1
  W  W6  1  0.33330775  0.66661550  0.46966063  1
  W  W7  1  0.66669276  0.33338552  0.65755655  1
  S  S8  1  0.33335566  0.66671231  0.32126521  1
  S  S9  1  0.33335621  0.66671343  0.69716058  1
  S  S10  1  0.33336798  0.66673696  0.24231979  1
  S  S11  1  0.33335478  0.66671056  0.61792712  1
