# generated using pymatgen
data_B
_symmetry_space_group_name_H-M   'P 1'
_cell_length_a   5.04279540
_cell_length_b   5.61214309
_cell_length_c   6.91499376
_cell_angle_alpha   90.00000000
_cell_angle_beta   90.00000000
_cell_angle_gamma   90.00000000
_symmetry_Int_Tables_number   1
_chemical_formula_structural   B
_chemical_formula_sum   B28
_cell_volume   195.70047332
_cell_formula_units_Z   28
loop_
 _symmetry_equiv_pos_site_id
 _symmetry_equiv_pos_as_xyz
  1  'x, y, z'
loop_
 _atom_site_type_symbol
 _atom_site_label
 _atom_site_symmetry_multiplicity
 _atom_site_fract_x
 _atom_site_fract_y
 _atom_site_fract_z
 _atom_site_occupancy
  B  B0  1  0.65250841  0.90729263  0.29068763  1
  B  B1  1  0.34749159  0.09270737  0.29068763  1
  B  B2  1  0.15250841  0.59270737  0.20931237  1
  B  B3  1  0.84749159  0.40729263  0.20931237  1
  B  B4  1  0.34749159  0.09270737  0.70931237  1
  B  B5  1  0.65250841  0.90729263  0.70931237  1
  B  B6  1  0.84749159  0.40729263  0.79068763  1
  B  B7  1  0.15250841  0.59270737  0.79068763  1
  B  B8  1  0.14768308  0.77152871  -0.00000000  1
  B  B9  1  0.85231692  0.22847129  0.00000000  1
  B  B10  1  0.64768308  0.72847129  0.50000000  1
  B  B11  1  0.35231692  0.27152871  0.50000000  1
  B  B12  1  0.83541551  0.99157256  0.50000000  1
  B  B13  1  0.16458449  0.00842744  0.50000000  1
  B  B14  1  0.33541551  0.50842744  0.00000000  1
  B  B15  1  0.66458449  0.49157256  -0.00000000  1
  B  B16  1  0.33889995  0.78125206  0.37426094  1
  B  B17  1  0.66110005  0.21874794  0.37426094  1
  B  B18  1  0.83889995  0.71874794  0.12573906  1
  B  B19  1  0.16110005  0.28125206  0.12573906  1
  B  B20  1  0.66110005  0.21874794  0.62573906  1
  B  B21  1  0.33889995  0.78125206  0.62573906  1
  B  B22  1  0.16110005  0.28125206  0.87426094  1
  B  B23  1  0.83889995  0.71874794  0.87426094  1
  B  B24  1  0.17031399  0.52094966  0.50000000  1
  B  B25  1  0.82968601  0.47905034  0.50000000  1
  B  B26  1  0.67031399  0.97905034  -0.00000000  1
  B  B27  1  0.32968601  0.02094966  -0.00000000  1
