# generated using pymatgen
data_Nd2B8O15
_symmetry_space_group_name_H-M   'P 1'
_cell_length_a   4.23069354
_cell_length_b   9.16733757
_cell_length_c   11.72604577
_cell_angle_alpha   107.27213811
_cell_angle_beta   90.00000000
_cell_angle_gamma   90.00000000
_symmetry_Int_Tables_number   1
_chemical_formula_structural   Nd2B8O15
_chemical_formula_sum   'Nd4 B16 O30'
_cell_volume   434.27684837
_cell_formula_units_Z   2
loop_
 _symmetry_equiv_pos_site_id
 _symmetry_equiv_pos_as_xyz
  1  'x, y, z'
loop_
 _atom_site_type_symbol
 _atom_site_label
 _atom_site_symmetry_multiplicity
 _atom_site_fract_x
 _atom_site_fract_y
 _atom_site_fract_z
 _atom_site_occupancy
  Nd  Nd0  1  0.73994491  0.19344111  0.05261069  1
  Nd  Nd1  1  0.73994491  0.30655889  0.44738931  1
  Nd  Nd2  1  0.26005509  0.80655889  0.94738931  1
  Nd  Nd3  1  0.26005509  0.69344111  0.55261069  1
  B  B4  1  0.78443467  0.90224885  0.79597514  1
  B  B5  1  0.78443467  0.59775115  0.70402486  1
  B  B6  1  0.21556533  0.09775115  0.20402486  1
  B  B7  1  0.21556533  0.40224885  0.29597514  1
  B  B8  1  0.27005747  0.04890633  0.76589166  1
  B  B9  1  0.27005747  0.45109367  0.73410834  1
  B  B10  1  0.72994253  0.95109367  0.23410834  1
  B  B11  1  0.72994253  0.54890633  0.26589166  1
  B  B12  1  0.78449139  0.46733741  0.87355738  1
  B  B13  1  0.78449139  0.03266259  0.62644262  1
  B  B14  1  0.21550861  0.53266259  0.12644262  1
  B  B15  1  0.21550861  0.96733741  0.37355738  1
  B  B16  1  0.29225867  0.32688659  0.91519699  1
  B  B17  1  0.29225867  0.17311341  0.58480301  1
  B  B18  1  0.70774133  0.67311341  0.08480301  1
  B  B19  1  0.70774133  0.82688659  0.41519699  1
  O  O20  1  0.74226475  0.94794503  0.92236710  1
  O  O21  1  0.74226475  0.55205497  0.57763290  1
  O  O22  1  0.25773525  0.05205497  0.07763290  1
  O  O23  1  0.25773525  0.44794503  0.42236710  1
  O  O24  1  0.12164151  0.90359614  0.76407709  1
  O  O25  1  0.12164151  0.59640386  0.73592291  1
  O  O26  1  0.87835849  0.09640386  0.23592291  1
  O  O27  1  0.87835849  0.40359614  0.26407709  1
  O  O28  1  0.37981043  0.51446195  0.23723999  1
  O  O29  1  0.37981043  0.98553805  0.26276001  1
  O  O30  1  0.62018957  0.48553805  0.76276001  1
  O  O31  1  0.62018957  0.01446195  0.73723999  1
  O  O32  1  0.22427047  0.16351350  0.87911709  1
  O  O33  1  0.22427047  0.33648650  0.62088291  1
  O  O34  1  0.77572953  0.83648650  0.12088291  1
  O  O35  1  0.77572953  0.66351350  0.37911709  1
  O  O36  1  0.18850152  0.37802608  0.04144275  1
  O  O37  1  0.18850152  0.12197392  0.45855725  1
  O  O38  1  0.81149848  0.62197392  0.95855725  1
  O  O39  1  0.81149848  0.87802608  0.54144275  1
  O  O40  1  0.12366822  0.41047932  0.83887188  1
  O  O41  1  0.12366822  0.08952068  0.66112812  1
  O  O42  1  0.87633178  0.58952068  0.16112812  1
  O  O43  1  0.87633178  0.91047932  0.33887188  1
  O  O44  1  0.62989007  0.35267246  0.91228099  1
  O  O45  1  0.62989007  0.14732754  0.58771901  1
  O  O46  1  0.37010993  0.64732754  0.08771901  1
  O  O47  1  0.37010993  0.85267246  0.41228099  1
  O  O48  1  0.64497237  0.75000000  0.75000000  1
  O  O49  1  0.35502763  0.25000000  0.25000000  1
