# generated using pymatgen
data_LiTi2O4
_symmetry_space_group_name_H-M   'P 1'
_cell_length_a   3.81329074
_cell_length_b   8.21001016
_cell_length_c   9.16736878
_cell_angle_alpha   89.97914160
_cell_angle_beta   89.99997096
_cell_angle_gamma   89.99958359
_symmetry_Int_Tables_number   1
_chemical_formula_structural   LiTi2O4
_chemical_formula_sum   'Li4 Ti8 O16'
_cell_volume   287.00422283
_cell_formula_units_Z   4
loop_
 _symmetry_equiv_pos_site_id
 _symmetry_equiv_pos_as_xyz
  1  'x, y, z'
loop_
 _atom_site_type_symbol
 _atom_site_label
 _atom_site_symmetry_multiplicity
 _atom_site_fract_x
 _atom_site_fract_y
 _atom_site_fract_z
 _atom_site_occupancy
  Li  Li0  1  -0.00000095  0.00231077  0.96581817  1
  Li  Li1  1  0.50000725  0.74768048  0.46568816  1
  Li  Li2  1  0.50000394  0.50228998  0.78427960  1
  Li  Li3  1  -0.00000129  0.24769857  0.28430320  1
  Ti  Ti4  1  0.99994949  0.00836593  0.51884413  1
  Ti  Ti5  1  0.49990507  0.74154202  0.01897468  1
  Ti  Ti6  1  0.49990814  0.50846364  0.23103148  1
  Ti  Ti7  1  0.99991553  0.24165065  0.73109304  1
  Ti  Ti8  1  0.99994220  0.48480077  0.50932947  1
  Ti  Ti9  1  0.49990977  0.26537552  0.00942030  1
  Ti  Ti10  1  0.49993126  0.98465529  0.24066174  1
  Ti  Ti11  1  0.99991213  0.76524028  0.74066815  1
  O  O12  1  0.00005155  0.99953159  0.73901515  1
  O  O13  1  0.00003998  0.50020027  0.71862917  1
  O  O14  1  0.50009655  0.75060134  0.23929821  1
  O  O15  1  0.50005061  0.24985785  0.21865623  1
  O  O16  1  0.50002073  0.99005243  0.47485621  1
  O  O17  1  0.49999678  0.50910586  0.46908075  1
  O  O18  1  0.00000328  0.75996510  0.97493706  1
  O  O19  1  0.00001267  0.24089522  0.96918580  1
  O  O20  1  0.00004605  0.74977278  0.53133223  1
  O  O21  1  0.00005763  0.25042494  0.51092706  1
  O  O22  1  0.50004527  0.00014587  0.03145065  1
  O  O23  1  0.50007105  0.49939840  0.01061863  1
  O  O24  1  0.50002861  0.74091718  0.78086254  1
  O  O25  1  0.50002403  0.25990784  0.77523977  1
  O  O26  1  0.00003078  0.00907335  0.28083460  1
  O  O27  1  0.00002188  0.49007609  0.27504382  1
