# generated using pymatgen
data_NbIn(TeO4)2
_symmetry_space_group_name_H-M   'P 1'
_cell_length_a   7.81051701
_cell_length_b   7.81243435
_cell_length_c   11.04468544
_cell_angle_alpha   90.00000000
_cell_angle_beta   90.00000000
_cell_angle_gamma   90.00000000
_symmetry_Int_Tables_number   1
_chemical_formula_structural   NbIn(TeO4)2
_chemical_formula_sum   'Nb4 In4 Te8 O32'
_cell_volume   673.93733281
_cell_formula_units_Z   4
loop_
 _symmetry_equiv_pos_site_id
 _symmetry_equiv_pos_as_xyz
  1  'x, y, z'
loop_
 _atom_site_type_symbol
 _atom_site_label
 _atom_site_symmetry_multiplicity
 _atom_site_fract_x
 _atom_site_fract_y
 _atom_site_fract_z
 _atom_site_occupancy
  Nb  Nb0  1  0.53065929  0.52018866  0.00037690  1
  Nb  Nb1  1  0.46934071  0.02018866  0.99962310  1
  Nb  Nb2  1  0.96934071  0.02018866  0.00037690  1
  Nb  Nb3  1  0.03065929  0.52018866  0.99962310  1
  In  In4  1  0.49550936  0.52625708  0.48734589  1
  In  In5  1  0.50449064  0.02625708  0.51265411  1
  In  In6  1  0.00449064  0.02625708  0.48734589  1
  In  In7  1  0.99550936  0.52625708  0.51265411  1
  Te  Te8  1  0.79122592  0.67207543  0.24728327  1
  Te  Te9  1  0.20877408  0.17207543  0.75271673  1
  Te  Te10  1  0.70877408  0.17207543  0.24728327  1
  Te  Te11  1  0.29122592  0.67207543  0.75271673  1
  Te  Te12  1  0.26430824  0.76599609  0.28654769  1
  Te  Te13  1  0.73569176  0.26599609  0.71345231  1
  Te  Te14  1  0.23569176  0.26599609  0.28654769  1
  Te  Te15  1  0.76430824  0.76599609  0.71345231  1
  O  O16  1  0.58277818  0.59260674  0.17193695  1
  O  O17  1  0.41722182  0.09260674  0.82806305  1
  O  O18  1  0.91722182  0.09260674  0.17193695  1
  O  O19  1  0.08277818  0.59260674  0.82806305  1
  O  O20  1  0.52011882  0.28391921  0.03657016  1
  O  O21  1  0.47988118  0.78391921  0.96342984  1
  O  O22  1  0.97988118  0.78391921  0.03657016  1
  O  O23  1  0.02011882  0.28391921  0.96342984  1
  O  O24  1  0.75566301  0.53337411  0.94833078  1
  O  O25  1  0.24433699  0.03337411  0.05166922  1
  O  O26  1  0.74433699  0.03337411  0.94833078  1
  O  O27  1  0.25566301  0.53337411  0.05166922  1
  O  O28  1  0.93148920  0.49841259  0.17609702  1
  O  O29  1  0.06851080  0.99841259  0.82390298  1
  O  O30  1  0.56851080  0.99841259  0.17609702  1
  O  O31  1  0.43148920  0.49841259  0.82390298  1
  O  O32  1  0.74844867  0.54308504  0.39635337  1
  O  O33  1  0.25155133  0.04308504  0.60364663  1
  O  O34  1  0.75155133  0.04308504  0.39635337  1
  O  O35  1  0.24844867  0.54308504  0.60364663  1
  O  O36  1  0.05292567  0.72576284  0.37521005  1
  O  O37  1  0.94707433  0.22576284  0.62478995  1
  O  O38  1  0.44707433  0.22576284  0.37521005  1
  O  O39  1  0.55292567  0.72576284  0.62478995  1
  O  O40  1  0.31390454  0.51470645  0.33799564  1
  O  O41  1  0.68609546  0.01470645  0.66200436  1
  O  O42  1  0.18609546  0.01470645  0.33799564  1
  O  O43  1  0.81390454  0.51470645  0.66200436  1
  O  O44  1  0.43691261  0.79714576  0.40981891  1
  O  O45  1  0.56308739  0.29714576  0.59018109  1
  O  O46  1  0.06308739  0.29714576  0.40981891  1
  O  O47  1  0.93691261  0.79714576  0.59018109  1
