# generated using pymatgen
data_YB3(H5N)6
_symmetry_space_group_name_H-M   'P 1'
_cell_length_a   11.84016000
_cell_length_b   11.84016000
_cell_length_c   11.84016000
_cell_angle_alpha   90.00000000
_cell_angle_beta   90.00000000
_cell_angle_gamma   90.00000000
_symmetry_Int_Tables_number   1
_chemical_formula_structural   YB3(H5N)6
_chemical_formula_sum   'Y4 B12 H120 N24'
_cell_volume   1659.86479400
_cell_formula_units_Z   4
loop_
 _symmetry_equiv_pos_site_id
 _symmetry_equiv_pos_as_xyz
  1  'x, y, z'
loop_
 _atom_site_type_symbol
 _atom_site_label
 _atom_site_symmetry_multiplicity
 _atom_site_fract_x
 _atom_site_fract_y
 _atom_site_fract_z
 _atom_site_occupancy
  Y  Y0  1  0.50025715  0.00025715  0.49974285  1
  Y  Y1  1  0.00025715  0.49974285  0.50025715  1
  Y  Y2  1  0.49974285  0.50025715  0.00025715  1
  Y  Y3  1  0.99974285  0.99974285  0.99974285  1
  B  B4  1  0.25951316  0.75951316  0.74048684  1
  B  B5  1  0.75951316  0.74048684  0.25951316  1
  B  B6  1  0.74048684  0.25951316  0.75951316  1
  B  B7  1  0.24048684  0.24048684  0.24048684  1
  B  B8  1  0.73549563  0.23549563  0.26450437  1
  B  B9  1  0.23549563  0.26450437  0.73549563  1
  B  B10  1  0.26450437  0.73549563  0.23549563  1
  B  B11  1  0.76450437  0.76450437  0.76450437  1
  B  B12  1  0.00074508  0.50074508  0.99925492  1
  B  B13  1  0.50074508  0.99925492  0.00074508  1
  B  B14  1  0.99925492  0.00074508  0.50074508  1
  B  B15  1  0.49925492  0.49925492  0.49925492  1
  H  H16  1  0.39028050  0.30960452  0.87140210  1
  H  H17  1  0.12859790  0.89028050  0.19039548  1
  H  H18  1  0.80960452  0.62859790  0.60971950  1
  H  H19  1  0.89028050  0.19039548  0.12859790  1
  H  H20  1  0.62859790  0.60971950  0.80960452  1
  H  H21  1  0.30960452  0.87140210  0.39028050  1
  H  H22  1  0.60971950  0.80960452  0.62859790  1
  H  H23  1  0.87140210  0.39028050  0.30960452  1
  H  H24  1  0.19039548  0.12859790  0.89028050  1
  H  H25  1  0.10971950  0.69039548  0.37140210  1
  H  H26  1  0.37140210  0.10971950  0.69039548  1
  H  H27  1  0.69039548  0.37140210  0.10971950  1
  H  H28  1  0.10576584  0.80056009  0.88739765  1
  H  H29  1  0.11260235  0.60576584  0.69943991  1
  H  H30  1  0.30056009  0.61260235  0.89423416  1
  H  H31  1  0.60576584  0.69943991  0.11260235  1
  H  H32  1  0.61260235  0.89423416  0.30056009  1
  H  H33  1  0.80056009  0.88739765  0.10576584  1
  H  H34  1  0.89423416  0.30056009  0.61260235  1
  H  H35  1  0.88739765  0.10576584  0.80056009  1
  H  H36  1  0.69943991  0.11260235  0.60576584  1
  H  H37  1  0.39423416  0.19943991  0.38739765  1
  H  H38  1  0.38739765  0.39423416  0.19943991  1
  H  H39  1  0.19943991  0.38739765  0.39423416  1
  H  H40  1  0.52849754  0.29313337  0.86721242  1
  H  H41  1  0.13278758  0.02849754  0.20686663  1
  H  H42  1  0.79313337  0.63278758  0.47150246  1
  H  H43  1  0.02849754  0.20686663  0.13278758  1
  H  H44  1  0.63278758  0.47150246  0.79313337  1
  H  H45  1  0.29313337  0.86721242  0.52849754  1
  H  H46  1  0.47150246  0.79313337  0.63278758  1
  H  H47  1  0.86721242  0.52849754  0.29313337  1
  H  H48  1  0.20686663  0.13278758  0.02849754  1
  H  H49  1  0.97150246  0.70686663  0.36721242  1
  H  H50  1  0.36721242  0.97150246  0.70686663  1
  H  H51  1  0.70686663  0.36721242  0.97150246  1
  H  H52  1  0.96783170  0.78587384  0.88248466  1
  H  H53  1  0.11751534  0.46783170  0.71412616  1
  H  H54  1  0.28587384  0.61751534  0.03216830  1
  H  H55  1  0.46783170  0.71412616  0.11751534  1
  H  H56  1  0.61751534  0.03216830  0.28587384  1
  H  H57  1  0.78587384  0.88248466  0.96783170  1
  H  H58  1  0.03216830  0.28587384  0.61751534  1
  H  H59  1  0.88248466  0.96783170  0.78587384  1
  H  H60  1  0.71412616  0.11751534  0.46783170  1
  H  H61  1  0.53216830  0.21412616  0.38248466  1
  H  H62  1  0.38248466  0.53216830  0.21412616  1
  H  H63  1  0.21412616  0.38248466  0.53216830  1
  H  H64  1  0.45713156  0.24559610  0.97407379  1
  H  H65  1  0.02592621  0.95713156  0.25440390  1
  H  H66  1  0.74559610  0.52592621  0.54286844  1
  H  H67  1  0.95713156  0.25440390  0.02592621  1
  H  H68  1  0.52592621  0.54286844  0.74559610  1
  H  H69  1  0.24559610  0.97407379  0.45713156  1
  H  H70  1  0.54286844  0.74559610  0.52592621  1
  H  H71  1  0.97407379  0.45713156  0.24559610  1
  H  H72  1  0.25440390  0.02592621  0.95713156  1
  H  H73  1  0.04286844  0.75440390  0.47407379  1
  H  H74  1  0.47407379  0.04286844  0.75440390  1
  H  H75  1  0.75440390  0.47407379  0.04286844  1
  H  H76  1  0.03688112  0.74038712  0.99207335  1
  H  H77  1  0.00792665  0.53688112  0.75961288  1
  H  H78  1  0.24038712  0.50792665  0.96311888  1
  H  H79  1  0.53688112  0.75961288  0.00792665  1
  H  H80  1  0.50792665  0.96311888  0.24038712  1
  H  H81  1  0.74038712  0.99207335  0.03688112  1
  H  H82  1  0.96311888  0.24038712  0.50792665  1
  H  H83  1  0.99207335  0.03688112  0.74038712  1
  H  H84  1  0.75961288  0.00792665  0.53688112  1
  H  H85  1  0.46311888  0.25961288  0.49207335  1
  H  H86  1  0.49207335  0.46311888  0.25961288  1
  H  H87  1  0.25961288  0.49207335  0.46311888  1
  H  H88  1  0.31960035  0.81960035  0.68039965  1
  H  H89  1  0.81960035  0.68039965  0.31960035  1
  H  H90  1  0.68039965  0.31960035  0.81960035  1
  H  H91  1  0.18039965  0.18039965  0.18039965  1
  H  H92  1  0.67553819  0.17553819  0.32446181  1
  H  H93  1  0.17553819  0.32446181  0.67553819  1
  H  H94  1  0.32446181  0.67553819  0.17553819  1
  H  H95  1  0.82446181  0.82446181  0.82446181  1
  H  H96  1  0.31140755  0.67155004  0.75961814  1
  H  H97  1  0.24038186  0.81140755  0.82844996  1
  H  H98  1  0.17155004  0.74038186  0.68859245  1
  H  H99  1  0.81140755  0.82844996  0.24038186  1
  H  H100  1  0.74038186  0.68859245  0.17155004  1
  H  H101  1  0.67155004  0.75961814  0.31140755  1
  H  H102  1  0.68859245  0.17155004  0.74038186  1
  H  H103  1  0.75961814  0.31140755  0.67155004  1
  H  H104  1  0.82844996  0.24038186  0.81140755  1
  H  H105  1  0.18859245  0.32844996  0.25961814  1
  H  H106  1  0.25961814  0.18859245  0.32844996  1
  H  H107  1  0.32844996  0.25961814  0.18859245  1
  H  H108  1  0.18520846  0.17506828  0.75130169  1
  H  H109  1  0.24869831  0.68520846  0.32493172  1
  H  H110  1  0.67506828  0.74869831  0.81479154  1
  H  H111  1  0.68520846  0.32493172  0.24869831  1
  H  H112  1  0.74869831  0.81479154  0.67506828  1
  H  H113  1  0.17506828  0.75130169  0.18520846  1
  H  H114  1  0.81479154  0.67506828  0.74869831  1
  H  H115  1  0.75130169  0.18520846  0.17506828  1
  H  H116  1  0.32493172  0.24869831  0.68520846  1
  H  H117  1  0.31479154  0.82493172  0.25130169  1
  H  H118  1  0.25130169  0.31479154  0.82493172  1
  H  H119  1  0.82493172  0.25130169  0.31479154  1
  H  H120  1  0.94033719  0.44033719  0.05966281  1
  H  H121  1  0.44033719  0.05966281  0.94033719  1
  H  H122  1  0.05966281  0.94033719  0.44033719  1
  H  H123  1  0.55966281  0.55966281  0.55966281  1
  H  H124  1  0.94971259  0.52124632  0.91053451  1
  H  H125  1  0.08946549  0.44971259  0.97875368  1
  H  H126  1  0.02124632  0.58946549  0.05028741  1
  H  H127  1  0.44971259  0.97875368  0.08946549  1
  H  H128  1  0.58946549  0.05028741  0.02124632  1
  H  H129  1  0.52124632  0.91053451  0.94971259  1
  H  H130  1  0.05028741  0.02124632  0.58946549  1
  H  H131  1  0.91053451  0.94971259  0.52124632  1
  H  H132  1  0.97875368  0.08946549  0.44971259  1
  H  H133  1  0.55028741  0.47875368  0.41053451  1
  H  H134  1  0.41053451  0.55028741  0.47875368  1
  H  H135  1  0.47875368  0.41053451  0.55028741  1
  N  N136  1  0.46247149  0.31359739  0.92062777  1
  N  N137  1  0.07937223  0.96247149  0.18640261  1
  N  N138  1  0.81359739  0.57937223  0.53752851  1
  N  N139  1  0.96247149  0.18640261  0.07937223  1
  N  N140  1  0.57937223  0.53752851  0.81359739  1
  N  N141  1  0.31359739  0.92062777  0.46247149  1
  N  N142  1  0.53752851  0.81359739  0.57937223  1
  N  N143  1  0.92062777  0.46247149  0.31359739  1
  N  N144  1  0.18640261  0.07937223  0.96247149  1
  N  N145  1  0.03752851  0.68640261  0.42062777  1
  N  N146  1  0.42062777  0.03752851  0.68640261  1
  N  N147  1  0.68640261  0.42062777  0.03752851  1
  N  N148  1  0.03334547  0.80712670  0.93590471  1
  N  N149  1  0.06409529  0.53334547  0.69287330  1
  N  N150  1  0.30712670  0.56409529  0.96665453  1
  N  N151  1  0.53334547  0.69287330  0.06409529  1
  N  N152  1  0.56409529  0.96665453  0.30712670  1
  N  N153  1  0.80712670  0.93590471  0.03334547  1
  N  N154  1  0.96665453  0.30712670  0.56409529  1
  N  N155  1  0.93590471  0.03334547  0.80712670  1
  N  N156  1  0.69287330  0.06409529  0.53334547  1
  N  N157  1  0.46665453  0.19287330  0.43590471  1
  N  N158  1  0.43590471  0.46665453  0.19287330  1
  N  N159  1  0.19287330  0.43590471  0.46665453  1
