# generated using pymatgen
data_FeH9(NF)3
_symmetry_space_group_name_H-M   'P 1'
_cell_length_a   7.67789303
_cell_length_b   7.91126388
_cell_length_c   9.78873130
_cell_angle_alpha   90.00000000
_cell_angle_beta   90.00000000
_cell_angle_gamma   93.55774867
_symmetry_Int_Tables_number   1
_chemical_formula_structural   FeH9(NF)3
_chemical_formula_sum   'Fe4 H36 N12 F12'
_cell_volume   593.43962049
_cell_formula_units_Z   4
loop_
 _symmetry_equiv_pos_site_id
 _symmetry_equiv_pos_as_xyz
  1  'x, y, z'
loop_
 _atom_site_type_symbol
 _atom_site_label
 _atom_site_symmetry_multiplicity
 _atom_site_fract_x
 _atom_site_fract_y
 _atom_site_fract_z
 _atom_site_occupancy
  Fe  Fe0  1  0.62710309  0.85932709  0.74992438  1
  Fe  Fe1  1  0.12710309  0.35932709  0.75007562  1
  Fe  Fe2  1  0.37289691  0.14067291  0.25007562  1
  Fe  Fe3  1  0.87289691  0.64067291  0.24992438  1
  H  H4  1  0.94955912  0.74747604  0.78985296  1
  H  H5  1  0.44955912  0.24747604  0.71014704  1
  H  H6  1  0.05044088  0.25252396  0.21014704  1
  H  H7  1  0.55044088  0.75252396  0.28985296  1
  H  H8  1  0.96159899  0.95270897  0.82650002  1
  H  H9  1  0.46159899  0.45270897  0.67349998  1
  H  H10  1  0.03840101  0.04729103  0.17349998  1
  H  H11  1  0.53840101  0.54729103  0.32650002  1
  H  H12  1  0.87801788  0.81595568  0.93888284  1
  H  H13  1  0.37801788  0.31595568  0.56111716  1
  H  H14  1  0.12198212  0.18404432  0.06111716  1
  H  H15  1  0.62198212  0.68404432  0.43888284  1
  H  H16  1  0.41710710  0.65344864  0.90888867  1
  H  H17  1  0.91710710  0.15344864  0.59111133  1
  H  H18  1  0.58289290  0.34655136  0.09111133  1
  H  H19  1  0.08289290  0.84655136  0.40888867  1
  H  H20  1  0.61002092  0.67189589  0.98141371  1
  H  H21  1  0.11002092  0.17189589  0.51858629  1
  H  H22  1  0.38997908  0.32810411  0.01858629  1
  H  H23  1  0.88997908  0.82810411  0.48141371  1
  H  H24  1  0.47394360  0.82391096  0.00147766  1
  H  H25  1  0.97394360  0.32391096  0.49852234  1
  H  H26  1  0.52605640  0.17608904  0.99852234  1
  H  H27  1  0.02605640  0.67608904  0.50147766  1
  H  H28  1  0.29040230  0.76430911  0.67982962  1
  H  H29  1  0.79040230  0.26430911  0.82017038  1
  H  H30  1  0.70959770  0.23569089  0.32017038  1
  H  H31  1  0.20959770  0.73569089  0.17982962  1
  H  H32  1  0.29805982  0.95840846  0.74496751  1
  H  H33  1  0.79805982  0.45840846  0.75503249  1
  H  H34  1  0.70194018  0.04159154  0.25503249  1
  H  H35  1  0.20194018  0.54159154  0.24496751  1
  H  H36  1  0.35616937  0.92988380  0.58560161  1
  H  H37  1  0.85616937  0.42988380  0.91439839  1
  H  H38  1  0.64383063  0.07011620  0.41439839  1
  H  H39  1  0.14383063  0.57011620  0.08560161  1
  N  N40  1  0.88468259  0.84199189  0.83620386  1
  N  N41  1  0.38468259  0.34199189  0.66379614  1
  N  N42  1  0.11531741  0.15800811  0.16379614  1
  N  N43  1  0.61531741  0.65800811  0.33620386  1
  N  N44  1  0.51883675  0.73955874  0.93146846  1
  N  N45  1  0.01883675  0.23955874  0.56853154  1
  N  N46  1  0.48116325  0.26044126  0.06853154  1
  N  N47  1  0.98116325  0.76044126  0.43146846  1
  N  N48  1  0.36253424  0.87905819  0.68214859  1
  N  N49  1  0.86253424  0.37905819  0.81785141  1
  N  N50  1  0.63746576  0.12094181  0.31785141  1
  N  N51  1  0.13746576  0.62094181  0.18214859  1
  F  F52  1  0.63288574  0.63249612  0.67227712  1
  F  F53  1  0.13288574  0.13249612  0.82772288  1
  F  F54  1  0.36711426  0.36750388  0.32772288  1
  F  F55  1  0.86711426  0.86750388  0.17227712  1
  F  F56  1  0.72600543  0.95906315  0.58200708  1
  F  F57  1  0.22600543  0.45906315  0.91799292  1
  F  F58  1  0.27399457  0.04093685  0.41799292  1
  F  F59  1  0.77399457  0.54093685  0.08200708  1
  F  F60  1  0.61667058  0.08286710  0.83317230  1
  F  F61  1  0.11667058  0.58286710  0.66682770  1
  F  F62  1  0.38332942  0.91713290  0.16682770  1
  F  F63  1  0.88332942  0.41713290  0.33317230  1
