# generated using pymatgen
data_Mg(BH4)2
_symmetry_space_group_name_H-M   'P 1'
_cell_length_a   7.73322848
_cell_length_b   7.73322848
_cell_length_c   8.25306449
_cell_angle_alpha   117.93739659
_cell_angle_beta   117.93739659
_cell_angle_gamma   90.00000000
_symmetry_Int_Tables_number   1
_chemical_formula_structural   Mg(BH4)2
_chemical_formula_sum   'Mg4 B8 H32'
_cell_volume   369.67459570
_cell_formula_units_Z   4
loop_
 _symmetry_equiv_pos_site_id
 _symmetry_equiv_pos_as_xyz
  1  'x, y, z'
loop_
 _atom_site_type_symbol
 _atom_site_label
 _atom_site_symmetry_multiplicity
 _atom_site_fract_x
 _atom_site_fract_y
 _atom_site_fract_z
 _atom_site_occupancy
  Mg  Mg0  1  0.25000000  0.25000000  0.50000000  1
  Mg  Mg1  1  0.75000000  0.75000000  0.50000000  1
  Mg  Mg2  1  0.50000000  -0.00000000  -0.00000000  1
  Mg  Mg3  1  -0.00000000  0.50000000  -0.00000000  1
  B  B4  1  0.12500000  0.84206817  0.75000000  1
  B  B5  1  0.12500000  0.34206817  0.75000000  1
  B  B6  1  0.62500000  0.90793183  0.75000000  1
  B  B7  1  0.62500000  0.40793183  0.75000000  1
  B  B8  1  0.15793183  0.37500000  0.25000000  1
  B  B9  1  0.65793183  0.37500000  0.25000000  1
  B  B10  1  0.09206817  0.87500000  0.25000000  1
  B  B11  1  0.59206817  0.87500000  0.25000000  1
  H  H12  1  0.20301379  0.01647414  0.91022667  1
  H  H13  1  0.20721288  0.51647414  0.91022667  1
  H  H14  1  0.04278712  0.35624747  0.58977333  1
  H  H15  1  0.04698621  0.85624747  0.58977333  1
  H  H16  1  0.70721288  0.89375253  0.91022667  1
  H  H17  1  0.70301379  0.39375253  0.91022667  1
  H  H18  1  0.54698621  0.23352586  0.58977333  1
  H  H19  1  0.54278712  0.73352586  0.58977333  1
  H  H20  1  0.98352586  0.29278712  0.08977333  1
  H  H21  1  0.48352586  0.29698621  0.08977333  1
  H  H22  1  0.64375253  0.45301379  0.41022667  1
  H  H23  1  0.14375253  0.45721288  0.41022667  1
  H  H24  1  0.10624747  0.79698621  0.08977333  1
  H  H25  1  0.60624747  0.79278712  0.08977333  1
  H  H26  1  0.76647414  0.95721288  0.41022667  1
  H  H27  1  0.26647414  0.95301379  0.41022667  1
  H  H28  1  0.00424478  0.75440049  0.76189638  1
  H  H29  1  0.25765161  0.25440049  0.76189638  1
  H  H30  1  0.99234839  0.24250411  0.73810362  1
  H  H31  1  0.24575522  0.74250411  0.73810362  1
  H  H32  1  0.75765161  0.00749589  0.76189638  1
  H  H33  1  0.50424478  0.50749589  0.76189638  1
  H  H34  1  0.74575522  0.49559951  0.73810362  1
  H  H35  1  0.49234839  0.99559951  0.73810362  1
  H  H36  1  0.24559951  0.24234839  0.23810362  1
  H  H37  1  0.74559951  0.49575522  0.23810362  1
  H  H38  1  0.75749589  0.25424478  0.26189638  1
  H  H39  1  0.25749589  0.50765161  0.26189638  1
  H  H40  1  0.99250411  0.99575522  0.23810362  1
  H  H41  1  0.49250411  0.74234839  0.23810362  1
  H  H42  1  0.50440049  0.00765161  0.26189638  1
  H  H43  1  0.00440049  0.75424478  0.26189638  1
