# generated using pymatgen
data_ScRhO3
_symmetry_space_group_name_H-M   'P 1'
_cell_length_a   7.53168071
_cell_length_b   7.56037683
_cell_length_c   7.61417649
_cell_angle_alpha   93.29595478
_cell_angle_beta   90.00000000
_cell_angle_gamma   90.00000000
_symmetry_Int_Tables_number   1
_chemical_formula_structural   ScRhO3
_chemical_formula_sum   'Sc8 Rh8 O24'
_cell_volume   432.85188361
_cell_formula_units_Z   8
loop_
 _symmetry_equiv_pos_site_id
 _symmetry_equiv_pos_as_xyz
  1  'x, y, z'
loop_
 _atom_site_type_symbol
 _atom_site_label
 _atom_site_symmetry_multiplicity
 _atom_site_fract_x
 _atom_site_fract_y
 _atom_site_fract_z
 _atom_site_occupancy
  Sc  Sc0  1  0.25951893  0.70615443  0.27472436  1
  Sc  Sc1  1  0.24048107  0.20615443  0.77472436  1
  Sc  Sc2  1  0.74048107  0.29384557  0.72527564  1
  Sc  Sc3  1  0.75951893  0.79384557  0.22527564  1
  Sc  Sc4  1  0.26714977  0.72489493  0.78953770  1
  Sc  Sc5  1  0.23285023  0.22489493  0.28953770  1
  Sc  Sc6  1  0.73285023  0.27510507  0.21046230  1
  Sc  Sc7  1  0.76714977  0.77510507  0.71046230  1
  Rh  Rh8  1  0.50000000  0.50000000  0.50000000  1
  Rh  Rh9  1  -0.00000000  -0.00000000  -0.00000000  1
  Rh  Rh10  1  0.50000000  0.50000000  -0.00000000  1
  Rh  Rh11  1  0.00000000  -0.00000000  0.50000000  1
  Rh  Rh12  1  0.50000000  -0.00000000  -0.00000000  1
  Rh  Rh13  1  0.00000000  0.50000000  0.50000000  1
  Rh  Rh14  1  0.50000000  -0.00000000  0.50000000  1
  Rh  Rh15  1  -0.00000000  0.50000000  -0.00000000  1
  O  O16  1  0.03651238  0.75991588  0.10963826  1
  O  O17  1  0.46348762  0.25991588  0.60963826  1
  O  O18  1  0.96348762  0.24008412  0.89036174  1
  O  O19  1  0.53651238  0.74008412  0.39036174  1
  O  O20  1  0.95393759  0.10799171  0.25340831  1
  O  O21  1  0.54606241  0.60799171  0.75340831  1
  O  O22  1  0.04606241  0.89200829  0.74659169  1
  O  O23  1  0.45393759  0.39200829  0.24659169  1
  O  O24  1  0.24826454  0.61065992  0.53589719  1
  O  O25  1  0.25173546  0.11065992  0.03589719  1
  O  O26  1  0.75173546  0.38934008  0.46410281  1
  O  O27  1  0.74826454  0.88934008  0.96410281  1
  O  O28  1  0.90033911  0.53965906  0.75370456  1
  O  O29  1  0.59966089  0.03965906  0.25370456  1
  O  O30  1  0.09966089  0.46034094  0.24629544  1
  O  O31  1  0.40033911  0.96034094  0.74629544  1
  O  O32  1  0.24991856  0.96419307  0.38806994  1
  O  O33  1  0.25008144  0.46419307  0.88806994  1
  O  O34  1  0.75008144  0.03580693  0.61193006  1
  O  O35  1  0.74991856  0.53580693  0.11193006  1
  O  O36  1  0.10238063  0.25326843  0.54607430  1
  O  O37  1  0.39761937  0.75326843  0.04607430  1
  O  O38  1  0.89761937  0.74673157  0.45392570  1
  O  O39  1  0.60238063  0.24673157  0.95392570  1
