# generated using pymatgen
data_MgB6(H2O3)5
_symmetry_space_group_name_H-M   'P 1'
_cell_length_a   8.14847578
_cell_length_b   9.94273382
_cell_length_c   14.73360772
_cell_angle_alpha   90.00000000
_cell_angle_beta   90.00000000
_cell_angle_gamma   90.00000000
_symmetry_Int_Tables_number   1
_chemical_formula_structural   MgB6(H2O3)5
_chemical_formula_sum   'Mg4 B24 H40 O60'
_cell_volume   1193.68928256
_cell_formula_units_Z   4
loop_
 _symmetry_equiv_pos_site_id
 _symmetry_equiv_pos_as_xyz
  1  'x, y, z'
loop_
 _atom_site_type_symbol
 _atom_site_label
 _atom_site_symmetry_multiplicity
 _atom_site_fract_x
 _atom_site_fract_y
 _atom_site_fract_z
 _atom_site_occupancy
  Mg  Mg0  1  0.70808656  0.67070709  0.63313257  1
  Mg  Mg1  1  0.20808656  0.32929291  0.36686743  1
  Mg  Mg2  1  0.20808656  0.17070709  0.86686743  1
  Mg  Mg3  1  0.70808656  0.82929291  0.13313257  1
  B  B4  1  0.35468187  0.66769935  0.70251281  1
  B  B5  1  0.85468187  0.33230065  0.29748719  1
  B  B6  1  0.85468187  0.16769935  0.79748719  1
  B  B7  1  0.35468187  0.83230065  0.20251281  1
  B  B8  1  0.29237959  0.89888923  0.75809148  1
  B  B9  1  0.79237959  0.10111077  0.24190852  1
  B  B10  1  0.79237959  0.39888923  0.74190852  1
  B  B11  1  0.29237959  0.60111077  0.25809148  1
  B  B12  1  0.56063896  0.80032503  0.80675049  1
  B  B13  1  0.06063896  0.19967497  0.19324951  1
  B  B14  1  0.06063896  0.30032503  0.69324951  1
  B  B15  1  0.56063896  0.69967497  0.30675049  1
  B  B16  1  0.66096390  0.67027498  0.93765627  1
  B  B17  1  0.16096390  0.32972502  0.06234373  1
  B  B18  1  0.16096390  0.17027498  0.56234373  1
  B  B19  1  0.66096390  0.82972502  0.43765627  1
  B  B20  1  0.29663464  0.43562748  0.75825137  1
  B  B21  1  0.79663464  0.56437252  0.24174863  1
  B  B22  1  0.79663464  0.93562748  0.74174863  1
  B  B23  1  0.29663464  0.06437252  0.25825137  1
  B  B24  1  0.55916613  0.53519117  0.80843984  1
  B  B25  1  0.05916613  0.46480883  0.19156016  1
  B  B26  1  0.05916613  0.03519117  0.69156016  1
  B  B27  1  0.55916613  0.96480883  0.30843984  1
  H  H28  1  0.40199687  0.74244523  0.57456974  1
  H  H29  1  0.90199687  0.25755477  0.42543026  1
  H  H30  1  0.90199687  0.24244523  0.92543026  1
  H  H31  1  0.40199687  0.75755477  0.07456974  1
  H  H32  1  0.83588596  0.47925405  0.52292663  1
  H  H33  1  0.33588596  0.52074595  0.47707337  1
  H  H34  1  0.33588596  0.97925405  0.97707337  1
  H  H35  1  0.83588596  0.02074595  0.02292663  1
  H  H36  1  0.65887982  0.43342727  0.55098381  1
  H  H37  1  0.15887982  0.56657273  0.44901619  1
  H  H38  1  0.15887982  0.93342727  0.94901619  1
  H  H39  1  0.65887982  0.06657273  0.05098381  1
  H  H40  1  0.02890638  0.73509586  0.65977377  1
  H  H41  1  0.52890638  0.26490414  0.34022623  1
  H  H42  1  0.52890638  0.23509586  0.84022623  1
  H  H43  1  0.02890638  0.76490414  0.15977377  1
  H  H44  1  0.00263932  0.57694333  0.65919838  1
  H  H45  1  0.50263932  0.42305667  0.34080162  1
  H  H46  1  0.50263932  0.07694333  0.84080162  1
  H  H47  1  0.00263932  0.92305667  0.15919838  1
  H  H48  1  0.03490933  0.78619923  0.84919884  1
  H  H49  1  0.53490933  0.21380077  0.15080116  1
  H  H50  1  0.53490933  0.28619923  0.65080116  1
  H  H51  1  0.03490933  0.71380077  0.34919884  1
  H  H52  1  0.94589690  0.78155984  0.94418041  1
  H  H53  1  0.44589690  0.21844016  0.05581959  1
  H  H54  1  0.44589690  0.28155984  0.55581959  1
  H  H55  1  0.94589690  0.71844016  0.44418041  1
  H  H56  1  0.73584304  0.41394429  0.95276272  1
  H  H57  1  0.23584304  0.58605571  0.04723728  1
  H  H58  1  0.23584304  0.91394429  0.54723728  1
  H  H59  1  0.73584304  0.08605571  0.45276272  1
  H  H60  1  0.71800069  0.31171300  0.03256902  1
  H  H61  1  0.21800069  0.68828700  0.96743098  1
  H  H62  1  0.21800069  0.81171300  0.46743098  1
  H  H63  1  0.71800069  0.18828700  0.53256902  1
  H  H64  1  0.78013539  0.58968985  0.04476788  1
  H  H65  1  0.28013539  0.41031015  0.95523212  1
  H  H66  1  0.28013539  0.08968985  0.45523212  1
  H  H67  1  0.78013539  0.91031015  0.54476788  1
  O  O68  1  0.47942357  0.66732041  0.78156513  1
  O  O69  1  0.97942357  0.33267959  0.21843487  1
  O  O70  1  0.97942357  0.16732041  0.71843487  1
  O  O71  1  0.47942357  0.83267959  0.28156513  1
  O  O72  1  0.24439485  0.78350711  0.71406371  1
  O  O73  1  0.74439485  0.21649289  0.28593629  1
  O  O74  1  0.74439485  0.28350711  0.78593629  1
  O  O75  1  0.24439485  0.71649289  0.21406371  1
  O  O76  1  0.43995196  0.90728220  0.80202806  1
  O  O77  1  0.93995196  0.09271780  0.19797194  1
  O  O78  1  0.93995196  0.40728220  0.69797194  1
  O  O79  1  0.43995196  0.59271780  0.30202806  1
  O  O80  1  0.45460372  0.68006813  0.61912440  1
  O  O81  1  0.95460372  0.31993187  0.38087560  1
  O  O82  1  0.95460372  0.18006813  0.88087560  1
  O  O83  1  0.45460372  0.81993187  0.11912440  1
  O  O84  1  0.25967175  0.54444525  0.70602727  1
  O  O85  1  0.75967175  0.45555475  0.29397273  1
  O  O86  1  0.75967175  0.04444525  0.79397273  1
  O  O87  1  0.25967175  0.95555475  0.20602727  1
  O  O88  1  0.43583658  0.43060934  0.81102709  1
  O  O89  1  0.93583658  0.56939066  0.18897291  1
  O  O90  1  0.93583658  0.93060934  0.68897291  1
  O  O91  1  0.43583658  0.06939066  0.31102709  1
  O  O92  1  0.63635809  0.54770879  0.89800895  1
  O  O93  1  0.13635809  0.45229121  0.10199105  1
  O  O94  1  0.13635809  0.04770879  0.60199105  1
  O  O95  1  0.63635809  0.95229121  0.39800895  1
  O  O96  1  0.69553939  0.82238379  0.73861931  1
  O  O97  1  0.19553939  0.17761621  0.26138069  1
  O  O98  1  0.19553939  0.32238379  0.76138069  1
  O  O99  1  0.69553939  0.67761621  0.23861931  1
  O  O100  1  0.62704795  0.78930395  0.89759456  1
  O  O101  1  0.12704795  0.21069605  0.10240544  1
  O  O102  1  0.12704795  0.28930395  0.60240544  1
  O  O103  1  0.62704795  0.71069605  0.39759456  1
  O  O104  1  0.73788141  0.67676660  0.02368499  1
  O  O105  1  0.23788141  0.32323340  0.97631501  1
  O  O106  1  0.23788141  0.17676660  0.47631501  1
  O  O107  1  0.73788141  0.82323340  0.52368499  1
  O  O108  1  0.68873487  0.51026778  0.73821538  1
  O  O109  1  0.18873487  0.48973222  0.26178462  1
  O  O110  1  0.18873487  0.01026778  0.76178462  1
  O  O111  1  0.68873487  0.98973222  0.23821538  1
  O  O112  1  0.72820968  0.51352735  0.53979549  1
  O  O113  1  0.22820968  0.48647265  0.46020451  1
  O  O114  1  0.22820968  0.01352735  0.96020451  1
  O  O115  1  0.72820968  0.98647265  0.03979549  1
  O  O116  1  0.95933797  0.66286197  0.63527868  1
  O  O117  1  0.45933797  0.33713803  0.36472132  1
  O  O118  1  0.45933797  0.16286197  0.86472132  1
  O  O119  1  0.95933797  0.83713803  0.13527868  1
  O  O120  1  0.05299468  0.78950785  0.91466128  1
  O  O121  1  0.55299468  0.21049215  0.08533872  1
  O  O122  1  0.55299468  0.28950785  0.58533872  1
  O  O123  1  0.05299468  0.71049215  0.41466128  1
  O  O124  1  0.80106817  0.35854214  0.99574022  1
  O  O125  1  0.30106817  0.64145786  0.00425978  1
  O  O126  1  0.30106817  0.85854214  0.50425978  1
  O  O127  1  0.80106817  0.14145786  0.49574022  1
