# generated using pymatgen
data_Te2MoWS2
_symmetry_space_group_name_H-M   'P 1'
_cell_length_a   3.35802250
_cell_length_b   3.35820799
_cell_length_c   38.32338657
_cell_angle_alpha   89.99957545
_cell_angle_beta   90.00000000
_cell_angle_gamma   119.99817282
_symmetry_Int_Tables_number   1
_chemical_formula_structural   Te2MoWS2
_chemical_formula_sum   'Te4 Mo2 W2 S4'
_cell_volume   374.27748318
_cell_formula_units_Z   2
loop_
 _symmetry_equiv_pos_site_id
 _symmetry_equiv_pos_as_xyz
  1  'x, y, z'
loop_
 _atom_site_type_symbol
 _atom_site_label
 _atom_site_symmetry_multiplicity
 _atom_site_fract_x
 _atom_site_fract_y
 _atom_site_fract_z
 _atom_site_occupancy
  Te  Te0  1  0.33334961  0.66670022  0.70719921  1
  Te  Te1  1  0.66663640  0.33327180  0.04453582  1
  Te  Te2  1  0.66664330  0.33328560  0.14330291  1
  Te  Te3  1  0.33337220  0.66674540  0.60786134  1
  Mo  Mo4  1  0.33331072  0.66662143  0.09389225  1
  Mo  Mo5  1  0.33329676  0.66659353  0.46965770  1
  W  W6  1  0.66671320  0.33342640  0.28180956  1
  W  W7  1  0.66669035  0.33338070  0.65755671  1
  S  S8  1  0.33333920  0.66667940  0.32144415  1
  S  S9  1  0.66665283  0.33330466  0.43018356  1
  S  S10  1  0.66665022  0.33329945  0.50912967  1
  S  S11  1  0.33334521  0.66669142  0.24217511  1
