# generated using pymatgen
data_Ti2VHO6
_symmetry_space_group_name_H-M   'P 1'
_cell_length_a   4.63116618
_cell_length_b   8.65422795
_cell_length_c   10.10264397
_cell_angle_alpha   92.87563799
_cell_angle_beta   90.00000000
_cell_angle_gamma   90.00000000
_symmetry_Int_Tables_number   1
_chemical_formula_structural   Ti2VHO6
_chemical_formula_sum   'Ti8 V4 H4 O24'
_cell_volume   404.39569748
_cell_formula_units_Z   4
loop_
 _symmetry_equiv_pos_site_id
 _symmetry_equiv_pos_as_xyz
  1  'x, y, z'
loop_
 _atom_site_type_symbol
 _atom_site_label
 _atom_site_symmetry_multiplicity
 _atom_site_fract_x
 _atom_site_fract_y
 _atom_site_fract_z
 _atom_site_occupancy
  Ti  Ti0  1  0.49999477  0.90413711  0.61983099  1
  Ti  Ti1  1  -0.00000523  0.09586289  0.88016901  1
  Ti  Ti2  1  0.50000523  0.09586289  0.38016901  1
  Ti  Ti3  1  0.00000523  0.90413711  0.11983099  1
  Ti  Ti4  1  0.47527663  0.77544848  0.87923126  1
  Ti  Ti5  1  0.97527663  0.22455152  0.62076874  1
  Ti  Ti6  1  0.52472337  0.22455152  0.12076874  1
  Ti  Ti7  1  0.02472337  0.77544848  0.37923126  1
  V  V8  1  0.50875857  0.59143740  0.14870165  1
  V  V9  1  0.00875857  0.40856260  0.35129835  1
  V  V10  1  0.49124143  0.40856260  0.85129835  1
  V  V11  1  0.99124143  0.59143740  0.64870165  1
  H  H12  1  0.07638855  0.40609300  0.05550839  1
  H  H13  1  0.57638855  0.59390700  0.44449161  1
  H  H14  1  0.92361145  0.59390700  0.94449161  1
  H  H15  1  0.42361145  0.40609300  0.55550839  1
  O  O16  1  0.28027190  0.92598439  0.79600005  1
  O  O17  1  0.78027190  0.07401561  0.70399995  1
  O  O18  1  0.71972810  0.07401561  0.20399995  1
  O  O19  1  0.21972810  0.92598439  0.29600005  1
  O  O20  1  0.70373311  0.75687605  0.71396385  1
  O  O21  1  0.20373311  0.24312395  0.78603615  1
  O  O22  1  0.29626689  0.24312395  0.28603615  1
  O  O23  1  0.79626689  0.75687605  0.21396385  1
  O  O24  1  0.29017625  0.09033126  0.54140277  1
  O  O25  1  0.79017625  0.90966874  0.95859723  1
  O  O26  1  0.70982375  0.90966874  0.45859723  1
  O  O27  1  0.20982375  0.09033126  0.04140277  1
  O  O28  1  0.78705320  0.23906988  0.44953700  1
  O  O29  1  0.28705320  0.76093012  0.05046300  1
  O  O30  1  0.21294680  0.76093012  0.55046300  1
  O  O31  1  0.71294680  0.23906988  0.94953700  1
  O  O32  1  0.28517688  0.41571289  0.04206221  1
  O  O33  1  0.78517688  0.58428711  0.45793779  1
  O  O34  1  0.71482312  0.58428711  0.95793779  1
  O  O35  1  0.21482312  0.41571289  0.54206221  1
  O  O36  1  0.24842580  0.59177984  0.30331059  1
  O  O37  1  0.74842580  0.40822016  0.19668941  1
  O  O38  1  0.75157420  0.40822016  0.69668941  1
  O  O39  1  0.25157420  0.59177984  0.80331059  1
