# generated using pymatgen
data_Ce2Sb4Ir3
_symmetry_space_group_name_H-M   'P 1'
_cell_length_a   4.56810582
_cell_length_b   10.96669890
_cell_length_c   16.30634913
_cell_angle_alpha   90.00000000
_cell_angle_beta   90.00000000
_cell_angle_gamma   90.00000000
_symmetry_Int_Tables_number   1
_chemical_formula_structural   Ce2Sb4Ir3
_chemical_formula_sum   'Ce8 Sb16 Ir12'
_cell_volume   816.89984209
_cell_formula_units_Z   4
loop_
 _symmetry_equiv_pos_site_id
 _symmetry_equiv_pos_as_xyz
  1  'x, y, z'
loop_
 _atom_site_type_symbol
 _atom_site_label
 _atom_site_symmetry_multiplicity
 _atom_site_fract_x
 _atom_site_fract_y
 _atom_site_fract_z
 _atom_site_occupancy
  Ce  Ce0  1  0.25000000  0.74509102  0.50515821  1
  Ce  Ce1  1  0.25000000  0.75490898  0.00515821  1
  Ce  Ce2  1  0.75000000  0.25490898  0.49484179  1
  Ce  Ce3  1  0.75000000  0.24509102  0.99484179  1
  Ce  Ce4  1  0.25000000  0.58877850  0.75034279  1
  Ce  Ce5  1  0.25000000  0.91122150  0.25034279  1
  Ce  Ce6  1  0.75000000  0.41122150  0.24965721  1
  Ce  Ce7  1  0.75000000  0.08877850  0.74965721  1
  Sb  Sb8  1  0.25000000  0.27430631  0.65031256  1
  Sb  Sb9  1  0.25000000  0.22569369  0.15031256  1
  Sb  Sb10  1  0.75000000  0.72569369  0.34968744  1
  Sb  Sb11  1  0.75000000  0.77430631  0.84968744  1
  Sb  Sb12  1  0.25000000  0.88800788  0.71169351  1
  Sb  Sb13  1  0.25000000  0.61199212  0.21169351  1
  Sb  Sb14  1  0.75000000  0.11199212  0.28830649  1
  Sb  Sb15  1  0.75000000  0.38800788  0.78830649  1
  Sb  Sb16  1  0.25000000  0.06288498  0.89394115  1
  Sb  Sb17  1  0.25000000  0.43711502  0.39394115  1
  Sb  Sb18  1  0.75000000  0.93711502  0.10605885  1
  Sb  Sb19  1  0.75000000  0.56288498  0.60605885  1
  Sb  Sb20  1  0.25000000  0.44626501  0.93200977  1
  Sb  Sb21  1  0.25000000  0.05373499  0.43200977  1
  Sb  Sb22  1  0.75000000  0.55373499  0.06799023  1
  Sb  Sb23  1  0.75000000  0.94626501  0.56799023  1
  Ir  Ir24  1  0.25000000  0.46769551  0.55624249  1
  Ir  Ir25  1  0.25000000  0.03230449  0.05624249  1
  Ir  Ir26  1  0.75000000  0.53230449  0.44375751  1
  Ir  Ir27  1  0.75000000  0.96769551  0.94375751  1
  Ir  Ir28  1  0.25000000  0.05594158  0.59280534  1
  Ir  Ir29  1  0.25000000  0.44405842  0.09280534  1
  Ir  Ir30  1  0.75000000  0.94405842  0.40719466  1
  Ir  Ir31  1  0.75000000  0.55594158  0.90719466  1
  Ir  Ir32  1  0.25000000  0.27432799  0.81663329  1
  Ir  Ir33  1  0.25000000  0.22567201  0.31663329  1
  Ir  Ir34  1  0.75000000  0.72567201  0.18336671  1
  Ir  Ir35  1  0.75000000  0.77432799  0.68336671  1
