# generated using pymatgen
data_Na3P3H5N3O7
_symmetry_space_group_name_H-M   'P 1'
_cell_length_a   7.77618712
_cell_length_b   7.97782116
_cell_length_c   7.97782116
_cell_angle_alpha   102.70290942
_cell_angle_beta   98.84598522
_cell_angle_gamma   98.84598522
_symmetry_Int_Tables_number   1
_chemical_formula_structural   Na3P3H5N3O7
_chemical_formula_sum   'Na6 P6 H10 N6 O14'
_cell_volume   467.94181477
_cell_formula_units_Z   2
loop_
 _symmetry_equiv_pos_site_id
 _symmetry_equiv_pos_as_xyz
  1  'x, y, z'
loop_
 _atom_site_type_symbol
 _atom_site_label
 _atom_site_symmetry_multiplicity
 _atom_site_fract_x
 _atom_site_fract_y
 _atom_site_fract_z
 _atom_site_occupancy
  Na  Na0  1  0.61078560  0.25233096  0.50679517  1
  Na  Na1  1  0.38921440  0.49320483  0.74766904  1
  Na  Na2  1  0.00000000  0.23137060  0.76862940  1
  Na  Na3  1  0.00000000  0.53383493  0.46616507  1
  Na  Na4  1  0.42459175  0.30199038  0.14065913  1
  Na  Na5  1  0.57540825  0.85934087  0.69800962  1
  P  P6  1  0.15066349  0.15829883  0.38782888  1
  P  P7  1  0.84933651  0.61217112  0.84170117  1
  P  P8  1  0.82784688  0.90283862  0.39265111  1
  P  P9  1  0.17215312  0.60734889  0.09716138  1
  P  P10  1  0.80224255  0.13368446  0.14502397  1
  P  P11  1  0.19775745  0.85497603  0.86631554  1
  H  H12  1  0.60432677  0.20000079  0.84718602  1
  H  H13  1  0.39567323  0.15281398  0.79999921  1
  H  H14  1  0.60554250  0.60237146  0.41914396  1
  H  H15  1  0.39445750  0.58085604  0.39762854  1
  H  H16  1  0.11643178  0.86743484  0.39190082  1
  H  H17  1  0.88356822  0.60809918  0.13256516  1
  H  H18  1  0.70600957  0.83627957  0.09669386  1
  H  H19  1  0.29399043  0.90330614  0.16372043  1
  H  H20  1  0.08326592  0.14302639  0.09852588  1
  H  H21  1  0.91673408  0.90147412  0.85697361  1
  N  N22  1  0.05112716  0.96922113  0.42384965  1
  N  N23  1  0.94887284  0.57615035  0.03077887  1
  N  N24  1  0.73965979  0.94467655  0.20192057  1
  N  N25  1  0.26034021  0.79807943  0.05532345  1
  N  N26  1  0.02679742  0.18629642  0.20418311  1
  N  N27  1  0.97320258  0.79581689  0.81370358  1
  O  O28  1  0.14403834  0.30652477  0.54001664  1
  O  O29  1  0.85596166  0.45998336  0.69347523  1
  O  O30  1  0.32782966  0.13333218  0.34004827  1
  O  O31  1  0.67217034  0.65995173  0.86666782  1
  O  O32  1  0.76212246  0.01419603  0.54043182  1
  O  O33  1  0.23787754  0.45956818  0.98580397  1
  O  O34  1  0.79325635  0.70534815  0.36614292  1
  O  O35  1  0.20674365  0.63385708  0.29465185  1
  O  O36  1  0.72361780  0.27536823  0.24802164  1
  O  O37  1  0.27638220  0.75197836  0.72463177  1
  O  O38  1  0.76178360  0.09478606  0.94520249  1
  O  O39  1  0.23821640  0.05479751  0.90521394  1
  O  O40  1  0.50000000  0.22517353  0.77482647  1
  O  O41  1  0.50000000  0.54384102  0.45615898  1
