# generated using pymatgen
data_V6O13
_symmetry_space_group_name_H-M   'P 1'
_cell_length_a   3.75287101
_cell_length_b   10.25285172
_cell_length_c   12.22396777
_cell_angle_alpha   100.81662224
_cell_angle_beta   90.00000000
_cell_angle_gamma   90.00000000
_symmetry_Int_Tables_number   1
_chemical_formula_structural   V6O13
_chemical_formula_sum   'V12 O26'
_cell_volume   461.99254115
_cell_formula_units_Z   2
loop_
 _symmetry_equiv_pos_site_id
 _symmetry_equiv_pos_as_xyz
  1  'x, y, z'
loop_
 _atom_site_type_symbol
 _atom_site_label
 _atom_site_symmetry_multiplicity
 _atom_site_fract_x
 _atom_site_fract_y
 _atom_site_fract_z
 _atom_site_occupancy
  V  V0  1  0.25134622  0.63965230  0.08201040  1
  V  V1  1  0.74865378  0.63965230  0.58201040  1
  V  V2  1  0.24767605  0.36839857  0.90928492  1
  V  V3  1  0.75232395  0.36839857  0.40928492  1
  V  V4  1  0.24801382  0.63664048  0.78045180  1
  V  V5  1  0.75198618  0.63664048  0.28045180  1
  V  V6  1  0.25174141  0.37069338  0.21048485  1
  V  V7  1  0.74825859  0.37069338  0.71048485  1
  V  V8  1  0.29341184  0.00722857  0.15157245  1
  V  V9  1  0.70658816  0.00722857  0.65157245  1
  V  V10  1  0.23194759  -0.00021144  0.85526068  1
  V  V11  1  0.76805241  -0.00021144  0.35526068  1
  O  O12  1  0.25832540  0.00407577  0.31374855  1
  O  O13  1  0.74167460  0.00407577  0.81374855  1
  O  O14  1  0.24863049  0.61869641  0.61455813  1
  O  O15  1  0.75136951  0.61869641  0.11455813  1
  O  O16  1  0.25174941  0.59102622  0.24043262  1
  O  O17  1  0.74825059  0.59102622  0.74043262  1
  O  O18  1  0.25005431  0.00443421  0.99658658  1
  O  O19  1  0.74994569  0.00443421  0.49658658  1
  O  O20  1  0.25448395  0.80660248  0.11067073  1
  O  O21  1  0.74551605  0.80660248  0.61067073  1
  O  O22  1  0.24176232  0.80452536  0.81873792  1
  O  O23  1  0.75823768  0.80452536  0.31873792  1
  O  O24  1  0.24935792  0.59558325  0.93564155  1
  O  O25  1  0.75064208  0.59558325  0.43564155  1
  O  O26  1  0.23955324  0.00419963  0.67541487  1
  O  O27  1  0.76044676  0.00419963  0.17541487  1
  O  O28  1  0.25230158  0.39064368  0.37650926  1
  O  O29  1  0.74769842  0.39064368  0.87650926  1
  O  O30  1  0.24820668  0.41584571  0.75016488  1
  O  O31  1  0.75179332  0.41584571  0.25016488  1
  O  O32  1  0.24318950  0.20244618  0.88227690  1
  O  O33  1  0.75681050  0.20244618  0.38227690  1
  O  O34  1  0.25659667  0.20185670  0.17392907  1
  O  O35  1  0.74340333  0.20185670  0.67392907  1
  O  O36  1  0.25012641  0.41291454  0.05581884  1
  O  O37  1  0.74987359  0.41291454  0.55581884  1
