# generated using pymatgen
data_Na3V5H18O23
_symmetry_space_group_name_H-M   'P 1'
_cell_length_a   8.65585674
_cell_length_b   10.94144131
_cell_length_c   11.83168818
_cell_angle_alpha   105.55435443
_cell_angle_beta   99.06465332
_cell_angle_gamma   101.73005624
_symmetry_Int_Tables_number   1
_chemical_formula_structural   Na3V5H18O23
_chemical_formula_sum   'Na6 V10 H36 O46'
_cell_volume   1029.90912422
_cell_formula_units_Z   2
loop_
 _symmetry_equiv_pos_site_id
 _symmetry_equiv_pos_as_xyz
  1  'x, y, z'
loop_
 _atom_site_type_symbol
 _atom_site_label
 _atom_site_symmetry_multiplicity
 _atom_site_fract_x
 _atom_site_fract_y
 _atom_site_fract_z
 _atom_site_occupancy
  Na  Na0  1  0.02406842  0.25555507  0.30415304  1
  Na  Na1  1  0.97593158  0.74444493  0.69584696  1
  Na  Na2  1  0.77848939  0.14276024  0.48803502  1
  Na  Na3  1  0.22151061  0.85723976  0.51196498  1
  Na  Na4  1  0.95946935  0.76436980  0.97267623  1
  Na  Na5  1  0.04053065  0.23563020  0.02732377  1
  V  V6  1  0.68331393  0.49519906  0.98642194  1
  V  V7  1  0.31668607  0.50480094  0.01357806  1
  V  V8  1  0.45095755  0.57827202  0.79782304  1
  V  V9  1  0.54904245  0.42172798  0.20217696  1
  V  V10  1  0.54314405  0.30795374  0.72544913  1
  V  V11  1  0.45685595  0.69204626  0.27455087  1
  V  V12  1  0.18819967  0.31241963  0.75203358  1
  V  V13  1  0.81180033  0.68758037  0.24796642  1
  V  V14  1  0.41457427  0.22889990  0.93941738  1
  V  V15  1  0.58542573  0.77110010  0.06058262  1
  H  H16  1  0.88368694  0.98083733  0.28606630  1
  H  H17  1  0.11631306  0.01916267  0.71393370  1
  H  H18  1  0.04894978  0.04386225  0.38277530  1
  H  H19  1  0.95105022  0.95613775  0.61722470  1
  H  H20  1  0.16070662  0.04988163  0.16393252  1
  H  H21  1  0.83929338  0.95011837  0.83606748  1
  H  H22  1  0.28332648  0.18199230  0.17912529  1
  H  H23  1  0.71667352  0.81800770  0.82087471  1
  H  H24  1  0.73233027  0.07088329  0.07928226  1
  H  H25  1  0.26766973  0.92911671  0.92071774  1
  H  H26  1  0.73404057  0.21764845  0.09755883  1
  H  H27  1  0.26595943  0.78235155  0.90244117  1
  H  H28  1  0.33579086  0.44831559  0.39879601  1
  H  H29  1  0.66420914  0.55168441  0.60120399  1
  H  H30  1  0.32947853  0.40485105  0.51487328  1
  H  H31  1  0.67052147  0.59514895  0.48512672  1
  H  H32  1  0.92468664  0.41179204  0.52320713  1
  H  H33  1  0.07531336  0.58820796  0.47679287  1
  H  H34  1  0.78272917  0.38157025  0.41505276  1
  H  H35  1  0.21727083  0.61842975  0.58494724  1
  H  H36  1  0.12334426  0.48590986  0.19726765  1
  H  H37  1  0.87665574  0.51409014  0.80273235  1
  H  H38  1  0.94228018  0.45012423  0.20486829  1
  H  H39  1  0.05771982  0.54987577  0.79513171  1
  H  H40  1  0.71428476  0.87945976  0.47955910  1
  H  H41  1  0.28571524  0.12054024  0.52044090  1
  H  H42  1  0.65316347  0.94391646  0.59524746  1
  H  H43  1  0.34683653  0.05608354  0.40475254  1
  H  H44  1  0.51840221  0.98594029  0.27122060  1
  H  H45  1  0.48159779  0.01405971  0.72877940  1
  H  H46  1  0.53270047  0.13784467  0.28894227  1
  H  H47  1  0.46729953  0.86215533  0.71105773  1
  H  H48  1  0.12066159  0.84422214  0.22081779  1
  H  H49  1  0.87933841  0.15577786  0.77918221  1
  H  H50  1  0.26088332  0.85026550  0.15267000  1
  H  H51  1  0.73911668  0.14973450  0.84733000  1
  O  O52  1  0.44331889  0.42018113  0.88858939  1
  O  O53  1  0.55668111  0.57981887  0.11141061  1
  O  O54  1  0.65420302  0.64455679  0.93063488  1
  O  O55  1  0.34579698  0.35544321  0.06936512  1
  O  O56  1  0.62750760  0.35100130  0.04805156  1
  O  O57  1  0.37249240  0.64899870  0.95194844  1
  O  O58  1  0.24193990  0.47785813  0.72769296  1
  O  O59  1  0.75806010  0.52214187  0.27230704  1
  O  O60  1  0.52325164  0.18807796  0.81689639  1
  O  O61  1  0.47674836  0.81192204  0.18310361  1
  O  O62  1  0.73754605  0.41175216  0.85717654  1
  O  O63  1  0.26245395  0.58824784  0.14282346  1
  O  O64  1  0.14092013  0.41469097  0.90758616  1
  O  O65  1  0.85907987  0.58530903  0.09241384  1
  O  O66  1  0.21570269  0.19159573  0.83855877  1
  O  O67  1  0.78429731  0.80840427  0.16144123  1
  O  O68  1  0.32232294  0.25002777  0.65572468  1
  O  O69  1  0.67767706  0.74997223  0.34427532  1
  O  O70  1  0.54501632  0.47305602  0.69821752  1
  O  O71  1  0.45498368  0.52694398  0.30178248  1
  O  O72  1  0.46444965  0.70730908  0.74872956  1
  O  O73  1  0.53555035  0.29269092  0.25127044  1
  O  O74  1  0.62503274  0.23612831  0.62030714  1
  O  O75  1  0.37496726  0.76387169  0.37969286  1
  O  O76  1  0.00390406  0.24294988  0.66975568  1
  O  O77  1  0.99609594  0.75705012  0.33024432  1
  O  O78  1  0.39881509  0.10162815  0.98886596  1
  O  O79  1  0.60118491  0.89837185  0.01113404  1
  O  O80  1  0.94291737  0.05956077  0.35379900  1
  O  O81  1  0.05708263  0.94043923  0.64620100  1
  O  O82  1  0.16754927  0.14193663  0.16688433  1
  O  O83  1  0.83245073  0.85806337  0.83311567  1
  O  O84  1  0.80394657  0.16051069  0.11212952  1
  O  O85  1  0.19605343  0.83948931  0.88787048  1
  O  O86  1  0.26176349  0.41124170  0.44354528  1
  O  O87  1  0.73823651  0.58875830  0.55645472  1
  O  O88  1  0.87051694  0.34672205  0.44572955  1
  O  O89  1  0.12948306  0.65327795  0.55427045  1
  O  O90  1  0.03746316  0.41459720  0.20288644  1
  O  O91  1  0.96253684  0.58540280  0.79711356  1
  O  O92  1  0.74383642  0.95526322  0.55424469  1
  O  O93  1  0.25616358  0.04473678  0.44575531  1
  O  O94  1  0.53089708  0.07175358  0.33167506  1
  O  O95  1  0.46910292  0.92824642  0.66832494  1
  O  O96  1  0.15629145  0.87247408  0.15503182  1
  O  O97  1  0.84370855  0.12752592  0.84496818  1
