# generated using pymatgen
data_PH12C3N6O5F
_symmetry_space_group_name_H-M   'P 1'
_cell_length_a   6.81914217
_cell_length_b   8.39417657
_cell_length_c   10.28655107
_cell_angle_alpha   101.11417671
_cell_angle_beta   92.60631866
_cell_angle_gamma   99.02107444
_symmetry_Int_Tables_number   1
_chemical_formula_structural   PH12C3N6O5F
_chemical_formula_sum   'P2 H24 C6 N12 O10 F2'
_cell_volume   568.88008464
_cell_formula_units_Z   2
loop_
 _symmetry_equiv_pos_site_id
 _symmetry_equiv_pos_as_xyz
  1  'x, y, z'
loop_
 _atom_site_type_symbol
 _atom_site_label
 _atom_site_symmetry_multiplicity
 _atom_site_fract_x
 _atom_site_fract_y
 _atom_site_fract_z
 _atom_site_occupancy
  P  P0  1  0.46062416  0.87305591  0.26985225  1
  P  P1  1  0.59141419  0.87095084  0.70620510  1
  H  H2  1  0.38653315  0.82624737  0.47286462  1
  H  H3  1  0.68772414  0.46837732  0.96809970  1
  H  H4  1  0.61505040  0.25284458  0.93780734  1
  H  H5  1  0.19927964  0.46007319  0.99575277  1
  H  H6  1  0.00954660  0.58963861  0.00204341  1
  H  H7  1  0.84661687  0.09307497  0.91864952  1
  H  H8  1  0.31726941  0.97087447  0.92908440  1
  H  H9  1  0.06092716  0.90949523  0.94672659  1
  H  H10  1  0.99588885  0.56141586  0.32765952  1
  H  H11  1  0.79918397  0.68062186  0.31428271  1
  H  H12  1  0.46961115  0.54887133  0.32762794  1
  H  H13  1  0.42022916  0.33637692  0.30451443  1
  H  H14  1  0.65769615  0.18899045  0.30471765  1
  H  H15  1  0.13453944  0.07715066  0.29490691  1
  H  H16  1  0.87263784  0.00551631  0.27832792  1
  H  H17  1  0.05206862  0.18101825  0.62782175  1
  H  H18  1  0.24978655  0.05932696  0.62418672  1
  H  H19  1  0.57143284  0.18964708  0.62842197  1
  H  H20  1  0.63123181  0.40184721  0.64949940  1
  H  H21  1  0.39594703  0.55593911  0.66445237  1
  H  H22  1  0.17832952  0.73538760  0.65579000  1
  H  H23  1  0.91991269  0.67053767  0.66598743  1
  H  H24  1  0.74214711  0.77151107  0.06998065  1
  H  H25  1  0.72358606  0.74784071  0.91252635  1
  C  C26  1  0.91640473  0.34317122  0.96867532  1
  C  C27  1  0.16198311  0.15826278  0.95251888  1
  C  C28  1  0.71747726  0.43744916  0.31622693  1
  C  C29  1  0.97182095  0.25953803  0.30804533  1
  C  C30  1  0.33072081  0.30546626  0.63792377  1
  C  C31  1  0.08029950  0.48660466  0.65299690  1
  N  N32  1  0.72432035  0.35403909  0.96133849  1
  N  N33  1  0.05458127  0.47794687  0.99391066  1
  N  N34  1  0.96602965  0.18945926  0.95241244  1
  N  N35  1  0.17721107  0.99803172  0.93744134  1
  N  N36  1  0.84902237  0.57470246  0.32632531  1
  N  N37  1  0.52272395  0.44040964  0.31309516  1
  N  N38  1  0.77436868  0.28735602  0.30863443  1
  N  N39  1  0.99200779  0.10061354  0.29244955  1
  N  N40  1  0.19840489  0.16832305  0.62575483  1
  N  N41  1  0.52445708  0.29968276  0.63810576  1
  N  N42  1  0.27649319  0.45694705  0.65049492  1
  N  N43  1  0.06216335  0.64622181  0.66668391  1
  O  O44  1  0.36192042  0.77158497  0.37169120  1
  O  O45  1  0.43837275  0.05170315  0.29990844  1
  O  O46  1  0.66548533  0.83332123  0.24016492  1
  O  O47  1  0.40681201  0.89013424  0.62108467  1
  O  O48  1  0.61667891  0.69244572  0.69957106  1
  O  O49  1  0.61610290  0.97674206  0.84555327  1
  O  O50  1  0.30951265  0.27028966  0.96355641  1
  O  O51  1  0.11589917  0.37498768  0.32108727  1
  O  O52  1  0.93489781  0.37329459  0.64567231  1
  O  O53  1  0.79910833  0.72278627  0.98759347  1
  F  F54  1  0.31750002  0.78387862  0.13973115  1
  F  F55  1  0.77682021  0.94762491  0.62969549  1
