# generated using pymatgen
data_H6C(SN)2
_symmetry_space_group_name_H-M   'P 1'
_cell_length_a   8.76537429
_cell_length_b   8.76537429
_cell_length_c   9.07136197
_cell_angle_alpha   100.14093645
_cell_angle_beta   114.01927792
_cell_angle_gamma   113.36144144
_symmetry_Int_Tables_number   1
_chemical_formula_structural   H6C(SN)2
_chemical_formula_sum   'H24 C4 S8 N8'
_cell_volume   535.00757568
_cell_formula_units_Z   4
loop_
 _symmetry_equiv_pos_site_id
 _symmetry_equiv_pos_as_xyz
  1  'x, y, z'
loop_
 _atom_site_type_symbol
 _atom_site_label
 _atom_site_symmetry_multiplicity
 _atom_site_fract_x
 _atom_site_fract_y
 _atom_site_fract_z
 _atom_site_occupancy
  H  H0  1  0.77733317  0.67786526  0.05325787  1
  H  H1  1  0.87539261  0.27592470  0.55325787  1
  H  H2  1  0.63296052  0.64862718  0.14675511  1
  H  H3  1  0.99812793  0.51379459  0.64675511  1
  H  H4  1  0.35553650  0.87304295  0.89392058  1
  H  H5  1  0.52087763  0.53838408  0.39392058  1
  H  H6  1  0.51858936  0.79418692  0.93882590  1
  H  H7  1  0.64463898  0.42023654  0.43882590  1
  H  H8  1  0.30755943  0.81889637  0.37886191  1
  H  H9  1  0.05996554  0.07130248  0.87886191  1
  H  H10  1  0.26696387  0.72493444  0.17631600  1
  H  H11  1  0.95138156  0.90935213  0.67631600  1
  H  H12  1  0.50058305  0.88228167  0.34499441  1
  H  H13  1  0.96271273  0.84441135  0.84499441  1
  H  H14  1  0.33348294  0.94240160  0.25716067  1
  H  H15  1  0.81475906  0.92367772  0.75716067  1
  H  H16  1  0.46563008  0.23235583  0.73250152  1
  H  H17  1  0.00014569  0.26687144  0.23250152  1
  H  H18  1  0.40362928  0.38828583  0.68783781  1
  H  H19  1  0.79955198  0.28420853  0.18783781  1
  H  H20  1  0.32996422  0.28058248  0.80577941  1
  H  H21  1  0.02519693  0.47581519  0.30577941  1
  H  H22  1  0.23026090  0.16703868  0.58512673  1
  H  H23  1  0.91808805  0.35486583  0.08512673  1
  C  C24  1  0.86944845  0.90785399  0.25461621  1
  C  C25  1  0.84676222  0.38516776  0.75461621  1
  C  C26  1  0.34102767  0.73144785  0.67776755  1
  C  C27  1  0.44631969  0.33673987  0.17776755  1
  S  S28  1  0.82294804  0.98470697  0.41034083  1
  S  S29  1  0.92563386  0.58739279  0.91034083  1
  S  S30  1  0.06470910  0.04169203  0.24222523  1
  S  S31  1  0.70053320  0.17751613  0.74222523  1
  S  S32  1  0.15271698  0.74788422  0.53345137  1
  S  S33  1  0.28556715  0.38073439  0.03345137  1
  S  S34  1  0.45088118  0.63259978  0.61507587  1
  S  S35  1  0.48247610  0.16419469  0.11507587  1
  N  N36  1  0.74450567  0.73382587  0.13664616  1
  N  N37  1  0.90282030  0.39214050  0.63664616  1
  N  N38  1  0.40457531  0.79874138  0.84985578  1
  N  N39  1  0.55111440  0.44528047  0.34985578  1
  N  N40  1  0.35366032  0.84216393  0.29070220  1
  N  N41  1  0.94853827  0.93704187  0.79070220  1
  N  N42  1  0.35702446  0.26564529  0.70349088  1
  N  N43  1  0.93784559  0.34646642  0.20349088  1
