# generated using pymatgen
data_H18AuN6Cl
_symmetry_space_group_name_H-M   'P 1'
_cell_length_a   7.39156584
_cell_length_b   11.67356755
_cell_length_c   14.45827699
_cell_angle_alpha   90.00000000
_cell_angle_beta   90.00000000
_cell_angle_gamma   90.00000000
_symmetry_Int_Tables_number   1
_chemical_formula_structural   H18AuN6Cl
_chemical_formula_sum   'H72 Au4 N24 Cl4'
_cell_volume   1247.54606617
_cell_formula_units_Z   4
loop_
 _symmetry_equiv_pos_site_id
 _symmetry_equiv_pos_as_xyz
  1  'x, y, z'
loop_
 _atom_site_type_symbol
 _atom_site_label
 _atom_site_symmetry_multiplicity
 _atom_site_fract_x
 _atom_site_fract_y
 _atom_site_fract_z
 _atom_site_occupancy
  H  H0  1  0.58458897  0.81271808  0.90802035  1
  H  H1  1  0.08458897  0.68728192  0.59197965  1
  H  H2  1  0.41541103  0.31271808  0.59197965  1
  H  H3  1  0.91541103  0.18728192  0.90802035  1
  H  H4  1  0.41541103  0.18728192  0.09197965  1
  H  H5  1  0.91541103  0.31271808  0.40802035  1
  H  H6  1  0.58458897  0.68728192  0.40802035  1
  H  H7  1  0.08458897  0.81271808  0.09197965  1
  H  H8  1  0.60420454  0.92801338  0.83586691  1
  H  H9  1  0.10420454  0.57198662  0.66413309  1
  H  H10  1  0.39579546  0.42801338  0.66413309  1
  H  H11  1  0.89579546  0.07198662  0.83586691  1
  H  H12  1  0.39579546  0.07198662  0.16413309  1
  H  H13  1  0.89579546  0.42801338  0.33586691  1
  H  H14  1  0.60420454  0.57198662  0.33586691  1
  H  H15  1  0.10420454  0.92801338  0.16413309  1
  H  H16  1  0.40395244  0.87285311  0.86034587  1
  H  H17  1  0.90395244  0.62714689  0.63965413  1
  H  H18  1  0.59604756  0.37285311  0.63965413  1
  H  H19  1  0.09604756  0.12714689  0.86034587  1
  H  H20  1  0.59604756  0.12714689  0.13965413  1
  H  H21  1  0.09604756  0.37285311  0.36034587  1
  H  H22  1  0.40395244  0.62714689  0.36034587  1
  H  H23  1  0.90395244  0.87285311  0.13965413  1
  H  H24  1  0.37005092  0.16925406  0.87342778  1
  H  H25  1  0.87005092  0.33074594  0.62657222  1
  H  H26  1  0.62994908  0.66925406  0.62657222  1
  H  H27  1  0.12994908  0.83074594  0.87342778  1
  H  H28  1  0.62994908  0.83074594  0.12657222  1
  H  H29  1  0.12994908  0.66925406  0.37342778  1
  H  H30  1  0.37005092  0.33074594  0.37342778  1
  H  H31  1  0.87005092  0.16925406  0.12657222  1
  H  H32  1  0.35081186  0.27790982  0.80032978  1
  H  H33  1  0.85081186  0.22209018  0.69967022  1
  H  H34  1  0.64918814  0.77790982  0.69967022  1
  H  H35  1  0.14918814  0.72209018  0.80032978  1
  H  H36  1  0.64918814  0.72209018  0.19967022  1
  H  H37  1  0.14918814  0.77790982  0.30032978  1
  H  H38  1  0.35081186  0.22209018  0.30032978  1
  H  H39  1  0.85081186  0.27790982  0.19967022  1
  H  H40  1  0.46946144  0.16190811  0.77237003  1
  H  H41  1  0.96946144  0.33809189  0.72762997  1
  H  H42  1  0.53053856  0.66190811  0.72762997  1
  H  H43  1  0.03053856  0.83809189  0.77237003  1
  H  H44  1  0.53053856  0.83809189  0.22762997  1
  H  H45  1  0.03053856  0.66190811  0.27237003  1
  H  H46  1  0.46946144  0.33809189  0.27237003  1
  H  H47  1  0.96946144  0.16190811  0.22762997  1
  H  H48  1  0.67523677  0.63103782  0.00013136  1
  H  H49  1  0.17523677  0.86896218  0.49986864  1
  H  H50  1  0.32476323  0.13103782  0.49986864  1
  H  H51  1  0.82476323  0.36896218  0.00013136  1
  H  H52  1  0.32476323  0.36896218  0.99986864  1
  H  H53  1  0.82476323  0.13103782  0.50013136  1
  H  H54  1  0.67523677  0.86896218  0.50013136  1
  H  H55  1  0.17523677  0.63103782  0.99986864  1
  H  H56  1  0.56425883  0.60037829  0.90479560  1
  H  H57  1  0.06425883  0.89962171  0.59520440  1
  H  H58  1  0.43574117  0.10037829  0.59520440  1
  H  H59  1  0.93574117  0.39962171  0.90479560  1
  H  H60  1  0.43574117  0.39962171  0.09520440  1
  H  H61  1  0.93574117  0.10037829  0.40479560  1
  H  H62  1  0.56425883  0.89962171  0.40479560  1
  H  H63  1  0.06425883  0.60037829  0.09520440  1
  H  H64  1  0.77532449  0.64677688  0.89908528  1
  H  H65  1  0.27532449  0.85322312  0.60091472  1
  H  H66  1  0.22467551  0.14677688  0.60091472  1
  H  H67  1  0.72467551  0.35322312  0.89908528  1
  H  H68  1  0.22467551  0.35322312  0.10091472  1
  H  H69  1  0.72467551  0.14677688  0.39908528  1
  H  H70  1  0.77532449  0.85322312  0.39908528  1
  H  H71  1  0.27532449  0.64677688  0.10091472  1
  Au  Au72  1  0.50000000  0.00000000  0.00000000  1
  Au  Au73  1  0.00000000  0.50000000  0.50000000  1
  Au  Au74  1  0.50000000  0.50000000  0.50000000  1
  Au  Au75  1  0.00000000  0.00000000  -0.00000000  1
  N  N76  1  0.52717645  0.89149416  0.88862578  1
  N  N77  1  0.02717645  0.60850584  0.61137422  1
  N  N78  1  0.47282355  0.39149416  0.61137422  1
  N  N79  1  0.97282355  0.10850584  0.88862578  1
  N  N80  1  0.47282355  0.10850584  0.11137422  1
  N  N81  1  0.97282355  0.39149416  0.38862578  1
  N  N82  1  0.52717645  0.60850584  0.38862578  1
  N  N83  1  0.02717645  0.89149416  0.11137422  1
  N  N84  1  0.43739838  0.21683575  0.82498440  1
  N  N85  1  0.93739838  0.28316425  0.67501560  1
  N  N86  1  0.56260162  0.71683575  0.67501560  1
  N  N87  1  0.06260162  0.78316425  0.82498440  1
  N  N88  1  0.56260162  0.78316425  0.17501560  1
  N  N89  1  0.06260162  0.71683575  0.32498440  1
  N  N90  1  0.43739838  0.28316425  0.32498440  1
  N  N91  1  0.93739838  0.21683575  0.17501560  1
  N  N92  1  0.65490712  0.65654663  0.93321489  1
  N  N93  1  0.15490712  0.84345337  0.56678511  1
  N  N94  1  0.34509288  0.15654663  0.56678511  1
  N  N95  1  0.84509288  0.34345337  0.93321489  1
  N  N96  1  0.34509288  0.34345337  0.06678511  1
  N  N97  1  0.84509288  0.15654663  0.43321489  1
  N  N98  1  0.65490712  0.84345337  0.43321489  1
  N  N99  1  0.15490712  0.65654663  0.06678511  1
  Cl  Cl100  1  0.75000000  0.00000000  0.71366561  1
  Cl  Cl101  1  0.25000000  0.50000000  0.78633439  1
  Cl  Cl102  1  0.25000000  0.00000000  0.28633439  1
  Cl  Cl103  1  0.75000000  0.50000000  0.21366561  1
