# generated using pymatgen
data_NiP
_symmetry_space_group_name_H-M   'P 1'
_cell_length_a   4.93418070
_cell_length_b   5.92782616
_cell_length_c   17.04046702
_cell_angle_alpha   90.00000000
_cell_angle_beta   90.00000000
_cell_angle_gamma   90.00000000
_symmetry_Int_Tables_number   1
_chemical_formula_structural   NiP
_chemical_formula_sum   'Ni20 P20'
_cell_volume   498.41603081
_cell_formula_units_Z   20
loop_
 _symmetry_equiv_pos_site_id
 _symmetry_equiv_pos_as_xyz
  1  'x, y, z'
loop_
 _atom_site_type_symbol
 _atom_site_label
 _atom_site_symmetry_multiplicity
 _atom_site_fract_x
 _atom_site_fract_y
 _atom_site_fract_z
 _atom_site_occupancy
  Ni  Ni0  1  0.46970629  0.80601967  0.16301007  1
  Ni  Ni1  1  0.96970629  0.69398033  0.33698993  1
  Ni  Ni2  1  0.53029371  0.19398033  0.66301007  1
  Ni  Ni3  1  0.03029371  0.30601967  0.83698993  1
  Ni  Ni4  1  0.53029371  0.19398033  0.83698993  1
  Ni  Ni5  1  0.03029371  0.30601967  0.66301007  1
  Ni  Ni6  1  0.46970629  0.80601967  0.33698993  1
  Ni  Ni7  1  0.96970629  0.69398033  0.16301007  1
  Ni  Ni8  1  0.00158479  0.69854111  0.75000000  1
  Ni  Ni9  1  0.50158479  0.80145889  0.75000000  1
  Ni  Ni10  1  0.99841521  0.30145889  0.25000000  1
  Ni  Ni11  1  0.49841521  0.19854111  0.25000000  1
  Ni  Ni12  1  0.01717012  0.80803264  0.54073396  1
  Ni  Ni13  1  0.51717012  0.69196736  0.95926604  1
  Ni  Ni14  1  0.98282988  0.19196736  0.04073396  1
  Ni  Ni15  1  0.48282988  0.30803264  0.45926604  1
  Ni  Ni16  1  0.98282988  0.19196736  0.45926604  1
  Ni  Ni17  1  0.48282988  0.30803264  0.04073396  1
  Ni  Ni18  1  0.01717012  0.80803264  0.95926604  1
  Ni  Ni19  1  0.51717012  0.69196736  0.54073396  1
  P  P20  1  0.17121239  0.44342970  0.54531813  1
  P  P21  1  0.67121239  0.05657030  0.95468187  1
  P  P22  1  0.82878761  0.55657030  0.04531813  1
  P  P23  1  0.32878761  0.94342970  0.45468187  1
  P  P24  1  0.82878761  0.55657030  0.45468187  1
  P  P25  1  0.32878761  0.94342970  0.04531813  1
  P  P26  1  0.17121239  0.44342970  0.95468187  1
  P  P27  1  0.67121239  0.05657030  0.54531813  1
  P  P28  1  0.19768487  0.93715054  0.65340376  1
  P  P29  1  0.69768487  0.56284946  0.84659624  1
  P  P30  1  0.80231513  0.06284946  0.15340376  1
  P  P31  1  0.30231513  0.43715054  0.34659624  1
  P  P32  1  0.80231513  0.06284946  0.34659624  1
  P  P33  1  0.30231513  0.43715054  0.15340376  1
  P  P34  1  0.19768487  0.93715054  0.84659624  1
  P  P35  1  0.69768487  0.56284946  0.65340376  1
  P  P36  1  0.16093008  0.93715485  0.25000000  1
  P  P37  1  0.66093008  0.56284515  0.25000000  1
  P  P38  1  0.83906992  0.06284515  0.75000000  1
  P  P39  1  0.33906992  0.43715485  0.75000000  1
