# generated using pymatgen
data_BH6N
_symmetry_space_group_name_H-M   'P 1'
_cell_length_a   5.19096236
_cell_length_b   6.88858870
_cell_length_c   7.09728386
_cell_angle_alpha   98.36272403
_cell_angle_beta   90.00000000
_cell_angle_gamma   90.00000000
_symmetry_Int_Tables_number   1
_chemical_formula_structural   BH6N
_chemical_formula_sum   'B4 H24 N4'
_cell_volume   251.08906667
_cell_formula_units_Z   4
loop_
 _symmetry_equiv_pos_site_id
 _symmetry_equiv_pos_as_xyz
  1  'x, y, z'
loop_
 _atom_site_type_symbol
 _atom_site_label
 _atom_site_symmetry_multiplicity
 _atom_site_fract_x
 _atom_site_fract_y
 _atom_site_fract_z
 _atom_site_occupancy
  B  B0  1  0.60153700  0.90556872  0.76323240  1
  B  B1  1  0.10153700  0.09443128  0.23676760  1
  B  B2  1  0.09690022  0.51517823  0.78033702  1
  B  B3  1  0.59690022  0.48482177  0.21966298  1
  H  H4  1  0.89349074  0.06658917  0.61163539  1
  H  H5  1  0.39349074  0.93341083  0.38836461  1
  H  H6  1  0.90473799  0.12953070  0.84408261  1
  H  H7  1  0.40473799  0.87046930  0.15591739  1
  H  H8  1  0.02321885  0.91579603  0.74763370  1
  H  H9  1  0.52321885  0.08420397  0.25236630  1
  H  H10  1  0.63818067  0.78111290  0.86534816  1
  H  H11  1  0.13818067  0.21888710  0.13465184  1
  H  H12  1  0.52519157  0.82889574  0.60603929  1
  H  H13  1  0.02519157  0.17110426  0.39396071  1
  H  H14  1  0.44761637  0.02715244  0.83841058  1
  H  H15  1  0.94761637  0.97284756  0.16158942  1
  H  H16  1  0.36555609  0.33626563  0.58731726  1
  H  H17  1  0.86555609  0.66373437  0.41268274  1
  H  H18  1  0.52127859  0.48967305  0.74681377  1
  H  H19  1  0.02127859  0.51032695  0.25318623  1
  H  H20  1  0.39600621  0.28816837  0.80861332  1
  H  H21  1  0.89600621  0.71183163  0.19138668  1
  H  H22  1  0.14865946  0.67620202  0.86813073  1
  H  H23  1  0.64865946  0.32379798  0.13186927  1
  H  H24  1  0.96671756  0.42200920  0.87903437  1
  H  H25  1  0.46671756  0.57799080  0.12096563  1
  H  H26  1  0.98431294  0.52875793  0.63162360  1
  H  H27  1  0.48431294  0.47124207  0.36837640  1
  N  N28  1  0.87307836  0.01225261  0.73824400  1
  N  N29  1  0.37307836  0.98774739  0.26175600  1
  N  N30  1  0.36421739  0.39808131  0.72775068  1
  N  N31  1  0.86421739  0.60191869  0.27224932  1
