# generated using pymatgen
data_BaCu2Ge3(HO5)2
_symmetry_space_group_name_H-M   'P 1'
_cell_length_a   5.64773866
_cell_length_b   6.28989961
_cell_length_c   13.83174637
_cell_angle_alpha   90.00000000
_cell_angle_beta   90.00000000
_cell_angle_gamma   116.67652640
_symmetry_Int_Tables_number   1
_chemical_formula_structural   BaCu2Ge3(HO5)2
_chemical_formula_sum   'Ba2 Cu4 Ge6 H4 O20'
_cell_volume   439.05285362
_cell_formula_units_Z   2
loop_
 _symmetry_equiv_pos_site_id
 _symmetry_equiv_pos_as_xyz
  1  'x, y, z'
loop_
 _atom_site_type_symbol
 _atom_site_label
 _atom_site_symmetry_multiplicity
 _atom_site_fract_x
 _atom_site_fract_y
 _atom_site_fract_z
 _atom_site_occupancy
  Ba  Ba0  1  0.33890718  0.67781436  0.75000000  1
  Ba  Ba1  1  0.66109282  0.32218564  0.25000000  1
  Cu  Cu2  1  0.00000000  0.50000000  0.00000000  1
  Cu  Cu3  1  0.50000000  0.50000000  0.00000000  1
  Cu  Cu4  1  0.00000000  0.50000000  0.50000000  1
  Cu  Cu5  1  0.50000000  0.50000000  0.50000000  1
  Ge  Ge6  1  0.03019100  0.06038200  0.87723982  1
  Ge  Ge7  1  0.96980900  0.93961800  0.12276018  1
  Ge  Ge8  1  0.03019100  0.06038200  0.62276018  1
  Ge  Ge9  1  0.96980900  0.93961800  0.37723982  1
  Ge  Ge10  1  0.50000000  -0.00000000  0.00000000  1
  Ge  Ge11  1  0.50000000  0.00000000  0.50000000  1
  H  H12  1  0.30444479  0.60888958  0.19066489  1
  H  H13  1  0.69555521  0.39111042  0.80933511  1
  H  H14  1  0.30444479  0.60888958  0.30933511  1
  H  H15  1  0.69555521  0.39111042  0.69066489  1
  O  O16  1  0.18282055  0.36564110  0.91171574  1
  O  O17  1  0.81717945  0.63435890  0.08828426  1
  O  O18  1  0.18282055  0.36564110  0.58828426  1
  O  O19  1  0.81717945  0.63435890  0.41171574  1
  O  O20  1  0.34644481  0.69288962  0.05487921  1
  O  O21  1  0.65355519  0.30711038  0.94512079  1
  O  O22  1  0.34644481  0.69288962  0.44512079  1
  O  O23  1  0.65355519  0.30711038  0.55487921  1
  O  O24  1  0.20781040  0.89736501  0.90657354  1
  O  O25  1  0.31044538  0.10263499  0.09342646  1
  O  O26  1  0.20781040  0.89736501  0.59342646  1
  O  O27  1  0.31044538  0.10263499  0.40657354  1
  O  O28  1  0.79218960  0.10263499  0.09342646  1
  O  O29  1  0.68955462  0.89736501  0.90657354  1
  O  O30  1  0.79218960  0.10263499  0.40657354  1
  O  O31  1  0.68955462  0.89736501  0.59342646  1
  O  O32  1  0.04106797  0.08213595  0.75000000  1
  O  O33  1  0.95893203  0.91786405  0.25000000  1
  O  O34  1  0.25379742  0.50759484  0.25000000  1
  O  O35  1  0.74620258  0.49240516  0.75000000  1
