# generated using pymatgen
data_Fe5(SiO4)3
_symmetry_space_group_name_H-M   'P 1'
_cell_length_a   4.89321134
_cell_length_b   10.40152076
_cell_length_c   17.85261556
_cell_angle_alpha   90.00000000
_cell_angle_beta   90.00000000
_cell_angle_gamma   90.00000000
_symmetry_Int_Tables_number   1
_chemical_formula_structural   Fe5(SiO4)3
_chemical_formula_sum   'Fe20 Si12 O48'
_cell_volume   908.64170589
_cell_formula_units_Z   4
loop_
 _symmetry_equiv_pos_site_id
 _symmetry_equiv_pos_as_xyz
  1  'x, y, z'
loop_
 _atom_site_type_symbol
 _atom_site_label
 _atom_site_symmetry_multiplicity
 _atom_site_fract_x
 _atom_site_fract_y
 _atom_site_fract_z
 _atom_site_occupancy
  Fe  Fe0  1  0.99467153  0.72969853  0.08047638  1
  Fe  Fe1  1  0.50532847  0.22969853  0.41952362  1
  Fe  Fe2  1  0.00532847  0.27030147  0.58047638  1
  Fe  Fe3  1  0.49467153  0.77030147  0.91952362  1
  Fe  Fe4  1  0.00532847  0.27030147  0.91952362  1
  Fe  Fe5  1  0.49467153  0.77030147  0.58047638  1
  Fe  Fe6  1  0.99467153  0.72969853  0.41952362  1
  Fe  Fe7  1  0.50532847  0.22969853  0.08047638  1
  Fe  Fe8  1  0.48256647  0.78311343  0.25000000  1
  Fe  Fe9  1  0.01743353  0.28311343  0.25000000  1
  Fe  Fe10  1  0.51743353  0.21688657  0.75000000  1
  Fe  Fe11  1  0.98256647  0.71688657  0.75000000  1
  Fe  Fe12  1  0.50292943  0.50770217  0.15913219  1
  Fe  Fe13  1  0.99707057  0.00770217  0.34086781  1
  Fe  Fe14  1  0.49707057  0.49229783  0.65913219  1
  Fe  Fe15  1  0.00292943  0.99229783  0.84086781  1
  Fe  Fe16  1  0.49707057  0.49229783  0.84086781  1
  Fe  Fe17  1  0.00292943  0.99229783  0.65913219  1
  Fe  Fe18  1  0.50292943  0.50770217  0.34086781  1
  Fe  Fe19  1  0.99707057  0.00770217  0.15913219  1
  Si  Si20  1  0.93178219  0.60005079  0.25000000  1
  Si  Si21  1  0.56821781  0.10005079  0.25000000  1
  Si  Si22  1  0.06821781  0.39994921  0.75000000  1
  Si  Si23  1  0.43178219  0.89994921  0.75000000  1
  Si  Si24  1  0.06449252  0.40618824  0.08012175  1
  Si  Si25  1  0.43550748  0.90618824  0.41987825  1
  Si  Si26  1  0.93550748  0.59381176  0.58012175  1
  Si  Si27  1  0.56449252  0.09381176  0.91987825  1
  Si  Si28  1  0.93550748  0.59381176  0.91987825  1
  Si  Si29  1  0.56449252  0.09381176  0.58012175  1
  Si  Si30  1  0.06449252  0.40618824  0.41987825  1
  Si  Si31  1  0.43550748  0.90618824  0.08012175  1
  O  O32  1  0.26657253  0.59607226  0.25000000  1
  O  O33  1  0.23342747  0.09607226  0.25000000  1
  O  O34  1  0.73342747  0.40392774  0.75000000  1
  O  O35  1  0.76657253  0.90392774  0.75000000  1
  O  O36  1  0.76628300  0.89419296  0.08656212  1
  O  O37  1  0.73371700  0.39419296  0.41343788  1
  O  O38  1  0.23371700  0.10580704  0.58656212  1
  O  O39  1  0.26628300  0.60580704  0.91343788  1
  O  O40  1  0.23371700  0.10580704  0.91343788  1
  O  O41  1  0.26628300  0.60580704  0.58656212  1
  O  O42  1  0.76628300  0.89419296  0.41343788  1
  O  O43  1  0.73371700  0.39419296  0.08656212  1
  O  O44  1  0.32714949  0.05557111  0.08496754  1
  O  O45  1  0.17285051  0.55557111  0.41503246  1
  O  O46  1  0.67285051  0.94442889  0.58496754  1
  O  O47  1  0.82714949  0.44442889  0.91503246  1
  O  O48  1  0.67285051  0.94442889  0.91503246  1
  O  O49  1  0.82714949  0.44442889  0.58496754  1
  O  O50  1  0.32714949  0.05557111  0.41503246  1
  O  O51  1  0.17285051  0.55557111  0.08496754  1
  O  O52  1  0.29640872  0.82255429  0.01136631  1
  O  O53  1  0.20359128  0.32255429  0.48863369  1
  O  O54  1  0.70359128  0.17744571  0.51136631  1
  O  O55  1  0.79640872  0.67744571  0.98863369  1
  O  O56  1  0.70359128  0.17744571  0.98863369  1
  O  O57  1  0.79640872  0.67744571  0.51136631  1
  O  O58  1  0.29640872  0.82255429  0.48863369  1
  O  O59  1  0.20359128  0.32255429  0.01136631  1
  O  O60  1  0.27049258  0.83382807  0.15104537  1
  O  O61  1  0.22950742  0.33382807  0.34895463  1
  O  O62  1  0.72950742  0.16617193  0.65104537  1
  O  O63  1  0.77049258  0.66617193  0.84895463  1
  O  O64  1  0.72950742  0.16617193  0.84895463  1
  O  O65  1  0.77049258  0.66617193  0.65104537  1
  O  O66  1  0.27049258  0.83382807  0.34895463  1
  O  O67  1  0.22950742  0.33382807  0.15104537  1
  O  O68  1  0.79052886  0.67267426  0.17648367  1
  O  O69  1  0.70947114  0.17267426  0.32351633  1
  O  O70  1  0.20947114  0.32732574  0.67648367  1
  O  O71  1  0.29052886  0.82732574  0.82351633  1
  O  O72  1  0.20947114  0.32732574  0.82351633  1
  O  O73  1  0.29052886  0.82732574  0.67648367  1
  O  O74  1  0.79052886  0.67267426  0.32351633  1
  O  O75  1  0.70947114  0.17267426  0.17648367  1
  O  O76  1  0.21087979  0.54341619  0.75000000  1
  O  O77  1  0.28912021  0.04341619  0.75000000  1
  O  O78  1  0.78912021  0.45658381  0.25000000  1
  O  O79  1  0.71087979  0.95658381  0.25000000  1
