# generated using pymatgen
data_CoH24C2S2(N3O7)2
_symmetry_space_group_name_H-M   'P 1'
_cell_length_a   7.61910281
_cell_length_b   10.75949049
_cell_length_c   11.93124338
_cell_angle_alpha   96.46440094
_cell_angle_beta   90.00000000
_cell_angle_gamma   90.00000000
_symmetry_Int_Tables_number   1
_chemical_formula_structural   CoH24C2S2(N3O7)2
_chemical_formula_sum   'Co2 H48 C4 S4 N12 O28'
_cell_volume   971.87673184
_cell_formula_units_Z   2
loop_
 _symmetry_equiv_pos_site_id
 _symmetry_equiv_pos_as_xyz
  1  'x, y, z'
loop_
 _atom_site_type_symbol
 _atom_site_label
 _atom_site_symmetry_multiplicity
 _atom_site_fract_x
 _atom_site_fract_y
 _atom_site_fract_z
 _atom_site_occupancy
  Co  Co0  1  0.50000000  0.50000000  0.50000000  1
  Co  Co1  1  -0.00000000  0.50000000  -0.00000000  1
  H  H2  1  0.84036550  0.51128662  0.46346628  1
  H  H3  1  0.34036550  0.48871338  0.03653372  1
  H  H4  1  0.15963450  0.48871338  0.53653372  1
  H  H5  1  0.65963450  0.51128662  0.96346628  1
  H  H6  1  0.81571724  0.39232365  0.53414849  1
  H  H7  1  0.31571724  0.60767635  0.96585151  1
  H  H8  1  0.18428276  0.60767635  0.46585151  1
  H  H9  1  0.68428276  0.39232365  0.03414849  1
  H  H10  1  0.49483253  0.48155507  0.26410005  1
  H  H11  1  0.99483253  0.51844493  0.23589995  1
  H  H12  1  0.50516747  0.51844493  0.73589995  1
  H  H13  1  0.00516747  0.48155507  0.76410005  1
  H  H14  1  0.66117037  0.56213753  0.31391602  1
  H  H15  1  0.16117037  0.43786247  0.18608398  1
  H  H16  1  0.33882963  0.43786247  0.68608398  1
  H  H17  1  0.83882963  0.56213753  0.81391602  1
  H  H18  1  0.55054205  0.72039065  0.62964396  1
  H  H19  1  0.05054205  0.27960935  0.87035604  1
  H  H20  1  0.44945795  0.27960935  0.37035604  1
  H  H21  1  0.94945795  0.72039065  0.12964396  1
  H  H22  1  0.63774075  0.72903277  0.50965714  1
  H  H23  1  0.13774075  0.27096723  0.99034286  1
  H  H24  1  0.36225925  0.27096723  0.49034286  1
  H  H25  1  0.86225925  0.72903277  0.00965714  1
  H  H26  1  0.71588233  0.87101476  0.22031930  1
  H  H27  1  0.21588233  0.12898524  0.27968070  1
  H  H28  1  0.28411767  0.12898524  0.77968070  1
  H  H29  1  0.78411767  0.87101476  0.72031930  1
  H  H30  1  0.61172071  0.86248460  0.08993954  1
  H  H31  1  0.11172071  0.13751540  0.41006046  1
  H  H32  1  0.38827929  0.13751540  0.91006046  1
  H  H33  1  0.88827929  0.86248460  0.58993954  1
  H  H34  1  0.32747161  0.84750967  0.37644769  1
  H  H35  1  0.82747161  0.15249033  0.12355231  1
  H  H36  1  0.67252839  0.15249033  0.62355231  1
  H  H37  1  0.17252839  0.84750967  0.87644769  1
  H  H38  1  0.55292103  0.87235445  0.38328192  1
  H  H39  1  0.05292103  0.12764555  0.11671808  1
  H  H40  1  0.44707897  0.12764555  0.61671808  1
  H  H41  1  0.94707897  0.87235445  0.88328192  1
  H  H42  1  0.31286636  0.82877473  0.08051783  1
  H  H43  1  0.81286636  0.17122527  0.41948217  1
  H  H44  1  0.68713364  0.17122527  0.91948217  1
  H  H45  1  0.18713364  0.82877473  0.58051783  1
  H  H46  1  0.18242230  0.84038668  0.20318624  1
  H  H47  1  0.68242230  0.15961332  0.29681376  1
  H  H48  1  0.81757770  0.15961332  0.79681376  1
  H  H49  1  0.31757770  0.84038668  0.70318624  1
  C  C50  1  0.44698735  0.86784311  0.22716835  1
  C  C51  1  0.94698735  0.13215689  0.27283165  1
  C  C52  1  0.55301265  0.13215689  0.77283165  1
  C  C53  1  0.05301265  0.86784311  0.72716835  1
  S  S54  1  0.06328878  0.25612870  0.62914166  1
  S  S55  1  0.56328878  0.74387130  0.87085834  1
  S  S56  1  0.93671122  0.74387130  0.37085834  1
  S  S57  1  0.43671122  0.25612870  0.12914166  1
  N  N58  1  0.60197906  0.87658305  0.17604161  1
  N  N59  1  0.10197906  0.12341695  0.32395839  1
  N  N60  1  0.39802094  0.12341695  0.82395839  1
  N  N61  1  0.89802094  0.87658305  0.67604161  1
  N  N62  1  0.43800224  0.87936374  0.34039705  1
  N  N63  1  0.93800224  0.12063626  0.15960295  1
  N  N64  1  0.56199776  0.12063626  0.65960295  1
  N  N65  1  0.06199776  0.87936374  0.84039705  1
  N  N66  1  0.30033106  0.85376487  0.16526212  1
  N  N67  1  0.80033106  0.14623513  0.33473788  1
  N  N68  1  0.69966894  0.14623513  0.83473788  1
  N  N69  1  0.19966894  0.85376487  0.66526212  1
  O  O70  1  0.77052893  0.47645207  0.52202153  1
  O  O71  1  0.27052893  0.52354793  0.97797847  1
  O  O72  1  0.22947107  0.52354793  0.47797847  1
  O  O73  1  0.72947107  0.47645207  0.02202153  1
  O  O74  1  0.53969170  0.53771014  0.32963592  1
  O  O75  1  0.03969170  0.46228986  0.17036408  1
  O  O76  1  0.46030830  0.46228986  0.67036408  1
  O  O77  1  0.96030830  0.53771014  0.82963592  1
  O  O78  1  0.53681280  0.69331651  0.54778244  1
  O  O79  1  0.03681280  0.30668349  0.95221756  1
  O  O80  1  0.46318720  0.30668349  0.45221756  1
  O  O81  1  0.96318720  0.69331651  0.04778244  1
  O  O82  1  0.89207916  0.24703230  0.56763112  1
  O  O83  1  0.39207916  0.75296770  0.93236888  1
  O  O84  1  0.10792084  0.75296770  0.43236888  1
  O  O85  1  0.60792084  0.24703230  0.06763112  1
  O  O86  1  0.04708500  0.19834109  0.73646557  1
  O  O87  1  0.54708500  0.80165891  0.76353443  1
  O  O88  1  0.95291500  0.80165891  0.26353443  1
  O  O89  1  0.45291500  0.19834109  0.23646557  1
  O  O90  1  0.20329409  0.19002156  0.55781038  1
  O  O91  1  0.70329409  0.80997844  0.94218962  1
  O  O92  1  0.79670591  0.80997844  0.44218962  1
  O  O93  1  0.29670591  0.19002156  0.05781038  1
  O  O94  1  0.11221215  0.39183451  0.65488826  1
  O  O95  1  0.61221215  0.60816549  0.84511174  1
  O  O96  1  0.88778785  0.60816549  0.34511174  1
  O  O97  1  0.38778785  0.39183451  0.15488826  1
