# generated using pymatgen
data_K3Li2Nb5O15
_symmetry_space_group_name_H-M   'P 1'
_cell_length_a   4.03887719
_cell_length_b   12.86791365
_cell_length_c   12.86791365
_cell_angle_alpha   90.00000000
_cell_angle_beta   90.00000000
_cell_angle_gamma   90.00000000
_symmetry_Int_Tables_number   1
_chemical_formula_structural   K3Li2Nb5O15
_chemical_formula_sum   'K6 Li4 Nb10 O30'
_cell_volume   668.77021641
_cell_formula_units_Z   2
loop_
 _symmetry_equiv_pos_site_id
 _symmetry_equiv_pos_as_xyz
  1  'x, y, z'
loop_
 _atom_site_type_symbol
 _atom_site_label
 _atom_site_symmetry_multiplicity
 _atom_site_fract_x
 _atom_site_fract_y
 _atom_site_fract_z
 _atom_site_occupancy
  K  K0  1  0.50000000  0.50000000  0.50000000  1
  K  K1  1  0.50000000  0.00000000  0.00000000  1
  K  K2  1  0.50000000  0.82759900  0.67240100  1
  K  K3  1  0.50000000  0.17240100  0.32759900  1
  K  K4  1  0.50000000  0.67240100  0.17240100  1
  K  K5  1  0.50000000  0.32759900  0.82759900  1
  Li  Li6  1  0.50000000  0.62269102  0.87730898  1
  Li  Li7  1  0.50000000  0.37730898  0.12269102  1
  Li  Li8  1  0.50000000  0.87730898  0.37730898  1
  Li  Li9  1  0.50000000  0.12269102  0.62269102  1
  Nb  Nb10  1  -0.00000000  0.00000000  0.50000000  1
  Nb  Nb11  1  0.00000000  0.50000000  0.00000000  1
  Nb  Nb12  1  -0.00000000  0.57599827  0.70728790  1
  Nb  Nb13  1  0.00000000  0.42400173  0.29271210  1
  Nb  Nb14  1  -0.00000000  0.92400173  0.20728790  1
  Nb  Nb15  1  0.00000000  0.07599827  0.79271210  1
  Nb  Nb16  1  0.00000000  0.70728790  0.42400173  1
  Nb  Nb17  1  -0.00000000  0.29271210  0.57599827  1
  Nb  Nb18  1  -0.00000000  0.20728790  0.07599827  1
  Nb  Nb19  1  0.00000000  0.79271210  0.92400173  1
  O  O20  1  -0.00000000  0.84564819  0.49729853  1
  O  O21  1  0.00000000  0.15435181  0.50270147  1
  O  O22  1  -0.00000000  0.65435181  0.99729853  1
  O  O23  1  0.00000000  0.34564819  0.00270147  1
  O  O24  1  0.00000000  0.49729853  0.15435181  1
  O  O25  1  -0.00000000  0.50270147  0.84564819  1
  O  O26  1  -0.00000000  0.99729853  0.34564819  1
  O  O27  1  0.00000000  0.00270147  0.65435181  1
  O  O28  1  0.50000000  0.00000000  0.50000000  1
  O  O29  1  0.50000000  0.50000000  0.00000000  1
  O  O30  1  0.00000000  0.70992958  0.79007042  1
  O  O31  1  -0.00000000  0.29007042  0.20992958  1
  O  O32  1  0.00000000  0.79007042  0.29007042  1
  O  O33  1  -0.00000000  0.20992958  0.70992958  1
  O  O34  1  0.00000000  0.64105094  0.56840811  1
  O  O35  1  -0.00000000  0.35894906  0.43159189  1
  O  O36  1  0.00000000  0.85894906  0.06840811  1
  O  O37  1  -0.00000000  0.14105094  0.93159189  1
  O  O38  1  0.00000000  0.56840811  0.35894906  1
  O  O39  1  -0.00000000  0.43159189  0.64105094  1
  O  O40  1  -0.00000000  0.06840811  0.14105094  1
  O  O41  1  0.00000000  0.93159189  0.85894906  1
  O  O42  1  0.50000000  0.57911758  0.71554757  1
  O  O43  1  0.50000000  0.42088242  0.28445243  1
  O  O44  1  0.50000000  0.92088242  0.21554757  1
  O  O45  1  0.50000000  0.07911758  0.78445243  1
  O  O46  1  0.50000000  0.71554757  0.42088242  1
  O  O47  1  0.50000000  0.28445243  0.57911758  1
  O  O48  1  0.50000000  0.21554757  0.07911758  1
  O  O49  1  0.50000000  0.78445243  0.92088242  1
