# generated using pymatgen
data_YbHSO5
_symmetry_space_group_name_H-M   'P 1'
_cell_length_a   8.07154579
_cell_length_b   8.28930365
_cell_length_c   11.25710883
_cell_angle_alpha   90.00000000
_cell_angle_beta   90.00000000
_cell_angle_gamma   93.34739794
_symmetry_Int_Tables_number   1
_chemical_formula_structural   YbHSO5
_chemical_formula_sum   'Yb8 H8 S8 O40'
_cell_volume   751.89989839
_cell_formula_units_Z   8
loop_
 _symmetry_equiv_pos_site_id
 _symmetry_equiv_pos_as_xyz
  1  'x, y, z'
loop_
 _atom_site_type_symbol
 _atom_site_label
 _atom_site_symmetry_multiplicity
 _atom_site_fract_x
 _atom_site_fract_y
 _atom_site_fract_z
 _atom_site_occupancy
  Yb  Yb0  1  0.84330677  0.62887994  0.06146632  1
  Yb  Yb1  1  0.34330677  0.12887994  0.43853368  1
  Yb  Yb2  1  0.15669323  0.37112006  0.93853368  1
  Yb  Yb3  1  0.65669323  0.87112006  0.56146632  1
  Yb  Yb4  1  0.81647507  0.08646051  0.07266923  1
  Yb  Yb5  1  0.31647507  0.58646051  0.42733077  1
  Yb  Yb6  1  0.18352493  0.91353949  0.92733077  1
  Yb  Yb7  1  0.68352493  0.41353949  0.57266923  1
  H  H8  1  0.84101861  0.86812815  0.87688217  1
  H  H9  1  0.34101861  0.36812815  0.62311783  1
  H  H10  1  0.15898139  0.13187185  0.12311783  1
  H  H11  1  0.65898139  0.63187185  0.37688217  1
  H  H12  1  0.18819431  0.64681198  0.09100771  1
  H  H13  1  0.68819431  0.14681198  0.40899229  1
  H  H14  1  0.81180569  0.35318802  0.90899229  1
  H  H15  1  0.31180569  0.85318802  0.59100771  1
  S  S16  1  0.95746409  0.36704358  0.30676068  1
  S  S17  1  0.45746409  0.86704358  0.19323932  1
  S  S18  1  0.04253591  0.63295642  0.69323932  1
  S  S19  1  0.54253591  0.13295642  0.80676068  1
  S  S20  1  0.49975816  0.36590508  0.17193623  1
  S  S21  1  -0.00024184  0.86590508  0.32806377  1
  S  S22  1  0.50024184  0.63409492  0.82806377  1
  S  S23  1  0.00024184  0.13409492  0.67193623  1
  O  O24  1  0.35678218  0.39815286  0.09392751  1
  O  O25  1  0.85678218  0.89815286  0.40607249  1
  O  O26  1  0.64321782  0.60184714  0.90607249  1
  O  O27  1  0.14321782  0.10184714  0.59392751  1
  O  O28  1  0.57309456  0.21911172  0.12606030  1
  O  O29  1  0.07309456  0.71911172  0.37393970  1
  O  O30  1  0.42690544  0.78088828  0.87393970  1
  O  O31  1  0.92690544  0.28088828  0.62606030  1
  O  O32  1  0.62532548  0.50251587  0.16883192  1
  O  O33  1  0.12532548  0.00251587  0.33116808  1
  O  O34  1  0.37467452  0.49748413  0.83116808  1
  O  O35  1  0.87467452  0.99748413  0.66883192  1
  O  O36  1  0.43762265  0.34111037  0.29630531  1
  O  O37  1  0.93762265  0.84111037  0.20369469  1
  O  O38  1  0.56237735  0.65888963  0.70369469  1
  O  O39  1  0.06237735  0.15888963  0.79630531  1
  O  O40  1  0.83754862  0.42596826  0.39542055  1
  O  O41  1  0.33754862  0.92596826  0.10457945  1
  O  O42  1  0.16245138  0.57403174  0.60457945  1
  O  O43  1  0.66245138  0.07403174  0.89542055  1
  O  O44  1  0.11751390  0.35299737  0.37091862  1
  O  O45  1  0.61751390  0.85299737  0.12908138  1
  O  O46  1  0.88248610  0.64700263  0.62908138  1
  O  O47  1  0.38248610  0.14700263  0.87091862  1
  O  O48  1  0.98258324  0.48206569  0.20766342  1
  O  O49  1  0.48258324  0.98206569  0.29233658  1
  O  O50  1  0.01741676  0.51793431  0.79233658  1
  O  O51  1  0.51741676  0.01793431  0.70766342  1
  O  O52  1  0.88858598  0.20881230  0.26204555  1
  O  O53  1  0.38858598  0.70881230  0.23795445  1
  O  O54  1  0.11141402  0.79118770  0.73795445  1
  O  O55  1  0.61141402  0.29118770  0.76204555  1
  O  O56  1  0.89838196  0.86746407  0.95361607  1
  O  O57  1  0.39838196  0.36746407  0.54638393  1
  O  O58  1  0.10161804  0.13253593  0.04638393  1
  O  O59  1  0.60161804  0.63253593  0.45361607  1
  O  O60  1  0.12973813  0.64586745  0.01445461  1
  O  O61  1  0.62973813  0.14586745  0.48554539  1
  O  O62  1  0.87026187  0.35413255  0.98554539  1
  O  O63  1  0.37026187  0.85413255  0.51445461  1
