# generated using pymatgen
data_Ce5Ge3
_symmetry_space_group_name_H-M   'P 1'
_cell_length_a   6.25630890
_cell_length_b   11.49608066
_cell_length_c   11.49608066
_cell_angle_alpha   90.00000000
_cell_angle_beta   90.00000000
_cell_angle_gamma   90.00000000
_symmetry_Int_Tables_number   1
_chemical_formula_structural   Ce5Ge3
_chemical_formula_sum   'Ce20 Ge12'
_cell_volume   826.83297429
_cell_formula_units_Z   4
loop_
 _symmetry_equiv_pos_site_id
 _symmetry_equiv_pos_as_xyz
  1  'x, y, z'
loop_
 _atom_site_type_symbol
 _atom_site_label
 _atom_site_symmetry_multiplicity
 _atom_site_fract_x
 _atom_site_fract_y
 _atom_site_fract_z
 _atom_site_occupancy
  Ce  Ce0  1  0.16846808  0.66382413  0.53283223  1
  Ce  Ce1  1  0.66846808  0.83617587  0.53283223  1
  Ce  Ce2  1  0.66846808  0.66382413  0.96716777  1
  Ce  Ce3  1  0.16846808  0.83617587  0.96716777  1
  Ce  Ce4  1  0.66846808  0.53283223  0.66382413  1
  Ce  Ce5  1  0.16846808  0.96716777  0.66382413  1
  Ce  Ce6  1  0.16846808  0.53283223  0.83617587  1
  Ce  Ce7  1  0.66846808  0.96716777  0.83617587  1
  Ce  Ce8  1  0.83153192  0.33617587  0.46716777  1
  Ce  Ce9  1  0.33153192  0.16382413  0.46716777  1
  Ce  Ce10  1  0.33153192  0.33617587  0.03283223  1
  Ce  Ce11  1  0.83153192  0.16382413  0.03283223  1
  Ce  Ce12  1  0.33153192  0.46716777  0.33617587  1
  Ce  Ce13  1  0.83153192  0.03283223  0.33617587  1
  Ce  Ce14  1  0.83153192  0.46716777  0.16382413  1
  Ce  Ce15  1  0.33153192  0.03283223  0.16382413  1
  Ce  Ce16  1  0.50000000  0.75000000  0.25000000  1
  Ce  Ce17  1  -0.00000000  0.75000000  0.25000000  1
  Ce  Ce18  1  -0.00000000  0.25000000  0.75000000  1
  Ce  Ce19  1  0.50000000  0.25000000  0.75000000  1
  Ge  Ge20  1  0.25000000  0.08937573  0.91062427  1
  Ge  Ge21  1  0.75000000  0.41062427  0.91062427  1
  Ge  Ge22  1  0.75000000  0.08937573  0.58937573  1
  Ge  Ge23  1  0.25000000  0.41062427  0.58937573  1
  Ge  Ge24  1  0.75000000  0.91062427  0.08937573  1
  Ge  Ge25  1  0.25000000  0.58937573  0.08937573  1
  Ge  Ge26  1  0.25000000  0.91062427  0.41062427  1
  Ge  Ge27  1  0.75000000  0.58937573  0.41062427  1
  Ge  Ge28  1  0.41716321  0.75000000  0.75000000  1
  Ge  Ge29  1  0.91716321  0.75000000  0.75000000  1
  Ge  Ge30  1  0.58283679  0.25000000  0.25000000  1
  Ge  Ge31  1  0.08283679  0.25000000  0.25000000  1
