# generated using pymatgen
data_GaH6C2SeI3
_symmetry_space_group_name_H-M   'P 1'
_cell_length_a   8.20520860
_cell_length_b   12.25569161
_cell_length_c   13.60779294
_cell_angle_alpha   90.00000000
_cell_angle_beta   90.00000000
_cell_angle_gamma   101.44193958
_symmetry_Int_Tables_number   1
_chemical_formula_structural   GaH6C2SeI3
_chemical_formula_sum   'Ga4 H24 C8 Se4 I12'
_cell_volume   1341.21115014
_cell_formula_units_Z   4
loop_
 _symmetry_equiv_pos_site_id
 _symmetry_equiv_pos_as_xyz
  1  'x, y, z'
loop_
 _atom_site_type_symbol
 _atom_site_label
 _atom_site_symmetry_multiplicity
 _atom_site_fract_x
 _atom_site_fract_y
 _atom_site_fract_z
 _atom_site_occupancy
  Ga  Ga0  1  0.86570948  0.64256085  0.29863195  1
  Ga  Ga1  1  0.36570948  0.14256085  0.20136805  1
  Ga  Ga2  1  0.13429052  0.35743915  0.70136805  1
  Ga  Ga3  1  0.63429052  0.85743915  0.79863195  1
  H  H4  1  0.39962149  0.65871087  0.35314663  1
  H  H5  1  0.89962149  0.15871087  0.14685337  1
  H  H6  1  0.60037851  0.34128913  0.64685337  1
  H  H7  1  0.10037851  0.84128913  0.85314663  1
  H  H8  1  0.43189413  0.80027168  0.31065790  1
  H  H9  1  0.93189413  0.30027168  0.18934210  1
  H  H10  1  0.56810587  0.19972832  0.68934210  1
  H  H11  1  0.06810587  0.69972832  0.81065790  1
  H  H12  1  0.57948376  0.75924435  0.39449756  1
  H  H13  1  0.07948376  0.25924435  0.10550244  1
  H  H14  1  0.42051624  0.24075565  0.60550244  1
  H  H15  1  0.92051624  0.74075565  0.89449756  1
  H  H16  1  0.82875403  0.83429287  0.13420071  1
  H  H17  1  0.32875403  0.33429287  0.36579929  1
  H  H18  1  0.17124597  0.16570713  0.86579929  1
  H  H19  1  0.67124597  0.66570713  0.63420071  1
  H  H20  1  0.62293153  0.85822581  0.10963223  1
  H  H21  1  0.12293153  0.35822581  0.39036777  1
  H  H22  1  0.37706847  0.14177419  0.89036777  1
  H  H23  1  0.87706847  0.64177419  0.60963223  1
  H  H24  1  0.72327792  0.90037919  0.22637510  1
  H  H25  1  0.22327792  0.40037919  0.27362490  1
  H  H26  1  0.27672208  0.09962081  0.77362490  1
  H  H27  1  0.77672208  0.59962081  0.72637510  1
  C  C28  1  0.49257056  0.73287714  0.33386064  1
  C  C29  1  0.99257056  0.23287714  0.16613936  1
  C  C30  1  0.50742944  0.26712286  0.66613936  1
  C  C31  1  0.00742944  0.76712286  0.83386064  1
  C  C32  1  0.70793780  0.83971972  0.16635011  1
  C  C33  1  0.20793780  0.33971972  0.33364989  1
  C  C34  1  0.29206220  0.16028028  0.83364989  1
  C  C35  1  0.79206220  0.66028028  0.66635011  1
  Se  Se36  1  0.61045904  0.69082795  0.21816214  1
  Se  Se37  1  0.11045904  0.19082795  0.28183786  1
  Se  Se38  1  0.38954096  0.30917205  0.78183786  1
  Se  Se39  1  0.88954096  0.80917205  0.71816214  1
  I  I40  1  0.75329240  0.46854045  0.40020208  1
  I  I41  1  0.25329240  0.96854045  0.09979792  1
  I  I42  1  0.24670760  0.53145955  0.59979792  1
  I  I43  1  0.74670760  0.03145955  0.90020208  1
  I  I44  1  0.00465222  0.81162347  0.39966477  1
  I  I45  1  0.50465222  0.31162347  0.10033523  1
  I  I46  1  0.99534778  0.18837653  0.60033523  1
  I  I47  1  0.49534778  0.68837653  0.89966477  1
  I  I48  1  0.03997484  0.60147036  0.15201626  1
  I  I49  1  0.53997484  0.10147036  0.34798374  1
  I  I50  1  0.96002516  0.39852964  0.84798374  1
  I  I51  1  0.46002516  0.89852964  0.65201626  1
