# generated using pymatgen
data_LiCd4(GeO3)5
_symmetry_space_group_name_H-M   'P 1'
_cell_length_a   7.19556377
_cell_length_b   8.03437169
_cell_length_c   12.43557867
_cell_angle_alpha   106.35453346
_cell_angle_beta   92.94950967
_cell_angle_gamma   94.94446034
_symmetry_Int_Tables_number   1
_chemical_formula_structural   LiCd4(GeO3)5
_chemical_formula_sum   'Li2 Cd8 Ge10 O30'
_cell_volume   685.10764140
_cell_formula_units_Z   2
loop_
 _symmetry_equiv_pos_site_id
 _symmetry_equiv_pos_as_xyz
  1  'x, y, z'
loop_
 _atom_site_type_symbol
 _atom_site_label
 _atom_site_symmetry_multiplicity
 _atom_site_fract_x
 _atom_site_fract_y
 _atom_site_fract_z
 _atom_site_occupancy
  Li  Li0  1  0.34111533  0.16338279  0.61263533  1
  Li  Li1  1  0.65888467  0.83661721  0.38736467  1
  Cd  Cd2  1  0.05795018  0.09740241  0.15077553  1
  Cd  Cd3  1  0.94204982  0.90259759  0.84922447  1
  Cd  Cd4  1  0.13376170  0.31845746  0.44372281  1
  Cd  Cd5  1  0.86623830  0.68154254  0.55627719  1
  Cd  Cd6  1  0.18389190  0.53461916  0.73394212  1
  Cd  Cd7  1  0.81610810  0.46538084  0.26605788  1
  Cd  Cd8  1  0.27414617  0.74341430  0.01824134  1
  Cd  Cd9  1  0.72585383  0.25658570  0.98175866  1
  Ge  Ge10  1  0.42846138  0.97285685  0.82573805  1
  Ge  Ge11  1  0.57153862  0.02714315  0.17426195  1
  Ge  Ge12  1  0.35530828  0.77503617  0.55424995  1
  Ge  Ge13  1  0.64469172  0.22496383  0.44575005  1
  Ge  Ge14  1  0.30232802  0.51429809  0.22998643  1
  Ge  Ge15  1  0.69767198  0.48570191  0.77001357  1
  Ge  Ge16  1  0.22083662  0.31836587  0.95892623  1
  Ge  Ge17  1  0.77916338  0.68163413  0.04107377  1
  Ge  Ge18  1  0.10930429  0.85681745  0.35318485  1
  Ge  Ge19  1  0.89069571  0.14318255  0.64681515  1
  O  O20  1  0.42288085  0.95373765  0.67808018  1
  O  O21  1  0.57711915  0.04626235  0.32191982  1
  O  O22  1  0.03484121  0.17521482  0.97651236  1
  O  O23  1  0.96515879  0.82478518  0.02348764  1
  O  O24  1  0.12503575  0.38289045  0.26906135  1
  O  O25  1  0.87496425  0.61710955  0.73093865  1
  O  O26  1  0.27114858  0.91366640  0.47577642  1
  O  O27  1  0.72885142  0.08633360  0.52422358  1
  O  O28  1  0.18020977  0.61497459  0.56338169  1
  O  O29  1  0.81979023  0.38502541  0.43661831  1
  O  O30  1  0.25292916  0.82227817  0.84717480  1
  O  O31  1  0.74707084  0.17772183  0.15282520  1
  O  O32  1  0.35788900  0.43499460  0.08777807  1
  O  O33  1  0.64211100  0.56500540  0.91222193  1
  O  O34  1  0.60600096  0.79835995  0.12116441  1
  O  O35  1  0.39399904  0.20164005  0.87883559  1
  O  O36  1  0.06299673  0.04727391  0.32213910  1
  O  O37  1  0.93700327  0.95272609  0.67786090  1
  O  O38  1  0.22590988  0.72443563  0.23841349  1
  O  O39  1  0.77409012  0.27556437  0.76158651  1
  O  O40  1  0.43539711  0.29357271  0.50475133  1
  O  O41  1  0.56460289  0.70642729  0.49524867  1
  O  O42  1  0.09341044  0.26008221  0.62005579  1
  O  O43  1  0.90658956  0.73991779  0.37994421  1
  O  O44  1  0.35200635  0.02641478  0.10873078  1
  O  O45  1  0.64799365  0.97358522  0.89126922  1
  O  O46  1  0.16107346  0.48648058  0.90435320  1
  O  O47  1  0.83892654  0.51351942  0.09564680  1
  O  O48  1  0.51938677  0.53247945  0.30826949  1
  O  O49  1  0.48061323  0.46752055  0.69173051  1
