# generated using pymatgen
data_Cu3SO8
_symmetry_space_group_name_H-M   'P 1'
_cell_length_a   5.89218847
_cell_length_b   7.92779908
_cell_length_c   12.84099779
_cell_angle_alpha   90.00000000
_cell_angle_beta   90.00000000
_cell_angle_gamma   90.00000000
_symmetry_Int_Tables_number   1
_chemical_formula_structural   Cu3SO8
_chemical_formula_sum   'Cu12 S4 O32'
_cell_volume   599.82979735
_cell_formula_units_Z   4
loop_
 _symmetry_equiv_pos_site_id
 _symmetry_equiv_pos_as_xyz
  1  'x, y, z'
loop_
 _atom_site_type_symbol
 _atom_site_label
 _atom_site_symmetry_multiplicity
 _atom_site_fract_x
 _atom_site_fract_y
 _atom_site_fract_z
 _atom_site_occupancy
  Cu  Cu0  1  0.75000000  0.49903453  0.50172944  1
  Cu  Cu1  1  0.75000000  0.99903453  0.99827056  1
  Cu  Cu2  1  0.25000000  0.50096547  0.49827056  1
  Cu  Cu3  1  0.25000000  0.00096547  0.00172944  1
  Cu  Cu4  1  0.99659795  0.21552718  0.62020044  1
  Cu  Cu5  1  0.50340205  0.71552718  0.87979956  1
  Cu  Cu6  1  0.49659795  0.78447282  0.37979956  1
  Cu  Cu7  1  0.00340205  0.28447282  0.12020044  1
  Cu  Cu8  1  0.00340205  0.78447282  0.37979956  1
  Cu  Cu9  1  0.49659795  0.28447282  0.12020044  1
  Cu  Cu10  1  0.50340205  0.21552718  0.62020044  1
  Cu  Cu11  1  0.99659795  0.71552718  0.87979956  1
  S  S12  1  0.75000000  0.37984405  0.86069426  1
  S  S13  1  0.75000000  0.87984405  0.63930574  1
  S  S14  1  0.25000000  0.62015595  0.13930574  1
  S  S15  1  0.25000000  0.12015595  0.36069426  1
  O  O16  1  0.75000000  0.24855092  0.78142742  1
  O  O17  1  0.75000000  0.74855092  0.71857258  1
  O  O18  1  0.25000000  0.75144908  0.21857258  1
  O  O19  1  0.25000000  0.25144908  0.28142742  1
  O  O20  1  0.75000000  0.30679743  0.96658418  1
  O  O21  1  0.75000000  0.80679743  0.53341582  1
  O  O22  1  0.25000000  0.69320257  0.03341582  1
  O  O23  1  0.25000000  0.19320257  0.46658418  1
  O  O24  1  0.96288677  0.48463249  0.84407423  1
  O  O25  1  0.53711323  0.98463249  0.65592577  1
  O  O26  1  0.46288677  0.51536751  0.15592577  1
  O  O27  1  0.03711323  0.01536751  0.34407423  1
  O  O28  1  0.03711323  0.51536751  0.15592577  1
  O  O29  1  0.46288677  0.01536751  0.34407423  1
  O  O30  1  0.53711323  0.48463249  0.84407423  1
  O  O31  1  0.96288677  0.98463249  0.65592577  1
  O  O32  1  0.75000000  0.21150344  0.53819784  1
  O  O33  1  0.75000000  0.71150344  0.96180216  1
  O  O34  1  0.25000000  0.78849656  0.46180216  1
  O  O35  1  0.25000000  0.28849656  0.03819784  1
  O  O36  1  0.75000000  0.77021292  0.30210304  1
  O  O37  1  0.75000000  0.27021292  0.19789696  1
  O  O38  1  0.25000000  0.22978708  0.69789696  1
  O  O39  1  0.25000000  0.72978708  0.80210304  1
  O  O40  1  0.49176614  0.44670259  0.58795918  1
  O  O41  1  0.00823386  0.94670259  0.91204082  1
  O  O42  1  0.99176614  0.55329741  0.41204082  1
  O  O43  1  0.50823386  0.05329741  0.08795918  1
  O  O44  1  0.50823386  0.55329741  0.41204082  1
  O  O45  1  0.99176614  0.05329741  0.08795918  1
  O  O46  1  0.00823386  0.44670259  0.58795918  1
  O  O47  1  0.49176614  0.94670259  0.91204082  1
