# generated using pymatgen
data_Li2B2H9N
_symmetry_space_group_name_H-M   'P 1'
_cell_length_a   7.54817145
_cell_length_b   9.18647802
_cell_length_c   13.89989631
_cell_angle_alpha   90.00000000
_cell_angle_beta   90.00000000
_cell_angle_gamma   90.00000000
_symmetry_Int_Tables_number   1
_chemical_formula_structural   Li2B2H9N
_chemical_formula_sum   'Li16 B16 H72 N8'
_cell_volume   963.83425454
_cell_formula_units_Z   8
loop_
 _symmetry_equiv_pos_site_id
 _symmetry_equiv_pos_as_xyz
  1  'x, y, z'
loop_
 _atom_site_type_symbol
 _atom_site_label
 _atom_site_symmetry_multiplicity
 _atom_site_fract_x
 _atom_site_fract_y
 _atom_site_fract_z
 _atom_site_occupancy
  Li  Li0  1  0.12968481  0.20457666  0.71923862  1
  Li  Li1  1  0.87031519  0.70457666  0.78076138  1
  Li  Li2  1  0.37031519  0.79542334  0.21923862  1
  Li  Li3  1  0.62968481  0.29542334  0.28076138  1
  Li  Li4  1  0.87031519  0.79542334  0.28076138  1
  Li  Li5  1  0.12968481  0.29542334  0.21923862  1
  Li  Li6  1  0.62968481  0.20457666  0.78076138  1
  Li  Li7  1  0.37031519  0.70457666  0.71923862  1
  Li  Li8  1  0.09804645  0.85745574  0.55004297  1
  Li  Li9  1  0.90195355  0.35745574  0.94995703  1
  Li  Li10  1  0.40195355  0.14254426  0.05004297  1
  Li  Li11  1  0.59804645  0.64254426  0.44995703  1
  Li  Li12  1  0.90195355  0.14254426  0.44995703  1
  Li  Li13  1  0.09804645  0.64254426  0.05004297  1
  Li  Li14  1  0.59804645  0.85745574  0.94995703  1
  Li  Li15  1  0.40195355  0.35745574  0.55004297  1
  B  B16  1  0.11460915  0.87244434  0.72685806  1
  B  B17  1  0.88539085  0.37244434  0.77314194  1
  B  B18  1  0.38539085  0.12755566  0.22685806  1
  B  B19  1  0.61460915  0.62755566  0.27314194  1
  B  B20  1  0.88539085  0.12755566  0.27314194  1
  B  B21  1  0.11460915  0.62755566  0.22685806  1
  B  B22  1  0.61460915  0.87244434  0.77314194  1
  B  B23  1  0.38539085  0.37244434  0.72685806  1
  B  B24  1  0.31644410  0.66537851  0.52425690  1
  B  B25  1  0.68355590  0.16537851  0.97574310  1
  B  B26  1  0.18355590  0.33462149  0.02425690  1
  B  B27  1  0.81644410  0.83462149  0.47574310  1
  B  B28  1  0.68355590  0.33462149  0.47574310  1
  B  B29  1  0.31644410  0.83462149  0.02425690  1
  B  B30  1  0.81644410  0.66537851  0.97574310  1
  B  B31  1  0.18355590  0.16537851  0.52425690  1
  H  H32  1  0.22132031  0.00950526  0.83365215  1
  H  H33  1  0.77867969  0.50950526  0.66634785  1
  H  H34  1  0.27867969  0.99049474  0.33365215  1
  H  H35  1  0.72132031  0.49049474  0.16634785  1
  H  H36  1  0.77867969  0.99049474  0.16634785  1
  H  H37  1  0.22132031  0.49049474  0.33365215  1
  H  H38  1  0.72132031  0.00950526  0.66634785  1
  H  H39  1  0.27867969  0.50950526  0.83365215  1
  H  H40  1  0.00749684  0.01537511  0.83270369  1
  H  H41  1  0.99250316  0.51537511  0.66729631  1
  H  H42  1  0.49250316  0.98462489  0.33270369  1
  H  H43  1  0.50749684  0.48462489  0.16729631  1
  H  H44  1  0.99250316  0.98462489  0.16729631  1
  H  H45  1  0.00749684  0.48462489  0.33270369  1
  H  H46  1  0.50749684  0.01537511  0.66729631  1
  H  H47  1  0.49250316  0.51537511  0.83270369  1
  H  H48  1  0.12612677  0.75663125  0.77368896  1
  H  H49  1  0.87387323  0.25663125  0.72631104  1
  H  H50  1  0.37387323  0.24336875  0.27368896  1
  H  H51  1  0.62612677  0.74336875  0.22631104  1
  H  H52  1  0.87387323  0.24336875  0.22631104  1
  H  H53  1  0.12612677  0.74336875  0.27368896  1
  H  H54  1  0.62612677  0.75663125  0.72631104  1
  H  H55  1  0.37387323  0.25663125  0.77368896  1
  H  H56  1  0.97873085  0.86327737  0.67753780  1
  H  H57  1  0.02126915  0.36327737  0.82246220  1
  H  H58  1  0.52126915  0.13672263  0.17753780  1
  H  H59  1  0.47873085  0.63672263  0.32246220  1
  H  H60  1  0.02126915  0.13672263  0.32246220  1
  H  H61  1  0.97873085  0.63672263  0.17753780  1
  H  H62  1  0.47873085  0.86327737  0.82246220  1
  H  H63  1  0.52126915  0.36327737  0.67753780  1
  H  H64  1  0.24230317  0.87478015  0.67050312  1
  H  H65  1  0.75769683  0.37478015  0.82949688  1
  H  H66  1  0.25769683  0.12521985  0.17050312  1
  H  H67  1  0.74230317  0.62521985  0.32949688  1
  H  H68  1  0.75769683  0.12521985  0.32949688  1
  H  H69  1  0.24230317  0.62521985  0.17050312  1
  H  H70  1  0.74230317  0.87478015  0.82949688  1
  H  H71  1  0.25769683  0.37478015  0.67050312  1
  H  H72  1  0.33793386  0.55623733  0.47407232  1
  H  H73  1  0.66206614  0.05623733  0.02592768  1
  H  H74  1  0.16206614  0.44376267  0.97407232  1
  H  H75  1  0.83793386  0.94376267  0.52592768  1
  H  H76  1  0.66206614  0.44376267  0.52592768  1
  H  H77  1  0.33793386  0.94376267  0.97407232  1
  H  H78  1  0.83793386  0.55623733  0.02592768  1
  H  H79  1  0.16206614  0.05623733  0.47407232  1
  H  H80  1  0.29897644  0.76993285  0.46991530  1
  H  H81  1  0.70102356  0.26993285  0.03008470  1
  H  H82  1  0.20102356  0.23006715  0.96991530  1
  H  H83  1  0.79897644  0.73006715  0.53008470  1
  H  H84  1  0.70102356  0.23006715  0.53008470  1
  H  H85  1  0.29897644  0.73006715  0.96991530  1
  H  H86  1  0.79897644  0.76993285  0.03008470  1
  H  H87  1  0.20102356  0.26993285  0.46991530  1
  H  H88  1  0.44751966  0.68703242  0.57496541  1
  H  H89  1  0.55248034  0.18703242  0.92503459  1
  H  H90  1  0.05248034  0.31296758  0.07496541  1
  H  H91  1  0.94751966  0.81296758  0.42503459  1
  H  H92  1  0.55248034  0.31296758  0.42503459  1
  H  H93  1  0.44751966  0.81296758  0.07496541  1
  H  H94  1  0.94751966  0.68703242  0.92503459  1
  H  H95  1  0.05248034  0.18703242  0.57496541  1
  H  H96  1  0.18529371  0.64607768  0.57395477  1
  H  H97  1  0.81470629  0.14607768  0.92604523  1
  H  H98  1  0.31470629  0.35392232  0.07395477  1
  H  H99  1  0.68529371  0.85392232  0.42604523  1
  H  H100  1  0.81470629  0.35392232  0.42604523  1
  H  H101  1  0.18529371  0.85392232  0.07395477  1
  H  H102  1  0.68529371  0.64607768  0.92604523  1
  H  H103  1  0.31470629  0.14607768  0.57395477  1
  N  N104  1  0.11559488  0.01193806  0.78793937  1
  N  N105  1  0.88440512  0.51193806  0.71206063  1
  N  N106  1  0.38440512  0.98806194  0.28793937  1
  N  N107  1  0.61559488  0.48806194  0.21206063  1
  N  N108  1  0.88440512  0.98806194  0.21206063  1
  N  N109  1  0.11559488  0.48806194  0.28793937  1
  N  N110  1  0.61559488  0.01193806  0.71206063  1
  N  N111  1  0.38440512  0.51193806  0.78793937  1
