# generated using pymatgen
data_NaZn(BH4)3
_symmetry_space_group_name_H-M   'P 1'
_cell_length_a   8.33878438
_cell_length_b   11.57202184
_cell_length_c   16.01019194
_cell_angle_alpha   90.00000000
_cell_angle_beta   90.00000000
_cell_angle_gamma   110.57519127
_symmetry_Int_Tables_number   1
_chemical_formula_structural   NaZn(BH4)3
_chemical_formula_sum   'Na8 Zn8 B24 H96'
_cell_volume   1446.38075570
_cell_formula_units_Z   8
loop_
 _symmetry_equiv_pos_site_id
 _symmetry_equiv_pos_as_xyz
  1  'x, y, z'
loop_
 _atom_site_type_symbol
 _atom_site_label
 _atom_site_symmetry_multiplicity
 _atom_site_fract_x
 _atom_site_fract_y
 _atom_site_fract_z
 _atom_site_occupancy
  Na  Na0  1  0.14822337  0.93659479  0.12756154  1
  Na  Na1  1  0.35177663  0.06340521  0.62756154  1
  Na  Na2  1  0.85177663  0.06340521  0.87243846  1
  Na  Na3  1  0.64822337  0.93659479  0.37243846  1
  Na  Na4  1  0.94529288  0.31634495  0.48515042  1
  Na  Na5  1  0.55470712  0.68365505  0.98515042  1
  Na  Na6  1  0.05470712  0.68365505  0.51484958  1
  Na  Na7  1  0.44529288  0.31634495  0.01484958  1
  Zn  Zn8  1  0.37407815  0.19680806  0.38377026  1
  Zn  Zn9  1  0.12592185  0.80319194  0.88377026  1
  Zn  Zn10  1  0.62592185  0.80319194  0.61622974  1
  Zn  Zn11  1  0.87407815  0.19680806  0.11622974  1
  Zn  Zn12  1  0.51929912  0.59124830  0.25171563  1
  Zn  Zn13  1  0.98070088  0.40875170  0.75171563  1
  Zn  Zn14  1  0.48070088  0.40875170  0.74828437  1
  Zn  Zn15  1  0.01929912  0.59124830  0.24828437  1
  B  B16  1  0.48233197  0.50817649  0.12325296  1
  B  B17  1  0.01766803  0.49182351  0.62325296  1
  B  B18  1  0.51766803  0.49182351  0.87674704  1
  B  B19  1  0.98233197  0.50817649  0.37674704  1
  B  B20  1  0.37849503  0.75267494  0.26479916  1
  B  B21  1  0.12150497  0.24732506  0.76479916  1
  B  B22  1  0.62150497  0.24732506  0.73520084  1
  B  B23  1  0.87849503  0.75267494  0.23520084  1
  B  B24  1  0.61796982  0.16081551  0.44539265  1
  B  B25  1  0.88203018  0.83918449  0.94539265  1
  B  B26  1  0.38203018  0.83918449  0.55460735  1
  B  B27  1  0.11796982  0.16081551  0.05460735  1
  B  B28  1  0.19902620  0.19535132  0.49423885  1
  B  B29  1  0.30097380  0.80464868  0.99423885  1
  B  B30  1  0.80097380  0.80464868  0.50576115  1
  B  B31  1  0.69902620  0.19535132  0.00576115  1
  B  B32  1  0.45187214  0.47041770  0.36258428  1
  B  B33  1  0.04812786  0.52958230  0.86258428  1
  B  B34  1  0.54812786  0.52958230  0.63741572  1
  B  B35  1  0.95187214  0.47041770  0.13741572  1
  B  B36  1  0.26632459  0.08664053  0.27087519  1
  B  B37  1  0.23367541  0.91335947  0.77087519  1
  B  B38  1  0.73367541  0.91335947  0.72912481  1
  B  B39  1  0.76632459  0.08664053  0.22912481  1
  H  H40  1  0.34332435  0.43704962  0.10145030  1
  H  H41  1  0.15667565  0.56295038  0.60145030  1
  H  H42  1  0.65667565  0.56295038  0.89854970  1
  H  H43  1  0.84332435  0.43704962  0.39854970  1
  H  H44  1  0.45817297  0.60598950  0.14029883  1
  H  H45  1  0.04182703  0.39401050  0.64029883  1
  H  H46  1  0.54182703  0.39401050  0.85970117  1
  H  H47  1  0.95817297  0.60598950  0.35970117  1
  H  H48  1  0.59772416  0.53324217  0.07233701  1
  H  H49  1  0.90227584  0.46675783  0.57233701  1
  H  H50  1  0.40227584  0.46675783  0.92766299  1
  H  H51  1  0.09772416  0.53324217  0.42766299  1
  H  H52  1  0.53212156  0.45975860  0.18223103  1
  H  H53  1  0.96787844  0.54024140  0.68223103  1
  H  H54  1  0.46787844  0.54024140  0.81776897  1
  H  H55  1  0.03212156  0.45975860  0.31776897  1
  H  H56  1  0.37620719  0.82012728  0.32285524  1
  H  H57  1  0.12379281  0.17987272  0.82285524  1
  H  H58  1  0.62379281  0.17987272  0.67714476  1
  H  H59  1  0.87620719  0.82012728  0.17714476  1
  H  H60  1  0.36503907  0.79305602  0.19652384  1
  H  H61  1  0.13496093  0.20694398  0.69652384  1
  H  H62  1  0.63496093  0.20694398  0.80347616  1
  H  H63  1  0.86503907  0.79305602  0.30347616  1
  H  H64  1  0.52782560  0.74452919  0.26706326  1
  H  H65  1  0.97217440  0.25547081  0.76706326  1
  H  H66  1  0.47217440  0.25547081  0.73293674  1
  H  H67  1  0.02782560  0.74452919  0.23293674  1
  H  H68  1  0.76890719  0.65024290  0.22136218  1
  H  H69  1  0.73109281  0.34975710  0.72136218  1
  H  H70  1  0.23109281  0.34975710  0.77863782  1
  H  H71  1  0.26890719  0.65024290  0.27863782  1
  H  H72  1  0.49251512  0.06590597  0.44725500  1
  H  H73  1  0.00748488  0.93409403  0.94725500  1
  H  H74  1  0.50748488  0.93409403  0.55274500  1
  H  H75  1  0.99251512  0.06590597  0.05274500  1
  H  H76  1  0.74225505  0.13919115  0.41925701  1
  H  H77  1  0.75774495  0.86080885  0.91925701  1
  H  H78  1  0.25774495  0.86080885  0.58074299  1
  H  H79  1  0.24225505  0.13919115  0.08074299  1
  H  H80  1  0.64235706  0.20967194  0.51402716  1
  H  H81  1  0.85764294  0.79032806  0.01402716  1
  H  H82  1  0.35764294  0.79032806  0.48597284  1
  H  H83  1  0.14235706  0.20967194  0.98597284  1
  H  H84  1  0.60413387  0.23846854  0.39310212  1
  H  H85  1  0.89586613  0.76153146  0.89310212  1
  H  H86  1  0.39586613  0.76153146  0.60689788  1
  H  H87  1  0.10413387  0.23846854  0.10689788  1
  H  H88  1  0.35968950  0.23564585  0.49328746  1
  H  H89  1  0.14031050  0.76435415  0.99328746  1
  H  H90  1  0.64031050  0.76435415  0.50671254  1
  H  H91  1  0.85968950  0.23564585  0.00671254  1
  H  H92  1  0.14661948  0.09548151  0.52909532  1
  H  H93  1  0.35338052  0.90451849  0.02909532  1
  H  H94  1  0.85338052  0.90451849  0.47090468  1
  H  H95  1  0.64661948  0.09548151  0.97090468  1
  H  H96  1  0.13260813  0.18427571  0.42420414  1
  H  H97  1  0.36739187  0.81572429  0.92420414  1
  H  H98  1  0.86739187  0.81572429  0.57579586  1
  H  H99  1  0.63260813  0.18427571  0.07579586  1
  H  H100  1  0.17326451  0.27748613  0.53288603  1
  H  H101  1  0.32673549  0.72251387  0.03288603  1
  H  H102  1  0.82673549  0.72251387  0.46711397  1
  H  H103  1  0.67326451  0.27748613  0.96711397  1
  H  H104  1  0.48468136  0.37523323  0.35461679  1
  H  H105  1  0.01531864  0.62476677  0.85461679  1
  H  H106  1  0.51531864  0.62476677  0.64538321  1
  H  H107  1  0.98468136  0.37523323  0.14538321  1
  H  H108  1  0.34029844  0.46680439  0.30973981  1
  H  H109  1  0.15970156  0.53319561  0.80973981  1
  H  H110  1  0.65970156  0.53319561  0.69026019  1
  H  H111  1  0.84029844  0.46680439  0.19026019  1
  H  H112  1  0.59567462  0.55523558  0.35138548  1
  H  H113  1  0.90432538  0.44476442  0.85138548  1
  H  H114  1  0.40432538  0.44476442  0.64861452  1
  H  H115  1  0.09567462  0.55523558  0.14861452  1
  H  H116  1  0.40433609  0.48947482  0.42992001  1
  H  H117  1  0.09566391  0.51052518  0.92992001  1
  H  H118  1  0.59566391  0.51052518  0.57007999  1
  H  H119  1  0.90433609  0.48947482  0.07007999  1
  H  H120  1  0.11679134  0.05686716  0.25187812  1
  H  H121  1  0.38320866  0.94313284  0.75187812  1
  H  H122  1  0.88320866  0.94313284  0.74812188  1
  H  H123  1  0.61679134  0.05686716  0.24812188  1
  H  H124  1  0.26993447  0.03660999  0.33968465  1
  H  H125  1  0.23006553  0.96339001  0.83968465  1
  H  H126  1  0.73006553  0.96339001  0.66031535  1
  H  H127  1  0.76993447  0.03660999  0.16031535  1
  H  H128  1  0.32191969  0.20295921  0.27225790  1
  H  H129  1  0.17808031  0.79704079  0.77225790  1
  H  H130  1  0.67808031  0.79704079  0.72774210  1
  H  H131  1  0.82191969  0.20295921  0.22774210  1
  H  H132  1  0.36063052  0.05815737  0.22392955  1
  H  H133  1  0.13936948  0.94184263  0.72392955  1
  H  H134  1  0.63936948  0.94184263  0.77607045  1
  H  H135  1  0.86063052  0.05815737  0.27607045  1
