# generated using pymatgen
data_Mg(BH4)2
_symmetry_space_group_name_H-M   'P 1'
_cell_length_a   7.77372367
_cell_length_b   7.77372367
_cell_length_c   8.23499922
_cell_angle_alpha   117.74146830
_cell_angle_beta   117.74146830
_cell_angle_gamma   90.79031156
_symmetry_Int_Tables_number   1
_chemical_formula_structural   Mg(BH4)2
_chemical_formula_sum   'Mg4 B8 H32'
_cell_volume   372.56618905
_cell_formula_units_Z   4
loop_
 _symmetry_equiv_pos_site_id
 _symmetry_equiv_pos_as_xyz
  1  'x, y, z'
loop_
 _atom_site_type_symbol
 _atom_site_label
 _atom_site_symmetry_multiplicity
 _atom_site_fract_x
 _atom_site_fract_y
 _atom_site_fract_z
 _atom_site_occupancy
  Mg  Mg0  1  0.87500000  0.62500000  0.25000000  1
  Mg  Mg1  1  0.12500000  0.37500000  0.75000000  1
  Mg  Mg2  1  0.37500000  0.12500000  0.25000000  1
  Mg  Mg3  1  0.62500000  0.87500000  0.75000000  1
  B  B4  1  0.22030933  0.74911188  0.00186983  1
  B  B5  1  0.24724206  0.21843950  0.49813017  1
  B  B6  1  0.75088812  0.27969067  0.49813017  1
  B  B7  1  0.28156050  0.25275794  0.00186983  1
  B  B8  1  0.77969067  0.25088812  0.99813017  1
  B  B9  1  0.75275794  0.78156050  0.50186983  1
  B  B10  1  0.24911188  0.72030933  0.50186983  1
  B  B11  1  0.71843950  0.74724206  0.99813017  1
  H  H12  1  0.32495768  0.39461147  0.65345737  1
  H  H13  1  0.24115410  0.67150032  0.84654263  1
  H  H14  1  0.10538853  0.17504232  0.84654263  1
  H  H15  1  0.82849968  0.25884590  0.65345737  1
  H  H16  1  0.67504232  0.60538853  0.34654263  1
  H  H17  1  0.75884590  0.32849968  0.15345737  1
  H  H18  1  0.89461147  0.82495768  0.15345737  1
  H  H19  1  0.17150032  0.74115410  0.34654263  1
  H  H20  1  0.12822189  0.62828697  0.01076414  1
  H  H21  1  0.11752283  0.11745775  0.48923586  1
  H  H22  1  0.87171303  0.37177811  0.48923586  1
  H  H23  1  0.38254225  0.38247717  0.01076414  1
  H  H24  1  0.87177811  0.37171303  0.98923586  1
  H  H25  1  0.88247717  0.88254225  0.51076414  1
  H  H26  1  0.12828697  0.62822189  0.51076414  1
  H  H27  1  0.61745775  0.61752283  0.98923586  1
  H  H28  1  0.27571344  0.33662753  0.16687302  1
  H  H29  1  0.66975450  0.10884042  0.33312698  1
  H  H30  1  0.16337247  0.22428656  0.33312698  1
  H  H31  1  0.39115958  0.83024550  0.16687302  1
  H  H32  1  0.72428656  0.66337247  0.83312698  1
  H  H33  1  0.33024550  0.89115958  0.66687302  1
  H  H34  1  0.83662753  0.77571344  0.66687302  1
  H  H35  1  0.60884042  0.16975450  0.83312698  1
  H  H36  1  0.63291778  0.37902951  0.51624934  1
  H  H37  1  0.36278017  0.11666844  0.98375066  1
  H  H38  1  0.12097049  0.86708222  0.98375066  1
  H  H39  1  0.38333156  0.13721983  0.51624934  1
  H  H40  1  0.36708222  0.62097049  0.48375066  1
  H  H41  1  0.63721983  0.88333156  0.01624934  1
  H  H42  1  0.87902951  0.13291778  0.01624934  1
  H  H43  1  0.61666844  0.86278017  0.48375066  1
