# generated using pymatgen
data_Na2Nb4O11
_symmetry_space_group_name_H-M   'P 1'
_cell_length_a   6.25119333
_cell_length_b   6.33377694
_cell_length_c   12.96046870
_cell_angle_alpha   103.93637248
_cell_angle_beta   90.00000000
_cell_angle_gamma   119.56961558
_symmetry_Int_Tables_number   1
_chemical_formula_structural   Na2Nb4O11
_chemical_formula_sum   'Na4 Nb8 O22'
_cell_volume   428.86494556
_cell_formula_units_Z   2
loop_
 _symmetry_equiv_pos_site_id
 _symmetry_equiv_pos_as_xyz
  1  'x, y, z'
loop_
 _atom_site_type_symbol
 _atom_site_label
 _atom_site_symmetry_multiplicity
 _atom_site_fract_x
 _atom_site_fract_y
 _atom_site_fract_z
 _atom_site_occupancy
  Na  Na0  1  0.15190084  0.81824233  0.49675126  1
  Na  Na1  1  0.66634149  0.81824233  0.99675126  1
  Na  Na2  1  0.33218744  0.15499050  0.99556411  1
  Na  Na3  1  0.82280306  0.15499050  0.49556411  1
  Nb  Nb4  1  0.39087492  0.63813573  0.25342589  1
  Nb  Nb5  1  0.24726081  0.63813573  0.75342589  1
  Nb  Nb6  1  0.75219504  0.36052384  0.25304110  1
  Nb  Nb7  1  0.60832880  0.36052384  0.75304110  1
  Nb  Nb8  1  0.11516779  0.99014683  0.24111741  1
  Nb  Nb9  1  0.87497903  0.99014683  0.74111741  1
  Nb  Nb10  1  0.99984132  0.47493540  0.99791128  1
  Nb  Nb11  1  0.47509408  0.47493540  0.49791128  1
  O  O12  1  0.28102569  0.53398003  0.09360838  1
  O  O13  1  0.25295434  0.53398003  0.59360838  1
  O  O14  1  0.74279392  0.46600102  0.40777934  1
  O  O15  1  0.72320711  0.46600102  0.90777934  1
  O  O16  1  0.43519815  0.68376276  0.40913087  1
  O  O17  1  0.24856461  0.68376276  0.90913087  1
  O  O18  1  0.75732568  0.32036438  0.09367532  1
  O  O19  1  0.56303870  0.32036438  0.59367532  1
  O  O20  1  0.06066474  0.83964423  0.09165832  1
  O  O21  1  0.77897949  0.83964423  0.59165832  1
  O  O22  1  0.21506750  0.16058490  0.41021867  1
  O  O23  1  0.94551740  0.16058490  0.91021867  1
  O  O24  1  0.74917316  0.76061201  0.25116872  1
  O  O25  1  0.01143885  0.76061201  0.75116872  1
  O  O26  1  0.99725000  0.24611643  0.25064076  1
  O  O27  1  0.24886643  0.24611643  0.75064076  1
  O  O28  1  0.09271387  0.68969359  0.28368380  1
  O  O29  1  0.59697971  0.68969359  0.78368380  1
  O  O30  1  0.40786156  0.31330624  0.21814039  1
  O  O31  1  0.90544467  0.31330624  0.71814039  1
  O  O32  1  0.49302402  0.99897980  0.25104439  1
  O  O33  1  0.50595577  0.99897980  0.75104439  1
