# generated using pymatgen
data_Er2H8S3O16
_symmetry_space_group_name_H-M   'P 1'
_cell_length_a   6.71694063
_cell_length_b   9.23546495
_cell_length_c   10.54025864
_cell_angle_alpha   93.20521754
_cell_angle_beta   107.20375219
_cell_angle_gamma   100.10003835
_symmetry_Int_Tables_number   1
_chemical_formula_structural   Er2H8S3O16
_chemical_formula_sum   'Er4 H16 S6 O32'
_cell_volume   610.86996495
_cell_formula_units_Z   2
loop_
 _symmetry_equiv_pos_site_id
 _symmetry_equiv_pos_as_xyz
  1  'x, y, z'
loop_
 _atom_site_type_symbol
 _atom_site_label
 _atom_site_symmetry_multiplicity
 _atom_site_fract_x
 _atom_site_fract_y
 _atom_site_fract_z
 _atom_site_occupancy
  Er  Er0  1  0.73459290  0.33012545  0.63330089  1
  Er  Er1  1  0.26540710  0.66987455  0.36669911  1
  Er  Er2  1  0.06641232  0.88084209  0.83589379  1
  Er  Er3  1  0.93358768  0.11915791  0.16410621  1
  H  H4  1  0.71631732  0.40359534  0.34961189  1
  H  H5  1  0.28368268  0.59640466  0.65038811  1
  H  H6  1  0.52529863  0.27057648  0.33834733  1
  H  H7  1  0.47470137  0.72942352  0.66165267  1
  H  H8  1  0.51913870  0.40993366  0.83356154  1
  H  H9  1  0.48086130  0.59006634  0.16643846  1
  H  H10  1  0.69953109  0.55091849  0.84308262  1
  H  H11  1  0.30046891  0.44908151  0.15691738  1
  H  H12  1  0.80296289  0.09588769  0.46459535  1
  H  H13  1  0.19703711  0.90411231  0.53540465  1
  H  H14  1  0.72334089  0.00776705  0.57259077  1
  H  H15  1  0.27665911  0.99223295  0.42740923  1
  H  H16  1  0.14411431  0.57045499  0.85961528  1
  H  H17  1  0.85588569  0.42954501  0.14038472  1
  H  H18  1  0.35539068  0.68289232  0.94347311  1
  H  H19  1  0.64460932  0.31710768  0.05652689  1
  S  S20  1  0.15878051  0.30816132  0.47585660  1
  S  S21  1  0.84121949  0.69183868  0.52414340  1
  S  S22  1  0.84328425  0.72335045  0.08707882  1
  S  S23  1  0.15671575  0.27664955  0.91292118  1
  S  S24  1  0.60486334  0.01390125  0.81381838  1
  S  S25  1  0.39513666  0.98609875  0.18618162  1
  O  O26  1  0.98072682  0.83192270  0.60738565  1
  O  O27  1  0.01927318  0.16807730  0.39261435  1
  O  O28  1  0.06312511  0.35798113  0.57536803  1
  O  O29  1  0.93687489  0.64201887  0.42463197  1
  O  O30  1  0.36981696  0.27663626  0.54329321  1
  O  O31  1  0.63018304  0.72336374  0.45670679  1
  O  O32  1  0.17308552  0.41900430  0.37932655  1
  O  O33  1  0.82691448  0.58099570  0.62067345  1
  O  O34  1  0.97107694  0.62115336  0.16472933  1
  O  O35  1  0.02892306  0.37884664  0.83527067  1
  O  O36  1  0.88126686  0.73085096  0.95408261  1
  O  O37  1  0.11873314  0.26914904  0.04591739  1
  O  O38  1  0.61486393  0.66550415  0.06323427  1
  O  O39  1  0.38513607  0.33449585  0.93676573  1
  O  O40  1  0.91662669  0.87245723  0.16515735  1
  O  O41  1  0.08337331  0.12754277  0.83484265  1
  O  O42  1  0.70259059  0.90726334  0.74959222  1
  O  O43  1  0.29740941  0.09273666  0.25040778  1
  O  O44  1  0.62687083  0.15637553  0.75934659  1
  O  O45  1  0.37312917  0.84362447  0.24065341  1
  O  O46  1  0.37812091  0.94803274  0.78763910  1
  O  O47  1  0.62187909  0.05196726  0.21236090  1
  O  O48  1  0.71846116  0.03553523  0.95990461  1
  O  O49  1  0.28153884  0.96446477  0.04009539  1
  O  O50  1  0.64231648  0.34331330  0.40111309  1
  O  O51  1  0.35768352  0.65668670  0.59888691  1
  O  O52  1  0.61362837  0.46033318  0.78574736  1
  O  O53  1  0.38637163  0.53966682  0.21425264  1
  O  O54  1  0.72345104  0.09876893  0.52950427  1
  O  O55  1  0.27654896  0.90123107  0.47049573  1
  O  O56  1  0.22366842  0.67355629  0.86742066  1
  O  O57  1  0.77633158  0.32644371  0.13257934  1
