# generated using pymatgen
data_Ho2CoGe6
_symmetry_space_group_name_H-M   'P 1'
_cell_length_a   4.06392774
_cell_length_b   3.99106021
_cell_length_c   10.92741239
_cell_angle_alpha   100.52222153
_cell_angle_beta   90.00000000
_cell_angle_gamma   90.00000000
_symmetry_Int_Tables_number   1
_chemical_formula_structural   Ho2CoGe6
_chemical_formula_sum   'Ho2 Co1 Ge6'
_cell_volume   174.25548667
_cell_formula_units_Z   1
loop_
 _symmetry_equiv_pos_site_id
 _symmetry_equiv_pos_as_xyz
  1  'x, y, z'
loop_
 _atom_site_type_symbol
 _atom_site_label
 _atom_site_symmetry_multiplicity
 _atom_site_fract_x
 _atom_site_fract_y
 _atom_site_fract_z
 _atom_site_occupancy
  Ho  Ho0  1  0.50000000  0.22219630  0.44439259  1
  Ho  Ho1  1  0.50000000  0.88651140  0.77302279  1
  Co  Co2  1  0.00000000  0.44519197  0.89038395  1
  Ge  Ge3  1  0.50000000  0.49975470  0.99950939  1
  Ge  Ge4  1  0.50000000  0.61646106  0.23292212  1
  Ge  Ge5  1  -0.00000000  0.00083476  0.00166951  1
  Ge  Ge6  1  0.00000000  0.11848823  0.23697646  1
  Ge  Ge7  1  0.00000000  0.33906684  0.67813368  1
  Ge  Ge8  1  0.00000000  0.76449475  0.52898950  1
