# generated using pymatgen
data_LiAlSiH2O5
_symmetry_space_group_name_H-M   'P 1'
_cell_length_a   5.06150699
_cell_length_b   8.14033951
_cell_length_c   10.27281592
_cell_angle_alpha   90.00000000
_cell_angle_beta   90.00000000
_cell_angle_gamma   90.00000000
_symmetry_Int_Tables_number   1
_chemical_formula_structural   LiAlSiH2O5
_chemical_formula_sum   'Li4 Al4 Si4 H8 O20'
_cell_volume   423.26451997
_cell_formula_units_Z   4
loop_
 _symmetry_equiv_pos_site_id
 _symmetry_equiv_pos_as_xyz
  1  'x, y, z'
loop_
 _atom_site_type_symbol
 _atom_site_label
 _atom_site_symmetry_multiplicity
 _atom_site_fract_x
 _atom_site_fract_y
 _atom_site_fract_z
 _atom_site_occupancy
  Li  Li0  1  0.75679177  0.14320427  0.33895916  1
  Li  Li1  1  0.25679177  0.85679573  0.66104084  1
  Li  Li2  1  0.25679177  0.64320427  0.16104084  1
  Li  Li3  1  0.75679177  0.35679573  0.83895916  1
  Al  Al4  1  0.75062197  0.55523396  0.33297154  1
  Al  Al5  1  0.25062197  0.44476604  0.66702846  1
  Al  Al6  1  0.25062197  0.05523396  0.16702846  1
  Al  Al7  1  0.75062197  0.94476604  0.83297154  1
  Si  Si8  1  0.75292632  0.84895575  0.13614461  1
  Si  Si9  1  0.25292632  0.15104425  0.86385539  1
  Si  Si10  1  0.25292632  0.34895575  0.36385539  1
  Si  Si11  1  0.75292632  0.65104425  0.63614461  1
  H  H12  1  0.06284115  0.68508165  0.94890298  1
  H  H13  1  0.56284115  0.31491835  0.05109702  1
  H  H14  1  0.56284115  0.18508165  0.55109702  1
  H  H15  1  0.06284115  0.81491835  0.44890298  1
  H  H16  1  0.32626787  0.59094887  0.90908839  1
  H  H17  1  0.82626787  0.40905113  0.09091161  1
  H  H18  1  0.82626787  0.09094887  0.59091161  1
  H  H19  1  0.32626787  0.90905113  0.40908839  1
  O  O20  1  0.80302269  0.66159472  0.47923917  1
  O  O21  1  0.30302269  0.33840528  0.52076083  1
  O  O22  1  0.30302269  0.16159472  0.02076083  1
  O  O23  1  0.80302269  0.83840528  0.97923917  1
  O  O24  1  0.86801784  0.68105428  0.20481107  1
  O  O25  1  0.36801784  0.31894572  0.79518893  1
  O  O26  1  0.36801784  0.18105428  0.29518893  1
  O  O27  1  0.86801784  0.81894572  0.70481107  1
  O  O28  1  0.41365096  0.50853686  0.30439183  1
  O  O29  1  0.91365096  0.49146314  0.69560817  1
  O  O30  1  0.91365096  0.00853686  0.19560817  1
  O  O31  1  0.41365096  0.99146314  0.80439183  1
  O  O32  1  0.93711209  0.36887065  0.32735579  1
  O  O33  1  0.43711209  0.63112935  0.67264421  1
  O  O34  1  0.43711209  0.86887065  0.17264421  1
  O  O35  1  0.93711209  0.13112935  0.82735579  1
  O  O36  1  0.19214734  0.60146264  0.97674755  1
  O  O37  1  0.69214734  0.39853736  0.02325245  1
  O  O38  1  0.69214734  0.10146264  0.52325245  1
  O  O39  1  0.19214734  0.89853736  0.47674755  1
