# generated using pymatgen
data_Tb2AlGe6
_symmetry_space_group_name_H-M   'P 1'
_cell_length_a   6.03133123
_cell_length_b   6.03133123
_cell_length_c   10.52566310
_cell_angle_alpha   98.14396138
_cell_angle_beta   98.14396138
_cell_angle_gamma   91.68752510
_symmetry_Int_Tables_number   1
_chemical_formula_structural   Tb2AlGe6
_chemical_formula_sum   'Tb4 Al2 Ge12'
_cell_volume   374.72848233
_cell_formula_units_Z   2
loop_
 _symmetry_equiv_pos_site_id
 _symmetry_equiv_pos_as_xyz
  1  'x, y, z'
loop_
 _atom_site_type_symbol
 _atom_site_label
 _atom_site_symmetry_multiplicity
 _atom_site_fract_x
 _atom_site_fract_y
 _atom_site_fract_z
 _atom_site_occupancy
  Tb  Tb0  1  0.66533200  0.16137365  0.66062801  1
  Tb  Tb1  1  0.33466800  0.83862635  0.33937199  1
  Tb  Tb2  1  0.83862635  0.33466800  0.33937199  1
  Tb  Tb3  1  0.16137365  0.66533200  0.66062801  1
  Al  Al4  1  0.20010454  0.20010454  0.80305904  1
  Al  Al5  1  0.79989546  0.79989546  0.19694096  1
  Ge  Ge6  1  0.85247036  0.85247036  0.43932716  1
  Ge  Ge7  1  0.14752964  0.14752964  0.56067284  1
  Ge  Ge8  1  0.50931768  0.50931768  0.88151459  1
  Ge  Ge9  1  0.49068232  0.49068232  0.11848541  1
  Ge  Ge10  1  0.63878211  0.63878211  0.58651383  1
  Ge  Ge11  1  0.36121789  0.36121789  0.41348617  1
  Ge  Ge12  1  0.93050345  0.93050345  0.88161422  1
  Ge  Ge13  1  0.06949655  0.06949655  0.11838578  1
  Ge  Ge14  1  0.50540108  0.93421330  0.88176994  1
  Ge  Ge15  1  0.49459892  0.06578670  0.11823006  1
  Ge  Ge16  1  0.06578670  0.49459892  0.11823006  1
  Ge  Ge17  1  0.93421330  0.50540108  0.88176994  1
