# generated using pymatgen
data_V2Fe2Pb(O4F)2
_symmetry_space_group_name_H-M   'P 1'
_cell_length_a   5.62527359
_cell_length_b   5.62527359
_cell_length_c   7.91068894
_cell_angle_alpha   69.43136567
_cell_angle_beta   69.43136567
_cell_angle_gamma   67.15594629
_symmetry_Int_Tables_number   1
_chemical_formula_structural   V2Fe2Pb(O4F)2
_chemical_formula_sum   'V2 Fe2 Pb1 O8 F2'
_cell_volume   209.17464142
_cell_formula_units_Z   1
loop_
 _symmetry_equiv_pos_site_id
 _symmetry_equiv_pos_as_xyz
  1  'x, y, z'
loop_
 _atom_site_type_symbol
 _atom_site_label
 _atom_site_symmetry_multiplicity
 _atom_site_fract_x
 _atom_site_fract_y
 _atom_site_fract_z
 _atom_site_occupancy
  V  V0  1  0.42653209  0.42653209  0.76687764  1
  V  V1  1  0.57346791  0.57346791  0.23312236  1
  Fe  Fe2  1  0.50000000  -0.00000000  0.50000000  1
  Fe  Fe3  1  0.00000000  0.50000000  0.50000000  1
  Pb  Pb4  1  0.00000000  -0.00000000  -0.00000000  1
  O  O5  1  0.32269522  0.32269522  0.61552326  1
  O  O6  1  0.67730478  0.67730478  0.38447674  1
  O  O7  1  0.71365188  0.71365188  0.01591769  1
  O  O8  1  0.28634812  0.28634812  0.98408231  1
  O  O9  1  0.31742237  0.77552234  0.73273286  1
  O  O10  1  0.68257763  0.22447766  0.26726714  1
  O  O11  1  0.22447766  0.68257763  0.26726714  1
  O  O12  1  0.77552234  0.31742237  0.73273286  1
  F  F13  1  0.16848788  0.16848788  0.41066034  1
  F  F14  1  0.83151212  0.83151212  0.58933966  1
