# generated using pymatgen
data_Zn2NiP2(H2O3)4
_symmetry_space_group_name_H-M   'P 1'
_cell_length_a   5.04728855
_cell_length_b   10.63600322
_cell_length_c   18.93524604
_cell_angle_alpha   90.00000000
_cell_angle_beta   90.00000000
_cell_angle_gamma   90.00000000
_symmetry_Int_Tables_number   1
_chemical_formula_structural   Zn2NiP2(H2O3)4
_chemical_formula_sum   'Zn8 Ni4 P8 H32 O48'
_cell_volume   1016.50038277
_cell_formula_units_Z   4
loop_
 _symmetry_equiv_pos_site_id
 _symmetry_equiv_pos_as_xyz
  1  'x, y, z'
loop_
 _atom_site_type_symbol
 _atom_site_label
 _atom_site_symmetry_multiplicity
 _atom_site_fract_x
 _atom_site_fract_y
 _atom_site_fract_z
 _atom_site_occupancy
  Zn  Zn0  1  0.27506861  0.64226937  0.50188129  1
  Zn  Zn1  1  0.22493139  0.14226937  0.99811871  1
  Zn  Zn2  1  0.72493139  0.35773063  0.00188129  1
  Zn  Zn3  1  0.77506861  0.85773063  0.49811871  1
  Zn  Zn4  1  0.72493139  0.35773063  0.49811871  1
  Zn  Zn5  1  0.77506861  0.85773063  0.00188129  1
  Zn  Zn6  1  0.27506861  0.64226937  0.99811871  1
  Zn  Zn7  1  0.22493139  0.14226937  0.50188129  1
  Ni  Ni8  1  0.06413000  0.26602356  0.75000000  1
  Ni  Ni9  1  0.43587000  0.76602356  0.75000000  1
  Ni  Ni10  1  0.93587000  0.73397644  0.25000000  1
  Ni  Ni11  1  0.56413000  0.23397644  0.25000000  1
  P  P12  1  0.23074303  0.39821108  0.59446085  1
  P  P13  1  0.26925697  0.89821108  0.90553915  1
  P  P14  1  0.76925697  0.60178892  0.09446085  1
  P  P15  1  0.73074303  0.10178892  0.40553915  1
  P  P16  1  0.76925697  0.60178892  0.40553915  1
  P  P17  1  0.73074303  0.10178892  0.09446085  1
  P  P18  1  0.23074303  0.39821108  0.90553915  1
  P  P19  1  0.26925697  0.89821108  0.59446085  1
  H  H20  1  0.63549679  0.39585738  0.79007706  1
  H  H21  1  0.86450321  0.89585738  0.70992294  1
  H  H22  1  0.36450321  0.60414262  0.29007706  1
  H  H23  1  0.13549679  0.10414262  0.20992294  1
  H  H24  1  0.36450321  0.60414262  0.20992294  1
  H  H25  1  0.13549679  0.10414262  0.29007706  1
  H  H26  1  0.63549679  0.39585738  0.70992294  1
  H  H27  1  0.86450321  0.89585738  0.79007706  1
  H  H28  1  0.36396170  0.06817274  0.79058725  1
  H  H29  1  0.13603830  0.56817274  0.70941275  1
  H  H30  1  0.63603830  0.93182726  0.29058725  1
  H  H31  1  0.86396170  0.43182726  0.20941275  1
  H  H32  1  0.63603830  0.93182726  0.20941275  1
  H  H33  1  0.86396170  0.43182726  0.29058725  1
  H  H34  1  0.36396170  0.06817274  0.70941275  1
  H  H35  1  0.13603830  0.56817274  0.79058725  1
  H  H36  1  0.93898504  0.11634119  0.63621348  1
  H  H37  1  0.56101496  0.61634119  0.86378652  1
  H  H38  1  0.06101496  0.88365881  0.13621348  1
  H  H39  1  0.43898504  0.38365881  0.36378652  1
  H  H40  1  0.06101496  0.88365881  0.36378652  1
  H  H41  1  0.43898504  0.38365881  0.13621348  1
  H  H42  1  0.93898504  0.11634119  0.86378652  1
  H  H43  1  0.56101496  0.61634119  0.63621348  1
  H  H44  1  0.70303675  0.21305984  0.65295999  1
  H  H45  1  0.79696325  0.71305984  0.84704001  1
  H  H46  1  0.29696325  0.78694016  0.15295999  1
  H  H47  1  0.20303675  0.28694016  0.34704001  1
  H  H48  1  0.29696325  0.78694016  0.34704001  1
  H  H49  1  0.20303675  0.28694016  0.15295999  1
  H  H50  1  0.70303675  0.21305984  0.84704001  1
  H  H51  1  0.79696325  0.71305984  0.65295999  1
  O  O52  1  0.29302755  0.36070458  0.67089370  1
  O  O53  1  0.20697245  0.86070458  0.82910630  1
  O  O54  1  0.70697245  0.63929542  0.17089370  1
  O  O55  1  0.79302755  0.13929542  0.32910630  1
  O  O56  1  0.70697245  0.63929542  0.32910630  1
  O  O57  1  0.79302755  0.13929542  0.17089370  1
  O  O58  1  0.29302755  0.36070458  0.82910630  1
  O  O59  1  0.20697245  0.86070458  0.67089370  1
  O  O60  1  0.35153160  0.53135518  0.58038615  1
  O  O61  1  0.14846840  0.03135518  0.91961385  1
  O  O62  1  0.64846840  0.46864482  0.08038615  1
  O  O63  1  0.85153160  0.96864482  0.41961385  1
  O  O64  1  0.64846840  0.46864482  0.41961385  1
  O  O65  1  0.85153160  0.96864482  0.08038615  1
  O  O66  1  0.35153160  0.53135518  0.91961385  1
  O  O67  1  0.14846840  0.03135518  0.58038615  1
  O  O68  1  0.06897192  0.60107977  0.41991893  1
  O  O69  1  0.43102808  0.10107977  0.08008107  1
  O  O70  1  0.93102808  0.39892023  0.91991893  1
  O  O71  1  0.56897192  0.89892023  0.58008107  1
  O  O72  1  0.93102808  0.39892023  0.58008107  1
  O  O73  1  0.56897192  0.89892023  0.91991893  1
  O  O74  1  0.06897192  0.60107977  0.08008107  1
  O  O75  1  0.43102808  0.10107977  0.41991893  1
  O  O76  1  0.62955880  0.69474642  0.46009851  1
  O  O77  1  0.87044120  0.19474642  0.03990149  1
  O  O78  1  0.37044120  0.30525358  0.96009851  1
  O  O79  1  0.12955880  0.80525358  0.53990149  1
  O  O80  1  0.37044120  0.30525358  0.53990149  1
  O  O81  1  0.12955880  0.80525358  0.96009851  1
  O  O82  1  0.62955880  0.69474642  0.03990149  1
  O  O83  1  0.87044120  0.19474642  0.46009851  1
  O  O84  1  0.76063702  0.39768639  0.75000000  1
  O  O85  1  0.73936298  0.89768639  0.75000000  1
  O  O86  1  0.23936298  0.60231361  0.25000000  1
  O  O87  1  0.26063702  0.10231361  0.25000000  1
  O  O88  1  0.33952912  0.12341642  0.75000000  1
  O  O89  1  0.16047088  0.62341642  0.75000000  1
  O  O90  1  0.66047088  0.87658358  0.25000000  1
  O  O91  1  0.83952912  0.37658358  0.25000000  1
  O  O92  1  0.84828203  0.16578653  0.67358646  1
  O  O93  1  0.65171797  0.66578653  0.82641354  1
  O  O94  1  0.15171797  0.83421347  0.17358646  1
  O  O95  1  0.34828203  0.33421347  0.32641354  1
  O  O96  1  0.15171797  0.83421347  0.32641354  1
  O  O97  1  0.34828203  0.33421347  0.17358646  1
  O  O98  1  0.84828203  0.16578653  0.82641354  1
  O  O99  1  0.65171797  0.66578653  0.67358646  1
