# generated using pymatgen
data_LiAlSiH2O5
_symmetry_space_group_name_H-M   'P 1'
_cell_length_a   5.10500705
_cell_length_b   8.00540481
_cell_length_c   10.59641762
_cell_angle_alpha   90.00000000
_cell_angle_beta   90.00000000
_cell_angle_gamma   90.00000000
_symmetry_Int_Tables_number   1
_chemical_formula_structural   LiAlSiH2O5
_chemical_formula_sum   'Li4 Al4 Si4 H8 O20'
_cell_volume   433.05066528
_cell_formula_units_Z   4
loop_
 _symmetry_equiv_pos_site_id
 _symmetry_equiv_pos_as_xyz
  1  'x, y, z'
loop_
 _atom_site_type_symbol
 _atom_site_label
 _atom_site_symmetry_multiplicity
 _atom_site_fract_x
 _atom_site_fract_y
 _atom_site_fract_z
 _atom_site_occupancy
  Li  Li0  1  0.77184402  0.15690699  0.31755282  1
  Li  Li1  1  0.27184402  0.84309301  0.68244718  1
  Li  Li2  1  0.27184402  0.65690699  0.18244718  1
  Li  Li3  1  0.77184402  0.34309301  0.81755282  1
  Al  Al4  1  0.76896853  0.56718926  0.33868000  1
  Al  Al5  1  0.26896853  0.43281074  0.66132000  1
  Al  Al6  1  0.26896853  0.06718926  0.16132000  1
  Al  Al7  1  0.76896853  0.93281074  0.83868000  1
  Si  Si8  1  0.76955267  0.85417456  0.13188567  1
  Si  Si9  1  0.26955267  0.14582544  0.86811433  1
  Si  Si10  1  0.26955267  0.35417456  0.36811433  1
  Si  Si11  1  0.76955267  0.64582544  0.63188567  1
  H  H12  1  0.87261009  0.61203963  0.94424930  1
  H  H13  1  0.37261009  0.38796037  0.05575070  1
  H  H14  1  0.37261009  0.11203963  0.55575070  1
  H  H15  1  0.87261009  0.88796037  0.44424930  1
  H  H16  1  0.35898761  0.53449799  0.96550270  1
  H  H17  1  0.85898761  0.46550201  0.03449730  1
  H  H18  1  0.85898761  0.03449799  0.53449730  1
  H  H19  1  0.35898761  0.96550201  0.46550270  1
  O  O20  1  0.82067623  0.67726816  0.48087963  1
  O  O21  1  0.32067623  0.32273184  0.51912037  1
  O  O22  1  0.32067623  0.17726816  0.01912037  1
  O  O23  1  0.82067623  0.82273184  0.98087963  1
  O  O24  1  0.88101913  0.69116424  0.21047279  1
  O  O25  1  0.38101913  0.30883576  0.78952721  1
  O  O26  1  0.38101913  0.19116424  0.28952721  1
  O  O27  1  0.88101913  0.80883576  0.71047279  1
  O  O28  1  0.43139014  0.52147439  0.32259696  1
  O  O29  1  0.93139014  0.47852561  0.67740304  1
  O  O30  1  0.93139014  0.02147439  0.17740304  1
  O  O31  1  0.43139014  0.97852561  0.82259696  1
  O  O32  1  0.95641784  0.37957018  0.33484222  1
  O  O33  1  0.45641784  0.62042982  0.66515778  1
  O  O34  1  0.45641784  0.87957018  0.16515778  1
  O  O35  1  0.95641784  0.12042982  0.83484222  1
  O  O36  1  0.90943375  0.49008156  0.94736514  1
  O  O37  1  0.40943375  0.50991844  0.05263486  1
  O  O38  1  0.40943375  0.99008156  0.55263486  1
  O  O39  1  0.90943375  0.00991844  0.44736514  1
