# generated using pymatgen
data_ZnAgPO4
_symmetry_space_group_name_H-M   'P 1'
_cell_length_a   8.30905363
_cell_length_b   8.86807656
_cell_length_c   15.71996907
_cell_angle_alpha   89.55385804
_cell_angle_beta   90.00000000
_cell_angle_gamma   90.00000000
_symmetry_Int_Tables_number   1
_chemical_formula_structural   ZnAgPO4
_chemical_formula_sum   'Zn12 Ag12 P12 O48'
_cell_volume   1158.29589425
_cell_formula_units_Z   12
loop_
 _symmetry_equiv_pos_site_id
 _symmetry_equiv_pos_as_xyz
  1  'x, y, z'
loop_
 _atom_site_type_symbol
 _atom_site_label
 _atom_site_symmetry_multiplicity
 _atom_site_fract_x
 _atom_site_fract_y
 _atom_site_fract_z
 _atom_site_occupancy
  Zn  Zn0  1  0.20936127  0.08206838  0.73666513  1
  Zn  Zn1  1  0.79063873  0.91793162  0.26333487  1
  Zn  Zn2  1  0.70936127  0.41793162  0.76333487  1
  Zn  Zn3  1  0.29063873  0.58206838  0.23666513  1
  Zn  Zn4  1  0.71212781  0.93326840  0.90905464  1
  Zn  Zn5  1  0.28787219  0.06673160  0.09094536  1
  Zn  Zn6  1  0.21212781  0.56673160  0.59094536  1
  Zn  Zn7  1  0.78787219  0.43326840  0.40905464  1
  Zn  Zn8  1  0.70650755  0.89374648  0.58098552  1
  Zn  Zn9  1  0.29349245  0.10625352  0.41901448  1
  Zn  Zn10  1  0.20650755  0.60625352  0.91901448  1
  Zn  Zn11  1  0.79349245  0.39374648  0.08098552  1
  Ag  Ag12  1  0.52166746  0.26946772  0.58976134  1
  Ag  Ag13  1  0.47833254  0.73053228  0.41023866  1
  Ag  Ag14  1  0.02166746  0.23053228  0.91023866  1
  Ag  Ag15  1  0.97833254  0.76946772  0.08976134  1
  Ag  Ag16  1  0.99030209  0.21608913  0.56427161  1
  Ag  Ag17  1  0.00969791  0.78391087  0.43572839  1
  Ag  Ag18  1  0.49030209  0.28391087  0.93572839  1
  Ag  Ag19  1  0.50969791  0.71608913  0.06427161  1
  Ag  Ag20  1  0.50000474  0.79058286  0.75413914  1
  Ag  Ag21  1  0.49999526  0.20941714  0.24586086  1
  Ag  Ag22  1  0.00000474  0.70941714  0.74586086  1
  Ag  Ag23  1  -0.00000474  0.29058286  0.25413914  1
  P  P24  1  0.81857932  0.07646390  0.73553967  1
  P  P25  1  0.18142068  0.92353610  0.26446033  1
  P  P26  1  0.31857932  0.42353610  0.76446033  1
  P  P27  1  0.68142068  0.57646390  0.23553967  1
  P  P28  1  0.81803229  0.59932369  0.92088440  1
  P  P29  1  0.18196771  0.40067631  0.07911560  1
  P  P30  1  0.31803229  0.90067631  0.57911560  1
  P  P31  1  0.68196771  0.09932369  0.42088440  1
  P  P32  1  0.32066577  0.94009536  0.90980932  1
  P  P33  1  0.67933423  0.05990464  0.09019068  1
  P  P34  1  0.82066577  0.55990464  0.59019068  1
  P  P35  1  0.17933423  0.44009536  0.40980932  1
  O  O36  1  0.34069099  0.78035373  0.95053782  1
  O  O37  1  0.65930901  0.21964627  0.04946218  1
  O  O38  1  0.84069099  0.71964627  0.54946218  1
  O  O39  1  0.15930901  0.28035373  0.45053782  1
  O  O40  1  0.22796988  0.92236014  0.82473972  1
  O  O41  1  0.77203012  0.07763986  0.17526028  1
  O  O42  1  0.72796988  0.57763986  0.67526028  1
  O  O43  1  0.27203012  0.42236014  0.32473972  1
  O  O44  1  0.72635186  0.45451088  0.52908961  1
  O  O45  1  0.27364814  0.54548912  0.47091039  1
  O  O46  1  0.22635186  0.04548912  0.97091039  1
  O  O47  1  0.77364814  0.95451088  0.02908961  1
  O  O48  1  0.72990689  0.22245428  0.70771720  1
  O  O49  1  0.27009311  0.77754572  0.29228280  1
  O  O50  1  0.22990689  0.27754572  0.79228280  1
  O  O51  1  0.77009311  0.72245428  0.20771720  1
  O  O52  1  0.98632700  0.06992696  0.69189598  1
  O  O53  1  0.01367300  0.93007304  0.30810402  1
  O  O54  1  0.48632700  0.43007304  0.80810402  1
  O  O55  1  0.51367300  0.56992696  0.19189598  1
  O  O56  1  0.77676251  0.05676947  0.50349909  1
  O  O57  1  0.22323749  0.94323053  0.49650091  1
  O  O58  1  0.27676251  0.44323053  0.99650091  1
  O  O59  1  0.72323749  0.55676947  0.00349909  1
  O  O60  1  0.48962893  0.00931558  0.89150569  1
  O  O61  1  0.51037107  0.99068442  0.10849431  1
  O  O62  1  0.98962893  0.49068442  0.60849431  1
  O  O63  1  0.01037107  0.50931558  0.39150569  1
  O  O64  1  0.84262223  0.45835529  0.86416498  1
  O  O65  1  0.15737777  0.54164471  0.13583502  1
  O  O66  1  0.34262223  0.04164471  0.63583502  1
  O  O67  1  0.65737777  0.95835529  0.36416498  1
  O  O68  1  0.72435281  0.72251899  0.86996489  1
  O  O69  1  0.27564719  0.27748101  0.13003511  1
  O  O70  1  0.22435281  0.77748101  0.63003511  1
  O  O71  1  0.77564719  0.22251899  0.36996489  1
  O  O72  1  0.98477157  0.66514739  0.94702677  1
  O  O73  1  0.01522843  0.33485261  0.05297323  1
  O  O74  1  0.48477157  0.83485261  0.55297323  1
  O  O75  1  0.51522843  0.16514739  0.44702677  1
  O  O76  1  0.72133688  0.93634139  0.70398047  1
  O  O77  1  0.27866312  0.06365861  0.29601953  1
  O  O78  1  0.22133688  0.56365861  0.79601953  1
  O  O79  1  0.77866312  0.43634139  0.20398047  1
  O  O80  1  0.83782736  0.06797205  0.83379144  1
  O  O81  1  0.16217264  0.93202795  0.16620856  1
  O  O82  1  0.33782736  0.43202795  0.66620856  1
  O  O83  1  0.66217264  0.56797205  0.33379144  1
