# generated using pymatgen
data_Sn9Pd13
_symmetry_space_group_name_H-M   'P 1'
_cell_length_a   8.98541133
_cell_length_b   8.98541133
_cell_length_c   17.13476207
_cell_angle_alpha   90.00000000
_cell_angle_beta   90.00000000
_cell_angle_gamma   120.00000048
_symmetry_Int_Tables_number   1
_chemical_formula_structural   Sn9Pd13
_chemical_formula_sum   'Sn27 Pd39'
_cell_volume   1198.07673012
_cell_formula_units_Z   3
loop_
 _symmetry_equiv_pos_site_id
 _symmetry_equiv_pos_as_xyz
  1  'x, y, z'
loop_
 _atom_site_type_symbol
 _atom_site_label
 _atom_site_symmetry_multiplicity
 _atom_site_fract_x
 _atom_site_fract_y
 _atom_site_fract_z
 _atom_site_occupancy
  Sn  Sn0  1  0.80713088  0.11404103  0.91824137  1
  Sn  Sn1  1  0.30691015  0.19286912  0.58490837  1
  Sn  Sn2  1  0.69308985  0.88595897  0.08175863  1
  Sn  Sn3  1  0.88595897  0.69308985  0.25157437  1
  Sn  Sn4  1  0.11404103  0.80713088  0.41509163  1
  Sn  Sn5  1  0.19286912  0.30691015  0.74842563  1
  Sn  Sn6  1  0.38424732  0.69001107  0.92193582  1
  Sn  Sn7  1  0.30576375  0.61575268  0.58860282  1
  Sn  Sn8  1  0.69423625  0.30998893  0.07806418  1
  Sn  Sn9  1  0.30998893  0.69423625  0.25526882  1
  Sn  Sn10  1  0.69001107  0.38424732  0.41139718  1
  Sn  Sn11  1  0.61575268  0.30576375  0.74473118  1
  Sn  Sn12  1  0.50304624  0.50304624  0.16666700  1
  Sn  Sn13  1  0.00000000  0.49695376  0.83333300  1
  Sn  Sn14  1  0.49695376  0.00000000  0.50000000  1
  Sn  Sn15  1  0.88391437  0.19441234  0.58918553  1
  Sn  Sn16  1  0.31049797  0.11608563  0.25585253  1
  Sn  Sn17  1  0.68950203  0.80558766  0.41081447  1
  Sn  Sn18  1  0.80558766  0.68950203  0.92251853  1
  Sn  Sn19  1  0.19441234  0.88391437  0.74414747  1
  Sn  Sn20  1  0.11608563  0.31049797  0.07748147  1
  Sn  Sn21  1  0.66461506  0.83258510  0.74662754  1
  Sn  Sn22  1  0.16797004  0.33538494  0.41329454  1
  Sn  Sn23  1  0.83202996  0.16741490  0.25337246  1
  Sn  Sn24  1  0.16741490  0.83202996  0.07996054  1
  Sn  Sn25  1  0.83258510  0.66461506  0.58670546  1
  Sn  Sn26  1  0.33538494  0.16797004  0.92003946  1
  Pd  Pd27  1  0.84015475  0.17812068  0.75178418  1
  Pd  Pd28  1  0.33796593  0.15984525  0.41845118  1
  Pd  Pd29  1  0.66203407  0.82187932  0.24821582  1
  Pd  Pd30  1  0.82187932  0.66203407  0.08511718  1
  Pd  Pd31  1  0.17812068  0.84015475  0.58154882  1
  Pd  Pd32  1  0.15984525  0.33796593  0.91488282  1
  Pd  Pd33  1  0.50467310  0.50467310  0.66666700  1
  Pd  Pd34  1  0.00000000  0.49532690  0.33333300  1
  Pd  Pd35  1  0.49532690  0.00000000  0.00000000  1
  Pd  Pd36  1  0.66138244  0.84015238  0.57493078  1
  Pd  Pd37  1  0.17876994  0.33861756  0.24159778  1
  Pd  Pd38  1  0.82123006  0.15984762  0.42506922  1
  Pd  Pd39  1  0.15984762  0.82123006  0.90826378  1
  Pd  Pd40  1  0.84015238  0.66138244  0.75840222  1
  Pd  Pd41  1  0.33861756  0.17876994  0.09173622  1
  Pd  Pd42  1  0.99795992  0.99795992  0.66666700  1
  Pd  Pd43  1  1.00000000  0.00204008  0.33333300  1
  Pd  Pd44  1  0.00204008  1.00000000  0.00000000  1
  Pd  Pd45  1  0.49941384  0.49963697  0.83367161  1
  Pd  Pd46  1  0.00022313  0.50058616  0.50033861  1
  Pd  Pd47  1  0.99977687  0.50036303  0.16632839  1
  Pd  Pd48  1  0.50036303  0.99977687  0.16700461  1
  Pd  Pd49  1  0.49963697  0.49941384  0.49966139  1
  Pd  Pd50  1  0.50058616  0.00022313  0.83299539  1
  Pd  Pd51  1  0.68132652  0.34049541  0.91284722  1
  Pd  Pd52  1  0.65916889  0.31867348  0.57951422  1
  Pd  Pd53  1  0.34083111  0.65950459  0.08715278  1
  Pd  Pd54  1  0.65950459  0.34083111  0.24618022  1
  Pd  Pd55  1  0.34049541  0.68132652  0.42048578  1
  Pd  Pd56  1  0.31867348  0.65916889  0.75381978  1
  Pd  Pd57  1  0.00005542  0.00005542  0.16666700  1
  Pd  Pd58  1  0.00000000  0.99994458  0.83333300  1
  Pd  Pd59  1  0.99994458  0.00000000  0.50000000  1
  Pd  Pd60  1  0.99708984  0.50288785  0.66994884  1
  Pd  Pd61  1  0.50579801  0.00291016  0.33661584  1
  Pd  Pd62  1  0.49420199  0.49711215  0.33005116  1
  Pd  Pd63  1  0.49711215  0.49420199  0.00328184  1
  Pd  Pd64  1  0.50288785  0.99708984  0.66338416  1
  Pd  Pd65  1  0.00291016  0.50579801  0.99671816  1
