# generated using pymatgen
data_Pr3TiCl5O4
_symmetry_space_group_name_H-M   'P 1'
_cell_length_a   4.07393905
_cell_length_b   16.81982660
_cell_length_c   14.69206617
_cell_angle_alpha   90.00000000
_cell_angle_beta   90.00000000
_cell_angle_gamma   90.00000000
_symmetry_Int_Tables_number   1
_chemical_formula_structural   Pr3TiCl5O4
_chemical_formula_sum   'Pr12 Ti4 Cl20 O16'
_cell_volume   1006.74369206
_cell_formula_units_Z   4
loop_
 _symmetry_equiv_pos_site_id
 _symmetry_equiv_pos_as_xyz
  1  'x, y, z'
loop_
 _atom_site_type_symbol
 _atom_site_label
 _atom_site_symmetry_multiplicity
 _atom_site_fract_x
 _atom_site_fract_y
 _atom_site_fract_z
 _atom_site_occupancy
  Pr  Pr0  1  0.75000000  0.87018747  0.73892371  1
  Pr  Pr1  1  0.25000000  0.12981253  0.26107629  1
  Pr  Pr2  1  0.25000000  0.62981253  0.23892371  1
  Pr  Pr3  1  0.75000000  0.37018747  0.76107629  1
  Pr  Pr4  1  0.75000000  0.62083157  0.91571256  1
  Pr  Pr5  1  0.25000000  0.37916843  0.08428744  1
  Pr  Pr6  1  0.25000000  0.87916843  0.41571256  1
  Pr  Pr7  1  0.75000000  0.12083157  0.58428744  1
  Pr  Pr8  1  0.75000000  0.37948419  0.41917988  1
  Pr  Pr9  1  0.25000000  0.62051581  0.58082012  1
  Pr  Pr10  1  0.25000000  0.12051581  0.91917988  1
  Pr  Pr11  1  0.75000000  0.87948419  0.08082012  1
  Ti  Ti12  1  0.75000000  0.70855801  0.41053472  1
  Ti  Ti13  1  0.25000000  0.29144199  0.58946528  1
  Ti  Ti14  1  0.25000000  0.79144199  0.91053472  1
  Ti  Ti15  1  0.75000000  0.20855801  0.08946528  1
  Cl  Cl16  1  0.75000000  0.97866366  0.28417724  1
  Cl  Cl17  1  0.25000000  0.02133634  0.71582276  1
  Cl  Cl18  1  0.25000000  0.52133634  0.78417724  1
  Cl  Cl19  1  0.75000000  0.47866366  0.21582276  1
  Cl  Cl20  1  0.75000000  0.98366344  0.90343004  1
  Cl  Cl21  1  0.25000000  0.01633656  0.09656996  1
  Cl  Cl22  1  0.25000000  0.51633656  0.40343004  1
  Cl  Cl23  1  0.75000000  0.48366344  0.59656996  1
  Cl  Cl24  1  0.75000000  0.70214617  0.10055726  1
  Cl  Cl25  1  0.25000000  0.29785383  0.89944274  1
  Cl  Cl26  1  0.25000000  0.79785383  0.60055726  1
  Cl  Cl27  1  0.75000000  0.20214617  0.39944274  1
  Cl  Cl28  1  0.75000000  0.67951884  0.72531898  1
  Cl  Cl29  1  0.25000000  0.32048116  0.27468102  1
  Cl  Cl30  1  0.25000000  0.82048116  0.22531898  1
  Cl  Cl31  1  0.75000000  0.17951884  0.77468102  1
  Cl  Cl32  1  0.75000000  0.94583478  0.55708192  1
  Cl  Cl33  1  0.25000000  0.05416522  0.44291808  1
  Cl  Cl34  1  0.25000000  0.55416522  0.05708192  1
  Cl  Cl35  1  0.75000000  0.44583478  0.94291808  1
  O  O36  1  0.75000000  0.79157997  0.90862325  1
  O  O37  1  0.25000000  0.20842003  0.09137675  1
  O  O38  1  0.25000000  0.70842003  0.40862325  1
  O  O39  1  0.75000000  0.29157997  0.59137675  1
  O  O40  1  0.75000000  0.65429877  0.30102062  1
  O  O41  1  0.25000000  0.34570123  0.69897938  1
  O  O42  1  0.25000000  0.84570123  0.80102062  1
  O  O43  1  0.75000000  0.15429877  0.19897938  1
  O  O44  1  0.75000000  0.81835698  0.41002356  1
  O  O45  1  0.25000000  0.18164302  0.58997644  1
  O  O46  1  0.25000000  0.68164302  0.91002356  1
  O  O47  1  0.75000000  0.31835698  0.08997644  1
  O  O48  1  0.75000000  0.65172620  0.51842644  1
  O  O49  1  0.25000000  0.34827380  0.48157356  1
  O  O50  1  0.25000000  0.84827380  0.01842644  1
  O  O51  1  0.75000000  0.15172620  0.98157356  1
