# generated using pymatgen
data_NbSBr
_symmetry_space_group_name_H-M   'P 1'
_cell_length_a   7.34942740
_cell_length_b   7.34942740
_cell_length_c   7.34942740
_cell_angle_alpha   60.00000000
_cell_angle_beta   60.00000000
_cell_angle_gamma   60.00000000
_symmetry_Int_Tables_number   1
_chemical_formula_structural   NbSBr
_chemical_formula_sum   'Nb4 S4 Br4'
_cell_volume   280.70200456
_cell_formula_units_Z   4
loop_
 _symmetry_equiv_pos_site_id
 _symmetry_equiv_pos_as_xyz
  1  'x, y, z'
loop_
 _atom_site_type_symbol
 _atom_site_label
 _atom_site_symmetry_multiplicity
 _atom_site_fract_x
 _atom_site_fract_y
 _atom_site_fract_z
 _atom_site_occupancy
  Nb  Nb0  1  0.64897235  0.64897235  0.64897235  1
  Nb  Nb1  1  0.05308296  0.64897235  0.64897235  1
  Nb  Nb2  1  0.64897235  0.05308296  0.64897235  1
  Nb  Nb3  1  0.64897235  0.64897235  0.05308296  1
  S  S4  1  0.87883531  0.87883531  0.87883531  1
  S  S5  1  0.36349406  0.87883531  0.87883531  1
  S  S6  1  0.87883531  0.36349406  0.87883531  1
  S  S7  1  0.87883531  0.87883531  0.36349406  1
  Br  Br8  1  0.37811819  0.37811819  0.37811819  1
  Br  Br9  1  0.86564544  0.37811819  0.37811819  1
  Br  Br10  1  0.37811819  0.86564544  0.37811819  1
  Br  Br11  1  0.37811819  0.37811819  0.86564544  1
