# generated using pymatgen
data_Pr2(WO4)3
_symmetry_space_group_name_H-M   'P 1'
_cell_length_a   7.12985126
_cell_length_b   7.12985126
_cell_length_c   11.80920873
_cell_angle_alpha   101.03373729
_cell_angle_beta   101.03373729
_cell_angle_gamma   111.88970680
_symmetry_Int_Tables_number   1
_chemical_formula_structural   Pr2(WO4)3
_chemical_formula_sum   'Pr4 W6 O24'
_cell_volume   523.49508734
_cell_formula_units_Z   2
loop_
 _symmetry_equiv_pos_site_id
 _symmetry_equiv_pos_as_xyz
  1  'x, y, z'
loop_
 _atom_site_type_symbol
 _atom_site_label
 _atom_site_symmetry_multiplicity
 _atom_site_fract_x
 _atom_site_fract_y
 _atom_site_fract_z
 _atom_site_occupancy
  Pr  Pr0  1  0.54115698  0.78814405  0.59449772  1
  Pr  Pr1  1  0.45884302  0.21185595  0.40550228  1
  Pr  Pr2  1  0.21185595  0.45884302  0.90550228  1
  Pr  Pr3  1  0.78814405  0.54115698  0.09449772  1
  W  W4  1  0.75175877  0.96071131  0.95156638  1
  W  W5  1  0.24824123  0.03928869  0.04843362  1
  W  W6  1  0.03928869  0.24824123  0.54843362  1
  W  W7  1  0.96071131  0.75175877  0.45156638  1
  W  W8  1  0.63206380  0.36793620  0.75000000  1
  W  W9  1  0.36793620  0.63206380  0.25000000  1
  O  O10  1  0.57964048  0.16217987  0.61118047  1
  O  O11  1  0.42035952  0.83782013  0.38881953  1
  O  O12  1  0.83782013  0.42035952  0.88881953  1
  O  O13  1  0.16217987  0.57964048  0.11118047  1
  O  O14  1  0.38146318  0.29540499  0.78135058  1
  O  O15  1  0.61853682  0.70459501  0.21864942  1
  O  O16  1  0.70459501  0.61853682  0.71864942  1
  O  O17  1  0.29540499  0.38146318  0.28135058  1
  O  O18  1  0.58883188  0.69005740  0.96099635  1
  O  O19  1  0.41116812  0.30994260  0.03900365  1
  O  O20  1  0.30994260  0.41116812  0.53900365  1
  O  O21  1  0.69005740  0.58883188  0.46099635  1
  O  O22  1  0.90350259  0.97562607  0.57456954  1
  O  O23  1  0.09649741  0.02437393  0.42543046  1
  O  O24  1  0.02437393  0.09649741  0.92543046  1
  O  O25  1  0.97562607  0.90350259  0.07456954  1
  O  O26  1  0.60198436  0.95393853  0.80544251  1
  O  O27  1  0.39801564  0.04606147  0.19455749  1
  O  O28  1  0.04606147  0.39801564  0.69455749  1
  O  O29  1  0.95393853  0.60198436  0.30544251  1
  O  O30  1  0.26674729  0.83674897  0.94258900  1
  O  O31  1  0.73325271  0.16325103  0.05741100  1
  O  O32  1  0.16325103  0.73325271  0.55741100  1
  O  O33  1  0.83674897  0.26674729  0.44258900  1
