# generated using pymatgen
data_Rb9Co2S7
_symmetry_space_group_name_H-M   'P 1'
_cell_length_a   13.26032345
_cell_length_b   13.26032345
_cell_length_c   13.26032345
_cell_angle_alpha   90.00000000
_cell_angle_beta   90.00000000
_cell_angle_gamma   90.00000000
_symmetry_Int_Tables_number   1
_chemical_formula_structural   Rb9Co2S7
_chemical_formula_sum   'Rb36 Co8 S28'
_cell_volume   2331.64459447
_cell_formula_units_Z   4
loop_
 _symmetry_equiv_pos_site_id
 _symmetry_equiv_pos_as_xyz
  1  'x, y, z'
loop_
 _atom_site_type_symbol
 _atom_site_label
 _atom_site_symmetry_multiplicity
 _atom_site_fract_x
 _atom_site_fract_y
 _atom_site_fract_z
 _atom_site_occupancy
  Rb  Rb0  1  0.08237551  0.54809431  0.25221514  1
  Rb  Rb1  1  0.41762449  0.45190569  0.75221514  1
  Rb  Rb2  1  0.91762449  0.04809431  0.24778486  1
  Rb  Rb3  1  0.25221514  0.08237551  0.54809431  1
  Rb  Rb4  1  0.58237551  0.95190569  0.74778486  1
  Rb  Rb5  1  0.75221514  0.41762449  0.45190569  1
  Rb  Rb6  1  0.24778486  0.91762449  0.04809431  1
  Rb  Rb7  1  0.74778486  0.58237551  0.95190569  1
  Rb  Rb8  1  0.54809431  0.25221514  0.08237551  1
  Rb  Rb9  1  0.04809431  0.24778486  0.91762449  1
  Rb  Rb10  1  0.95190569  0.74778486  0.58237551  1
  Rb  Rb11  1  0.45190569  0.75221514  0.41762449  1
  Rb  Rb12  1  0.48823106  0.48823106  0.48823106  1
  Rb  Rb13  1  0.01176894  0.51176894  0.98823106  1
  Rb  Rb14  1  0.51176894  0.98823106  0.01176894  1
  Rb  Rb15  1  0.98823106  0.01176894  0.51176894  1
  Rb  Rb16  1  0.04004128  0.29489196  0.42165045  1
  Rb  Rb17  1  0.45995872  0.70510804  0.92165045  1
  Rb  Rb18  1  0.95995872  0.79489196  0.07834955  1
  Rb  Rb19  1  0.42165045  0.04004128  0.29489196  1
  Rb  Rb20  1  0.54004128  0.20510804  0.57834955  1
  Rb  Rb21  1  0.92165045  0.45995872  0.70510804  1
  Rb  Rb22  1  0.07834955  0.95995872  0.79489196  1
  Rb  Rb23  1  0.57834955  0.54004128  0.20510804  1
  Rb  Rb24  1  0.29489196  0.42165045  0.04004128  1
  Rb  Rb25  1  0.79489196  0.07834955  0.95995872  1
  Rb  Rb26  1  0.20510804  0.57834955  0.54004128  1
  Rb  Rb27  1  0.70510804  0.92165045  0.45995872  1
  Rb  Rb28  1  0.66381180  0.66381180  0.66381180  1
  Rb  Rb29  1  0.83618820  0.33618820  0.16381180  1
  Rb  Rb30  1  0.33618820  0.16381180  0.83618820  1
  Rb  Rb31  1  0.16381180  0.83618820  0.33618820  1
  Rb  Rb32  1  0.30606557  0.30606557  0.30606557  1
  Rb  Rb33  1  0.19393443  0.69393443  0.80606557  1
  Rb  Rb34  1  0.69393443  0.80606557  0.19393443  1
  Rb  Rb35  1  0.80606557  0.19393443  0.69393443  1
  Co  Co36  1  0.15008273  0.15008273  0.15008273  1
  Co  Co37  1  0.34991727  0.84991727  0.65008273  1
  Co  Co38  1  0.84991727  0.65008273  0.34991727  1
  Co  Co39  1  0.65008273  0.34991727  0.84991727  1
  Co  Co40  1  0.82325434  0.82325434  0.82325434  1
  Co  Co41  1  0.67674566  0.17674566  0.32325434  1
  Co  Co42  1  0.17674566  0.32325434  0.67674566  1
  Co  Co43  1  0.32325434  0.67674566  0.17674566  1
  S  S44  1  0.08883264  0.31384639  0.15913255  1
  S  S45  1  0.41116736  0.68615361  0.65913255  1
  S  S46  1  0.91116736  0.81384639  0.34086745  1
  S  S47  1  0.15913255  0.08883264  0.31384639  1
  S  S48  1  0.58883264  0.18615361  0.84086745  1
  S  S49  1  0.65913255  0.41116736  0.68615361  1
  S  S50  1  0.34086745  0.91116736  0.81384639  1
  S  S51  1  0.84086745  0.58883264  0.18615361  1
  S  S52  1  0.31384639  0.15913255  0.08883264  1
  S  S53  1  0.81384639  0.34086745  0.91116736  1
  S  S54  1  0.18615361  0.84086745  0.58883264  1
  S  S55  1  0.68615361  0.65913255  0.41116736  1
  S  S56  1  0.04766796  0.04766796  0.04766796  1
  S  S57  1  0.45233204  0.95233204  0.54766796  1
  S  S58  1  0.95233204  0.54766796  0.45233204  1
  S  S59  1  0.54766796  0.45233204  0.95233204  1
  S  S60  1  0.06660891  0.20069335  0.67047501  1
  S  S61  1  0.43339109  0.79930665  0.17047501  1
  S  S62  1  0.93339109  0.70069335  0.82952499  1
  S  S63  1  0.67047501  0.06660891  0.20069335  1
  S  S64  1  0.56660891  0.29930665  0.32952499  1
  S  S65  1  0.17047501  0.43339109  0.79930665  1
  S  S66  1  0.82952499  0.93339109  0.70069335  1
  S  S67  1  0.32952499  0.56660891  0.29930665  1
  S  S68  1  0.20069335  0.67047501  0.06660891  1
  S  S69  1  0.70069335  0.82952499  0.93339109  1
  S  S70  1  0.29930665  0.32952499  0.56660891  1
  S  S71  1  0.79930665  0.17047501  0.43339109  1
