# generated using pymatgen
data_RbEr(MoO4)2
_symmetry_space_group_name_H-M   'P 1'
_cell_length_a   7.49670889
_cell_length_b   7.49670889
_cell_length_c   7.72898959
_cell_angle_alpha   61.97974370
_cell_angle_beta   61.97974370
_cell_angle_gamma   88.28980894
_symmetry_Int_Tables_number   1
_chemical_formula_structural   RbEr(MoO4)2
_chemical_formula_sum   'Rb2 Er2 Mo4 O16'
_cell_volume   328.20092591
_cell_formula_units_Z   2
loop_
 _symmetry_equiv_pos_site_id
 _symmetry_equiv_pos_as_xyz
  1  'x, y, z'
loop_
 _atom_site_type_symbol
 _atom_site_label
 _atom_site_symmetry_multiplicity
 _atom_site_fract_x
 _atom_site_fract_y
 _atom_site_fract_z
 _atom_site_occupancy
  Rb  Rb0  1  0.80078016  0.19921984  0.75000000  1
  Rb  Rb1  1  0.19921984  0.80078016  0.25000000  1
  Er  Er2  1  0.22886794  0.77113206  0.75000000  1
  Er  Er3  1  0.77113206  0.22886794  0.25000000  1
  Mo  Mo4  1  0.30413733  0.30353632  0.73741461  1
  Mo  Mo5  1  0.69586267  0.69646368  0.26258539  1
  Mo  Mo6  1  0.69646368  0.69586267  0.76258539  1
  Mo  Mo7  1  0.30353632  0.30413733  0.23741461  1
  O  O8  1  0.38539074  0.23420389  0.93946952  1
  O  O9  1  0.61460926  0.76579611  0.06053048  1
  O  O10  1  0.76579611  0.61460926  0.56053048  1
  O  O11  1  0.23420389  0.38539074  0.43946952  1
  O  O12  1  0.61702445  0.93399951  0.62335031  1
  O  O13  1  0.38297555  0.06600049  0.37664969  1
  O  O14  1  0.06600049  0.38297555  0.87664969  1
  O  O15  1  0.93399951  0.61702445  0.12335031  1
  O  O16  1  0.41385180  0.63348798  0.53095746  1
  O  O17  1  0.58614820  0.36651202  0.46904254  1
  O  O18  1  0.36651202  0.58614820  0.96904254  1
  O  O19  1  0.63348798  0.41385180  0.03095746  1
  O  O20  1  0.20674323  0.04501878  0.80882589  1
  O  O21  1  0.79325677  0.95498122  0.19117411  1
  O  O22  1  0.95498122  0.79325677  0.69117411  1
  O  O23  1  0.04501878  0.20674323  0.30882589  1
