# generated using pymatgen
data_RbHo(MoO4)2
_symmetry_space_group_name_H-M   'P 1'
_cell_length_a   7.51397485
_cell_length_b   7.51397485
_cell_length_c   7.74824589
_cell_angle_alpha   61.93552533
_cell_angle_beta   61.93552533
_cell_angle_gamma   88.31580372
_symmetry_Int_Tables_number   1
_chemical_formula_structural   RbHo(MoO4)2
_chemical_formula_sum   'Rb2 Ho2 Mo4 O16'
_cell_volume   330.12557405
_cell_formula_units_Z   2
loop_
 _symmetry_equiv_pos_site_id
 _symmetry_equiv_pos_as_xyz
  1  'x, y, z'
loop_
 _atom_site_type_symbol
 _atom_site_label
 _atom_site_symmetry_multiplicity
 _atom_site_fract_x
 _atom_site_fract_y
 _atom_site_fract_z
 _atom_site_occupancy
  Rb  Rb0  1  0.80110838  0.19889162  0.75000000  1
  Rb  Rb1  1  0.19889162  0.80110838  0.25000000  1
  Ho  Ho2  1  0.22901330  0.77098670  0.75000000  1
  Ho  Ho3  1  0.77098670  0.22901330  0.25000000  1
  Mo  Mo4  1  0.30401448  0.30334430  0.73738672  1
  Mo  Mo5  1  0.69598552  0.69665570  0.26261328  1
  Mo  Mo6  1  0.69665570  0.69598552  0.76261328  1
  Mo  Mo7  1  0.30334430  0.30401448  0.23738672  1
  O  O8  1  0.38517497  0.23447400  0.93875443  1
  O  O9  1  0.61482503  0.76552600  0.06124557  1
  O  O10  1  0.76552600  0.61482503  0.56124557  1
  O  O11  1  0.23447400  0.38517497  0.43875443  1
  O  O12  1  0.61725768  0.93303908  0.62357872  1
  O  O13  1  0.38274232  0.06696092  0.37642128  1
  O  O14  1  0.06696092  0.38274232  0.87642128  1
  O  O15  1  0.93303908  0.61725768  0.12357872  1
  O  O16  1  0.41434729  0.63290763  0.53084745  1
  O  O17  1  0.58565271  0.36709237  0.46915255  1
  O  O18  1  0.36709237  0.58565271  0.96915255  1
  O  O19  1  0.63290763  0.41434729  0.03084745  1
  O  O20  1  0.20753153  0.04668972  0.80766421  1
  O  O21  1  0.79246847  0.95331028  0.19233579  1
  O  O22  1  0.95331028  0.79246847  0.69233579  1
  O  O23  1  0.04668972  0.20753153  0.30766421  1
