# generated using pymatgen
data_Sb10Pb10(S8Cl)3
_symmetry_space_group_name_H-M   'P 1'
_cell_length_a   3.96070935
_cell_length_b   15.44575803
_cell_length_c   19.71948160
_cell_angle_alpha   95.20453613
_cell_angle_beta   90.00000000
_cell_angle_gamma   90.00000000
_symmetry_Int_Tables_number   1
_chemical_formula_structural   Sb10Pb10(S8Cl)3
_chemical_formula_sum   'Sb10 Pb10 S24 Cl3'
_cell_volume   1201.38856143
_cell_formula_units_Z   1
loop_
 _symmetry_equiv_pos_site_id
 _symmetry_equiv_pos_as_xyz
  1  'x, y, z'
loop_
 _atom_site_type_symbol
 _atom_site_label
 _atom_site_symmetry_multiplicity
 _atom_site_fract_x
 _atom_site_fract_y
 _atom_site_fract_z
 _atom_site_occupancy
  Sb  Sb0  1  0.00000000  0.47027117  0.81337663  1
  Sb  Sb1  1  -0.00000000  0.52972883  0.18662337  1
  Sb  Sb2  1  -0.00000000  0.92726152  0.41487320  1
  Sb  Sb3  1  0.00000000  0.07273848  0.58512680  1
  Sb  Sb4  1  0.00000000  0.37285677  0.98553053  1
  Sb  Sb5  1  -0.00000000  0.62714323  0.01446947  1
  Sb  Sb6  1  0.00000000  0.96748779  0.78463738  1
  Sb  Sb7  1  -0.00000000  0.03251221  0.21536262  1
  Sb  Sb8  1  0.00000000  0.82746395  0.61693530  1
  Sb  Sb9  1  0.00000000  0.17253605  0.38306470  1
  Pb  Pb10  1  0.50000000  0.71683259  0.85457682  1
  Pb  Pb11  1  0.50000000  0.28316741  0.14542318  1
  Pb  Pb12  1  0.50000000  0.79395911  0.25212331  1
  Pb  Pb13  1  0.50000000  0.20604089  0.74787669  1
  Pb  Pb14  1  0.50000000  0.69327643  0.44942529  1
  Pb  Pb15  1  0.50000000  0.30672357  0.55057471  1
  Pb  Pb16  1  0.50000000  0.12675966  0.94694036  1
  Pb  Pb17  1  0.50000000  0.87324034  0.05305964  1
  Pb  Pb18  1  0.50000000  0.58671903  0.65259974  1
  Pb  Pb19  1  0.50000000  0.41328097  0.34740026  1
  S  S20  1  0.00000000  0.76502643  0.95956480  1
  S  S21  1  -0.00000000  0.23497357  0.04043520  1
  S  S22  1  0.00000000  0.87902977  0.16645099  1
  S  S23  1  -0.00000000  0.12097023  0.83354901  1
  S  S24  1  -0.00000000  0.77729977  0.35945618  1
  S  S25  1  0.00000000  0.22270023  0.64054382  1
  S  S26  1  0.50000000  0.56170365  0.91824992  1
  S  S27  1  0.50000000  0.43829635  0.08175008  1
  S  S28  1  0.00000000  0.68128899  0.55884681  1
  S  S29  1  -0.00000000  0.31871101  0.44115319  1
  S  S30  1  0.50000000  0.41674133  0.73464114  1
  S  S31  1  0.50000000  0.58325867  0.26535886  1
  S  S32  1  0.00000000  0.61267874  0.76441130  1
  S  S33  1  -0.00000000  0.38732126  0.23558870  1
  S  S34  1  0.50000000  0.30864002  0.90513543  1
  S  S35  1  0.50000000  0.69135998  0.09486457  1
  S  S36  1  0.50000000  0.93328376  0.86175825  1
  S  S37  1  0.50000000  0.06671624  0.13824175  1
  S  S38  1  0.50000000  0.87560865  0.50288483  1
  S  S39  1  0.50000000  0.12439135  0.49711517  1
  S  S40  1  0.50000000  0.78675824  0.69415082  1
  S  S41  1  0.50000000  0.21324176  0.30584918  1
  S  S42  1  0.50000000  0.96596032  0.32357274  1
  S  S43  1  0.50000000  0.03403968  0.67642726  1
  Cl  Cl44  1  -0.00000000  0.45991217  0.58744024  1
  Cl  Cl45  1  0.00000000  0.54008783  0.41255976  1
  Cl  Cl46  1  -0.00000000  0.00000000  0.00000000  1
