# generated using pymatgen
data_KYP2H4O9
_symmetry_space_group_name_H-M   'P 1'
_cell_length_a   7.87064750
_cell_length_b   10.18878760
_cell_length_c   10.63954894
_cell_angle_alpha   90.00000000
_cell_angle_beta   90.00000000
_cell_angle_gamma   92.75760642
_symmetry_Int_Tables_number   1
_chemical_formula_structural   KYP2H4O9
_chemical_formula_sum   'K4 Y4 P8 H16 O36'
_cell_volume   852.22248212
_cell_formula_units_Z   4
loop_
 _symmetry_equiv_pos_site_id
 _symmetry_equiv_pos_as_xyz
  1  'x, y, z'
loop_
 _atom_site_type_symbol
 _atom_site_label
 _atom_site_symmetry_multiplicity
 _atom_site_fract_x
 _atom_site_fract_y
 _atom_site_fract_z
 _atom_site_occupancy
  K  K0  1  0.75366336  0.84551711  0.21298539  1
  K  K1  1  0.24633664  0.15448289  0.78701461  1
  K  K2  1  0.24633664  0.65448289  0.71298539  1
  K  K3  1  0.75366336  0.34551711  0.28701461  1
  Y  Y4  1  0.74852919  0.67062358  0.61986620  1
  Y  Y5  1  0.25147081  0.32937642  0.38013380  1
  Y  Y6  1  0.25147081  0.82937642  0.11986620  1
  Y  Y7  1  0.74852919  0.17062358  0.88013380  1
  P  P8  1  0.96036579  0.87094153  0.85382257  1
  P  P9  1  0.03963421  0.12905847  0.14617743  1
  P  P10  1  0.03963421  0.62905847  0.35382257  1
  P  P11  1  0.96036579  0.37094153  0.64617743  1
  P  P12  1  0.60034800  0.83388487  0.89179330  1
  P  P13  1  0.39965200  0.16611513  0.10820670  1
  P  P14  1  0.39965200  0.66611513  0.39179330  1
  P  P15  1  0.60034800  0.33388487  0.60820670  1
  H  H16  1  0.42134908  0.87497528  0.57306726  1
  H  H17  1  0.57865092  0.12502472  0.42693274  1
  H  H18  1  0.57865092  0.62502472  0.07306726  1
  H  H19  1  0.42134908  0.37497528  0.92693274  1
  H  H20  1  0.45234409  0.96721622  0.68789221  1
  H  H21  1  0.54765591  0.03278378  0.31210779  1
  H  H22  1  0.54765591  0.53278378  0.18789221  1
  H  H23  1  0.45234409  0.46721622  0.81210779  1
  H  H24  1  0.84586770  0.95480239  0.61821795  1
  H  H25  1  0.15413230  0.04519761  0.38178205  1
  H  H26  1  0.15413230  0.54519761  0.11821795  1
  H  H27  1  0.84586770  0.45480239  0.88178205  1
  H  H28  1  0.72588723  0.95558417  0.49500036  1
  H  H29  1  0.27411277  0.04441583  0.50499964  1
  H  H30  1  0.27411277  0.54441583  0.99500036  1
  H  H31  1  0.72588723  0.45558417  0.00499964  1
  O  O32  1  0.57441700  0.97651657  0.85310448  1
  O  O33  1  0.42558300  0.02348343  0.14689552  1
  O  O34  1  0.42558300  0.52348343  0.35310448  1
  O  O35  1  0.57441700  0.47651657  0.64689552  1
  O  O36  1  0.58281737  0.73835283  0.78096648  1
  O  O37  1  0.41718263  0.26164717  0.21903352  1
  O  O38  1  0.41718263  0.76164717  0.28096648  1
  O  O39  1  0.58281737  0.23835283  0.71903352  1
  O  O40  1  0.93580308  0.51319577  0.68621330  1
  O  O41  1  0.06419692  0.48680423  0.31378670  1
  O  O42  1  0.06419692  0.98680423  0.18621330  1
  O  O43  1  0.93580308  0.01319577  0.81378670  1
  O  O44  1  0.95301701  0.77601396  0.74272571  1
  O  O45  1  0.04698299  0.22398604  0.25727429  1
  O  O46  1  0.04698299  0.72398604  0.24272571  1
  O  O47  1  0.95301701  0.27601396  0.75727429  1
  O  O48  1  0.88148689  0.64488810  0.43433259  1
  O  O49  1  0.11851311  0.35511190  0.56566741  1
  O  O50  1  0.11851311  0.85511190  0.93433259  1
  O  O51  1  0.88148689  0.14488810  0.06566741  1
  O  O52  1  0.36795700  0.94459615  0.62135994  1
  O  O53  1  0.63204300  0.05540385  0.37864006  1
  O  O54  1  0.63204300  0.55540385  0.12135994  1
  O  O55  1  0.36795700  0.44459615  0.87864006  1
  O  O56  1  0.78323676  0.89966639  0.55693989  1
  O  O57  1  0.21676324  0.10033361  0.44306011  1
  O  O58  1  0.21676324  0.60033361  0.05693989  1
  O  O59  1  0.78323676  0.39966639  0.94306011  1
  O  O60  1  0.50406128  0.71545600  0.50532353  1
  O  O61  1  0.49593872  0.28454400  0.49467647  1
  O  O62  1  0.49593872  0.78454400  0.00532353  1
  O  O63  1  0.50406128  0.21545600  0.99467647  1
  O  O64  1  0.79702572  0.82863524  0.94482037  1
  O  O65  1  0.20297428  0.17136476  0.05517963  1
  O  O66  1  0.20297428  0.67136476  0.44482037  1
  O  O67  1  0.79702572  0.32863524  0.55517963  1
