# generated using pymatgen
data_Na2NiH20C12(N2O3)6
_symmetry_space_group_name_H-M   'P 1'
_cell_length_a   7.27403822
_cell_length_b   10.69950292
_cell_length_c   10.48826277
_cell_angle_alpha   63.84257445
_cell_angle_beta   84.84214856
_cell_angle_gamma   68.89988852
_symmetry_Int_Tables_number   1
_chemical_formula_structural   Na2NiH20C12(N2O3)6
_chemical_formula_sum   'Na2 Ni1 H20 C12 N12 O18'
_cell_volume   681.25202797
_cell_formula_units_Z   1
loop_
 _symmetry_equiv_pos_site_id
 _symmetry_equiv_pos_as_xyz
  1  'x, y, z'
loop_
 _atom_site_type_symbol
 _atom_site_label
 _atom_site_symmetry_multiplicity
 _atom_site_fract_x
 _atom_site_fract_y
 _atom_site_fract_z
 _atom_site_occupancy
  Na  Na0  1  0.23780596  0.46606685  0.59830039  1
  Na  Na1  1  0.76219404  0.53393315  0.40169961  1
  Ni  Ni2  1  0.00000000  -0.00000000  -0.00000000  1
  H  H3  1  0.05621374  0.68552449  0.30982294  1
  H  H4  1  0.94378626  0.31447551  0.69017706  1
  H  H5  1  0.57143628  0.72917614  0.09819546  1
  H  H6  1  0.42856372  0.27082386  0.90180454  1
  H  H7  1  0.68839231  0.03273961  0.16228913  1
  H  H8  1  0.31160769  0.96726039  0.83771087  1
  H  H9  1  0.06549849  0.23952444  0.59473342  1
  H  H10  1  0.93450151  0.76047556  0.40526658  1
  H  H11  1  0.69711964  0.11630365  0.56022603  1
  H  H12  1  0.30288036  0.88369635  0.43977397  1
  H  H13  1  0.29094927  0.10094174  0.88309348  1
  H  H14  1  0.70905073  0.89905826  0.11690652  1
  H  H15  1  0.12132495  0.13777151  0.37011911  1
  H  H16  1  0.87867505  0.86222849  0.62988089  1
  H  H17  1  0.45146831  0.80317251  0.19431837  1
  H  H18  1  0.54853169  0.19682749  0.80568163  1
  H  H19  1  0.77230650  0.49308143  0.01311937  1
  H  H20  1  0.22769350  0.50691857  0.98688063  1
  H  H21  1  0.33519767  0.46612122  0.21164099  1
  H  H22  1  0.66480233  0.53387878  0.78835901  1
  C  C23  1  0.51097470  0.30502577  0.39609863  1
  C  C24  1  0.48902530  0.69497423  0.60390137  1
  C  C25  1  0.09666549  0.08688080  0.20142539  1
  C  C26  1  0.90333451  0.91311920  0.79857461  1
  C  C27  1  0.67807509  0.06632441  0.38938035  1
  C  C28  1  0.32192491  0.93367559  0.61061965  1
  C  C29  1  0.94312709  0.32980915  0.20118874  1
  C  C30  1  0.05687291  0.67019085  0.79881126  1
  C  C31  1  0.10397226  0.70907231  0.00350465  1
  C  C32  1  0.89602774  0.29092769  0.99649535  1
  C  C33  1  0.47280023  0.26745221  0.18900059  1
  C  C34  1  0.52719977  0.73254779  0.81099941  1
  N  N35  1  0.00766382  0.14419159  0.06908175  1
  N  N36  1  0.99233618  0.85580841  0.93091825  1
  N  N37  1  0.86676929  0.38120806  0.06436970  1
  N  N38  1  0.13323071  0.61879194  0.93563030  1
  N  N39  1  0.59891300  0.12404190  0.25427973  1
  N  N40  1  0.40108700  0.87595810  0.74572027  1
  N  N41  1  0.06215492  0.18144050  0.26511390  1
  N  N42  1  0.93784508  0.81855950  0.73488610  1
  N  N43  1  0.63424260  0.15851153  0.45716455  1
  N  N44  1  0.36575740  0.84148847  0.54283545  1
  N  N45  1  0.42931544  0.35480487  0.26187259  1
  N  N46  1  0.57068456  0.64519513  0.73812741  1
  O  O47  1  0.39334869  0.32532130  0.06436709  1
  O  O48  1  0.60665131  0.67467870  0.93563291  1
  O  O49  1  0.20877350  0.06756738  0.54429970  1
  O  O50  1  0.79122650  0.93243262  0.45570030  1
  O  O51  1  0.20421183  0.95185480  0.26565184  1
  O  O52  1  0.79578817  0.04814520  0.73434816  1
  O  O53  1  0.58596164  0.75014251  0.17864040  1
  O  O54  1  0.41403836  0.24985749  0.82135960  1
  O  O55  1  0.18139072  0.65627063  0.12726349  1
  O  O56  1  0.81860928  0.34372937  0.87273651  1
  O  O57  1  0.47692023  0.38678585  0.45709726  1
  O  O58  1  0.52307977  0.61321415  0.54290274  1
  O  O59  1  0.00430002  0.33574628  0.59924237  1
  O  O60  1  0.99569998  0.66425372  0.40075763  1
  O  O61  1  0.24492562  0.01827744  0.90236211  1
  O  O62  1  0.75507438  0.98172256  0.09763789  1
  O  O63  1  0.09279124  0.58871456  0.73785114  1
  O  O64  1  0.90720876  0.41128544  0.26214886  1
