# generated using pymatgen
data_KHgH2Cl3O
_symmetry_space_group_name_H-M   'P 1'
_cell_length_a   4.28996235
_cell_length_b   8.75665725
_cell_length_c   18.22914028
_cell_angle_alpha   90.00000000
_cell_angle_beta   90.00000000
_cell_angle_gamma   90.00000000
_symmetry_Int_Tables_number   1
_chemical_formula_structural   KHgH2Cl3O
_chemical_formula_sum   'K4 Hg4 H8 Cl12 O4'
_cell_volume   684.79096033
_cell_formula_units_Z   4
loop_
 _symmetry_equiv_pos_site_id
 _symmetry_equiv_pos_as_xyz
  1  'x, y, z'
loop_
 _atom_site_type_symbol
 _atom_site_label
 _atom_site_symmetry_multiplicity
 _atom_site_fract_x
 _atom_site_fract_y
 _atom_site_fract_z
 _atom_site_occupancy
  K  K0  1  0.75000000  0.59758363  0.30919636  1
  K  K1  1  0.25000000  0.40241637  0.69080364  1
  K  K2  1  0.25000000  0.90241637  0.80919636  1
  K  K3  1  0.75000000  0.09758363  0.19080364  1
  Hg  Hg4  1  0.75000000  0.95379338  0.59479176  1
  Hg  Hg5  1  0.25000000  0.04620662  0.40520824  1
  Hg  Hg6  1  0.25000000  0.54620662  0.09479176  1
  Hg  Hg7  1  0.75000000  0.45379338  0.90520824  1
  H  H8  1  0.75000000  0.89811427  0.95574681  1
  H  H9  1  0.25000000  0.10188573  0.04425319  1
  H  H10  1  0.25000000  0.60188573  0.45574681  1
  H  H11  1  0.75000000  0.39811427  0.54425319  1
  H  H12  1  0.75000000  0.56708923  0.57099203  1
  H  H13  1  0.25000000  0.43291077  0.42900797  1
  H  H14  1  0.25000000  0.93291077  0.07099203  1
  H  H15  1  0.75000000  0.06708923  0.92900797  1
  Cl  Cl16  1  0.75000000  0.84034375  0.46598697  1
  Cl  Cl17  1  0.25000000  0.15965625  0.53401303  1
  Cl  Cl18  1  0.25000000  0.65965625  0.96598697  1
  Cl  Cl19  1  0.75000000  0.34034375  0.03401303  1
  Cl  Cl20  1  0.75000000  0.60778509  0.79033055  1
  Cl  Cl21  1  0.25000000  0.39221491  0.20966945  1
  Cl  Cl22  1  0.25000000  0.89221491  0.29033055  1
  Cl  Cl23  1  0.75000000  0.10778509  0.70966945  1
  Cl  Cl24  1  0.75000000  0.72943196  0.13153192  1
  Cl  Cl25  1  0.25000000  0.27056804  0.86846808  1
  Cl  Cl26  1  0.25000000  0.77056804  0.63153192  1
  Cl  Cl27  1  0.75000000  0.22943196  0.36846808  1
  O  O28  1  0.75000000  0.96162612  0.91172354  1
  O  O29  1  0.25000000  0.03837388  0.08827646  1
  O  O30  1  0.25000000  0.53837388  0.41172354  1
  O  O31  1  0.75000000  0.46162612  0.58827646  1
