# generated using pymatgen
data_Na2Ca4ZrNbSi4(O8F)2
_symmetry_space_group_name_H-M   'P 1'
_cell_length_a   7.44006567
_cell_length_b   10.37053726
_cell_length_c   11.01525604
_cell_angle_alpha   90.00000000
_cell_angle_beta   109.15851818
_cell_angle_gamma   90.00000000
_symmetry_Int_Tables_number   1
_chemical_formula_structural   Na2Ca4ZrNbSi4(O8F)2
_chemical_formula_sum   'Na4 Ca8 Zr2 Nb2 Si8 O32 F4'
_cell_volume   802.83648507
_cell_formula_units_Z   2
loop_
 _symmetry_equiv_pos_site_id
 _symmetry_equiv_pos_as_xyz
  1  'x, y, z'
loop_
 _atom_site_type_symbol
 _atom_site_label
 _atom_site_symmetry_multiplicity
 _atom_site_fract_x
 _atom_site_fract_y
 _atom_site_fract_z
 _atom_site_occupancy
  Na  Na0  1  0.31248737  0.17262166  0.88160450  1
  Na  Na1  1  0.68751263  0.67262166  0.11839550  1
  Na  Na2  1  0.44809668  0.32774010  0.63231884  1
  Na  Na3  1  0.55190332  0.82774010  0.36768116  1
  Ca  Ca4  1  0.55436174  0.44087547  0.34900945  1
  Ca  Ca5  1  0.44563826  0.94087547  0.65099055  1
  Ca  Ca6  1  0.69875333  0.05639981  0.15814428  1
  Ca  Ca7  1  0.30124667  0.55639981  0.84185572  1
  Ca  Ca8  1  0.20450086  0.05567373  0.15016742  1
  Ca  Ca9  1  0.79549914  0.55567373  0.84983258  1
  Ca  Ca10  1  0.05392414  0.82336136  0.36857279  1
  Ca  Ca11  1  0.94607586  0.32336136  0.63142721  1
  Zr  Zr12  1  0.05056668  0.45597375  0.33988391  1
  Zr  Zr13  1  0.94943332  0.95597375  0.66011609  1
  Nb  Nb14  1  0.17346474  0.69523163  0.11891003  1
  Nb  Nb15  1  0.82653526  0.19523163  0.88108997  1
  Si  Si16  1  0.56214376  0.12762410  0.43926658  1
  Si  Si17  1  0.43785624  0.62762410  0.56073342  1
  Si  Si18  1  0.20262196  0.37042996  0.08386415  1
  Si  Si19  1  0.79737804  0.87042996  0.91613585  1
  Si  Si20  1  0.12489741  0.12798537  0.43366169  1
  Si  Si21  1  0.87510259  0.62798537  0.56633831  1
  Si  Si22  1  0.63473010  0.37558459  0.07337834  1
  Si  Si23  1  0.36526990  0.87558459  0.92662166  1
  O  O24  1  0.07262433  0.27603217  0.45841981  1
  O  O25  1  0.92737567  0.77603217  0.54158019  1
  O  O26  1  0.09273114  0.02482568  0.53849139  1
  O  O27  1  0.90726886  0.52482568  0.46150861  1
  O  O28  1  0.69110182  0.23835625  0.02101853  1
  O  O29  1  0.30889818  0.73835625  0.97898147  1
  O  O30  1  0.36123981  0.11638667  0.47679243  1
  O  O31  1  0.63876019  0.61638667  0.52320757  1
  O  O32  1  0.64871070  0.27030362  0.48732488  1
  O  O33  1  0.35128930  0.77030362  0.51267512  1
  O  O34  1  0.51614637  0.09948861  0.28760234  1
  O  O35  1  0.48385363  0.59948861  0.71239766  1
  O  O36  1  0.03463086  0.62481327  0.24433063  1
  O  O37  1  0.96536914  0.12481327  0.75566937  1
  O  O38  1  0.02355679  0.06791963  0.29156411  1
  O  O39  1  0.97644321  0.56791963  0.70843589  1
  O  O40  1  0.77055222  0.40412640  0.22181102  1
  O  O41  1  0.22944778  0.90412640  0.77818898  1
  O  O42  1  0.21312187  0.36944801  0.23472986  1
  O  O43  1  0.78687813  0.86944801  0.76527014  1
  O  O44  1  0.38453120  0.99759900  0.02129979  1
  O  O45  1  0.61546880  0.49759900  0.97870021  1
  O  O46  1  0.42357070  0.34766532  0.08902444  1
  O  O47  1  0.57642930  0.84766532  0.91097556  1
  O  O48  1  0.22904243  0.84320518  0.21908425  1
  O  O49  1  0.77095757  0.34320518  0.78091575  1
  O  O50  1  0.31916960  0.50608817  0.47357841  1
  O  O51  1  0.68083040  0.00608817  0.52642159  1
  O  O52  1  0.09426619  0.24036832  0.01082677  1
  O  O53  1  0.90573381  0.74036832  0.98917323  1
  O  O54  1  0.12281646  0.50590265  0.00904157  1
  O  O55  1  0.87718354  0.00590265  0.99095843  1
  F  F56  1  0.25506639  0.35026717  0.76027710  1
  F  F57  1  0.74493361  0.85026717  0.23972290  1
  F  F58  1  0.45490456  0.62070236  0.22536521  1
  F  F59  1  0.54509544  0.12070236  0.77463479  1
