# generated using pymatgen
data_Li6Al13Cu8
_symmetry_space_group_name_H-M   'P 1'
_cell_length_a   4.95783731
_cell_length_b   12.71417760
_cell_length_c   12.71417760
_cell_angle_alpha   90.00000000
_cell_angle_beta   90.00000000
_cell_angle_gamma   90.00000000
_symmetry_Int_Tables_number   1
_chemical_formula_structural   Li6Al13Cu8
_chemical_formula_sum   'Li12 Al26 Cu16'
_cell_volume   801.43594823
_cell_formula_units_Z   2
loop_
 _symmetry_equiv_pos_site_id
 _symmetry_equiv_pos_as_xyz
  1  'x, y, z'
loop_
 _atom_site_type_symbol
 _atom_site_label
 _atom_site_symmetry_multiplicity
 _atom_site_fract_x
 _atom_site_fract_y
 _atom_site_fract_z
 _atom_site_occupancy
  Li  Li0  1  0.00000000  0.58314409  0.08314409  1
  Li  Li1  1  0.00000000  0.41685591  0.91685591  1
  Li  Li2  1  0.00000000  0.91685591  0.58314409  1
  Li  Li3  1  0.00000000  0.08314409  0.41685591  1
  Li  Li4  1  0.50000000  0.21647899  0.71647899  1
  Li  Li5  1  0.50000000  0.78352101  0.28352101  1
  Li  Li6  1  0.50000000  0.28352101  0.21647899  1
  Li  Li7  1  0.50000000  0.71647899  0.78352101  1
  Li  Li8  1  0.50000000  0.64172582  0.14172582  1
  Li  Li9  1  0.50000000  0.35827418  0.85827418  1
  Li  Li10  1  0.50000000  0.85827418  0.64172582  1
  Li  Li11  1  0.50000000  0.14172582  0.35827418  1
  Al  Al12  1  0.50000000  0.09435535  0.11691663  1
  Al  Al13  1  0.50000000  0.90564465  0.88308337  1
  Al  Al14  1  0.50000000  0.88308337  0.09435535  1
  Al  Al15  1  0.50000000  0.40564465  0.61691663  1
  Al  Al16  1  0.50000000  0.11691663  0.90564465  1
  Al  Al17  1  0.50000000  0.59435535  0.38308337  1
  Al  Al18  1  0.50000000  0.61691663  0.59435535  1
  Al  Al19  1  0.50000000  0.38308337  0.40564465  1
  Al  Al20  1  0.00000000  0.15016241  0.19316656  1
  Al  Al21  1  0.00000000  0.84983759  0.80683344  1
  Al  Al22  1  0.00000000  0.80683344  0.15016241  1
  Al  Al23  1  0.00000000  0.34983759  0.69316656  1
  Al  Al24  1  0.00000000  0.19316656  0.84983759  1
  Al  Al25  1  0.00000000  0.65016241  0.30683344  1
  Al  Al26  1  0.00000000  0.69316656  0.65016241  1
  Al  Al27  1  0.00000000  0.30683344  0.34983759  1
  Al  Al28  1  0.50000000  0.07354361  0.57354361  1
  Al  Al29  1  0.50000000  0.92645639  0.42645639  1
  Al  Al30  1  0.50000000  0.42645639  0.07354361  1
  Al  Al31  1  0.50000000  0.57354361  0.92645639  1
  Al  Al32  1  0.00000000  0.13724662  0.63724662  1
  Al  Al33  1  0.00000000  0.86275338  0.36275338  1
  Al  Al34  1  0.00000000  0.36275338  0.13724662  1
  Al  Al35  1  0.00000000  0.63724662  0.86275338  1
  Al  Al36  1  0.00000000  -0.00000000  -0.00000000  1
  Al  Al37  1  0.00000000  0.50000000  0.50000000  1
  Cu  Cu38  1  0.25087896  0.24274701  0.02250340  1
  Cu  Cu39  1  0.74912104  0.75725299  0.97749660  1
  Cu  Cu40  1  0.25087896  0.75725299  0.97749660  1
  Cu  Cu41  1  0.25087896  0.97749660  0.24274701  1
  Cu  Cu42  1  0.74912104  0.25725299  0.52250340  1
  Cu  Cu43  1  0.74912104  0.24274701  0.02250340  1
  Cu  Cu44  1  0.74912104  0.02250340  0.75725299  1
  Cu  Cu45  1  0.25087896  0.74274701  0.47749660  1
  Cu  Cu46  1  0.25087896  0.02250340  0.75725299  1
  Cu  Cu47  1  0.74912104  0.74274701  0.47749660  1
  Cu  Cu48  1  0.74912104  0.97749660  0.24274701  1
  Cu  Cu49  1  0.25087896  0.25725299  0.52250340  1
  Cu  Cu50  1  0.74912104  0.52250340  0.74274701  1
  Cu  Cu51  1  0.25087896  0.47749660  0.25725299  1
  Cu  Cu52  1  0.74912104  0.47749660  0.25725299  1
  Cu  Cu53  1  0.25087896  0.52250340  0.74274701  1
