# generated using pymatgen
data_Na5Al(HO)8
_symmetry_space_group_name_H-M   'P 1'
_cell_length_a   9.57597523
_cell_length_b   9.57597523
_cell_length_c   9.72512847
_cell_angle_alpha   90.00000000
_cell_angle_beta   90.00000000
_cell_angle_gamma   90.00000000
_symmetry_Int_Tables_number   1
_chemical_formula_structural   Na5Al(HO)8
_chemical_formula_sum   'Na20 Al4 H32 O32'
_cell_volume   891.78748872
_cell_formula_units_Z   4
loop_
 _symmetry_equiv_pos_site_id
 _symmetry_equiv_pos_as_xyz
  1  'x, y, z'
loop_
 _atom_site_type_symbol
 _atom_site_label
 _atom_site_symmetry_multiplicity
 _atom_site_fract_x
 _atom_site_fract_y
 _atom_site_fract_z
 _atom_site_occupancy
  Na  Na0  1  0.62363419  0.62363419  -0.00000000  1
  Na  Na1  1  0.37636581  0.37636581  0.50000000  1
  Na  Na2  1  0.87636581  0.12363419  0.25000000  1
  Na  Na3  1  0.12363419  0.87636581  0.75000000  1
  Na  Na4  1  0.11553081  0.37339301  0.27849986  1
  Na  Na5  1  0.88446919  0.62660699  0.77849986  1
  Na  Na6  1  0.12660699  0.61553081  0.52849986  1
  Na  Na7  1  0.38446919  0.87339301  0.97150014  1
  Na  Na8  1  0.87339301  0.38446919  0.02849986  1
  Na  Na9  1  0.61553081  0.12660699  0.47150014  1
  Na  Na10  1  0.37339301  0.11553081  0.72150014  1
  Na  Na11  1  0.62660699  0.88446919  0.22150014  1
  Na  Na12  1  0.37881694  0.13049888  0.23337278  1
  Na  Na13  1  0.62118306  0.86950112  0.73337278  1
  Na  Na14  1  0.36950112  0.87881694  0.48337278  1
  Na  Na15  1  0.12118306  0.63049888  0.01662722  1
  Na  Na16  1  0.63049888  0.12118306  0.98337278  1
  Na  Na17  1  0.87881694  0.36950112  0.51662722  1
  Na  Na18  1  0.13049888  0.37881694  0.76662722  1
  Na  Na19  1  0.86950112  0.62118306  0.26662722  1
  Al  Al20  1  0.13232618  0.13232618  -0.00000000  1
  Al  Al21  1  0.86767382  0.86767382  0.50000000  1
  Al  Al22  1  0.36767382  0.63232618  0.25000000  1
  Al  Al23  1  0.63232618  0.36767382  0.75000000  1
  H  H24  1  0.21309501  0.36246150  0.05182197  1
  H  H25  1  0.78690499  0.63753850  0.55182197  1
  H  H26  1  0.13753850  0.71309501  0.30182197  1
  H  H27  1  0.28690499  0.86246150  0.19817803  1
  H  H28  1  0.86246150  0.28690499  0.80182197  1
  H  H29  1  0.71309501  0.13753850  0.69817803  1
  H  H30  1  0.36246150  0.21309501  0.94817803  1
  H  H31  1  0.63753850  0.78690499  0.44817803  1
  H  H32  1  0.44737716  0.39455519  0.20356654  1
  H  H33  1  0.55262284  0.60544481  0.70356654  1
  H  H34  1  0.10544481  0.94737716  0.45356654  1
  H  H35  1  0.05262284  0.89455519  0.04643346  1
  H  H36  1  0.89455519  0.05262284  0.95356654  1
  H  H37  1  0.94737716  0.10544481  0.54643346  1
  H  H38  1  0.39455519  0.44737716  0.79643346  1
  H  H39  1  0.60544481  0.55262284  0.29643346  1
  H  H40  1  0.26946590  0.13073922  0.46394077  1
  H  H41  1  0.73053410  0.86926078  0.96394077  1
  H  H42  1  0.36926078  0.76946590  0.71394077  1
  H  H43  1  0.23053410  0.63073922  0.78605923  1
  H  H44  1  0.63073922  0.23053410  0.21394077  1
  H  H45  1  0.76946590  0.36926078  0.28605923  1
  H  H46  1  0.13073922  0.26946590  0.53605923  1
  H  H47  1  0.86926078  0.73053410  0.03605923  1
  H  H48  1  0.13626268  0.03699468  0.22951722  1
  H  H49  1  0.86373732  0.96300532  0.72951722  1
  H  H50  1  0.46300532  0.63626268  0.47951722  1
  H  H51  1  0.36373732  0.53699468  0.02048278  1
  H  H52  1  0.53699468  0.36373732  0.97951722  1
  H  H53  1  0.63626268  0.46300532  0.52048278  1
  H  H54  1  0.03699468  0.13626268  0.77048278  1
  H  H55  1  0.96300532  0.86373732  0.27048278  1
  O  O56  1  0.13076530  0.13429667  0.20221601  1
  O  O57  1  0.86923470  0.86570333  0.70221601  1
  O  O58  1  0.36570333  0.63076530  0.45221601  1
  O  O59  1  0.36923470  0.63429667  0.04778399  1
  O  O60  1  0.63429667  0.36923470  0.95221601  1
  O  O61  1  0.63076530  0.36570333  0.54778399  1
  O  O62  1  0.13429667  0.13076530  0.79778399  1
  O  O63  1  0.86570333  0.86923470  0.29778399  1
  O  O64  1  0.36958007  0.12170637  0.47666693  1
  O  O65  1  0.63041993  0.87829363  0.97666693  1
  O  O66  1  0.37829363  0.86958007  0.72666693  1
  O  O67  1  0.13041993  0.62170637  0.77333307  1
  O  O68  1  0.62170637  0.13041993  0.22666693  1
  O  O69  1  0.86958007  0.37829363  0.27333307  1
  O  O70  1  0.12170637  0.36958007  0.52333307  1
  O  O71  1  0.87829363  0.63041993  0.02333307  1
  O  O72  1  0.36191148  0.42773558  0.24537355  1
  O  O73  1  0.63808852  0.57226442  0.74537355  1
  O  O74  1  0.07226442  0.86191148  0.49537355  1
  O  O75  1  0.13808852  0.92773558  0.00462645  1
  O  O76  1  0.92773558  0.13808852  0.99537355  1
  O  O77  1  0.86191148  0.07226442  0.50462645  1
  O  O78  1  0.42773558  0.36191148  0.75462645  1
  O  O79  1  0.57226442  0.63808852  0.25462645  1
  O  O80  1  0.12662331  0.33487605  0.00674141  1
  O  O81  1  0.87337669  0.66512395  0.50674141  1
  O  O82  1  0.16512395  0.62662331  0.25674141  1
  O  O83  1  0.37337669  0.83487605  0.24325859  1
  O  O84  1  0.83487605  0.37337669  0.75674141  1
  O  O85  1  0.62662331  0.16512395  0.74325859  1
  O  O86  1  0.33487605  0.12662331  0.99325859  1
  O  O87  1  0.66512395  0.87337669  0.49325859  1
