# generated using pymatgen
data_PuH16C3N4O11
_symmetry_space_group_name_H-M   'P 1'
_cell_length_a   7.30180616
_cell_length_b   7.30180616
_cell_length_c   13.02072467
_cell_angle_alpha   87.24489790
_cell_angle_beta   87.24489790
_cell_angle_gamma   79.28286664
_symmetry_Int_Tables_number   1
_chemical_formula_structural   PuH16C3N4O11
_chemical_formula_sum   'Pu2 H32 C6 N8 O22'
_cell_volume   680.77858078
_cell_formula_units_Z   2
loop_
 _symmetry_equiv_pos_site_id
 _symmetry_equiv_pos_as_xyz
  1  'x, y, z'
loop_
 _atom_site_type_symbol
 _atom_site_label
 _atom_site_symmetry_multiplicity
 _atom_site_fract_x
 _atom_site_fract_y
 _atom_site_fract_z
 _atom_site_occupancy
  Pu  Pu0  1  0.19288536  0.80711464  0.75000000  1
  Pu  Pu1  1  0.80711464  0.19288536  0.25000000  1
  H  H2  1  0.64876595  0.13280338  0.84029323  1
  H  H3  1  0.35123405  0.86719662  0.15970677  1
  H  H4  1  0.86719662  0.35123405  0.65970677  1
  H  H5  1  0.13280338  0.64876595  0.34029323  1
  H  H6  1  0.56061724  0.27961682  0.60478103  1
  H  H7  1  0.43938276  0.72038318  0.39521897  1
  H  H8  1  0.72038318  0.43938276  0.89521897  1
  H  H9  1  0.27961682  0.56061724  0.10478103  1
  H  H10  1  0.34017217  0.91625718  0.46152568  1
  H  H11  1  0.65982783  0.08374282  0.53847432  1
  H  H12  1  0.08374282  0.65982783  0.03847432  1
  H  H13  1  0.91625718  0.34017217  0.96152568  1
  H  H14  1  0.37418624  0.70381482  0.52168169  1
  H  H15  1  0.62581376  0.29618518  0.47831831  1
  H  H16  1  0.29618518  0.62581376  0.97831831  1
  H  H17  1  0.70381482  0.37418624  0.02168169  1
  H  H18  1  0.73892918  0.93679802  0.91463560  1
  H  H19  1  0.26107082  0.06320198  0.08536440  1
  H  H20  1  0.06320198  0.26107082  0.58536440  1
  H  H21  1  0.93679802  0.73892918  0.41463560  1
  H  H22  1  0.72542738  0.93510752  0.78482722  1
  H  H23  1  0.27457262  0.06489248  0.21517278  1
  H  H24  1  0.06489248  0.27457262  0.71517278  1
  H  H25  1  0.93510752  0.72542738  0.28482722  1
  H  H26  1  0.52619046  0.95805079  0.86379256  1
  H  H27  1  0.47380954  0.04194921  0.13620744  1
  H  H28  1  0.04194921  0.47380954  0.63620744  1
  H  H29  1  0.95805079  0.52619046  0.36379256  1
  H  H30  1  0.43967360  0.20043006  0.51365927  1
  H  H31  1  0.56032640  0.79956994  0.48634073  1
  H  H32  1  0.79956994  0.56032640  0.98634073  1
  H  H33  1  0.20043006  0.43967360  0.01365927  1
  C  C34  1  0.49993222  0.50006778  0.75000000  1
  C  C35  1  0.50006778  0.49993222  0.25000000  1
  C  C36  1  0.15944000  0.08024733  0.90717996  1
  C  C37  1  0.84056000  0.91975267  0.09282004  1
  C  C38  1  0.91975267  0.84056000  0.59282004  1
  C  C39  1  0.08024733  0.15944000  0.40717996  1
  N  N40  1  0.57085930  0.21572979  0.53474510  1
  N  N41  1  0.42914070  0.78427021  0.46525490  1
  N  N42  1  0.78427021  0.42914070  0.96525490  1
  N  N43  1  0.21572979  0.57085930  0.03474510  1
  N  N44  1  0.65894950  0.99000385  0.85155968  1
  N  N45  1  0.34105050  0.00999615  0.14844032  1
  N  N46  1  0.00999615  0.34105050  0.64844032  1
  N  N47  1  0.99000385  0.65894950  0.35155968  1
  O  O48  1  0.19955803  0.13947107  0.47764322  1
  O  O49  1  0.80044197  0.86052893  0.52235678  1
  O  O50  1  0.86052893  0.80044197  0.02235678  1
  O  O51  1  0.13947107  0.19955803  0.97764322  1
  O  O52  1  0.63710610  0.36289390  0.75000000  1
  O  O53  1  0.36289390  0.63710610  0.25000000  1
  O  O54  1  0.29010842  0.93058285  0.90908130  1
  O  O55  1  0.70989158  0.06941715  0.09091870  1
  O  O56  1  0.06941715  0.70989158  0.59091870  1
  O  O57  1  0.93058285  0.29010842  0.40908130  1
  O  O58  1  0.09840700  0.04897369  0.33008401  1
  O  O59  1  0.90159300  0.95102631  0.66991599  1
  O  O60  1  0.95102631  0.90159300  0.16991599  1
  O  O61  1  0.04897369  0.09840700  0.83008401  1
  O  O62  1  0.46114060  0.61059291  0.82745511  1
  O  O63  1  0.53885940  0.38940709  0.17254489  1
  O  O64  1  0.38940709  0.53885940  0.67254489  1
  O  O65  1  0.61059291  0.46114060  0.32745511  1
  O  O66  1  0.33551636  0.94795086  0.67732403  1
  O  O67  1  0.66448364  0.05204914  0.32267597  1
  O  O68  1  0.05204914  0.66448364  0.82267597  1
  O  O69  1  0.94795086  0.33551636  0.17732403  1
