# generated using pymatgen
data_LiNd(MoO4)2
_symmetry_space_group_name_H-M   'P 1'
_cell_length_a   5.10685305
_cell_length_b   6.05260577
_cell_length_c   10.36272452
_cell_angle_alpha   90.00000000
_cell_angle_beta   95.63990709
_cell_angle_gamma   90.00000000
_symmetry_Int_Tables_number   1
_chemical_formula_structural   LiNd(MoO4)2
_chemical_formula_sum   'Li2 Nd2 Mo4 O16'
_cell_volume   318.75885645
_cell_formula_units_Z   2
loop_
 _symmetry_equiv_pos_site_id
 _symmetry_equiv_pos_as_xyz
  1  'x, y, z'
loop_
 _atom_site_type_symbol
 _atom_site_label
 _atom_site_symmetry_multiplicity
 _atom_site_fract_x
 _atom_site_fract_y
 _atom_site_fract_z
 _atom_site_occupancy
  Li  Li0  1  0.25000000  0.77320793  0.25000000  1
  Li  Li1  1  0.75000000  0.22679207  0.75000000  1
  Nd  Nd2  1  0.75000000  0.28671914  0.25000000  1
  Nd  Nd3  1  0.25000000  0.71328086  0.75000000  1
  Mo  Mo4  1  0.76292667  0.81941813  0.02799155  1
  Mo  Mo5  1  0.23707333  0.18058187  0.97200845  1
  Mo  Mo6  1  0.73707333  0.81941813  0.47200845  1
  Mo  Mo7  1  0.26292667  0.18058187  0.52799155  1
  O  O8  1  0.45967788  0.89338051  0.59239038  1
  O  O9  1  0.54032212  0.10661949  0.40760962  1
  O  O10  1  0.04032212  0.89338051  0.90760962  1
  O  O11  1  0.95967788  0.10661949  0.09239038  1
  O  O12  1  0.10592302  0.36158272  0.40659022  1
  O  O13  1  0.89407698  0.63841728  0.59340978  1
  O  O14  1  0.39407698  0.36158272  0.09340978  1
  O  O15  1  0.60592302  0.63841728  0.90659022  1
  O  O16  1  0.00626910  0.91954944  0.38021543  1
  O  O17  1  0.99373090  0.08045056  0.61978457  1
  O  O18  1  0.49373090  0.91954944  0.11978457  1
  O  O19  1  0.50626910  0.08045056  0.88021543  1
  O  O20  1  0.92769808  0.63001645  0.14190265  1
  O  O21  1  0.07230192  0.36998355  0.85809735  1
  O  O22  1  0.57230192  0.63001645  0.35809735  1
  O  O23  1  0.42769808  0.36998355  0.64190265  1
