# generated using pymatgen
data_Na2PrSiO5
_symmetry_space_group_name_H-M   'P 1'
_cell_length_a   6.65086212
_cell_length_b   7.50436487
_cell_length_c   9.55731490
_cell_angle_alpha   90.00000000
_cell_angle_beta   90.00000000
_cell_angle_gamma   90.00000000
_symmetry_Int_Tables_number   1
_chemical_formula_structural   Na2PrSiO5
_chemical_formula_sum   'Na8 Pr4 Si4 O20'
_cell_volume   477.01032755
_cell_formula_units_Z   4
loop_
 _symmetry_equiv_pos_site_id
 _symmetry_equiv_pos_as_xyz
  1  'x, y, z'
loop_
 _atom_site_type_symbol
 _atom_site_label
 _atom_site_symmetry_multiplicity
 _atom_site_fract_x
 _atom_site_fract_y
 _atom_site_fract_z
 _atom_site_occupancy
  Na  Na0  1  0.62456625  0.46279829  0.67485276  1
  Na  Na1  1  0.37543375  0.53720171  0.32514724  1
  Na  Na2  1  0.12456625  0.53720171  0.82514724  1
  Na  Na3  1  0.37543375  0.96279829  0.32514724  1
  Na  Na4  1  0.87543375  0.46279829  0.17485276  1
  Na  Na5  1  0.62456625  0.03720171  0.67485276  1
  Na  Na6  1  0.87543375  0.03720171  0.17485276  1
  Na  Na7  1  0.12456625  0.96279829  0.82514724  1
  Pr  Pr8  1  0.62299554  0.75000000  0.95677919  1
  Pr  Pr9  1  0.37700446  0.25000000  0.04322081  1
  Pr  Pr10  1  0.12299554  0.25000000  0.54322081  1
  Pr  Pr11  1  0.87700446  0.75000000  0.45677919  1
  Si  Si12  1  0.32041672  0.75000000  0.59194782  1
  Si  Si13  1  0.67958328  0.25000000  0.40805218  1
  Si  Si14  1  0.82041672  0.25000000  0.90805218  1
  Si  Si15  1  0.17958328  0.75000000  0.09194782  1
  O  O16  1  0.39248676  0.75000000  0.75679405  1
  O  O17  1  0.60751324  0.25000000  0.24320595  1
  O  O18  1  0.89248676  0.25000000  0.74320595  1
  O  O19  1  0.10751324  0.75000000  0.25679405  1
  O  O20  1  0.67574292  0.42513855  0.93802774  1
  O  O21  1  0.32425708  0.57486145  0.06197226  1
  O  O22  1  0.17574292  0.57486145  0.56197226  1
  O  O23  1  0.32425708  0.92513855  0.06197226  1
  O  O24  1  0.82425708  0.42513855  0.43802774  1
  O  O25  1  0.67574292  0.07486145  0.93802774  1
  O  O26  1  0.82425708  0.07486145  0.43802774  1
  O  O27  1  0.17574292  0.92513855  0.56197226  1
  O  O28  1  0.78490936  0.75000000  0.71499693  1
  O  O29  1  0.21509064  0.25000000  0.28500307  1
  O  O30  1  0.28490936  0.25000000  0.78500307  1
  O  O31  1  0.71509064  0.75000000  0.21499693  1
  O  O32  1  0.98653391  0.75000000  0.98580654  1
  O  O33  1  0.01346609  0.25000000  0.01419346  1
  O  O34  1  0.48653391  0.25000000  0.51419346  1
  O  O35  1  0.51346609  0.75000000  0.48580654  1
