# generated using pymatgen
data_Eu2Al3O8
_symmetry_space_group_name_H-M   'P 1'
_cell_length_a   7.78596133
_cell_length_b   7.78596133
_cell_length_c   7.78596133
_cell_angle_alpha   109.47122063
_cell_angle_beta   109.47122063
_cell_angle_gamma   109.47122063
_symmetry_Int_Tables_number   1
_chemical_formula_structural   Eu2Al3O8
_chemical_formula_sum   'Eu4 Al6 O16'
_cell_volume   363.34135924
_cell_formula_units_Z   2
loop_
 _symmetry_equiv_pos_site_id
 _symmetry_equiv_pos_as_xyz
  1  'x, y, z'
loop_
 _atom_site_type_symbol
 _atom_site_label
 _atom_site_symmetry_multiplicity
 _atom_site_fract_x
 _atom_site_fract_y
 _atom_site_fract_z
 _atom_site_occupancy
  Eu  Eu0  1  0.29681763  0.29681763  0.29681763  1
  Eu  Eu1  1  0.70318237  -0.00000000  0.00000000  1
  Eu  Eu2  1  0.00000000  0.70318237  0.00000000  1
  Eu  Eu3  1  0.00000000  -0.00000000  0.70318237  1
  Al  Al4  1  0.25000000  0.75000000  0.50000000  1
  Al  Al5  1  0.75000000  0.25000000  0.50000000  1
  Al  Al6  1  0.75000000  0.50000000  0.25000000  1
  Al  Al7  1  0.25000000  0.50000000  0.75000000  1
  Al  Al8  1  0.50000000  0.25000000  0.75000000  1
  Al  Al9  1  0.50000000  0.75000000  0.25000000  1
  O  O10  1  0.78978832  0.78978832  0.78978832  1
  O  O11  1  0.21021168  0.00000000  -0.00000000  1
  O  O12  1  -0.00000000  0.21021168  -0.00000000  1
  O  O13  1  -0.00000000  0.00000000  0.21021168  1
  O  O14  1  0.27794243  0.55347584  0.55347584  1
  O  O15  1  0.72205757  0.27553341  0.27553341  1
  O  O16  1  -0.00000000  0.44652416  0.72446659  1
  O  O17  1  0.55347584  0.55347584  0.27794243  1
  O  O18  1  -0.00000000  0.72446659  0.44652416  1
  O  O19  1  0.27553341  0.27553341  0.72205757  1
  O  O20  1  0.44652416  0.72446659  0.00000000  1
  O  O21  1  0.72446659  0.44652416  -0.00000000  1
  O  O22  1  0.55347584  0.27794243  0.55347584  1
  O  O23  1  0.72446659  0.00000000  0.44652416  1
  O  O24  1  0.44652416  0.00000000  0.72446659  1
  O  O25  1  0.27553341  0.72205757  0.27553341  1
