# generated using pymatgen
data_CsSm(MoO4)2
_symmetry_space_group_name_H-M   'P 1'
_cell_length_a   7.70469903
_cell_length_b   7.70469903
_cell_length_c   7.98412763
_cell_angle_alpha   61.69455918
_cell_angle_beta   61.69455918
_cell_angle_gamma   88.38170458
_symmetry_Int_Tables_number   1
_chemical_formula_structural   CsSm(MoO4)2
_chemical_formula_sum   'Cs2 Sm2 Mo4 O16'
_cell_volume   355.38040750
_cell_formula_units_Z   2
loop_
 _symmetry_equiv_pos_site_id
 _symmetry_equiv_pos_as_xyz
  1  'x, y, z'
loop_
 _atom_site_type_symbol
 _atom_site_label
 _atom_site_symmetry_multiplicity
 _atom_site_fract_x
 _atom_site_fract_y
 _atom_site_fract_z
 _atom_site_occupancy
  Cs  Cs0  1  0.80417367  0.19582633  0.75000000  1
  Cs  Cs1  1  0.19582633  0.80417367  0.25000000  1
  Sm  Sm2  1  0.22980930  0.77019070  0.75000000  1
  Sm  Sm3  1  0.77019070  0.22980930  0.25000000  1
  Mo  Mo4  1  0.30717590  0.30889926  0.73358014  1
  Mo  Mo5  1  0.69282410  0.69110074  0.26641986  1
  Mo  Mo6  1  0.69110074  0.69282410  0.76641986  1
  Mo  Mo7  1  0.30889926  0.30717590  0.23358014  1
  O  O8  1  0.38625473  0.24274898  0.92717198  1
  O  O9  1  0.61374527  0.75725102  0.07282802  1
  O  O10  1  0.75725102  0.61374527  0.57282802  1
  O  O11  1  0.24274898  0.38625473  0.42717198  1
  O  O12  1  0.61742738  0.92770142  0.62689665  1
  O  O13  1  0.38257262  0.07229858  0.37310335  1
  O  O14  1  0.07229858  0.38257262  0.87310335  1
  O  O15  1  0.92770142  0.61742738  0.12689665  1
  O  O16  1  0.41690761  0.62911081  0.53202175  1
  O  O17  1  0.58309239  0.37088919  0.46797825  1
  O  O18  1  0.37088919  0.58309239  0.96797825  1
  O  O19  1  0.62911081  0.41690761  0.03202175  1
  O  O20  1  0.21605835  0.05897141  0.79649564  1
  O  O21  1  0.78394165  0.94102859  0.20350436  1
  O  O22  1  0.94102859  0.78394165  0.70350436  1
  O  O23  1  0.05897141  0.21605835  0.29649564  1
