# generated using pymatgen
data_LaCu(MoO4)2
_symmetry_space_group_name_H-M   'P 1'
_cell_length_a   10.12380518
_cell_length_b   10.18545477
_cell_length_c   13.88108157
_cell_angle_alpha   90.00000000
_cell_angle_beta   90.00000000
_cell_angle_gamma   90.00000000
_symmetry_Int_Tables_number   1
_chemical_formula_structural   LaCu(MoO4)2
_chemical_formula_sum   'La8 Cu8 Mo16 O64'
_cell_volume   1431.35549618
_cell_formula_units_Z   8
loop_
 _symmetry_equiv_pos_site_id
 _symmetry_equiv_pos_as_xyz
  1  'x, y, z'
loop_
 _atom_site_type_symbol
 _atom_site_label
 _atom_site_symmetry_multiplicity
 _atom_site_fract_x
 _atom_site_fract_y
 _atom_site_fract_z
 _atom_site_occupancy
  La  La0  1  0.62094506  0.54316209  0.87334973  1
  La  La1  1  0.37905494  0.45683791  0.12665027  1
  La  La2  1  0.87905494  0.04316209  0.12665027  1
  La  La3  1  0.37905494  0.95683791  0.37334973  1
  La  La4  1  0.12094506  0.95683791  0.87334973  1
  La  La5  1  0.62094506  0.04316209  0.62665027  1
  La  La6  1  0.12094506  0.45683791  0.62665027  1
  La  La7  1  0.87905494  0.54316209  0.37334973  1
  Cu  Cu8  1  0.58083131  0.72695359  0.51302128  1
  Cu  Cu9  1  0.41916869  0.27304641  0.48697872  1
  Cu  Cu10  1  0.91916869  0.22695359  0.48697872  1
  Cu  Cu11  1  0.41916869  0.77304641  0.01302128  1
  Cu  Cu12  1  0.08083131  0.77304641  0.51302128  1
  Cu  Cu13  1  0.58083131  0.22695359  0.98697872  1
  Cu  Cu14  1  0.08083131  0.27304641  0.98697872  1
  Cu  Cu15  1  0.91916869  0.72695359  0.01302128  1
  Mo  Mo16  1  0.71320428  0.91620546  0.91835157  1
  Mo  Mo17  1  0.28679572  0.08379454  0.08164843  1
  Mo  Mo18  1  0.78679572  0.41620546  0.08164843  1
  Mo  Mo19  1  0.28679572  0.58379454  0.41835157  1
  Mo  Mo20  1  0.21320428  0.58379454  0.91835157  1
  Mo  Mo21  1  0.71320428  0.41620546  0.58164843  1
  Mo  Mo22  1  0.21320428  0.08379454  0.58164843  1
  Mo  Mo23  1  0.78679572  0.91620546  0.41835157  1
  Mo  Mo24  1  0.86772320  0.76392567  0.70417185  1
  Mo  Mo25  1  0.13227680  0.23607433  0.29582815  1
  Mo  Mo26  1  0.63227680  0.26392567  0.29582815  1
  Mo  Mo27  1  0.13227680  0.73607433  0.20417185  1
  Mo  Mo28  1  0.36772320  0.73607433  0.70417185  1
  Mo  Mo29  1  0.86772320  0.26392567  0.79582815  1
  Mo  Mo30  1  0.36772320  0.23607433  0.79582815  1
  Mo  Mo31  1  0.63227680  0.76392567  0.20417185  1
  O  O32  1  0.66062947  0.55669242  0.51147275  1
  O  O33  1  0.33937053  0.44330758  0.48852725  1
  O  O34  1  0.83937053  0.05669242  0.48852725  1
  O  O35  1  0.33937053  0.94330758  0.01147275  1
  O  O36  1  0.16062947  0.94330758  0.51147275  1
  O  O37  1  0.66062947  0.05669242  0.98852725  1
  O  O38  1  0.16062947  0.44330758  0.98852725  1
  O  O39  1  0.83937053  0.55669242  0.01147275  1
  O  O40  1  0.59960659  0.77963003  0.94034006  1
  O  O41  1  0.40039341  0.22036997  0.05965994  1
  O  O42  1  0.90039341  0.27963003  0.05965994  1
  O  O43  1  0.40039341  0.72036997  0.44034006  1
  O  O44  1  0.09960659  0.72036997  0.94034006  1
  O  O45  1  0.59960659  0.27963003  0.55965994  1
  O  O46  1  0.09960659  0.22036997  0.55965994  1
  O  O47  1  0.90039341  0.77963003  0.44034006  1
  O  O48  1  0.89070525  0.90565697  0.95746814  1
  O  O49  1  0.10929475  0.09434303  0.04253186  1
  O  O50  1  0.60929475  0.40565697  0.04253186  1
  O  O51  1  0.10929475  0.59434303  0.45746814  1
  O  O52  1  0.39070525  0.59434303  0.95746814  1
  O  O53  1  0.89070525  0.40565697  0.54253186  1
  O  O54  1  0.39070525  0.09434303  0.54253186  1
  O  O55  1  0.60929475  0.90565697  0.45746814  1
  O  O56  1  0.98453629  0.88315210  0.74456773  1
  O  O57  1  0.01546371  0.11684790  0.25543227  1
  O  O58  1  0.51546371  0.38315210  0.25543227  1
  O  O59  1  0.01546371  0.61684790  0.24456773  1
  O  O60  1  0.48453629  0.61684790  0.74456773  1
  O  O61  1  0.98453629  0.38315210  0.75543227  1
  O  O62  1  0.48453629  0.11684790  0.75543227  1
  O  O63  1  0.51546371  0.88315210  0.24456773  1
  O  O64  1  0.79300052  0.69002327  0.80933029  1
  O  O65  1  0.20699948  0.30997673  0.19066971  1
  O  O66  1  0.70699948  0.19002327  0.19066971  1
  O  O67  1  0.20699948  0.80997673  0.30933029  1
  O  O68  1  0.29300052  0.80997673  0.80933029  1
  O  O69  1  0.79300052  0.19002327  0.69066971  1
  O  O70  1  0.29300052  0.30997673  0.69066971  1
  O  O71  1  0.70699948  0.69002327  0.30933029  1
  O  O72  1  0.70351369  0.96086348  0.79506483  1
  O  O73  1  0.29648631  0.03913652  0.20493517  1
  O  O74  1  0.79648631  0.46086348  0.20493517  1
  O  O75  1  0.29648631  0.53913652  0.29506483  1
  O  O76  1  0.20351369  0.53913652  0.79506483  1
  O  O77  1  0.70351369  0.46086348  0.70493517  1
  O  O78  1  0.20351369  0.03913652  0.70493517  1
  O  O79  1  0.79648631  0.96086348  0.29506483  1
  O  O80  1  0.96135341  0.64524921  0.63723503  1
  O  O81  1  0.03864659  0.35475079  0.36276497  1
  O  O82  1  0.53864659  0.14524921  0.36276497  1
  O  O83  1  0.03864659  0.85475079  0.13723503  1
  O  O84  1  0.46135341  0.85475079  0.63723503  1
  O  O85  1  0.96135341  0.14524921  0.86276497  1
  O  O86  1  0.46135341  0.35475079  0.86276497  1
  O  O87  1  0.53864659  0.64524921  0.13723503  1
  O  O88  1  0.74887308  0.83448803  0.62111142  1
  O  O89  1  0.25112692  0.16551197  0.37888858  1
  O  O90  1  0.75112692  0.33448803  0.37888858  1
  O  O91  1  0.25112692  0.66551197  0.12111142  1
  O  O92  1  0.24887308  0.66551197  0.62111142  1
  O  O93  1  0.74887308  0.33448803  0.87888858  1
  O  O94  1  0.24887308  0.16551197  0.87888858  1
  O  O95  1  0.75112692  0.83448803  0.12111142  1
