# generated using pymatgen
data_Ca3Y2(SiO4)3
_symmetry_space_group_name_H-M   'P 1'
_cell_length_a   10.99043662
_cell_length_b   10.99043662
_cell_length_c   10.99043662
_cell_angle_alpha   109.47122063
_cell_angle_beta   109.47122063
_cell_angle_gamma   109.47122063
_symmetry_Int_Tables_number   1
_chemical_formula_structural   Ca3Y2(SiO4)3
_chemical_formula_sum   'Ca12 Y8 Si12 O48'
_cell_volume   1021.93423260
_cell_formula_units_Z   4
loop_
 _symmetry_equiv_pos_site_id
 _symmetry_equiv_pos_as_xyz
  1  'x, y, z'
loop_
 _atom_site_type_symbol
 _atom_site_label
 _atom_site_symmetry_multiplicity
 _atom_site_fract_x
 _atom_site_fract_y
 _atom_site_fract_z
 _atom_site_occupancy
  Ca  Ca0  1  0.87500000  0.62500000  0.75000000  1
  Ca  Ca1  1  0.12500000  0.37500000  0.25000000  1
  Ca  Ca2  1  0.62500000  0.87500000  0.25000000  1
  Ca  Ca3  1  0.62500000  0.75000000  0.87500000  1
  Ca  Ca4  1  0.87500000  0.25000000  0.62500000  1
  Ca  Ca5  1  0.37500000  0.12500000  0.75000000  1
  Ca  Ca6  1  0.37500000  0.25000000  0.12500000  1
  Ca  Ca7  1  0.12500000  0.75000000  0.37500000  1
  Ca  Ca8  1  0.75000000  0.87500000  0.62500000  1
  Ca  Ca9  1  0.25000000  0.12500000  0.37500000  1
  Ca  Ca10  1  0.25000000  0.62500000  0.87500000  1
  Ca  Ca11  1  0.75000000  0.37500000  0.12500000  1
  Y  Y12  1  0.00000000  0.00000000  0.00000000  1
  Y  Y13  1  0.50000000  0.00000000  0.50000000  1
  Y  Y14  1  0.50000000  0.50000000  0.00000000  1
  Y  Y15  1  0.00000000  0.00000000  0.50000000  1
  Y  Y16  1  0.00000000  0.50000000  0.50000000  1
  Y  Y17  1  0.50000000  0.50000000  0.50000000  1
  Y  Y18  1  0.50000000  0.00000000  0.00000000  1
  Y  Y19  1  0.00000000  0.50000000  0.00000000  1
  Si  Si20  1  0.62500000  0.37500000  0.75000000  1
  Si  Si21  1  0.37500000  0.62500000  0.25000000  1
  Si  Si22  1  0.87500000  0.12500000  0.25000000  1
  Si  Si23  1  0.37500000  0.75000000  0.62500000  1
  Si  Si24  1  0.62500000  0.25000000  0.37500000  1
  Si  Si25  1  0.12500000  0.87500000  0.75000000  1
  Si  Si26  1  0.12500000  0.25000000  0.87500000  1
  Si  Si27  1  0.87500000  0.75000000  0.12500000  1
  Si  Si28  1  0.75000000  0.62500000  0.37500000  1
  Si  Si29  1  0.25000000  0.37500000  0.62500000  1
  Si  Si30  1  0.25000000  0.87500000  0.12500000  1
  Si  Si31  1  0.75000000  0.12500000  0.87500000  1
  O  O32  1  0.71747669  0.62272976  0.51203314  1
  O  O33  1  0.28252331  0.37727024  0.48796686  1
  O  O34  1  0.78252331  0.79455645  0.40525307  1
  O  O35  1  0.38930338  0.87727024  0.09474693  1
  O  O36  1  0.62272976  0.51203314  0.71747669  1
  O  O37  1  0.71747669  0.09474693  0.70544355  1
  O  O38  1  0.21747669  0.20544355  0.59474693  1
  O  O39  1  0.61069662  0.12272976  0.90525307  1
  O  O40  1  0.37727024  0.48796686  0.28252331  1
  O  O41  1  0.28252331  0.90525307  0.29455645  1
  O  O42  1  0.11069662  0.70544355  0.98796686  1
  O  O43  1  0.79455645  0.40525307  0.78252331  1
  O  O44  1  0.78252331  0.98796686  0.87727024  1
  O  O45  1  0.88930338  0.29455645  0.01203314  1
  O  O46  1  0.20544355  0.59474693  0.21747669  1
  O  O47  1  0.21747669  0.01203314  0.12272976  1
  O  O48  1  0.87727024  0.09474693  0.38930338  1
  O  O49  1  0.38930338  0.51203314  0.79455645  1
  O  O50  1  0.12272976  0.90525307  0.61069662  1
  O  O51  1  0.61069662  0.48796686  0.20544355  1
  O  O52  1  0.70544355  0.98796686  0.11069662  1
  O  O53  1  0.11069662  0.40525307  0.62272976  1
  O  O54  1  0.29455645  0.01203314  0.88930338  1
  O  O55  1  0.88930338  0.59474693  0.37727024  1
  O  O56  1  0.51203314  0.71747669  0.62272976  1
  O  O57  1  0.62272976  0.11069662  0.40525307  1
  O  O58  1  0.48796686  0.28252331  0.37727024  1
  O  O59  1  0.37727024  0.88930338  0.59474693  1
  O  O60  1  0.09474693  0.38930338  0.87727024  1
  O  O61  1  0.87727024  0.78252331  0.98796686  1
  O  O62  1  0.90525307  0.61069662  0.12272976  1
  O  O63  1  0.12272976  0.21747669  0.01203314  1
  O  O64  1  0.98796686  0.11069662  0.70544355  1
  O  O65  1  0.70544355  0.71747669  0.09474693  1
  O  O66  1  0.01203314  0.88930338  0.29455645  1
  O  O67  1  0.29455645  0.28252331  0.90525307  1
  O  O68  1  0.40525307  0.78252331  0.79455645  1
  O  O69  1  0.79455645  0.38930338  0.51203314  1
  O  O70  1  0.59474693  0.21747669  0.20544355  1
  O  O71  1  0.20544355  0.61069662  0.48796686  1
  O  O72  1  0.09474693  0.70544355  0.71747669  1
  O  O73  1  0.90525307  0.29455645  0.28252331  1
  O  O74  1  0.98796686  0.87727024  0.78252331  1
  O  O75  1  0.01203314  0.12272976  0.21747669  1
  O  O76  1  0.40525307  0.62272976  0.11069662  1
  O  O77  1  0.59474693  0.37727024  0.88930338  1
  O  O78  1  0.51203314  0.79455645  0.38930338  1
  O  O79  1  0.48796686  0.20544355  0.61069662  1
