# generated using pymatgen
data_Dy7BP2O17
_symmetry_space_group_name_H-M   'P 1'
_cell_length_a   6.65176672
_cell_length_b   12.01177213
_cell_length_c   17.30994425
_cell_angle_alpha   90.00000000
_cell_angle_beta   90.00000000
_cell_angle_gamma   96.94161794
_symmetry_Int_Tables_number   1
_chemical_formula_structural   Dy7BP2O17
_chemical_formula_sum   'Dy28 B4 P8 O68'
_cell_volume   1372.91794170
_cell_formula_units_Z   4
loop_
 _symmetry_equiv_pos_site_id
 _symmetry_equiv_pos_as_xyz
  1  'x, y, z'
loop_
 _atom_site_type_symbol
 _atom_site_label
 _atom_site_symmetry_multiplicity
 _atom_site_fract_x
 _atom_site_fract_y
 _atom_site_fract_z
 _atom_site_occupancy
  Dy  Dy0  1  0.02362071  0.81995414  0.27651710  1
  Dy  Dy1  1  0.97637929  0.18004586  0.72348290  1
  Dy  Dy2  1  0.47637929  0.68004586  0.77651710  1
  Dy  Dy3  1  0.52362071  0.31995414  0.22348290  1
  Dy  Dy4  1  0.78296111  0.56603602  0.13449075  1
  Dy  Dy5  1  0.21703889  0.43396398  0.86550925  1
  Dy  Dy6  1  0.71703889  0.93396398  0.63449075  1
  Dy  Dy7  1  0.28296111  0.06603602  0.36550925  1
  Dy  Dy8  1  0.48824067  0.80204648  0.39360693  1
  Dy  Dy9  1  0.51175933  0.19795352  0.60639307  1
  Dy  Dy10  1  0.01175933  0.69795352  0.89360693  1
  Dy  Dy11  1  0.98824067  0.30204648  0.10639307  1
  Dy  Dy12  1  0.18841166  0.90480872  0.72727553  1
  Dy  Dy13  1  0.81158834  0.09519128  0.27272447  1
  Dy  Dy14  1  0.31158834  0.59519128  0.22727553  1
  Dy  Dy15  1  0.68841166  0.40480872  0.77272447  1
  Dy  Dy16  1  0.77677537  0.49146908  0.55327985  1
  Dy  Dy17  1  0.22322463  0.50853092  0.44672015  1
  Dy  Dy18  1  0.72322463  0.00853092  0.05327985  1
  Dy  Dy19  1  0.27677537  0.99146908  0.94672015  1
  Dy  Dy20  1  0.98370312  0.78755866  0.47955762  1
  Dy  Dy21  1  0.01629688  0.21244134  0.52044238  1
  Dy  Dy22  1  0.51629688  0.71244134  0.97955762  1
  Dy  Dy23  1  0.48370312  0.28755866  0.02044238  1
  Dy  Dy24  1  0.75969968  0.57526821  0.34635558  1
  Dy  Dy25  1  0.24030032  0.42473179  0.65364442  1
  Dy  Dy26  1  0.74030032  0.92473179  0.84635558  1
  Dy  Dy27  1  0.25969968  0.07526821  0.15364442  1
  B  B28  1  0.25263458  0.99926865  0.56760893  1
  B  B29  1  0.74736542  0.00073135  0.43239107  1
  B  B30  1  0.24736542  0.50073135  0.06760893  1
  B  B31  1  0.75263458  0.49926865  0.93239107  1
  P  P32  1  0.55146706  0.83626207  0.19869460  1
  P  P33  1  0.44853294  0.16373793  0.80130540  1
  P  P34  1  0.94853294  0.66373793  0.69869460  1
  P  P35  1  0.05146706  0.33626207  0.30130540  1
  P  P36  1  0.03681884  0.81748541  0.06301917  1
  P  P37  1  0.96318116  0.18251459  0.93698083  1
  P  P38  1  0.46318116  0.68251459  0.56301917  1
  P  P39  1  0.53681884  0.31748541  0.43698083  1
  O  O40  1  0.47949749  0.90784594  0.13254374  1
  O  O41  1  0.52050251  0.09215406  0.86745626  1
  O  O42  1  0.02050251  0.59215406  0.63254374  1
  O  O43  1  0.97949749  0.40784594  0.36745626  1
  O  O44  1  0.40696380  0.00038649  0.62396826  1
  O  O45  1  0.59303620  0.99961351  0.37603174  1
  O  O46  1  0.09303620  0.49961351  0.12396826  1
  O  O47  1  0.90696380  0.50038649  0.87603174  1
  O  O48  1  0.60514739  0.50652115  0.23533768  1
  O  O49  1  0.39485261  0.49347885  0.76466232  1
  O  O50  1  0.89485261  0.99347885  0.73533768  1
  O  O51  1  0.10514739  0.00652115  0.26466232  1
  O  O52  1  0.80126287  0.76083330  0.36740529  1
  O  O53  1  0.19873713  0.23916670  0.63259471  1
  O  O54  1  0.69873713  0.73916670  0.86740529  1
  O  O55  1  0.30126287  0.26083330  0.13259471  1
  O  O56  1  0.09214912  0.94793479  0.06471237  1
  O  O57  1  0.90785088  0.05206521  0.93528763  1
  O  O58  1  0.40785088  0.55206521  0.56471237  1
  O  O59  1  0.59214912  0.44793479  0.43528763  1
  O  O60  1  0.05013600  0.76103939  0.14151561  1
  O  O61  1  0.94986400  0.23896061  0.85848439  1
  O  O62  1  0.44986400  0.73896061  0.64151561  1
  O  O63  1  0.55013600  0.26103939  0.35848439  1
  O  O64  1  0.08651754  0.88048873  0.85671134  1
  O  O65  1  0.91348246  0.11951127  0.14328866  1
  O  O66  1  0.41348246  0.61951127  0.35671134  1
  O  O67  1  0.58651754  0.38048873  0.64328866  1
  O  O68  1  0.37758178  0.80700009  0.25920750  1
  O  O69  1  0.62241822  0.19299991  0.74079250  1
  O  O70  1  0.12241822  0.69299991  0.75920750  1
  O  O71  1  0.87758178  0.30700009  0.24079250  1
  O  O72  1  0.96261429  0.59753849  0.45671920  1
  O  O73  1  0.03738571  0.40246151  0.54328080  1
  O  O74  1  0.53738571  0.90246151  0.95671920  1
  O  O75  1  0.46261429  0.09753849  0.04328080  1
  O  O76  1  0.17999353  0.77141522  0.00286419  1
  O  O77  1  0.82000647  0.22858478  0.99713581  1
  O  O78  1  0.32000647  0.72858478  0.50286419  1
  O  O79  1  0.67999353  0.27141522  0.49713581  1
  O  O80  1  0.89358096  0.77895989  0.67329089  1
  O  O81  1  0.10641904  0.22104011  0.32670911  1
  O  O82  1  0.60641904  0.72104011  0.17329089  1
  O  O83  1  0.39358096  0.27895989  0.82670911  1
  O  O84  1  0.18980180  0.87582933  0.39123629  1
  O  O85  1  0.81019820  0.12417067  0.60876371  1
  O  O86  1  0.31019820  0.62417067  0.89123629  1
  O  O87  1  0.68980180  0.37582933  0.10876371  1
  O  O88  1  0.81778439  0.80339573  0.03178640  1
  O  O89  1  0.18221561  0.19660427  0.96821360  1
  O  O90  1  0.68221561  0.69660427  0.53178640  1
  O  O91  1  0.31778439  0.30339573  0.46821360  1
  O  O92  1  0.08397344  0.92305480  0.57868060  1
  O  O93  1  0.91602656  0.07694520  0.42131940  1
  O  O94  1  0.41602656  0.57694520  0.07868060  1
  O  O95  1  0.58397344  0.42305480  0.92131940  1
  O  O96  1  0.71943896  0.91684619  0.48820998  1
  O  O97  1  0.28056104  0.08315381  0.51179002  1
  O  O98  1  0.78056104  0.58315381  0.98820998  1
  O  O99  1  0.21943896  0.41684619  0.01179002  1
  O  O100  1  0.99985075  0.62665943  0.26061680  1
  O  O101  1  0.00014925  0.37334057  0.73938320  1
  O  O102  1  0.50014925  0.87334057  0.76061680  1
  O  O103  1  0.49985075  0.12665943  0.23938320  1
  O  O104  1  0.76225977  0.59546843  0.73666025  1
  O  O105  1  0.23774023  0.40453157  0.26333975  1
  O  O106  1  0.73774023  0.90453157  0.23666025  1
  O  O107  1  0.26225977  0.09546843  0.76333975  1
