# generated using pymatgen
data_Ca4Tl3O9
_symmetry_space_group_name_H-M   'P 1'
_cell_length_a   3.39399692
_cell_length_b   5.89516308
_cell_length_c   12.38886906
_cell_angle_alpha   101.46147878
_cell_angle_beta   89.99999995
_cell_angle_gamma   106.73004631
_symmetry_Int_Tables_number   1
_chemical_formula_structural   Ca4Tl3O9
_chemical_formula_sum   'Ca4 Tl3 O9'
_cell_volume   232.21995871
_cell_formula_units_Z   1
loop_
 _symmetry_equiv_pos_site_id
 _symmetry_equiv_pos_as_xyz
  1  'x, y, z'
loop_
 _atom_site_type_symbol
 _atom_site_label
 _atom_site_symmetry_multiplicity
 _atom_site_fract_x
 _atom_site_fract_y
 _atom_site_fract_z
 _atom_site_occupancy
  Ca  Ca0  1  0.45275615  0.90551230  0.71428202  1
  Ca  Ca1  1  0.54724385  0.09448770  0.28571798  1
  Ca  Ca2  1  0.23798425  0.47596851  0.87238276  1
  Ca  Ca3  1  0.76201575  0.52403149  0.12761724  1
  Tl  Tl4  1  0.85096094  0.70192187  0.43677561  1
  Tl  Tl5  1  0.14903906  0.29807813  0.56322439  1
  Tl  Tl6  1  -0.00000000  0.00000000  -0.00000000  1
  O  O7  1  0.80691827  0.61383653  0.60140816  1
  O  O8  1  0.19308173  0.38616347  0.39859184  1
  O  O9  1  0.62581503  0.25163005  0.94736148  1
  O  O10  1  0.37418497  0.74836995  0.05263852  1
  O  O11  1  0.90691272  0.81382544  0.28461969  1
  O  O12  1  0.09308728  0.18617456  0.71538031  1
  O  O13  1  0.87585486  0.75170972  0.83575765  1
  O  O14  1  0.12414514  0.24829028  0.16424235  1
  O  O15  1  0.50000000  0.00000000  0.50000000  1
