# generated using pymatgen
data_Ce4B4Cl5
_symmetry_space_group_name_H-M   'P 1'
_cell_length_a   4.23819486
_cell_length_b   8.62866993
_cell_length_c   8.87955475
_cell_angle_alpha   64.40790302
_cell_angle_beta   76.19317926
_cell_angle_gamma   75.78341712
_symmetry_Int_Tables_number   1
_chemical_formula_structural   Ce4B4Cl5
_chemical_formula_sum   'Ce4 B4 Cl5'
_cell_volume   280.61526328
_cell_formula_units_Z   1
loop_
 _symmetry_equiv_pos_site_id
 _symmetry_equiv_pos_as_xyz
  1  'x, y, z'
loop_
 _atom_site_type_symbol
 _atom_site_label
 _atom_site_symmetry_multiplicity
 _atom_site_fract_x
 _atom_site_fract_y
 _atom_site_fract_z
 _atom_site_occupancy
  Ce  Ce0  1  0.83866048  0.58366893  0.73901011  1
  Ce  Ce1  1  0.16133952  0.41633107  0.26098989  1
  Ce  Ce2  1  0.44360181  0.81323434  0.29956204  1
  Ce  Ce3  1  0.55639819  0.18676566  0.70043796  1
  B  B4  1  0.97513740  0.63098958  0.41873562  1
  B  B5  1  0.02486260  0.36901042  0.58126438  1
  B  B6  1  0.68780414  0.50000000  0.50000000  1
  B  B7  1  0.31219586  0.50000000  0.50000000  1
  Cl  Cl8  1  0.74993319  0.15021149  0.34992213  1
  Cl  Cl9  1  0.25006681  0.84978851  0.65007787  1
  Cl  Cl10  1  0.00000000  -0.00000000  -0.00000000  1
  Cl  Cl11  1  0.64870336  0.64413851  0.05845476  1
  Cl  Cl12  1  0.35129664  0.35586149  0.94154524  1
