# generated using pymatgen
data_Gd(Ga2Fe)4
_symmetry_space_group_name_H-M   'P 1'
_cell_length_a   5.08526149
_cell_length_b   6.63889284
_cell_length_c   6.63889284
_cell_angle_alpha   81.56533476
_cell_angle_beta   67.48097075
_cell_angle_gamma   67.48097075
_symmetry_Int_Tables_number   1
_chemical_formula_structural   Gd(Ga2Fe)4
_chemical_formula_sum   'Gd1 Ga8 Fe4'
_cell_volume   191.25630081
_cell_formula_units_Z   1
loop_
 _symmetry_equiv_pos_site_id
 _symmetry_equiv_pos_as_xyz
  1  'x, y, z'
loop_
 _atom_site_type_symbol
 _atom_site_label
 _atom_site_symmetry_multiplicity
 _atom_site_fract_x
 _atom_site_fract_y
 _atom_site_fract_z
 _atom_site_occupancy
  Gd  Gd0  1  0.00000000  -0.00000000  -0.00000000  1
  Ga  Ga1  1  0.28114044  0.21885956  0.21885956  1
  Ga  Ga2  1  0.71885956  0.78114044  0.78114044  1
  Ga  Ga3  1  0.50000000  0.78114044  0.21885956  1
  Ga  Ga4  1  0.50000000  0.21885956  0.78114044  1
  Ga  Ga5  1  0.34071550  0.65928450  0.65928450  1
  Ga  Ga6  1  0.65928450  0.34071550  0.34071550  1
  Ga  Ga7  1  0.00000000  0.34071550  0.65928450  1
  Ga  Ga8  1  -0.00000000  0.65928450  0.34071550  1
  Fe  Fe9  1  0.50000000  -0.00000000  0.50000000  1
  Fe  Fe10  1  0.00000000  -0.00000000  0.50000000  1
  Fe  Fe11  1  0.00000000  0.50000000  -0.00000000  1
  Fe  Fe12  1  0.50000000  0.50000000  -0.00000000  1
