# generated using pymatgen
data_Cd3H16C8(N10F)2
_symmetry_space_group_name_H-M   'P 1'
_cell_length_a   8.18876894
_cell_length_b   9.37416111
_cell_length_c   13.31053485
_cell_angle_alpha   105.76339788
_cell_angle_beta   90.00000000
_cell_angle_gamma   90.00000000
_symmetry_Int_Tables_number   1
_chemical_formula_structural   Cd3H16C8(N10F)2
_chemical_formula_sum   'Cd6 H32 C16 N40 F4'
_cell_volume   983.32803892
_cell_formula_units_Z   2
loop_
 _symmetry_equiv_pos_site_id
 _symmetry_equiv_pos_as_xyz
  1  'x, y, z'
loop_
 _atom_site_type_symbol
 _atom_site_label
 _atom_site_symmetry_multiplicity
 _atom_site_fract_x
 _atom_site_fract_y
 _atom_site_fract_z
 _atom_site_occupancy
  Cd  Cd0  1  0.80815147  0.65602907  0.51351493  1
  Cd  Cd1  1  0.19184853  0.34397093  0.48648507  1
  Cd  Cd2  1  0.30815147  0.34397093  0.98648507  1
  Cd  Cd3  1  0.69184853  0.65602907  0.01351493  1
  Cd  Cd4  1  0.00000000  -0.00000000  -0.00000000  1
  Cd  Cd5  1  0.50000000  -0.00000000  0.50000000  1
  H  H6  1  0.40387417  0.97180768  0.27646258  1
  H  H7  1  0.59612583  0.02819232  0.72353742  1
  H  H8  1  0.90387417  0.02819232  0.22353742  1
  H  H9  1  0.09612583  0.97180768  0.77646258  1
  H  H10  1  0.34919984  0.96196080  0.89798785  1
  H  H11  1  0.65080016  0.03803920  0.10201215  1
  H  H12  1  0.84919984  0.03803920  0.60201215  1
  H  H13  1  0.15080016  0.96196080  0.39798785  1
  H  H14  1  0.97744730  0.40322350  0.86477685  1
  H  H15  1  0.02255270  0.59677650  0.13522315  1
  H  H16  1  0.47744730  0.59677650  0.63522315  1
  H  H17  1  0.52255270  0.40322350  0.36477685  1
  H  H18  1  0.69244434  0.43559310  0.66777999  1
  H  H19  1  0.30755566  0.56440690  0.33222001  1
  H  H20  1  0.19244434  0.56440690  0.83222001  1
  H  H21  1  0.80755566  0.43559310  0.16777999  1
  H  H22  1  0.52159292  0.84337804  0.87456259  1
  H  H23  1  0.47840708  0.15662196  0.12543741  1
  H  H24  1  0.02159292  0.15662196  0.62543741  1
  H  H25  1  0.97840708  0.84337804  0.37456259  1
  H  H26  1  0.54595174  0.75988307  0.61465798  1
  H  H27  1  0.45404826  0.24011693  0.38534202  1
  H  H28  1  0.04595174  0.24011693  0.88534202  1
  H  H29  1  0.95404826  0.75988307  0.11465798  1
  H  H30  1  0.62175932  0.47159157  0.79109572  1
  H  H31  1  0.37824068  0.52840843  0.20890428  1
  H  H32  1  0.12175932  0.52840843  0.70890428  1
  H  H33  1  0.87824068  0.47159157  0.29109572  1
  H  H34  1  0.56547425  0.13407907  0.84977623  1
  H  H35  1  0.43452575  0.86592093  0.15022377  1
  H  H36  1  0.06547425  0.86592093  0.65022377  1
  H  H37  1  0.93452575  0.13407907  0.34977623  1
  C  C38  1  0.34182182  0.78397623  0.96114205  1
  C  C39  1  0.65817818  0.21602377  0.03885795  1
  C  C40  1  0.84182182  0.21602377  0.53885795  1
  C  C41  1  0.15817818  0.78397623  0.46114205  1
  C  C42  1  0.76234328  0.63340031  0.76279589  1
  C  C43  1  0.23765672  0.36659969  0.23720411  1
  C  C44  1  0.26234328  0.36659969  0.73720411  1
  C  C45  1  0.73765672  0.63340031  0.26279589  1
  C  C46  1  0.92323894  0.81031569  0.75801694  1
  C  C47  1  0.07676106  0.18968431  0.24198306  1
  C  C48  1  0.42323894  0.18968431  0.74198306  1
  C  C49  1  0.57676106  0.81031569  0.25801694  1
  C  C50  1  0.83364089  0.31199981  0.95766512  1
  C  C51  1  0.16635911  0.68800019  0.04233488  1
  C  C52  1  0.33364089  0.68800019  0.54233488  1
  C  C53  1  0.66635911  0.31199981  0.45766512  1
  N  N54  1  0.41439263  0.66282452  0.97716403  1
  N  N55  1  0.58560737  0.33717548  0.02283597  1
  N  N56  1  0.91439263  0.33717548  0.52283597  1
  N  N57  1  0.08560737  0.66282452  0.47716403  1
  N  N58  1  0.84646166  0.68956084  0.69405632  1
  N  N59  1  0.15353834  0.31043916  0.30594368  1
  N  N60  1  0.34646166  0.31043916  0.80594368  1
  N  N61  1  0.65353834  0.68956084  0.19405632  1
  N  N62  1  0.97869404  0.33534828  0.91319383  1
  N  N63  1  0.02130596  0.66465172  0.08680617  1
  N  N64  1  0.47869404  0.66465172  0.58680617  1
  N  N65  1  0.52130596  0.33534828  0.41319383  1
  N  N66  1  0.81172288  0.19413724  0.99754061  1
  N  N67  1  0.18827712  0.80586276  0.00245939  1
  N  N68  1  0.31172288  0.80586276  0.50245939  1
  N  N69  1  0.68827712  0.19413724  0.49754061  1
  N  N70  1  0.88955439  0.82732452  0.85855132  1
  N  N71  1  0.11044561  0.17267548  0.14144868  1
  N  N72  1  0.38955439  0.17267548  0.64144868  1
  N  N73  1  0.61044561  0.82732452  0.35855132  1
  N  N74  1  0.41137324  0.87190629  0.90834518  1
  N  N75  1  0.58862676  0.12809371  0.09165482  1
  N  N76  1  0.91137324  0.12809371  0.59165482  1
  N  N77  1  0.08862676  0.87190629  0.40834518  1
  N  N78  1  0.70296744  0.40115184  0.96983559  1
  N  N79  1  0.29703256  0.59884816  0.03016441  1
  N  N80  1  0.20296744  0.59884816  0.53016441  1
  N  N81  1  0.79703256  0.40115184  0.46983559  1
  N  N82  1  0.48211891  0.90694621  0.22267168  1
  N  N83  1  0.51788109  0.09305379  0.77732832  1
  N  N84  1  0.98211891  0.09305379  0.27732832  1
  N  N85  1  0.01788109  0.90694621  0.72267168  1
  N  N86  1  0.65506557  0.51546244  0.73196579  1
  N  N87  1  0.34493443  0.48453756  0.26803421  1
  N  N88  1  0.15506557  0.48453756  0.76803421  1
  N  N89  1  0.84493443  0.51546244  0.23196579  1
  N  N90  1  0.78442144  0.71083127  0.86224436  1
  N  N91  1  0.21557856  0.28916873  0.13775564  1
  N  N92  1  0.28442144  0.28916873  0.63775564  1
  N  N93  1  0.71557856  0.71083127  0.36224436  1
  F  F94  1  0.69013015  0.90157556  0.59907439  1
  F  F95  1  0.30986985  0.09842444  0.40092561  1
  F  F96  1  0.19013015  0.09842444  0.90092561  1
  F  F97  1  0.80986985  0.90157556  0.09907439  1
