# generated using pymatgen
data_BaCr2(RuO3)4
_symmetry_space_group_name_H-M   'P 1'
_cell_length_a   9.28241997
_cell_length_b   10.09457432
_cell_length_c   10.09457432
_cell_angle_alpha   90.00000000
_cell_angle_beta   90.00000000
_cell_angle_gamma   90.00000000
_symmetry_Int_Tables_number   1
_chemical_formula_structural   BaCr2(RuO3)4
_chemical_formula_sum   'Ba4 Cr8 Ru16 O48'
_cell_volume   945.88259290
_cell_formula_units_Z   4
loop_
 _symmetry_equiv_pos_site_id
 _symmetry_equiv_pos_as_xyz
  1  'x, y, z'
loop_
 _atom_site_type_symbol
 _atom_site_label
 _atom_site_symmetry_multiplicity
 _atom_site_fract_x
 _atom_site_fract_y
 _atom_site_fract_z
 _atom_site_occupancy
  Ba  Ba0  1  0.11421484  0.50000000  0.50000000  1
  Ba  Ba1  1  0.37206951  0.00000000  -0.00000000  1
  Ba  Ba2  1  0.54346337  0.50000000  0.50000000  1
  Ba  Ba3  1  0.95594980  0.00000000  -0.00000000  1
  Cr  Cr4  1  0.16468158  0.16715568  0.34756659  1
  Cr  Cr5  1  0.16468158  0.83284432  0.65243341  1
  Cr  Cr6  1  0.16468158  0.65243341  0.16715568  1
  Cr  Cr7  1  0.16468158  0.34756659  0.83284432  1
  Cr  Cr8  1  0.00339481  0.33172306  0.15080340  1
  Cr  Cr9  1  0.00339481  0.66827694  0.84919660  1
  Cr  Cr10  1  0.00339481  0.84919660  0.33172306  1
  Cr  Cr11  1  0.00339481  0.15080340  0.66827694  1
  Ru  Ru12  1  0.32909016  0.33511407  0.15018646  1
  Ru  Ru13  1  0.32909016  0.66488593  0.84981354  1
  Ru  Ru14  1  0.32909016  0.84981354  0.33511407  1
  Ru  Ru15  1  0.32909016  0.15018646  0.66488593  1
  Ru  Ru16  1  0.49652455  0.16628014  0.35113798  1
  Ru  Ru17  1  0.49652455  0.83371986  0.64886202  1
  Ru  Ru18  1  0.49652455  0.64886202  0.16628014  1
  Ru  Ru19  1  0.49652455  0.35113798  0.83371986  1
  Ru  Ru20  1  0.83707070  0.16645667  0.35301442  1
  Ru  Ru21  1  0.83707070  0.83354333  0.64698558  1
  Ru  Ru22  1  0.83707070  0.64698558  0.16645667  1
  Ru  Ru23  1  0.83707070  0.35301442  0.83354333  1
  Ru  Ru24  1  0.67070184  0.33227712  0.14767093  1
  Ru  Ru25  1  0.67070184  0.66772288  0.85232907  1
  Ru  Ru26  1  0.67070184  0.85232907  0.33227712  1
  Ru  Ru27  1  0.67070184  0.14767093  0.66772288  1
  O  O28  1  0.16657438  0.45765150  0.16421004  1
  O  O29  1  0.16657438  0.54234850  0.83578996  1
  O  O30  1  0.16657438  0.83578996  0.45765150  1
  O  O31  1  0.16657438  0.16421004  0.54234850  1
  O  O32  1  0.49971901  0.45448315  0.15674892  1
  O  O33  1  0.49971901  0.54551685  0.84325108  1
  O  O34  1  0.49971901  0.84325108  0.45448315  1
  O  O35  1  0.49971901  0.15674892  0.54551685  1
  O  O36  1  0.00435512  0.30028849  0.34823457  1
  O  O37  1  0.00435512  0.69971151  0.65176543  1
  O  O38  1  0.00435512  0.65176543  0.30028849  1
  O  O39  1  0.00435512  0.34823457  0.69971151  1
  O  O40  1  0.66487833  0.30069199  0.34940345  1
  O  O41  1  0.66487833  0.69930801  0.65059655  1
  O  O42  1  0.66487833  0.65059655  0.30069199  1
  O  O43  1  0.66487833  0.34940345  0.69930801  1
  O  O44  1  0.33371596  0.04103794  0.33743852  1
  O  O45  1  0.33371596  0.95896206  0.66256148  1
  O  O46  1  0.33371596  0.66256148  0.04103794  1
  O  O47  1  0.33371596  0.33743852  0.95896206  1
  O  O48  1  0.33039025  0.30475451  0.34976726  1
  O  O49  1  0.33039025  0.69524549  0.65023274  1
  O  O50  1  0.33039025  0.65023274  0.30475451  1
  O  O51  1  0.33039025  0.34976726  0.69524549  1
  O  O52  1  0.83305568  0.45702392  0.16067969  1
  O  O53  1  0.83305568  0.54297608  0.83932031  1
  O  O54  1  0.83305568  0.83932031  0.45702392  1
  O  O55  1  0.83305568  0.16067969  0.54297608  1
  O  O56  1  0.83739125  0.19815178  0.15380987  1
  O  O57  1  0.83739125  0.80184822  0.84619013  1
  O  O58  1  0.83739125  0.84619013  0.19815178  1
  O  O59  1  0.83739125  0.15380987  0.80184822  1
  O  O60  1  0.99903768  0.04350020  0.33541291  1
  O  O61  1  0.99903768  0.95649980  0.66458709  1
  O  O62  1  0.99903768  0.66458709  0.04350020  1
  O  O63  1  0.99903768  0.33541291  0.95649980  1
  O  O64  1  0.16462091  0.19581381  0.14817322  1
  O  O65  1  0.16462091  0.80418619  0.85182678  1
  O  O66  1  0.16462091  0.85182678  0.19581381  1
  O  O67  1  0.16462091  0.14817322  0.80418619  1
  O  O68  1  0.66811544  0.04621621  0.34377328  1
  O  O69  1  0.66811544  0.95378379  0.65622672  1
  O  O70  1  0.66811544  0.65622672  0.04621621  1
  O  O71  1  0.66811544  0.34377328  0.95378379  1
  O  O72  1  0.49970797  0.20044370  0.15094667  1
  O  O73  1  0.49970797  0.79955630  0.84905333  1
  O  O74  1  0.49970797  0.84905333  0.20044370  1
  O  O75  1  0.49970797  0.15094667  0.79955630  1
