# generated using pymatgen
data_Ba2V3InO11
_symmetry_space_group_name_H-M   'P 1'
_cell_length_a   7.70674268
_cell_length_b   12.28105233
_cell_length_c   11.60128473
_cell_angle_alpha   103.49460830
_cell_angle_beta   90.00000000
_cell_angle_gamma   90.00000000
_symmetry_Int_Tables_number   1
_chemical_formula_structural   Ba2V3InO11
_chemical_formula_sum   'Ba8 V12 In4 O44'
_cell_volume   1067.71133099
_cell_formula_units_Z   4
loop_
 _symmetry_equiv_pos_site_id
 _symmetry_equiv_pos_as_xyz
  1  'x, y, z'
loop_
 _atom_site_type_symbol
 _atom_site_label
 _atom_site_symmetry_multiplicity
 _atom_site_fract_x
 _atom_site_fract_y
 _atom_site_fract_z
 _atom_site_occupancy
  Ba  Ba0  1  0.27435675  0.77557719  0.94373596  1
  Ba  Ba1  1  0.72564325  0.22442281  0.05626404  1
  Ba  Ba2  1  0.77435675  0.22442281  0.55626404  1
  Ba  Ba3  1  0.22564325  0.77557719  0.44373596  1
  Ba  Ba4  1  0.74716603  0.55757475  0.89013597  1
  Ba  Ba5  1  0.25283397  0.44242525  0.10986403  1
  Ba  Ba6  1  0.24716603  0.44242525  0.60986403  1
  Ba  Ba7  1  0.75283397  0.55757475  0.39013597  1
  V  V8  1  0.76345116  0.90619282  0.97452694  1
  V  V9  1  0.23654884  0.09380718  0.02547306  1
  V  V10  1  0.26345116  0.09380718  0.52547306  1
  V  V11  1  0.73654884  0.90619282  0.47452694  1
  V  V12  1  0.51859807  0.68699183  0.67186916  1
  V  V13  1  0.48140193  0.31300817  0.32813084  1
  V  V14  1  0.01859807  0.31300817  0.82813084  1
  V  V15  1  0.98140193  0.68699183  0.17186916  1
  V  V16  1  0.98239189  0.69063581  0.67363968  1
  V  V17  1  0.01760811  0.30936419  0.32636032  1
  V  V18  1  0.48239189  0.30936419  0.82636032  1
  V  V19  1  0.51760811  0.69063581  0.17363968  1
  In  In20  1  0.49184498  0.99865470  0.74820726  1
  In  In21  1  0.50815502  0.00134530  0.25179274  1
  In  In22  1  0.99184498  0.00134530  0.75179274  1
  In  In23  1  0.00815502  0.99865470  0.24820726  1
  O  O24  1  0.44796687  0.82556669  0.71462079  1
  O  O25  1  0.55203313  0.17443331  0.28537921  1
  O  O26  1  0.94796687  0.17443331  0.78537921  1
  O  O27  1  0.05203313  0.82556669  0.21462079  1
  O  O28  1  0.54821935  0.16976460  0.79975495  1
  O  O29  1  0.45178065  0.83023540  0.20024505  1
  O  O30  1  0.04821935  0.83023540  0.70024505  1
  O  O31  1  0.95178065  0.16976460  0.29975495  1
  O  O32  1  0.75078507  0.66562321  0.66691651  1
  O  O33  1  0.24921493  0.33437679  0.33308349  1
  O  O34  1  0.25078507  0.33437679  0.83308349  1
  O  O35  1  0.74921493  0.66562321  0.16691651  1
  O  O36  1  0.94472308  0.37520804  0.96550447  1
  O  O37  1  0.05527692  0.62479196  0.03449553  1
  O  O38  1  0.44472308  0.62479196  0.53449553  1
  O  O39  1  0.55527692  0.37520804  0.46550447  1
  O  O40  1  0.93814187  0.38771180  0.73325617  1
  O  O41  1  0.06185813  0.61228820  0.26674383  1
  O  O42  1  0.43814187  0.61228820  0.76674383  1
  O  O43  1  0.56185813  0.38771180  0.23325617  1
  O  O44  1  0.77516344  0.99130255  0.62173916  1
  O  O45  1  0.22483656  0.00869745  0.37826084  1
  O  O46  1  0.27516344  0.00869745  0.87826084  1
  O  O47  1  0.72483656  0.99130255  0.12173916  1
  O  O48  1  0.97262500  0.86783857  0.97032277  1
  O  O49  1  0.02737500  0.13216143  0.02967723  1
  O  O50  1  0.47262500  0.13216143  0.52967723  1
  O  O51  1  0.52737500  0.86783857  0.47032277  1
  O  O52  1  0.63817220  0.78845579  0.94602464  1
  O  O53  1  0.36182780  0.21154421  0.05397536  1
  O  O54  1  0.13817220  0.21154421  0.55397536  1
  O  O55  1  0.86182780  0.78845579  0.44602464  1
  O  O56  1  0.73518134  0.98606547  0.86119276  1
  O  O57  1  0.26481866  0.01393453  0.13880724  1
  O  O58  1  0.23518134  0.01393453  0.63880724  1
  O  O59  1  0.76481866  0.98606547  0.36119276  1
  O  O60  1  0.55861758  0.37039029  0.71969321  1
  O  O61  1  0.44138242  0.62960971  0.28030679  1
  O  O62  1  0.05861758  0.62960971  0.78030679  1
  O  O63  1  0.94138242  0.37039029  0.21969321  1
  O  O64  1  0.56532819  0.38304604  0.95749985  1
  O  O65  1  0.43467181  0.61695396  0.04250015  1
  O  O66  1  0.06532819  0.61695396  0.54250015  1
  O  O67  1  0.93467181  0.38304604  0.45749985  1
