# generated using pymatgen
data_ZrUCN
_symmetry_space_group_name_H-M   'P 1'
_cell_length_a   3.36037557
_cell_length_b   3.36037557
_cell_length_c   5.93751083
_cell_angle_alpha   73.56193962
_cell_angle_beta   90.00000000
_cell_angle_gamma   120.00000007
_symmetry_Int_Tables_number   1
_chemical_formula_structural   ZrUCN
_chemical_formula_sum   'Zr1 U1 C1 N1'
_cell_volume   54.87727322
_cell_formula_units_Z   1
loop_
 _symmetry_equiv_pos_site_id
 _symmetry_equiv_pos_as_xyz
  1  'x, y, z'
loop_
 _atom_site_type_symbol
 _atom_site_label
 _atom_site_symmetry_multiplicity
 _atom_site_fract_x
 _atom_site_fract_y
 _atom_site_fract_z
 _atom_site_occupancy
  Zr  Zr0  1  0.75051106  0.50102211  0.74846683  1
  U  U1  1  0.25015069  0.50030138  0.24954792  1
  C  C2  1  0.00185655  0.00371309  0.99443036  1
  N  N3  1  0.49748170  0.99496341  0.50755489  1
