# generated using pymatgen
data_ZrNb3C4
_symmetry_space_group_name_H-M   'P 1'
_cell_length_a   3.21883030
_cell_length_b   3.21883030
_cell_length_c   10.71246313
_cell_angle_alpha   98.64069822
_cell_angle_beta   90.00000000
_cell_angle_gamma   120.00000000
_symmetry_Int_Tables_number   1
_chemical_formula_structural   ZrNb3C4
_chemical_formula_sum   'Zr1 Nb3 C4'
_cell_volume   94.66309564
_cell_formula_units_Z   1
loop_
 _symmetry_equiv_pos_site_id
 _symmetry_equiv_pos_as_xyz
  1  'x, y, z'
loop_
 _atom_site_type_symbol
 _atom_site_label
 _atom_site_symmetry_multiplicity
 _atom_site_fract_x
 _atom_site_fract_y
 _atom_site_fract_z
 _atom_site_occupancy
  Zr  Zr0  1  0.00000000  0.00000000  0.00000000  1
  Nb  Nb1  1  0.75173489  0.50346979  0.25520468  1
  Nb  Nb2  1  0.50000000  0.00000000  0.50000000  1
  Nb  Nb3  1  0.24826511  0.49653021  0.74479532  1
  C  C4  1  0.62228901  0.24457802  0.86686703  1
  C  C5  1  0.87422794  0.74845588  0.62268382  1
  C  C6  1  0.37771099  0.75542198  0.13313297  1
  C  C7  1  0.12577206  0.25154412  0.37731618  1
