# generated using pymatgen
data_ZrVCo
_symmetry_space_group_name_H-M   'P 1'
_cell_length_a   4.99023097
_cell_length_b   5.14784993
_cell_length_c   8.39839861
_cell_angle_alpha   90.00000000
_cell_angle_beta   90.00000000
_cell_angle_gamma   121.02638570
_symmetry_Int_Tables_number   1
_chemical_formula_structural   ZrVCo
_chemical_formula_sum   'Zr4 V4 Co4'
_cell_volume   184.87933427
_cell_formula_units_Z   4
loop_
 _symmetry_equiv_pos_site_id
 _symmetry_equiv_pos_as_xyz
  1  'x, y, z'
loop_
 _atom_site_type_symbol
 _atom_site_label
 _atom_site_symmetry_multiplicity
 _atom_site_fract_x
 _atom_site_fract_y
 _atom_site_fract_z
 _atom_site_occupancy
  Zr  Zr0  1  0.65272212  0.32627231  0.56850984  1
  Zr  Zr1  1  0.32601263  0.66324943  0.44798296  1
  Zr  Zr2  1  0.32601263  0.66324943  0.05201704  1
  Zr  Zr3  1  0.65272212  0.32627231  0.93149016  1
  V  V4  1  0.70440703  0.85218692  0.75000000  1
  V  V5  1  0.82315734  0.65924912  0.25000000  1
  V  V6  1  0.82323120  0.16394258  0.25000000  1
  V  V7  1  0.33913593  0.16957913  0.25000000  1
  Co  Co8  1  0.99052711  0.99519013  0.50201754  1
  Co  Co9  1  0.99052711  0.99519013  0.99798246  1
  Co  Co10  1  0.18572255  0.34821678  0.75000000  1
  Co  Co11  1  0.18582222  0.83740172  0.75000000  1
