# generated using pymatgen
data_Zr3HC2
_symmetry_space_group_name_H-M   'P 1'
_cell_length_a   3.35958006
_cell_length_b   3.35958006
_cell_length_c   8.02384638
_cell_angle_alpha   90.00000000
_cell_angle_beta   90.00000000
_cell_angle_gamma   120.00000000
_symmetry_Int_Tables_number   1
_chemical_formula_structural   Zr3HC2
_chemical_formula_sum   'Zr3 H1 C2'
_cell_volume   78.43018263
_cell_formula_units_Z   1
loop_
 _symmetry_equiv_pos_site_id
 _symmetry_equiv_pos_as_xyz
  1  'x, y, z'
loop_
 _atom_site_type_symbol
 _atom_site_label
 _atom_site_symmetry_multiplicity
 _atom_site_fract_x
 _atom_site_fract_y
 _atom_site_fract_z
 _atom_site_occupancy
  Zr  Zr0  1  0.33333300  0.66666700  0.66666700  1
  Zr  Zr1  1  0.00000000  -0.00000000  0.98858201  1
  Zr  Zr2  1  0.66666700  0.33333300  0.34475099  1
  H  H3  1  0.33333300  0.66666700  0.16666700  1
  C  C4  1  0.00000000  -0.00000000  0.49108422  1
  C  C5  1  0.66666700  0.33333300  0.84224878  1
