# generated using pymatgen
data_Zn3Cu(WO4)4
_symmetry_space_group_name_H-M   'P 1'
_cell_length_a   5.82615399
_cell_length_b   7.02924219
_cell_length_c   6.76529917
_cell_angle_alpha   86.74158735
_cell_angle_beta   90.19024672
_cell_angle_gamma   89.32981527
_symmetry_Int_Tables_number   1
_chemical_formula_structural   Zn3Cu(WO4)4
_chemical_formula_sum   'Zn3 Cu1 W4 O16'
_cell_volume   276.59328088
_cell_formula_units_Z   1
loop_
 _symmetry_equiv_pos_site_id
 _symmetry_equiv_pos_as_xyz
  1  'x, y, z'
loop_
 _atom_site_type_symbol
 _atom_site_label
 _atom_site_symmetry_multiplicity
 _atom_site_fract_x
 _atom_site_fract_y
 _atom_site_fract_z
 _atom_site_occupancy
  Zn  Zn0  1  0.32616259  0.62221604  0.12573950  1
  Zn  Zn1  1  0.32668919  0.12412443  0.62576660  1
  Zn  Zn2  1  0.67241722  0.37704666  0.87394997  1
  Cu  Cu3  1  0.66459862  0.87413451  0.37381350  1
  W  W4  1  0.82767589  0.87574743  0.87514594  1
  W  W5  1  0.82500273  0.37571513  0.37519975  1
  W  W6  1  0.17412271  0.12484368  0.12621060  1
  W  W7  1  0.17327920  0.62464695  0.62471678  1
  O  O8  1  0.10776968  0.39087029  0.17318732  1
  O  O9  1  0.10660385  0.89044754  0.67528838  1
  O  O10  1  0.89310237  0.61060268  0.82744028  1
  O  O11  1  0.89718225  0.11309529  0.32530671  1
  O  O12  1  0.10809386  0.85930971  0.07488406  1
  O  O13  1  0.10680135  0.35934555  0.57610781  1
  O  O14  1  0.89238580  0.14081643  0.92336038  1
  O  O15  1  0.89070598  0.64169372  0.42478476  1
  O  O16  1  0.62546337  0.42840364  0.16750250  1
  O  O17  1  0.63062247  0.92398336  0.66181083  1
  O  O18  1  0.37478091  0.57315622  0.83164524  1
  O  O19  1  0.37618259  0.07056455  0.33221070  1
  O  O20  1  0.63190306  0.82847349  0.08719818  1
  O  O21  1  0.62599703  0.32419483  0.58099916  1
  O  O22  1  0.37322685  0.17405409  0.91927407  1
  O  O23  1  0.36923043  0.67251378  0.41845698  1
