# generated using pymatgen
data_Zr2CrFe3
_symmetry_space_group_name_H-M   'P 1'
_cell_length_a   4.98355666
_cell_length_b   4.92468178
_cell_length_c   8.25263645
_cell_angle_alpha   90.00000000
_cell_angle_beta   90.00000000
_cell_angle_gamma   119.58574364
_symmetry_Int_Tables_number   1
_chemical_formula_structural   Zr2CrFe3
_chemical_formula_sum   'Zr4 Cr2 Fe6'
_cell_volume   176.13217992
_cell_formula_units_Z   2
loop_
 _symmetry_equiv_pos_site_id
 _symmetry_equiv_pos_as_xyz
  1  'x, y, z'
loop_
 _atom_site_type_symbol
 _atom_site_label
 _atom_site_symmetry_multiplicity
 _atom_site_fract_x
 _atom_site_fract_y
 _atom_site_fract_z
 _atom_site_occupancy
  Zr  Zr0  1  0.66882935  0.33440423  0.56054856  1
  Zr  Zr1  1  0.33346190  0.66675864  0.43518363  1
  Zr  Zr2  1  0.33346190  0.66675864  0.06481637  1
  Zr  Zr3  1  0.66882935  0.33440423  0.93945144  1
  Cr  Cr4  1  0.16780468  0.33858068  0.75000000  1
  Cr  Cr5  1  0.16784137  0.82923750  0.75000000  1
  Fe  Fe6  1  0.66131187  0.83064922  0.75000000  1
  Fe  Fe7  1  0.83381747  0.66671487  0.25000000  1
  Fe  Fe8  1  0.83380686  0.16711559  0.25000000  1
  Fe  Fe9  1  0.33312447  0.16657033  0.25000000  1
  Fe  Fe10  1  0.99885539  0.99940303  0.50156227  1
  Fe  Fe11  1  0.99885539  0.99940303  0.99843773  1
