# generated using pymatgen
data_Zr2Ti(PbO3)3
_symmetry_space_group_name_H-M   'P 1'
_cell_length_a   4.22699433
_cell_length_b   5.90115229
_cell_length_c   9.24351904
_cell_angle_alpha   108.61484599
_cell_angle_beta   89.57814930
_cell_angle_gamma   91.32166044
_symmetry_Int_Tables_number   1
_chemical_formula_structural   Zr2Ti(PbO3)3
_chemical_formula_sum   'Zr2 Ti1 Pb3 O9'
_cell_volume   218.45129072
_cell_formula_units_Z   1
loop_
 _symmetry_equiv_pos_site_id
 _symmetry_equiv_pos_as_xyz
  1  'x, y, z'
loop_
 _atom_site_type_symbol
 _atom_site_label
 _atom_site_symmetry_multiplicity
 _atom_site_fract_x
 _atom_site_fract_y
 _atom_site_fract_z
 _atom_site_occupancy
  Zr  Zr0  1  0.97529749  0.68944597  0.33126449  1
  Zr  Zr1  1  0.97529749  0.35818048  0.66873551  1
  Ti  Ti2  1  0.95303750  0.02647662  0.00000000  1
  Pb  Pb3  1  0.41655961  0.90517181  0.68186832  1
  Pb  Pb4  1  0.42469600  0.57879827  1.00000000  1
  Pb  Pb5  1  0.41655961  0.22330450  0.31813168  1
  O  O6  1  0.01713520  0.15282951  0.83692705  1
  O  O7  1  0.02518955  0.83794268  0.15633027  1
  O  O8  1  0.01797256  0.48524883  0.48896371  1
  O  O9  1  0.01797256  0.99628612  0.51103629  1
  O  O10  1  0.02518955  0.68161142  0.84366973  1
  O  O11  1  0.01713520  0.31590246  0.16307295  1
  O  O12  1  0.49291144  0.32089944  0.67948538  1
  O  O13  1  0.52179479  0.99682682  0.00000000  1
  O  O14  1  0.49291144  0.64141506  0.32051462  1
