# generated using pymatgen
data_Zr5Ir2Os
_symmetry_space_group_name_H-M   'P 1'
_cell_length_a   5.58626791
_cell_length_b   8.05694417
_cell_length_c   8.04050728
_cell_angle_alpha   119.94210471
_cell_angle_beta   90.00379866
_cell_angle_gamma   89.99604640
_symmetry_Int_Tables_number   1
_chemical_formula_structural   Zr5Ir2Os
_chemical_formula_sum   'Zr10 Ir4 Os2'
_cell_volume   313.58787543
_cell_formula_units_Z   2
loop_
 _symmetry_equiv_pos_site_id
 _symmetry_equiv_pos_as_xyz
  1  'x, y, z'
loop_
 _atom_site_type_symbol
 _atom_site_label
 _atom_site_symmetry_multiplicity
 _atom_site_fract_x
 _atom_site_fract_y
 _atom_site_fract_z
 _atom_site_occupancy
  Zr  Zr0  1  0.50081436  0.33396770  0.66745580  1
  Zr  Zr1  1  0.50079919  0.66605199  0.33353891  1
  Zr  Zr2  1  0.99918402  0.66607960  0.33361670  1
  Zr  Zr3  1  0.99919479  0.33380423  0.66739394  1
  Zr  Zr4  1  0.75003424  0.75612907  0.99520082  1
  Zr  Zr5  1  0.74999263  0.24379543  0.23900133  1
  Zr  Zr6  1  0.74998931  0.00002395  0.75977207  1
  Zr  Zr7  1  0.25002669  0.24169492  0.00104209  1
  Zr  Zr8  1  0.25000684  0.75835790  0.75943709  1
  Zr  Zr9  1  0.24998990  0.00000299  0.24254111  1
  Ir  Ir10  1  0.74988653  0.00001675  0.39939754  1
  Ir  Ir11  1  0.24993014  0.60139892  0.00098397  1
  Ir  Ir12  1  0.24998435  0.39867893  0.39964155  1
  Ir  Ir13  1  0.25009186  0.00001774  0.60128163  1
  Os  Os14  1  0.75004864  0.40107419  0.00038793  1
  Os  Os15  1  0.75002652  0.59890570  0.59930752  1
