# generated using pymatgen
data_Zn4CdS5
_symmetry_space_group_name_H-M   'P 1'
_cell_length_a   3.92791682
_cell_length_b   3.92791682
_cell_length_c   32.33541112
_cell_angle_alpha   89.99985335
_cell_angle_beta   90.00014665
_cell_angle_gamma   120.00120405
_symmetry_Int_Tables_number   1
_chemical_formula_structural   Zn4CdS5
_chemical_formula_sum   'Zn8 Cd2 S10'
_cell_volume   432.04433515
_cell_formula_units_Z   2
loop_
 _symmetry_equiv_pos_site_id
 _symmetry_equiv_pos_as_xyz
  1  'x, y, z'
loop_
 _atom_site_type_symbol
 _atom_site_label
 _atom_site_symmetry_multiplicity
 _atom_site_fract_x
 _atom_site_fract_y
 _atom_site_fract_z
 _atom_site_occupancy
  Zn  Zn0  1  0.33332913  0.66667087  0.50152625  1
  Zn  Zn1  1  0.33333536  0.66666464  0.69968492  1
  Zn  Zn2  1  0.33333045  0.66666955  0.89804054  1
  Zn  Zn3  1  0.66667390  0.33332610  0.99507158  1
  Zn  Zn4  1  0.66666614  0.33333386  0.20043788  1
  Zn  Zn5  1  0.66666718  0.33333282  0.40495004  1
  Zn  Zn6  1  0.66667251  0.33332749  0.60006911  1
  Zn  Zn7  1  0.66666788  0.33333212  0.79934449  1
  Cd  Cd8  1  0.33332255  0.66667745  0.09636465  1
  Cd  Cd9  1  0.33333344  0.66666656  0.29994860  1
  S  S10  1  0.33334001  0.66665999  0.01831275  1
  S  S11  1  0.33333084  0.66666916  0.22228163  1
  S  S12  1  0.33333389  0.66666611  0.42823806  1
  S  S13  1  0.33333978  0.66666022  0.62524236  1
  S  S14  1  0.33333472  0.66666528  0.82421645  1
  S  S15  1  0.66666062  0.33333938  0.12859291  1
  S  S16  1  0.66666493  0.33333507  0.33257963  1
  S  S17  1  0.66666371  0.33333629  0.52608089  1
  S  S18  1  0.66666775  0.33333225  0.72497323  1
  S  S19  1  0.66666523  0.33333477  0.92204401  1
