# generated using pymatgen
data_Zr3NbZn8
_symmetry_space_group_name_H-M   'P 1'
_cell_length_a   5.20802914
_cell_length_b   5.20802914
_cell_length_c   8.97812879
_cell_angle_alpha   73.13966192
_cell_angle_beta   90.00000000
_cell_angle_gamma   120.00000000
_symmetry_Int_Tables_number   1
_chemical_formula_structural   Zr3NbZn8
_chemical_formula_sum   'Zr3 Nb1 Zn8'
_cell_volume   198.71452965
_cell_formula_units_Z   1
loop_
 _symmetry_equiv_pos_site_id
 _symmetry_equiv_pos_as_xyz
  1  'x, y, z'
loop_
 _atom_site_type_symbol
 _atom_site_label
 _atom_site_symmetry_multiplicity
 _atom_site_fract_x
 _atom_site_fract_y
 _atom_site_fract_z
 _atom_site_occupancy
  Zr  Zr0  1  0.37497115  0.74994230  0.87508654  1
  Zr  Zr1  1  0.99840795  0.99681590  0.00477615  1
  Zr  Zr2  1  0.50132307  0.00264615  0.49603078  1
  Nb  Nb3  1  0.87501016  0.75002033  0.37496951  1
  Zn  Zn4  1  0.43674372  0.37198704  0.19126924  1
  Zn  Zn5  1  0.93730041  0.37891843  0.68378116  1
  Zn  Zn6  1  0.43674372  0.87348745  0.19126924  1
  Zn  Zn7  1  0.93730041  0.87460082  0.68378116  1
  Zn  Zn8  1  0.18791836  0.37583671  0.43624493  1
  Zn  Zn9  1  0.68741970  0.37483939  0.93774091  1
  Zn  Zn10  1  0.93524332  0.37198704  0.19126924  1
  Zn  Zn11  1  0.44161802  0.37891843  0.68378116  1
