# generated using pymatgen
data_VCrCuS4
_symmetry_space_group_name_H-M   'P 1'
_cell_length_a   6.98942163
_cell_length_b   7.08023648
_cell_length_c   6.85331917
_cell_angle_alpha   90.00000000
_cell_angle_beta   60.64208588
_cell_angle_gamma   120.43074994
_symmetry_Int_Tables_number   1
_chemical_formula_structural   VCrCuS4
_chemical_formula_sum   'V2 Cr2 Cu2 S8'
_cell_volume   240.55716455
_cell_formula_units_Z   2
loop_
 _symmetry_equiv_pos_site_id
 _symmetry_equiv_pos_as_xyz
  1  'x, y, z'
loop_
 _atom_site_type_symbol
 _atom_site_label
 _atom_site_symmetry_multiplicity
 _atom_site_fract_x
 _atom_site_fract_y
 _atom_site_fract_z
 _atom_site_occupancy
  V  V0  1  -0.00000000  -0.00000000  0.50000000  1
  V  V1  1  -0.00000000  -0.00000000  0.00000000  1
  Cr  Cr2  1  0.50000000  0.50000000  0.00000000  1
  Cr  Cr3  1  0.50000000  -0.00000000  0.00000000  1
  Cu  Cu4  1  0.75393516  0.37696758  0.37303242  1
  Cu  Cu5  1  0.24606484  0.62303242  0.62696758  1
  S  S6  1  0.01521917  0.77010656  0.24239042  1
  S  S7  1  0.01521917  0.24511261  0.24239042  1
  S  S8  1  0.48117844  0.24058922  0.77504105  1
  S  S9  1  0.48117844  0.24058922  0.24378051  1
  S  S10  1  0.98478083  0.22989344  0.75760958  1
  S  S11  1  0.98478083  0.75488739  0.75760958  1
  S  S12  1  0.51882156  0.75941078  0.22495895  1
  S  S13  1  0.51882156  0.75941078  0.75621949  1
