# generated using pymatgen
data_VNi5(BO5)2
_symmetry_space_group_name_H-M   'P 1'
_cell_length_a   3.02080107
_cell_length_b   9.25440302
_cell_length_c   12.36320005
_cell_angle_alpha   90.00000000
_cell_angle_beta   90.00000000
_cell_angle_gamma   90.00000000
_symmetry_Int_Tables_number   1
_chemical_formula_structural   VNi5(BO5)2
_chemical_formula_sum   'V2 Ni10 B4 O20'
_cell_volume   345.62204201
_cell_formula_units_Z   2
loop_
 _symmetry_equiv_pos_site_id
 _symmetry_equiv_pos_as_xyz
  1  'x, y, z'
loop_
 _atom_site_type_symbol
 _atom_site_label
 _atom_site_symmetry_multiplicity
 _atom_site_fract_x
 _atom_site_fract_y
 _atom_site_fract_z
 _atom_site_occupancy
  V  V0  1  0.00000000  0.25636183  0.61472192  1
  V  V1  1  0.00000000  0.24363817  0.11472192  1
  Ni  Ni2  1  0.50000000  0.50487451  0.49664233  1
  Ni  Ni3  1  0.50000000  0.99512549  0.99664233  1
  Ni  Ni4  1  0.50000000  0.51045030  0.21973462  1
  Ni  Ni5  1  0.50000000  0.50168865  0.78334475  1
  Ni  Ni6  1  0.50000000  0.99831135  0.28334475  1
  Ni  Ni7  1  0.50000000  0.98954970  0.71973462  1
  Ni  Ni8  1  -0.00000000  0.99163890  0.49837282  1
  Ni  Ni9  1  0.00000000  0.50836110  0.99837282  1
  Ni  Ni10  1  -0.00000000  0.74133706  0.38521020  1
  Ni  Ni11  1  0.00000000  0.75866294  0.88521020  1
  B  B12  1  0.00000000  0.78043014  0.13915369  1
  B  B13  1  0.00000000  0.22598557  0.86103345  1
  B  B14  1  -0.00000000  0.27401443  0.36103345  1
  B  B15  1  -0.00000000  0.71956986  0.63915369  1
  O  O16  1  0.00000000  0.62908344  0.14023869  1
  O  O17  1  -0.00000000  0.37487166  0.85922231  1
  O  O18  1  -0.00000000  0.12512834  0.35922231  1
  O  O19  1  -0.00000000  0.87091656  0.64023869  1
  O  O20  1  0.00000000  0.64494265  0.54205038  1
  O  O21  1  -0.00000000  0.34904926  0.45899882  1
  O  O22  1  -0.00000000  0.15095074  0.95899882  1
  O  O23  1  0.00000000  0.85505735  0.04205038  1
  O  O24  1  -0.00000000  0.85569342  0.23583183  1
  O  O25  1  0.00000000  0.15009291  0.76336385  1
  O  O26  1  -0.00000000  0.34990709  0.26336385  1
  O  O27  1  0.00000000  0.64430658  0.73583183  1
  O  O28  1  0.50000000  0.88756756  0.42219823  1
  O  O29  1  0.50000000  0.11759781  0.57979950  1
  O  O30  1  0.50000000  0.38240219  0.07979950  1
  O  O31  1  0.50000000  0.61243244  0.92219823  1
  O  O32  1  0.50000000  0.61025520  0.35682664  1
  O  O33  1  0.50000000  0.38304548  0.64325597  1
  O  O34  1  0.50000000  0.11695452  0.14325597  1
  O  O35  1  0.50000000  0.88974480  0.85682664  1
