# generated using pymatgen
data_V3S5
_symmetry_space_group_name_H-M   'P 1'
_cell_length_a   5.62371386
_cell_length_b   6.68449235
_cell_length_c   8.09686332
_cell_angle_alpha   70.01893683
_cell_angle_beta   110.23118582
_cell_angle_gamma   89.81960377
_symmetry_Int_Tables_number   1
_chemical_formula_structural   V3S5
_chemical_formula_sum   'V6 S10'
_cell_volume   265.85285832
_cell_formula_units_Z   2
loop_
 _symmetry_equiv_pos_site_id
 _symmetry_equiv_pos_as_xyz
  1  'x, y, z'
loop_
 _atom_site_type_symbol
 _atom_site_label
 _atom_site_symmetry_multiplicity
 _atom_site_fract_x
 _atom_site_fract_y
 _atom_site_fract_z
 _atom_site_occupancy
  V  V0  1  0.78775261  0.40782417  0.59174863  1
  V  V1  1  0.41224739  0.19217583  0.80825137  1
  V  V2  1  0.60000000  0.80000000  0.20000000  1
  V  V3  1  0.99452193  0.01355472  0.98416816  1
  V  V4  1  0.20547807  0.58644528  0.41583184  1
  V  V5  1  0.10000000  0.30000000  0.20000000  1
  S  S6  1  0.71604121  0.14981601  0.10204852  1
  S  S7  1  0.91678637  0.74715703  0.49981484  1
  S  S8  1  0.11690076  0.35593743  0.89534305  1
  S  S9  1  0.31529349  0.94505841  0.29957498  1
  S  S10  1  0.51954008  0.54910053  0.70147739  1
  S  S11  1  0.88470651  0.65494159  0.10042502  1
  S  S12  1  0.08309924  0.24406257  0.50465695  1
  S  S13  1  0.28321363  0.85284297  0.90018516  1
  S  S14  1  0.48395879  0.45018399  0.29795148  1
  S  S15  1  0.68045992  0.05089947  0.69852261  1
