# generated using pymatgen
data_Zn9Si2Te3P4(Pb3O14)3
_symmetry_space_group_name_H-M   'P 1'
_cell_length_a   8.55782097
_cell_length_b   10.05105048
_cell_length_c   13.56051674
_cell_angle_alpha   82.45308796
_cell_angle_beta   108.39352728
_cell_angle_gamma   115.19610192
_symmetry_Int_Tables_number   1
_chemical_formula_structural   Zn9Si2Te3P4(Pb3O14)3
_chemical_formula_sum   'Zn9 Si2 Te3 P4 Pb9 O42'
_cell_volume   1001.50590532
_cell_formula_units_Z   1
loop_
 _symmetry_equiv_pos_site_id
 _symmetry_equiv_pos_as_xyz
  1  'x, y, z'
loop_
 _atom_site_type_symbol
 _atom_site_label
 _atom_site_symmetry_multiplicity
 _atom_site_fract_x
 _atom_site_fract_y
 _atom_site_fract_z
 _atom_site_occupancy
  Zn  Zn0  1  0.99977772  0.66659243  0.08210422  1
  Zn  Zn1  1  0.00045080  0.33156368  0.41732036  1
  Zn  Zn2  1  0.99970911  0.99891997  0.74916912  1
  Zn  Zn3  1  0.74829310  0.16737040  0.83241989  1
  Zn  Zn4  1  0.74912872  0.83333300  0.16666700  1
  Zn  Zn5  1  0.74850282  0.49929660  0.50091311  1
  Zn  Zn6  1  0.25156677  0.33510232  0.91601364  1
  Zn  Zn7  1  0.25108106  0.00007457  0.25122878  1
  Zn  Zn8  1  0.25162003  0.66774703  0.58416388  1
  Si  Si9  1  0.66697304  0.40475462  0.92938309  1
  Si  Si10  1  0.33283534  0.26191238  0.40394991  1
  Te  Te11  1  0.99996580  0.33333300  0.66666700  1
  Te  Te12  1  0.00019384  0.00031051  0.00011048  1
  Te  Te13  1  0.99977285  0.66635649  0.33322252  1
  P  P14  1  0.66639113  0.07050133  0.26272244  1
  P  P15  1  0.66667512  0.73693357  0.59587002  1
  P  P16  1  0.33316736  0.59616567  0.07061056  1
  P  P17  1  0.33387153  0.92973243  0.73746398  1
  Pb  Pb18  1  0.59233037  0.06888449  0.53029726  1
  Pb  Pb19  1  0.59858576  0.72512490  0.86660029  1
  Pb  Pb20  1  0.59642736  0.39702519  0.19870697  1
  Pb  Pb21  1  0.00686056  0.94154110  0.46673371  1
  Pb  Pb22  1  0.99314862  0.59778251  0.80303574  1
  Pb  Pb23  1  0.00069521  0.26964181  0.13462603  1
  Pb  Pb24  1  0.40636498  0.00439529  0.00042452  1
  Pb  Pb25  1  0.40154517  0.66227171  0.33290848  1
  Pb  Pb26  1  0.40414375  0.33333300  0.66666700  1
  O  O27  1  0.66636452  0.63932475  0.69355654  1
  O  O28  1  0.66708861  0.29967830  0.03415831  1
  O  O29  1  0.66613314  0.97296971  0.35997858  1
  O  O30  1  0.33348323  0.02734225  0.63977646  1
  O  O31  1  0.33318485  0.69369729  0.97335442  1
  O  O32  1  0.33325199  0.36698770  0.29917569  1
  O  O33  1  0.47567518  0.73612631  0.53872427  1
  O  O34  1  0.46681991  0.40416384  0.86911788  1
  O  O35  1  0.47552411  0.06973440  0.20467932  1
  O  O36  1  0.80007653  0.90143941  0.62204422  1
  O  O37  1  0.80614009  0.57853361  0.95536402  1
  O  O38  1  0.79866333  0.23590644  0.28815943  1
  O  O39  1  0.72342635  0.68591721  0.51340000  1
  O  O40  1  0.72745330  0.35144140  0.84261467  1
  O  O41  1  0.72538063  0.02024907  0.18059473  1
  O  O42  1  0.20082459  0.93054069  0.79460873  1
  O  O43  1  0.20111039  0.59693160  0.12865468  1
  O  O44  1  0.19353818  0.26250316  0.46421512  1
  O  O45  1  0.52410913  0.98074879  0.81993400  1
  O  O46  1  0.52453683  0.64641793  0.15273827  1
  O  O47  1  0.53339723  0.31522560  0.49071833  1
  O  O48  1  0.27659290  0.76522659  0.71128978  1
  O  O49  1  0.27459747  0.43076056  0.04517357  1
  O  O50  1  0.27224247  0.08813339  0.37796898  1
  O  O51  1  0.12259650  0.20050366  0.70536166  1
  O  O52  1  0.12639143  0.87023690  0.04126650  1
  O  O53  1  0.12208794  0.53350268  0.37239434  1
  O  O54  1  0.78486649  0.17887832  0.69565317  1
  O  O55  1  0.78468980  0.84805543  0.02969754  1
  O  O56  1  0.78317056  0.51405784  0.36250260  1
  O  O57  1  0.09263061  0.73964345  0.47556414  1
  O  O58  1  0.09024813  0.40561328  0.80902564  1
  O  O59  1  0.09286745  0.07432906  0.14250446  1
  O  O60  1  0.21673117  0.46616334  0.62797134  1
  O  O61  1  0.21619092  0.13316332  0.96093966  1
  O  O62  1  0.21488803  0.79643010  0.29206650  1
  O  O63  1  0.87742301  0.92702355  0.85776886  1
  O  O64  1  0.87603393  0.59233794  0.19082854  1
  O  O65  1  0.87560922  0.26105272  0.52430836  1
  O  O66  1  0.91033499  0.48778868  0.63767983  1
  O  O67  1  0.90661012  0.15260916  0.97083040  1
  O  O68  1  0.90693683  0.81861057  0.30363646  1
