# generated using pymatgen
data_TiAlFeO5
_symmetry_space_group_name_H-M   'P 1'
_cell_length_a   3.74354210
_cell_length_b   5.22937300
_cell_length_c   9.74532648
_cell_angle_alpha   90.00000000
_cell_angle_beta   90.00000000
_cell_angle_gamma   69.02662235
_symmetry_Int_Tables_number   1
_chemical_formula_structural   TiAlFeO5
_chemical_formula_sum   'Ti2 Al2 Fe2 O10'
_cell_volume   178.13853669
_cell_formula_units_Z   2
loop_
 _symmetry_equiv_pos_site_id
 _symmetry_equiv_pos_as_xyz
  1  'x, y, z'
loop_
 _atom_site_type_symbol
 _atom_site_label
 _atom_site_symmetry_multiplicity
 _atom_site_fract_x
 _atom_site_fract_y
 _atom_site_fract_z
 _atom_site_occupancy
  Ti  Ti0  1  0.13199708  0.73600584  0.06450128  1
  Ti  Ti1  1  0.86800292  0.26399416  0.56450128  1
  Al  Al2  1  0.80976822  0.38046355  0.25095319  1
  Al  Al3  1  0.19023178  0.61953645  0.75095319  1
  Fe  Fe4  1  0.86248854  0.27502292  0.93036774  1
  Fe  Fe5  1  0.13751146  0.72497708  0.43036774  1
  O  O6  1  0.69575206  0.60849587  0.41927365  1
  O  O7  1  0.31231112  0.37537775  0.58493519  1
  O  O8  1  0.68768888  0.62462225  0.08493519  1
  O  O9  1  0.30424794  0.39150413  0.91927365  1
  O  O10  1  0.94566231  0.10867538  0.38432490  1
  O  O11  1  0.04663245  0.90673509  0.62100349  1
  O  O12  1  0.95336755  0.09326491  0.12100349  1
  O  O13  1  0.05433769  0.89132462  0.88432490  1
  O  O14  1  0.25381459  0.49237082  0.24464054  1
  O  O15  1  0.74618541  0.50762918  0.74464054  1
