# generated using pymatgen
data_Tl2FeCu3S4
_symmetry_space_group_name_H-M   'P 1'
_cell_length_a   3.83837314
_cell_length_b   3.83837314
_cell_length_c   13.68851559
_cell_angle_alpha   90.00000000
_cell_angle_beta   90.00000000
_cell_angle_gamma   90.00000000
_symmetry_Int_Tables_number   1
_chemical_formula_structural   Tl2FeCu3S4
_chemical_formula_sum   'Tl2 Fe1 Cu3 S4'
_cell_volume   201.67438350
_cell_formula_units_Z   1
loop_
 _symmetry_equiv_pos_site_id
 _symmetry_equiv_pos_as_xyz
  1  'x, y, z'
loop_
 _atom_site_type_symbol
 _atom_site_label
 _atom_site_symmetry_multiplicity
 _atom_site_fract_x
 _atom_site_fract_y
 _atom_site_fract_z
 _atom_site_occupancy
  Tl  Tl0  1  -0.00000000  -0.00000000  0.98638970  1
  Tl  Tl1  1  0.50000000  0.50000000  0.51361030  1
  Fe  Fe2  1  -0.00000000  0.50000000  0.25000000  1
  Cu  Cu3  1  0.50000000  -0.00000000  0.75000000  1
  Cu  Cu4  1  0.50000000  0.00000000  0.25000000  1
  Cu  Cu5  1  -0.00000000  0.50000000  0.75000000  1
  S  S6  1  0.50000000  0.50000000  0.15146191  1
  S  S7  1  0.00000000  0.00000000  0.64786507  1
  S  S8  1  0.00000000  -0.00000000  0.34853809  1
  S  S9  1  0.50000000  0.50000000  0.85213493  1
