# generated using pymatgen
data_TiFe2Bi2PbO9
_symmetry_space_group_name_H-M   'P 1'
_cell_length_a   5.65286826
_cell_length_b   14.18489450
_cell_length_c   5.65286769
_cell_angle_alpha   90.00000000
_cell_angle_beta   59.99999732
_cell_angle_gamma   90.00000000
_symmetry_Int_Tables_number   1
_chemical_formula_structural   TiFe2Bi2PbO9
_chemical_formula_sum   'Ti2 Fe4 Bi4 Pb2 O18'
_cell_volume   392.54948773
_cell_formula_units_Z   2
loop_
 _symmetry_equiv_pos_site_id
 _symmetry_equiv_pos_as_xyz
  1  'x, y, z'
loop_
 _atom_site_type_symbol
 _atom_site_label
 _atom_site_symmetry_multiplicity
 _atom_site_fract_x
 _atom_site_fract_y
 _atom_site_fract_z
 _atom_site_occupancy
  Ti  Ti0  1  0.66666700  0.85731572  0.66666700  1
  Ti  Ti1  1  0.33333300  0.19147605  0.33333300  1
  Fe  Fe2  1  -0.00000000  0.51779403  -0.00000000  1
  Fe  Fe3  1  -0.00000000  0.01481784  -0.00000000  1
  Fe  Fe4  1  0.66666700  0.34597659  0.66666700  1
  Fe  Fe5  1  0.33333300  0.68669020  0.33333300  1
  Bi  Bi6  1  0.33333300  0.46605258  0.33333300  1
  Bi  Bi7  1  -0.00000000  0.30045290  -0.00000000  1
  Bi  Bi8  1  0.66666700  0.63373979  0.66666700  1
  Bi  Bi9  1  0.33333300  0.96914150  0.33333300  1
  Pb  Pb10  1  -0.00000000  0.78190789  -0.00000000  1
  Pb  Pb11  1  0.66666700  0.11293339  0.66666700  1
  O  O12  1  0.33280065  0.92018169  0.78470101  1
  O  O13  1  0.65032697  0.58303203  0.11079309  1
  O  O14  1  0.99969977  0.25271593  0.44480066  1
  O  O15  1  0.88249934  0.92018169  0.33280065  1
  O  O16  1  0.23887994  0.58303203  0.65032697  1
  O  O17  1  0.55549857  0.25271593  0.99969977  1
  O  O18  1  0.78470101  0.92018169  0.88249934  1
  O  O19  1  0.11079309  0.58303203  0.23887994  1
  O  O20  1  0.44480066  0.25271593  0.55549857  1
  O  O21  1  0.46771104  0.75127709  0.98041607  1
  O  O22  1  0.77600465  0.41442044  0.31633841  1
  O  O23  1  0.13546541  0.08347333  0.64825838  1
  O  O24  1  0.55187189  0.75127709  0.46771104  1
  O  O25  1  0.90765794  0.41442044  0.77600465  1
  O  O26  1  0.21627621  0.08347333  0.13546541  1
  O  O27  1  0.98041607  0.75127709  0.55187189  1
  O  O28  1  0.31633841  0.41442044  0.90765794  1
  O  O29  1  0.64825838  0.08347333  0.21627621  1
