# generated using pymatgen
data_TiVCuS4
_symmetry_space_group_name_H-M   'P 1'
_cell_length_a   7.03685647
_cell_length_b   7.04926925
_cell_length_c   7.02238613
_cell_angle_alpha   90.00000000
_cell_angle_beta   60.06800074
_cell_angle_gamma   120.05836871
_symmetry_Int_Tables_number   1
_chemical_formula_structural   TiVCuS4
_chemical_formula_sum   'Ti2 V2 Cu2 S8'
_cell_volume   246.35148669
_cell_formula_units_Z   2
loop_
 _symmetry_equiv_pos_site_id
 _symmetry_equiv_pos_as_xyz
  1  'x, y, z'
loop_
 _atom_site_type_symbol
 _atom_site_label
 _atom_site_symmetry_multiplicity
 _atom_site_fract_x
 _atom_site_fract_y
 _atom_site_fract_z
 _atom_site_occupancy
  Ti  Ti0  1  0.00000000  0.00000000  0.50000000  1
  Ti  Ti1  1  0.00000000  0.00000000  -0.00000000  1
  V  V2  1  0.50000000  0.50000000  -0.00000000  1
  V  V3  1  0.50000000  0.00000000  -0.00000000  1
  Cu  Cu4  1  0.74831735  0.37415868  0.37584132  1
  Cu  Cu5  1  0.25168265  0.62584132  0.62415868  1
  S  S6  1  0.01203239  0.76521311  0.24398381  1
  S  S7  1  0.01203239  0.24681928  0.24398381  1
  S  S8  1  0.49086527  0.24543264  0.76773233  1
  S  S9  1  0.49086527  0.24543264  0.24140239  1
  S  S10  1  0.98796761  0.23478689  0.75601619  1
  S  S11  1  0.98796761  0.75318072  0.75601619  1
  S  S12  1  0.50913473  0.75456736  0.23226767  1
  S  S13  1  0.50913473  0.75456736  0.75859761  1
