# generated using pymatgen
data_Y12Ge5S28
_symmetry_space_group_name_H-M   'P 1'
_cell_length_a   9.89711308
_cell_length_b   11.43450654
_cell_length_c   11.43821087
_cell_angle_alpha   60.32255439
_cell_angle_beta   115.63603227
_cell_angle_gamma   115.63723793
_symmetry_Int_Tables_number   1
_chemical_formula_structural   Y12Ge5S28
_chemical_formula_sum   'Y12 Ge5 S28'
_cell_volume   973.70808899
_cell_formula_units_Z   1
loop_
 _symmetry_equiv_pos_site_id
 _symmetry_equiv_pos_as_xyz
  1  'x, y, z'
loop_
 _atom_site_type_symbol
 _atom_site_label
 _atom_site_symmetry_multiplicity
 _atom_site_fract_x
 _atom_site_fract_y
 _atom_site_fract_z
 _atom_site_occupancy
  Y  Y0  1  0.23475885  0.06657198  0.29755421  1
  Y  Y1  1  0.22176684  0.53767248  0.80842081  1
  Y  Y2  1  0.65312334  0.30255504  0.57324979  1
  Y  Y3  1  0.63733335  0.81926540  0.05133182  1
  Y  Y4  1  0.12566969  0.25412426  0.52531135  1
  Y  Y5  1  0.12650328  0.76602195  0.99743390  1
  Y  Y6  1  0.77696198  0.96349084  0.69270939  1
  Y  Y7  1  0.76802274  0.43399204  0.19898906  1
  Y  Y8  1  0.36610593  0.68353730  0.44852995  1
  Y  Y9  1  0.34405900  0.19628677  0.92594406  1
  Y  Y10  1  0.86683542  0.73396318  0.49796277  1
  Y  Y11  1  0.87798603  0.24628987  0.97687941  1
  Ge  Ge12  1  0.33533224  0.91999509  0.74615719  1
  Ge  Ge13  1  0.33150621  0.42011446  0.24729617  1
  Ge  Ge14  1  0.66725192  0.00258279  0.33217665  1
  Ge  Ge15  1  0.66611198  0.50022188  0.83204003  1
  Ge  Ge16  1  0.00030694  0.76201514  0.23826810  1
  S  S17  1  0.10314264  0.75856509  0.74973292  1
  S  S18  1  0.09597447  0.26593379  0.25734959  1
  S  S19  1  0.47820173  0.79142821  0.78268887  1
  S  S20  1  0.49058090  0.30115238  0.29260957  1
  S  S21  1  0.41416499  0.95602375  0.94536474  1
  S  S22  1  0.41986626  0.45419562  0.44676215  1
  S  S23  1  0.90124071  0.99424972  0.48779281  1
  S  S24  1  0.90072351  0.49483740  0.98922060  1
  S  S25  1  0.51504951  0.96093454  0.45511408  1
  S  S26  1  0.51844085  0.46270942  0.95661856  1
  S  S27  1  0.58309254  0.80282536  0.29658487  1
  S  S28  1  0.58144453  0.30200167  0.79667476  1
  S  S29  1  0.33345995  0.11093636  0.55686705  1
  S  S30  1  0.33303832  0.61001912  0.05567792  1
  S  S31  1  0.67144661  0.69709965  0.64703419  1
  S  S32  1  0.66190110  0.18712933  0.13590920  1
  S  S33  1  0.14891764  0.77106663  0.46658829  1
  S  S34  1  0.16630402  0.26219062  0.99824265  1
  S  S35  1  0.74043182  0.08579926  0.82095908  1
  S  S36  1  0.76218463  0.60713278  0.30326043  1
  S  S37  1  0.09192150  0.04968823  0.78378137  1
  S  S38  1  0.08950633  0.57681753  0.27378511  1
  S  S39  1  0.83577146  0.25750908  0.48331043  1
  S  S40  1  0.84272564  0.75417285  0.00323472  1
  S  S41  1  0.24230346  0.91812538  0.16706126  1
  S  S42  1  0.25873343  0.43468173  0.66008373  1
  S  S43  1  0.91494493  0.95466848  0.20310211  1
  S  S44  1  0.90485077  0.46890558  0.69483426  1
