# generated using pymatgen
data_Y4ZrMn5O15
_symmetry_space_group_name_H-M   'P 1'
_cell_length_a   6.24945212
_cell_length_b   12.06361613
_cell_length_c   9.55583758
_cell_angle_alpha   103.23454206
_cell_angle_beta   109.06898594
_cell_angle_gamma   74.84676454
_symmetry_Int_Tables_number   1
_chemical_formula_structural   Y4ZrMn5O15
_chemical_formula_sum   'Y8 Zr2 Mn10 O30'
_cell_volume   649.03092002
_cell_formula_units_Z   2
loop_
 _symmetry_equiv_pos_site_id
 _symmetry_equiv_pos_as_xyz
  1  'x, y, z'
loop_
 _atom_site_type_symbol
 _atom_site_label
 _atom_site_symmetry_multiplicity
 _atom_site_fract_x
 _atom_site_fract_y
 _atom_site_fract_z
 _atom_site_occupancy
  Y  Y0  1  0.90238167  0.24257090  0.04621003  1
  Y  Y1  1  0.49477316  0.26457761  0.25454194  1
  Y  Y2  1  0.11031171  0.22436638  0.44677066  1
  Y  Y3  1  0.70941393  0.22221844  0.64671972  1
  Y  Y4  1  0.50124624  0.75080376  0.75163041  1
  Y  Y5  1  0.10138849  0.75539181  0.95165180  1
  Y  Y6  1  0.31201345  0.72081581  0.34199486  1
  Y  Y7  1  0.90814275  0.72147842  0.54272903  1
  Zr  Zr8  1  0.29366931  0.27220565  0.85089430  1
  Zr  Zr9  1  0.68810947  0.77389603  0.15483822  1
  Mn  Mn10  1  0.92535805  0.49363742  0.69915304  1
  Mn  Mn11  1  0.33890953  0.49307553  0.51059369  1
  Mn  Mn12  1  0.74609577  0.49106120  0.28909758  1
  Mn  Mn13  1  0.11944226  0.49523440  0.09462789  1
  Mn  Mn14  1  0.54529808  0.49802376  0.90136144  1
  Mn  Mn15  1  0.07837207  0.99391359  0.79678128  1
  Mn  Mn16  1  0.46844063  0.98911230  0.60290733  1
  Mn  Mn17  1  0.87040454  0.99302170  0.40019372  1
  Mn  Mn18  1  0.26554998  0.99698127  0.20179314  1
  Mn  Mn19  1  0.66242129  0.99844231  0.99216530  1
  O  O20  1  0.99450300  0.32535811  0.66280536  1
  O  O21  1  0.40050014  0.32646568  0.47748207  1
  O  O22  1  0.81664502  0.32556118  0.27224167  1
  O  O23  1  0.20432876  0.32951618  0.05926452  1
  O  O24  1  0.60054826  0.31879958  0.85628257  1
  O  O25  1  0.11649623  0.82674588  0.75641799  1
  O  O26  1  0.54206528  0.81980503  0.55143743  1
  O  O27  1  0.94249889  0.82437310  0.36798392  1
  O  O28  1  0.33477141  0.82967535  0.17702341  1
  O  O29  1  0.74288356  0.82960292  0.97485199  1
  O  O30  1  0.38739789  0.15987905  0.65687339  1
  O  O31  1  0.78351706  0.15783803  0.41642751  1
  O  O32  1  0.21726712  0.16179061  0.22830027  1
  O  O33  1  0.57462985  0.16772151  0.02007679  1
  O  O34  1  0.04504121  0.16254655  0.83738668  1
  O  O35  1  0.87680378  0.65922260  0.74513409  1
  O  O36  1  0.27993877  0.65857861  0.53629980  1
  O  O37  1  0.67483981  0.65865020  0.30181478  1
  O  O38  1  0.03382257  0.66256937  0.12594874  1
  O  O39  1  0.48328263  0.67573585  0.95631489  1
  O  O40  1  0.41426983  0.96488010  0.79304428  1
  O  O41  1  0.00146116  0.99786618  -0.00003118  1
  O  O42  1  0.61148954  0.96716639  0.19662711  1
  O  O43  1  0.19471956  0.01414473  0.40305704  1
  O  O44  1  0.79445142  0.01645015  0.60505615  1
  O  O45  1  0.81788001  0.46776679  0.09537513  1
  O  O46  1  0.40365910  0.49745449  0.29763472  1
  O  O47  1  0.99026233  0.51222136  0.49981733  1
  O  O48  1  0.59772339  0.50638655  0.69903911  1
  O  O49  1  0.20589505  0.47106957  0.89068708  1
