# generated using pymatgen
data_Ti3WC4
_symmetry_space_group_name_H-M   'P 1'
_cell_length_a   3.06920807
_cell_length_b   3.06920807
_cell_length_c   10.21273029
_cell_angle_alpha   90.00000000
_cell_angle_beta   81.35778342
_cell_angle_gamma   120.00000000
_symmetry_Int_Tables_number   1
_chemical_formula_structural   Ti3WC4
_chemical_formula_sum   'Ti3 W1 C4'
_cell_volume   82.05166103
_cell_formula_units_Z   1
loop_
 _symmetry_equiv_pos_site_id
 _symmetry_equiv_pos_as_xyz
  1  'x, y, z'
loop_
 _atom_site_type_symbol
 _atom_site_label
 _atom_site_symmetry_multiplicity
 _atom_site_fract_x
 _atom_site_fract_y
 _atom_site_fract_z
 _atom_site_occupancy
  Ti  Ti0  1  0.49881512  0.24940756  0.25177732  1
  Ti  Ti1  1  0.00000000  0.50000000  0.50000000  1
  Ti  Ti2  1  0.50118488  0.75059244  0.74822268  1
  W  W3  1  0.00000000  0.00000000  0.00000000  1
  C  C4  1  0.25025583  0.12512791  0.62461626  1
  C  C5  1  0.75034443  0.37517221  0.87448336  1
  C  C6  1  0.24965557  0.62482779  0.12551664  1
  C  C7  1  0.74974417  0.87487209  0.37538374  1
