# generated using pymatgen
data_ThU3Re8
_symmetry_space_group_name_H-M   'P 1'
_cell_length_a   5.28909564
_cell_length_b   5.28909564
_cell_length_c   8.63315348
_cell_angle_alpha   90.23894087
_cell_angle_beta   89.76105913
_cell_angle_gamma   112.41176017
_symmetry_Int_Tables_number   1
_chemical_formula_structural   ThU3Re8
_chemical_formula_sum   'Th1 U3 Re8'
_cell_volume   223.26395950
_cell_formula_units_Z   1
loop_
 _symmetry_equiv_pos_site_id
 _symmetry_equiv_pos_as_xyz
  1  'x, y, z'
loop_
 _atom_site_type_symbol
 _atom_site_label
 _atom_site_symmetry_multiplicity
 _atom_site_fract_x
 _atom_site_fract_y
 _atom_site_fract_z
 _atom_site_occupancy
  Th  Th0  1  0.66473011  0.33526989  0.56615404  1
  U  U1  1  0.32945798  0.67054202  0.41603783  1
  U  U2  1  0.66085420  0.33914580  0.93530046  1
  U  U3  1  0.33838510  0.66161490  0.07546331  1
  Re  Re4  1  0.00539988  0.99460012  0.50004249  1
  Re  Re5  1  0.00018936  0.99981064  0.00077627  1
  Re  Re6  1  0.17384252  0.82615748  0.75114944  1
  Re  Re7  1  0.82897534  0.17102466  0.24820673  1
  Re  Re8  1  0.16880563  0.34018690  0.75695038  1
  Re  Re9  1  0.33903825  0.16949149  0.24648434  1
  Re  Re10  1  0.83050851  0.66096175  0.24648434  1
  Re  Re11  1  0.65981310  0.83119437  0.75695038  1
