# generated using pymatgen
data_TbAlFe2
_symmetry_space_group_name_H-M   'P 1'
_cell_length_a   5.30592061
_cell_length_b   5.30515326
_cell_length_c   16.32217472
_cell_angle_alpha   90.00000000
_cell_angle_beta   90.00446322
_cell_angle_gamma   60.00479053
_symmetry_Int_Tables_number   1
_chemical_formula_structural   TbAlFe2
_chemical_formula_sum   'Tb6 Al6 Fe12'
_cell_volume   397.91315526
_cell_formula_units_Z   6
loop_
 _symmetry_equiv_pos_site_id
 _symmetry_equiv_pos_as_xyz
  1  'x, y, z'
loop_
 _atom_site_type_symbol
 _atom_site_label
 _atom_site_symmetry_multiplicity
 _atom_site_fract_x
 _atom_site_fract_y
 _atom_site_fract_z
 _atom_site_occupancy
  Tb  Tb0  1  0.33334154  0.33332923  0.03124377  1
  Tb  Tb1  1  0.66665846  0.66667077  0.96875623  1
  Tb  Tb2  1  0.66674321  0.66662839  0.53328975  1
  Tb  Tb3  1  0.33325679  0.33337161  0.46671025  1
  Tb  Tb4  1  0.33330305  0.33334848  0.26085713  1
  Tb  Tb5  1  0.66669695  0.66665152  0.73914287  1
  Al  Al6  1  0.83561949  0.32882506  0.13479123  1
  Al  Al7  1  0.32883979  0.83558011  0.13480226  1
  Al  Al8  1  0.83561949  0.83555545  0.13479123  1
  Al  Al9  1  0.16438051  0.67117494  0.86520877  1
  Al  Al10  1  0.67116021  0.16441989  0.86519774  1
  Al  Al11  1  0.16438051  0.16444455  0.86520877  1
  Fe  Fe12  1  0.33341940  0.33329030  0.73898945  1
  Fe  Fe13  1  0.66658060  0.66670970  0.26101055  1
  Fe  Fe14  1  0.99998004  0.00000998  0.73794041  1
  Fe  Fe15  1  0.00001996  0.99999002  0.26205959  1
  Fe  Fe16  1  0.00000000  -0.00000000  0.50000000  1
  Fe  Fe17  1  0.00000000  -0.00000000  0.00000000  1
  Fe  Fe18  1  0.16562061  0.66840663  0.62540265  1
  Fe  Fe19  1  0.66856293  0.16571853  0.62539635  1
  Fe  Fe20  1  0.16562061  0.16597277  0.62540265  1
  Fe  Fe21  1  0.83437939  0.33159337  0.37459735  1
  Fe  Fe22  1  0.33143707  0.83428147  0.37460365  1
  Fe  Fe23  1  0.83437939  0.83402723  0.37459735  1
