# generated using pymatgen
data_Ti2S3
_symmetry_space_group_name_H-M   'P 1'
_cell_length_a   5.99011831
_cell_length_b   11.81731761
_cell_length_c   5.96677011
_cell_angle_alpha   75.37694474
_cell_angle_beta   60.12885426
_cell_angle_gamma   90.16775647
_symmetry_Int_Tables_number   1
_chemical_formula_structural   Ti2S3
_chemical_formula_sum   'Ti8 S12'
_cell_volume   350.20218621
_cell_formula_units_Z   4
loop_
 _symmetry_equiv_pos_site_id
 _symmetry_equiv_pos_as_xyz
  1  'x, y, z'
loop_
 _atom_site_type_symbol
 _atom_site_label
 _atom_site_symmetry_multiplicity
 _atom_site_fract_x
 _atom_site_fract_y
 _atom_site_fract_z
 _atom_site_occupancy
  Ti  Ti0  1  0.20713787  0.61976306  0.92023199  1
  Ti  Ti1  1  0.54048792  0.61750144  0.25315844  1
  Ti  Ti2  1  0.12617908  0.38249856  0.41350856  1
  Ti  Ti3  1  0.45952913  0.38023694  0.74643501  1
  Ti  Ti4  1  0.70713787  0.11976306  0.25286809  1
  Ti  Ti5  1  0.04048792  0.11750144  0.58885220  1
  Ti  Ti6  1  0.95952913  0.88023694  0.41379891  1
  Ti  Ti7  1  0.62617908  0.88249856  0.07781480  1
  S  S8  1  0.41449250  0.25162781  0.49839127  1
  S  S9  1  0.08333300  0.25000000  0.16900830  1
  S  S10  1  0.75217450  0.24837219  0.83117759  1
  S  S11  1  0.58333300  0.75000000  0.49765770  1
  S  S12  1  0.25217450  0.74837219  0.16827573  1
  S  S13  1  0.91449250  0.75162781  0.83548941  1
  S  S14  1  0.83333300  0.50000000  0.33333300  1
  S  S15  1  0.51344357  0.50027427  0.99162956  1
  S  S16  1  0.15322343  0.49972573  0.67503744  1
  S  S17  1  0.65322343  0.99972573  0.67201440  1
  S  S18  1  0.33333300  0.00000000  0.33333300  1
  S  S19  1  0.01344357  0.00027427  0.99465260  1
