# generated using pymatgen
data_Th2SiGe
_symmetry_space_group_name_H-M   'P 1'
_cell_length_a   4.26016312
_cell_length_b   5.94508359
_cell_length_c   7.92924893
_cell_angle_alpha   90.00000000
_cell_angle_beta   90.00000000
_cell_angle_gamma   90.00000000
_symmetry_Int_Tables_number   1
_chemical_formula_structural   Th2SiGe
_chemical_formula_sum   'Th4 Si2 Ge2'
_cell_volume   200.82429266
_cell_formula_units_Z   2
loop_
 _symmetry_equiv_pos_site_id
 _symmetry_equiv_pos_as_xyz
  1  'x, y, z'
loop_
 _atom_site_type_symbol
 _atom_site_label
 _atom_site_symmetry_multiplicity
 _atom_site_fract_x
 _atom_site_fract_y
 _atom_site_fract_z
 _atom_site_occupancy
  Th  Th0  1  0.25000000  0.36934257  0.68138395  1
  Th  Th1  1  0.25000000  0.13065743  0.18138395  1
  Th  Th2  1  0.75000000  0.62562951  0.32032892  1
  Th  Th3  1  0.75000000  0.87437049  0.82032892  1
  Si  Si4  1  0.75000000  0.14301124  0.45675192  1
  Si  Si5  1  0.75000000  0.35698876  0.95675192  1
  Ge  Ge6  1  0.25000000  0.85997576  0.54153521  1
  Ge  Ge7  1  0.25000000  0.64002424  0.04153521  1
