# generated using pymatgen
data_Ta4(CuNi3)3
_symmetry_space_group_name_H-M   'P 1'
_cell_length_a   4.31832110
_cell_length_b   4.48253913
_cell_length_c   10.36349732
_cell_angle_alpha   90.00000000
_cell_angle_beta   90.00000000
_cell_angle_gamma   90.00000000
_symmetry_Int_Tables_number   1
_chemical_formula_structural   Ta4(CuNi3)3
_chemical_formula_sum   'Ta4 Cu3 Ni9'
_cell_volume   200.60666643
_cell_formula_units_Z   1
loop_
 _symmetry_equiv_pos_site_id
 _symmetry_equiv_pos_as_xyz
  1  'x, y, z'
loop_
 _atom_site_type_symbol
 _atom_site_label
 _atom_site_symmetry_multiplicity
 _atom_site_fract_x
 _atom_site_fract_y
 _atom_site_fract_z
 _atom_site_occupancy
  Ta  Ta0  1  0.75000000  0.33766963  0.38005963  1
  Ta  Ta1  1  0.75000000  0.33766963  0.86994037  1
  Ta  Ta2  1  0.25000000  0.66374390  0.12500000  1
  Ta  Ta3  1  0.25000000  0.64985579  0.62500000  1
  Cu  Cu4  1  0.25000000  0.68696720  0.37492140  1
  Cu  Cu5  1  0.25000000  0.68696720  0.87507860  1
  Cu  Cu6  1  0.75000000  0.31314099  0.12500000  1
  Ni  Ni7  1  0.75000000  0.32406771  0.62500000  1
  Ni  Ni8  1  0.75000000  0.83486147  0.50244935  1
  Ni  Ni9  1  0.75000000  0.83164239  -0.00008086  1
  Ni  Ni10  1  0.75000000  0.83164239  0.25008086  1
  Ni  Ni11  1  0.75000000  0.83486147  0.74755065  1
  Ni  Ni12  1  0.25000000  0.16349689  0.50035818  1
  Ni  Ni13  1  0.25000000  0.16995823  0.99844810  1
  Ni  Ni14  1  0.25000000  0.16995823  0.25155190  1
  Ni  Ni15  1  0.25000000  0.16349689  0.74964182  1
