# generated using pymatgen
data_SrNdFeO4
_symmetry_space_group_name_H-M   'P 1'
_cell_length_a   3.90337768
_cell_length_b   3.90337768
_cell_length_c   6.86282272
_cell_angle_alpha   73.47787029
_cell_angle_beta   73.47787029
_cell_angle_gamma   90.00000000
_symmetry_Int_Tables_number   1
_chemical_formula_structural   SrNdFeO4
_chemical_formula_sum   'Sr1 Nd1 Fe1 O4'
_cell_volume   95.73497019
_cell_formula_units_Z   1
loop_
 _symmetry_equiv_pos_site_id
 _symmetry_equiv_pos_as_xyz
  1  'x, y, z'
loop_
 _atom_site_type_symbol
 _atom_site_label
 _atom_site_symmetry_multiplicity
 _atom_site_fract_x
 _atom_site_fract_y
 _atom_site_fract_z
 _atom_site_occupancy
  Sr  Sr0  1  0.35487321  0.35487321  0.29025359  1
  Nd  Nd1  1  0.63879725  0.63879725  0.72240550  1
  Fe  Fe2  1  0.99516357  0.99516357  0.00967286  1
  O  O3  1  0.16651022  0.16651022  0.66697956  1
  O  O4  1  0.82715257  0.82715257  0.34569487  1
  O  O5  1  0.50875159  0.00875159  0.98249681  1
  O  O6  1  0.00875159  0.50875159  0.98249681  1
