# generated using pymatgen
data_SrEuS2
_symmetry_space_group_name_H-M   'P 1'
_cell_length_a   4.23880272
_cell_length_b   4.23880272
_cell_length_c   7.35276819
_cell_angle_alpha   73.24705532
_cell_angle_beta   90.00000000
_cell_angle_gamma   120.00000006
_symmetry_Int_Tables_number   1
_chemical_formula_structural   SrEuS2
_chemical_formula_sum   'Sr1 Eu1 S2'
_cell_volume   107.88780967
_cell_formula_units_Z   1
loop_
 _symmetry_equiv_pos_site_id
 _symmetry_equiv_pos_as_xyz
  1  'x, y, z'
loop_
 _atom_site_type_symbol
 _atom_site_label
 _atom_site_symmetry_multiplicity
 _atom_site_fract_x
 _atom_site_fract_y
 _atom_site_fract_z
 _atom_site_occupancy
  Sr  Sr0  1  0.50000000  0.00000000  0.50000000  1
  Eu  Eu1  1  0.00000000  0.00000000  0.00000000  1
  S  S2  1  0.25178884  0.50357767  0.24463349  1
  S  S3  1  0.74821116  0.49642233  0.75536651  1
