# generated using pymatgen
data_SrNdCoO4
_symmetry_space_group_name_H-M   'P 1'
_cell_length_a   3.82303551
_cell_length_b   3.82303551
_cell_length_c   6.82019078
_cell_angle_alpha   73.72348416
_cell_angle_beta   73.72348416
_cell_angle_gamma   90.00000000
_symmetry_Int_Tables_number   1
_chemical_formula_structural   SrNdCoO4
_chemical_formula_sum   'Sr1 Nd1 Co1 O4'
_cell_volume   91.51654372
_cell_formula_units_Z   1
loop_
 _symmetry_equiv_pos_site_id
 _symmetry_equiv_pos_as_xyz
  1  'x, y, z'
loop_
 _atom_site_type_symbol
 _atom_site_label
 _atom_site_symmetry_multiplicity
 _atom_site_fract_x
 _atom_site_fract_y
 _atom_site_fract_z
 _atom_site_occupancy
  Sr  Sr0  1  0.35722743  0.35722743  0.28554514  1
  Nd  Nd1  1  0.63928184  0.63928184  0.72143632  1
  Co  Co2  1  0.99805281  0.99805281  0.00389438  1
  O  O3  1  0.16287214  0.16287214  0.67425573  1
  O  O4  1  0.82657416  0.82657416  0.34685168  1
  O  O5  1  0.50799581  0.00799581  0.98400837  1
  O  O6  1  0.00799581  0.50799581  0.98400837  1
