# generated using pymatgen
data_SrMn2BiO6
_symmetry_space_group_name_H-M   'P 1'
_cell_length_a   5.59517514
_cell_length_b   5.59517514
_cell_length_c   5.59517514
_cell_angle_alpha   59.15111674
_cell_angle_beta   91.46412615
_cell_angle_gamma   120.84888326
_symmetry_Int_Tables_number   1
_chemical_formula_structural   SrMn2BiO6
_chemical_formula_sum   'Sr1 Mn2 Bi1 O6'
_cell_volume   122.22605497
_cell_formula_units_Z   1
loop_
 _symmetry_equiv_pos_site_id
 _symmetry_equiv_pos_as_xyz
  1  'x, y, z'
loop_
 _atom_site_type_symbol
 _atom_site_label
 _atom_site_symmetry_multiplicity
 _atom_site_fract_x
 _atom_site_fract_y
 _atom_site_fract_z
 _atom_site_occupancy
  Sr  Sr0  1  0.02908093  -0.00000000  0.97091907  1
  Mn  Mn1  1  0.78308427  0.50000000  0.71691573  1
  Mn  Mn2  1  0.28308427  0.50000000  0.21691573  1
  Bi  Bi3  1  0.48226721  -0.00000000  0.51773279  1
  O  O4  1  0.54214320  -0.00000000  0.93457610  1
  O  O5  1  0.06542390  -0.00000000  0.45785680  1
  O  O6  1  0.54214320  0.47671931  0.45785680  1
  O  O7  1  0.06542390  0.52328069  0.93457610  1
  O  O8  1  0.54088955  0.50000000  0.95911045  1
  O  O9  1  0.04088955  0.50000000  0.45911045  1
