# generated using pymatgen
data_Tb20In40Ni19
_symmetry_space_group_name_H-M   'P 1'
_cell_length_a   9.04889247
_cell_length_b   13.56426975
_cell_length_c   13.56426975
_cell_angle_alpha   90.00000000
_cell_angle_beta   90.00000000
_cell_angle_gamma   90.00000000
_symmetry_Int_Tables_number   1
_chemical_formula_structural   Tb20In40Ni19
_chemical_formula_sum   'Tb20 In40 Ni19'
_cell_volume   1664.90042155
_cell_formula_units_Z   1
loop_
 _symmetry_equiv_pos_site_id
 _symmetry_equiv_pos_as_xyz
  1  'x, y, z'
loop_
 _atom_site_type_symbol
 _atom_site_label
 _atom_site_symmetry_multiplicity
 _atom_site_fract_x
 _atom_site_fract_y
 _atom_site_fract_z
 _atom_site_occupancy
  Tb  Tb0  1  0.26370616  0.95266100  0.95160113  1
  Tb  Tb1  1  0.26370616  0.54733900  0.95160113  1
  Tb  Tb2  1  0.26370616  0.95266100  0.54839887  1
  Tb  Tb3  1  0.26370616  0.54733900  0.54839887  1
  Tb  Tb4  1  0.73629384  0.04839887  0.04733900  1
  Tb  Tb5  1  0.73629384  0.45160113  0.04733900  1
  Tb  Tb6  1  0.73629384  0.04839887  0.45266100  1
  Tb  Tb7  1  0.73629384  0.45160113  0.45266100  1
  Tb  Tb8  1  0.36176907  0.75000000  0.75000000  1
  Tb  Tb9  1  0.63823093  0.25000000  0.25000000  1
  Tb  Tb10  1  0.76718662  0.02646416  0.75000000  1
  Tb  Tb11  1  0.76718662  0.47353584  0.75000000  1
  Tb  Tb12  1  0.76456158  0.75000000  0.02836833  1
  Tb  Tb13  1  0.76456158  0.75000000  0.47163167  1
  Tb  Tb14  1  0.23543842  0.97163167  0.25000000  1
  Tb  Tb15  1  0.23543842  0.52836833  0.25000000  1
  Tb  Tb16  1  0.23281338  0.25000000  0.97353584  1
  Tb  Tb17  1  0.23281338  0.25000000  0.52646416  1
  Tb  Tb18  1  0.83955590  0.75000000  0.75000000  1
  Tb  Tb19  1  0.16044410  0.25000000  0.25000000  1
  In  In20  1  -0.00000000  0.40355805  0.59644195  1
  In  In21  1  -0.00000000  0.09644195  0.59644195  1
  In  In22  1  -0.00000000  0.40355805  0.90355805  1
  In  In23  1  -0.00000000  0.09644195  0.90355805  1
  In  In24  1  -0.00000000  0.59754029  0.40245971  1
  In  In25  1  -0.00000000  0.90245971  0.40245971  1
  In  In26  1  -0.00000000  0.59754029  0.09754029  1
  In  In27  1  -0.00000000  0.90245971  0.09754029  1
  In  In28  1  0.23434087  0.36646389  0.75000000  1
  In  In29  1  0.23434087  0.13353611  0.75000000  1
  In  In30  1  0.23802826  0.75000000  0.36613558  1
  In  In31  1  0.23802826  0.75000000  0.13386442  1
  In  In32  1  0.76197174  0.63386442  0.25000000  1
  In  In33  1  0.76197174  0.86613558  0.25000000  1
  In  In34  1  0.76565913  0.25000000  0.63353611  1
  In  In35  1  0.76565913  0.25000000  0.86646389  1
  In  In36  1  0.09336843  0.58296701  0.75000000  1
  In  In37  1  0.09336843  0.91703299  0.75000000  1
  In  In38  1  0.09365195  0.75000000  0.58285490  1
  In  In39  1  0.09365195  0.75000000  0.91714510  1
  In  In40  1  0.90634805  0.41714510  0.25000000  1
  In  In41  1  0.90634805  0.08285490  0.25000000  1
  In  In42  1  0.90663157  0.25000000  0.41703299  1
  In  In43  1  0.90663157  0.25000000  0.08296701  1
  In  In44  1  0.59102096  0.88150411  0.88262229  1
  In  In45  1  0.59102096  0.61849589  0.88262229  1
  In  In46  1  0.59102096  0.88150411  0.61737771  1
  In  In47  1  0.59102096  0.61849589  0.61737771  1
  In  In48  1  0.40897904  0.11737771  0.11849589  1
  In  In49  1  0.40897904  0.38262229  0.11849589  1
  In  In50  1  0.40897904  0.11737771  0.38150411  1
  In  In51  1  0.40897904  0.38262229  0.38150411  1
  In  In52  1  0.50000000  0.88714411  0.11285589  1
  In  In53  1  0.50000000  0.61285589  0.11285589  1
  In  In54  1  0.50000000  0.88714411  0.38714411  1
  In  In55  1  0.50000000  0.61285589  0.38714411  1
  In  In56  1  0.50000000  0.11854169  0.88145831  1
  In  In57  1  0.50000000  0.38145831  0.88145831  1
  In  In58  1  0.50000000  0.11854169  0.61854169  1
  In  In59  1  0.50000000  0.38145831  0.61854169  1
  Ni  Ni60  1  0.41277788  0.52586065  0.75000000  1
  Ni  Ni61  1  0.41277788  0.97413935  0.75000000  1
  Ni  Ni62  1  0.40898772  0.75000000  0.52870627  1
  Ni  Ni63  1  0.40898772  0.75000000  0.97129373  1
  Ni  Ni64  1  0.59101228  0.47129373  0.25000000  1
  Ni  Ni65  1  0.59101228  0.02870627  0.25000000  1
  Ni  Ni66  1  0.58722212  0.25000000  0.47413935  1
  Ni  Ni67  1  0.58722212  0.25000000  0.02586065  1
  Ni  Ni68  1  0.09877537  0.09390243  0.09393720  1
  Ni  Ni69  1  0.09877537  0.40609757  0.09393720  1
  Ni  Ni70  1  0.09877537  0.09390243  0.40606280  1
  Ni  Ni71  1  0.09877537  0.40609757  0.40606280  1
  Ni  Ni72  1  0.90122463  0.90606280  0.90609757  1
  Ni  Ni73  1  0.90122463  0.59393720  0.90609757  1
  Ni  Ni74  1  0.90122463  0.90606280  0.59390243  1
  Ni  Ni75  1  0.90122463  0.59393720  0.59390243  1
  Ni  Ni76  1  -0.00000000  0.25000000  0.75000000  1
  Ni  Ni77  1  -0.00000000  0.75000000  0.25000000  1
  Ni  Ni78  1  0.50000000  0.75000000  0.25000000  1
