# generated using pymatgen
data_SrLa3(Cu2O5)2
_symmetry_space_group_name_H-M   'P 1'
_cell_length_a   3.90308449
_cell_length_b   5.48735342
_cell_length_c   10.62791510
_cell_angle_alpha   90.14588191
_cell_angle_beta   90.00000000
_cell_angle_gamma   90.00000000
_symmetry_Int_Tables_number   1
_chemical_formula_structural   SrLa3(Cu2O5)2
_chemical_formula_sum   'Sr1 La3 Cu4 O10'
_cell_volume   227.62373924
_cell_formula_units_Z   1
loop_
 _symmetry_equiv_pos_site_id
 _symmetry_equiv_pos_as_xyz
  1  'x, y, z'
loop_
 _atom_site_type_symbol
 _atom_site_label
 _atom_site_symmetry_multiplicity
 _atom_site_fract_x
 _atom_site_fract_y
 _atom_site_fract_z
 _atom_site_occupancy
  Sr  Sr0  1  0.50000000  0.80223187  0.13830328  1
  La  La1  1  0.50000000  0.19354550  0.86583276  1
  La  La2  1  0.50000000  0.31018787  0.35628707  1
  La  La3  1  0.50000000  0.69296282  0.63870924  1
  Cu  Cu4  1  -0.00000000  0.78922789  0.39232564  1
  Cu  Cu5  1  -0.00000000  0.20926645  0.60567168  1
  Cu  Cu6  1  -0.00000000  0.28821754  0.10868530  1
  Cu  Cu7  1  0.00000000  0.71011941  0.89377869  1
  O  O8  1  0.50000000  0.78661140  0.40194525  1
  O  O9  1  0.50000000  0.21483742  0.60327610  1
  O  O10  1  0.50000000  0.29023847  0.10158039  1
  O  O11  1  0.50000000  0.71156732  0.88822686  1
  O  O12  1  -0.00000000  0.50258711  0.50211533  1
  O  O13  1  -0.00000000  0.01460224  0.99043861  1
  O  O14  1  0.00000000  0.54755442  0.22638902  1
  O  O15  1  -0.00000000  0.43471170  0.78498762  1
  O  O16  1  -0.00000000  0.06795048  0.28950041  1
  O  O17  1  -0.00000000  0.93358010  0.71194676  1
