# generated using pymatgen
data_Tb2In3Cu
_symmetry_space_group_name_H-M   'P 1'
_cell_length_a   3.61132123
_cell_length_b   4.78494462
_cell_length_c   8.32880056
_cell_angle_alpha   89.99450749
_cell_angle_beta   90.00000000
_cell_angle_gamma   90.00000000
_symmetry_Int_Tables_number   1
_chemical_formula_structural   Tb2In3Cu
_chemical_formula_sum   'Tb2 In3 Cu1'
_cell_volume   143.92144043
_cell_formula_units_Z   1
loop_
 _symmetry_equiv_pos_site_id
 _symmetry_equiv_pos_as_xyz
  1  'x, y, z'
loop_
 _atom_site_type_symbol
 _atom_site_label
 _atom_site_symmetry_multiplicity
 _atom_site_fract_x
 _atom_site_fract_y
 _atom_site_fract_z
 _atom_site_occupancy
  Tb  Tb0  1  0.00000000  0.99996678  0.00779192  1
  Tb  Tb1  1  0.00000000  0.49999010  0.49573767  1
  In  In2  1  0.50000000  0.49996548  0.83704299  1
  In  In3  1  0.50000000  0.49995567  0.18285461  1
  In  In4  1  0.50000000  0.99998923  0.64683991  1
  Cu  Cu5  1  0.50000000  0.99993273  0.32973291  1
