# generated using pymatgen
data_AlSn3F15
_symmetry_space_group_name_H-M   'P 1'
_cell_length_a   10.07130747
_cell_length_b   5.84869319
_cell_length_c   10.13008474
_cell_angle_alpha   90.00000000
_cell_angle_beta   90.00000000
_cell_angle_gamma   105.88025211
_symmetry_Int_Tables_number   1
_chemical_formula_structural   AlSn3F15
_chemical_formula_sum   'Al2 Sn6 F30'
_cell_volume   573.92964170
_cell_formula_units_Z   2
loop_
 _symmetry_equiv_pos_site_id
 _symmetry_equiv_pos_as_xyz
  1  'x, y, z'
loop_
 _atom_site_type_symbol
 _atom_site_label
 _atom_site_symmetry_multiplicity
 _atom_site_fract_x
 _atom_site_fract_y
 _atom_site_fract_z
 _atom_site_occupancy
  Al  Al0  1  0.90210886  0.45787467  0.25000000  1
  Al  Al1  1  0.43122414  0.54212533  0.75000000  1
  Sn  Sn2  1  0.16666700  0.00000000  0.50000000  1
  Sn  Sn3  1  0.49895108  0.97906652  0.44881714  1
  Sn  Sn4  1  0.83438192  0.02093348  0.55118286  1
  Sn  Sn5  1  0.16666700  0.00000000  -0.00000000  1
  Sn  Sn6  1  0.49895108  0.97906652  0.05118286  1
  Sn  Sn7  1  0.83438192  0.02093348  0.94881714  1
  F  F8  1  0.06749765  0.61459524  0.25000000  1
  F  F9  1  0.49435151  0.86391070  0.25000000  1
  F  F10  1  0.77371126  0.58245620  0.25000000  1
  F  F11  1  0.26583535  0.38540476  0.75000000  1
  F  F12  1  0.55962274  0.41754380  0.75000000  1
  F  F13  1  0.83898149  0.13608930  0.75000000  1
  F  F14  1  0.04061340  0.17356918  0.60343293  1
  F  F15  1  0.36539812  0.09815635  0.58540225  1
  F  F16  1  0.65779260  0.13258214  0.58729193  1
  F  F17  1  0.29272060  0.82643082  0.39656707  1
  F  F18  1  0.67554040  0.86741786  0.41270807  1
  F  F19  1  0.96793488  0.90184365  0.41459775  1
  F  F20  1  0.11268411  0.72686382  0.88831523  1
  F  F21  1  0.45547995  0.71478258  0.89951802  1
  F  F22  1  0.79603589  0.70249732  0.88310823  1
  F  F23  1  0.22064989  0.27313618  0.11168477  1
  F  F24  1  0.53729711  0.29750268  0.11689177  1
  F  F25  1  0.87785305  0.28521742  0.10048198  1
  F  F26  1  0.22064989  0.27313618  0.38831523  1
  F  F27  1  0.53729711  0.29750268  0.38310823  1
  F  F28  1  0.87785305  0.28521742  0.39951802  1
  F  F29  1  0.11268411  0.72686382  0.61168477  1
  F  F30  1  0.45547995  0.71478258  0.60048198  1
  F  F31  1  0.79603589  0.70249732  0.61689177  1
  F  F32  1  0.04061340  0.17356918  0.89656707  1
  F  F33  1  0.36539812  0.09815635  0.91459775  1
  F  F34  1  0.65779260  0.13258214  0.91270807  1
  F  F35  1  0.29272060  0.82643082  0.10343293  1
  F  F36  1  0.67554040  0.86741786  0.08729193  1
  F  F37  1  0.96793488  0.90184365  0.08540225  1
