# generated using pymatgen
data_Sr2AlIn3
_symmetry_space_group_name_H-M   'P 1'
_cell_length_a   5.01540018
_cell_length_b   5.01540018
_cell_length_c   8.02800311
_cell_angle_alpha   90.00104240
_cell_angle_beta   89.99895760
_cell_angle_gamma   120.00586718
_symmetry_Int_Tables_number   1
_chemical_formula_structural   Sr2AlIn3
_chemical_formula_sum   'Sr2 Al1 In3'
_cell_volume   174.87336523
_cell_formula_units_Z   1
loop_
 _symmetry_equiv_pos_site_id
 _symmetry_equiv_pos_as_xyz
  1  'x, y, z'
loop_
 _atom_site_type_symbol
 _atom_site_label
 _atom_site_symmetry_multiplicity
 _atom_site_fract_x
 _atom_site_fract_y
 _atom_site_fract_z
 _atom_site_occupancy
  Sr  Sr0  1  0.00000474  0.99999526  0.74498813  1
  Sr  Sr1  1  0.99996517  0.00003483  0.25198891  1
  Al  Al2  1  0.33333098  0.66666902  0.54768613  1
  In  In3  1  0.66668276  0.33331724  0.46175873  1
  In  In4  1  0.66665475  0.33334525  0.04597077  1
  In  In5  1  0.33336160  0.66663840  0.94760734  1
