# generated using pymatgen
data_Sr3UIn2O9
_symmetry_space_group_name_H-M   'P 1'
_cell_length_a   6.01589999
_cell_length_b   8.39306600
_cell_length_c   17.70940221
_cell_angle_alpha   90.06219750
_cell_angle_beta   90.00000000
_cell_angle_gamma   90.00000000
_symmetry_Int_Tables_number   1
_chemical_formula_structural   Sr3UIn2O9
_chemical_formula_sum   'Sr12 U4 In8 O36'
_cell_volume   894.17987685
_cell_formula_units_Z   4
loop_
 _symmetry_equiv_pos_site_id
 _symmetry_equiv_pos_as_xyz
  1  'x, y, z'
loop_
 _atom_site_type_symbol
 _atom_site_label
 _atom_site_symmetry_multiplicity
 _atom_site_fract_x
 _atom_site_fract_y
 _atom_site_fract_z
 _atom_site_occupancy
  Sr  Sr0  1  0.04550398  0.26319643  0.32103017  1
  Sr  Sr1  1  0.04924789  0.22747596  0.66455068  1
  Sr  Sr2  1  0.03510131  0.26256389  0.00611843  1
  Sr  Sr3  1  0.45075211  0.72747596  0.16455068  1
  Sr  Sr4  1  0.46489869  0.76256389  0.50611843  1
  Sr  Sr5  1  0.45449602  0.76319643  0.82103017  1
  Sr  Sr6  1  0.95449602  0.73680357  0.01230383  1
  Sr  Sr7  1  0.96489869  0.73743611  0.32721457  1
  Sr  Sr8  1  0.95075211  0.77252404  0.66878232  1
  Sr  Sr9  1  0.54924789  0.27252404  0.16878232  1
  Sr  Sr10  1  0.54550398  0.23680357  0.51230383  1
  Sr  Sr11  1  0.53510131  0.23743611  0.82721457  1
  U  U12  1  0.00023855  0.49783184  0.49871537  1
  U  U13  1  0.99976145  0.50216816  0.83461763  1
  U  U14  1  0.49976145  0.99783184  0.99871537  1
  U  U15  1  0.50023855  0.00216816  0.33461763  1
  In  In16  1  0.49688174  0.50118229  0.99935831  1
  In  In17  1  0.50311826  0.49881771  0.33397469  1
  In  In18  1  0.50000000  0.50000000  0.66666700  1
  In  In19  1  -0.00000000  0.00000000  0.16666700  1
  In  In20  1  0.00311826  0.00118229  0.49935831  1
  In  In21  1  0.99688174  0.99881771  0.83397469  1
  In  In22  1  -0.00000000  0.50000000  0.16666700  1
  In  In23  1  0.50000000  0.00000000  0.66666700  1
  O  O24  1  0.20575713  0.53652252  0.06568790  1
  O  O25  1  0.20018894  0.54300008  0.40420524  1
  O  O26  1  0.19491703  0.55179535  0.74024258  1
  O  O27  1  0.30508297  0.05179535  0.24024258  1
  O  O28  1  0.29424287  0.03652252  0.56568790  1
  O  O29  1  0.29981106  0.04300008  0.90420524  1
  O  O30  1  0.79424287  0.46347748  0.26764610  1
  O  O31  1  0.80508297  0.44820465  0.59309042  1
  O  O32  1  0.79981106  0.45699992  0.92912776  1
  O  O33  1  0.69491703  0.94820465  0.09309042  1
  O  O34  1  0.70018894  0.95699992  0.42912776  1
  O  O35  1  0.70575713  0.96347748  0.76764610  1
  O  O36  1  0.70681673  0.54222583  0.09549602  1
  O  O37  1  0.71298057  0.55050003  0.43495672  1
  O  O38  1  0.71386202  0.54444460  0.77032939  1
  O  O39  1  0.78613798  0.04444460  0.27032939  1
  O  O40  1  0.79318327  0.04222583  0.59549602  1
  O  O41  1  0.78701943  0.05050003  0.93495672  1
  O  O42  1  0.29318327  0.45777417  0.23783698  1
  O  O43  1  0.28613798  0.45555540  0.56300461  1
  O  O44  1  0.28701943  0.44949997  0.89837628  1
  O  O45  1  0.21386202  0.95555540  0.06300461  1
  O  O46  1  0.21298057  0.94949997  0.39837628  1
  O  O47  1  0.20681673  0.95777417  0.73783698  1
  O  O48  1  0.47465677  0.23928317  0.02722319  1
  O  O49  1  0.47223522  0.24161871  0.36751518  1
  O  O50  1  0.46324597  0.25733781  0.69211517  1
  O  O51  1  0.03675403  0.75733781  0.19211517  1
  O  O52  1  0.02534323  0.73928317  0.52722319  1
  O  O53  1  0.02776478  0.74161871  0.86751518  1
  O  O54  1  0.52534323  0.76071683  0.30611081  1
  O  O55  1  0.53675403  0.74266219  0.64121783  1
  O  O56  1  0.52776478  0.75838129  0.96581782  1
  O  O57  1  0.96324597  0.24266219  0.14121783  1
  O  O58  1  0.97223522  0.25838129  0.46581782  1
  O  O59  1  0.97465677  0.26071683  0.80611081  1
