# generated using pymatgen
data_Sr10CaY4(CoO3)10
_symmetry_space_group_name_H-M   'P 1'
_cell_length_a   8.53385643
_cell_length_b   8.53385643
_cell_length_c   11.68192491
_cell_angle_alpha   111.42352419
_cell_angle_beta   68.57648108
_cell_angle_gamma   90.00000000
_symmetry_Int_Tables_number   1
_chemical_formula_structural   Sr10CaY4(CoO3)10
_chemical_formula_sum   'Sr10 Ca1 Y4 Co10 O30'
_cell_volume   728.46373821
_cell_formula_units_Z   1
loop_
 _symmetry_equiv_pos_site_id
 _symmetry_equiv_pos_as_xyz
  1  'x, y, z'
loop_
 _atom_site_type_symbol
 _atom_site_label
 _atom_site_symmetry_multiplicity
 _atom_site_fract_x
 _atom_site_fract_y
 _atom_site_fract_z
 _atom_site_occupancy
  Sr  Sr0  1  0.72149509  0.47850491  0.35700981  1
  Sr  Sr1  1  0.32422485  0.67238202  0.36668573  1
  Sr  Sr2  1  0.90569629  0.87577515  0.36668573  1
  Sr  Sr3  1  0.52761798  0.09091058  0.36668573  1
  Sr  Sr4  1  0.10908942  0.29430371  0.36668573  1
  Sr  Sr5  1  0.69091058  0.30569629  0.63331427  1
  Sr  Sr6  1  0.27238202  0.50908942  0.63331427  1
  Sr  Sr7  1  0.89430371  0.72422485  0.63331427  1
  Sr  Sr8  1  0.47577515  0.92761798  0.63331427  1
  Sr  Sr9  1  0.07850491  0.12149509  0.64299019  1
  Ca  Ca10  1  0.90000000  0.30000000  0.00000000  1
  Y  Y11  1  0.50222245  0.50137027  1.00000000  1
  Y  Y12  1  0.10137027  0.69777755  0.00000000  1
  Y  Y13  1  0.69862973  0.90222245  1.00000000  1
  Y  Y14  1  0.29777755  0.09862973  0.00000000  1
  Co  Co15  1  0.50254598  0.69745402  0.79490805  1
  Co  Co16  1  0.09294214  0.90810884  0.81675657  1
  Co  Co17  1  0.69135228  0.10705786  0.81675657  1
  Co  Co18  1  0.29189116  0.30969870  0.81675657  1
  Co  Co19  1  0.89030130  0.50864772  0.81675657  1
  Co  Co20  1  0.90969870  0.09135228  0.18324343  1
  Co  Co21  1  0.50810884  0.29030130  0.18324343  1
  Co  Co22  1  0.10864772  0.49294214  0.18324343  1
  Co  Co23  1  0.70705786  0.69189116  0.18324343  1
  Co  Co24  1  0.29745402  0.90254598  0.20509195  1
  O  O25  1  0.37514970  0.52958141  0.85644149  1
  O  O26  1  0.97243190  0.72756810  0.85513620  1
  O  O27  1  0.56840881  0.92686008  0.85644149  1
  O  O28  1  0.17975168  0.12320262  0.84903414  1
  O  O29  1  0.77121418  0.32583152  0.84903414  1
  O  O30  1  0.67041859  0.63159119  0.85644149  1
  O  O31  1  0.27313992  0.82485030  0.85644149  1
  O  O32  1  0.87416848  0.02024832  0.84903414  1
  O  O33  1  0.47243190  0.22756810  0.85513620  1
  O  O34  1  0.07679738  0.42878582  0.84903414  1
  O  O35  1  0.02878582  0.27416848  0.15096586  1
  O  O36  1  0.62024832  0.47679738  0.15096586  1
  O  O37  1  0.23159119  0.67313992  0.14355851  1
  O  O38  1  0.82756810  0.87243190  0.14486380  1
  O  O39  1  0.42485030  0.07041859  0.14355851  1
  O  O40  1  0.72320262  0.17121418  0.15096586  1
  O  O41  1  0.32756810  0.37243190  0.14486380  1
  O  O42  1  0.92583152  0.57975168  0.15096586  1
  O  O43  1  0.52686008  0.77514970  0.14355851  1
  O  O44  1  0.12958141  0.96840881  0.14355851  1
  O  O45  1  0.59160018  0.60839982  0.61679963  1
  O  O46  1  0.19603431  0.80544953  0.60887230  1
  O  O47  1  0.79657723  0.00396569  0.60887230  1
  O  O48  1  0.39455047  0.20490661  0.60887230  1
  O  O49  1  0.99509339  0.40342277  0.60887230  1
  O  O50  1  0.80490661  0.19657723  0.39112770  1
  O  O51  1  0.40544953  0.39509339  0.39112770  1
  O  O52  1  0.00342277  0.59603431  0.39112770  1
  O  O53  1  0.60396569  0.79455047  0.39112770  1
  O  O54  1  0.20839982  0.99160018  0.38320037  1
