# generated using pymatgen
data_Sr2Pr2CrNiO8
_symmetry_space_group_name_H-M   'P 1'
_cell_length_a   5.43632384
_cell_length_b   5.46850881
_cell_length_c   6.86815439
_cell_angle_alpha   90.00000000
_cell_angle_beta   66.68641974
_cell_angle_gamma   90.00000000
_symmetry_Int_Tables_number   1
_chemical_formula_structural   Sr2Pr2CrNiO8
_chemical_formula_sum   'Sr2 Pr2 Cr1 Ni1 O8'
_cell_volume   187.50970283
_cell_formula_units_Z   1
loop_
 _symmetry_equiv_pos_site_id
 _symmetry_equiv_pos_as_xyz
  1  'x, y, z'
loop_
 _atom_site_type_symbol
 _atom_site_label
 _atom_site_symmetry_multiplicity
 _atom_site_fract_x
 _atom_site_fract_y
 _atom_site_fract_z
 _atom_site_occupancy
  Sr  Sr0  1  0.85432909  0.50000000  0.29134181  1
  Sr  Sr1  1  0.64526286  0.00000000  0.70947427  1
  Pr  Pr2  1  0.36135858  -0.00000000  0.27728284  1
  Pr  Pr3  1  0.13790734  0.50000000  0.72418532  1
  Cr  Cr4  1  0.50171576  0.50000000  0.99656848  1
  Ni  Ni5  1  0.99797635  -0.00000000  0.00404730  1
  O  O6  1  0.74472427  0.25856040  0.99900379  1
  O  O7  1  0.25627194  0.74143960  0.99900379  1
  O  O8  1  0.25627194  0.25856040  0.99900379  1
  O  O9  1  0.74472427  0.74143960  0.99900379  1
  O  O10  1  0.17803085  0.00000000  0.64393830  1
  O  O11  1  0.65959689  0.50000000  0.68080623  1
  O  O12  1  0.32776436  0.50000000  0.34447127  1
  O  O13  1  0.83406548  -0.00000000  0.33186904  1
