# generated using pymatgen
data_Sr4CeMn5O15
_symmetry_space_group_name_H-M   'P 1'
_cell_length_a   5.50818205
_cell_length_b   6.71430784
_cell_length_c   8.72114026
_cell_angle_alpha   104.89569397
_cell_angle_beta   108.41986766
_cell_angle_gamma   90.00902938
_symmetry_Int_Tables_number   1
_chemical_formula_structural   Sr4CeMn5O15
_chemical_formula_sum   'Sr4 Ce1 Mn5 O15'
_cell_volume   294.56385420
_cell_formula_units_Z   1
loop_
 _symmetry_equiv_pos_site_id
 _symmetry_equiv_pos_as_xyz
  1  'x, y, z'
loop_
 _atom_site_type_symbol
 _atom_site_label
 _atom_site_symmetry_multiplicity
 _atom_site_fract_x
 _atom_site_fract_y
 _atom_site_fract_z
 _atom_site_occupancy
  Sr  Sr0  1  0.00075474  0.49769929  0.00151527  1
  Sr  Sr1  1  0.59856596  0.89983154  0.19721564  1
  Sr  Sr2  1  0.20143404  0.30016846  0.40278436  1
  Sr  Sr3  1  0.79924526  0.70230071  0.59848473  1
  Ce  Ce4  1  0.40000000  0.10000000  0.80000000  1
  Mn  Mn5  1  0.40000000  0.60000000  0.80000000  1
  Mn  Mn6  1  0.19954587  0.79850047  0.39909266  1
  Mn  Mn7  1  0.79997126  0.20016435  0.59983996  1
  Mn  Mn8  1  0.00002874  -0.00016435  0.00016004  1
  Mn  Mn9  1  0.60045413  0.40149953  0.20090734  1
  O  O10  1  0.68834075  0.81142969  0.89411335  1
  O  O11  1  0.50057428  0.00451766  0.52100037  1
  O  O12  1  0.11165925  0.38857031  0.70588665  1
  O  O13  1  0.29942572  0.19548234  0.07899963  1
  O  O14  1  0.90000000  0.60000000  0.30000000  1
  O  O15  1  0.90000000  0.10000000  0.80000000  1
  O  O16  1  0.69786761  0.28758718  0.39582053  1
  O  O17  1  0.30395617  0.71137564  0.60788330  1
  O  O18  1  0.49604383  0.48862436  0.99211670  1
  O  O19  1  0.10213239  0.91241282  0.20417947  1
  O  O20  1  0.40000000  0.60000000  0.30000000  1
  O  O21  1  0.20578922  0.81130442  0.89384348  1
  O  O22  1  0.78003788  0.19564916  0.07895503  1
  O  O23  1  0.01996212  0.00435084  0.52104497  1
  O  O24  1  0.59421078  0.38869558  0.70615652  1
