# generated using pymatgen
data_Sr6Ca4Cu17O29
_symmetry_space_group_name_H-M   'P 1'
_cell_length_a   8.80906520
_cell_length_b   8.78339767
_cell_length_c   11.32030753
_cell_angle_alpha   71.07926543
_cell_angle_beta   70.99934026
_cell_angle_gamma   99.42114959
_symmetry_Int_Tables_number   1
_chemical_formula_structural   Sr6Ca4Cu17O29
_chemical_formula_sum   'Sr6 Ca4 Cu17 O29'
_cell_volume   747.07852510
_cell_formula_units_Z   1
loop_
 _symmetry_equiv_pos_site_id
 _symmetry_equiv_pos_as_xyz
  1  'x, y, z'
loop_
 _atom_site_type_symbol
 _atom_site_label
 _atom_site_symmetry_multiplicity
 _atom_site_fract_x
 _atom_site_fract_y
 _atom_site_fract_z
 _atom_site_occupancy
  Sr  Sr0  1  0.43549591  0.17322285  0.39878128  1
  Sr  Sr1  1  0.16572281  0.42799587  0.39878128  1
  Sr  Sr2  1  0.56450409  0.82677715  0.60121872  1
  Sr  Sr3  1  0.83427719  0.57200413  0.60121872  1
  Sr  Sr4  1  0.62638309  0.36249916  0.00000000  1
  Sr  Sr5  1  0.37361691  0.63750084  0.00000000  1
  Ca  Ca6  1  0.77773440  0.02825042  0.19736997  1
  Ca  Ca7  1  0.02489564  0.77437961  0.19736997  1
  Ca  Ca8  1  0.22226560  0.97174958  0.80263003  1
  Ca  Ca9  1  0.97510436  0.22562039  0.80263003  1
  Cu  Cu10  1  0.23412814  0.23159580  0.19941963  1
  Cu  Cu11  1  0.56645223  0.56898458  0.19941963  1
  Cu  Cu12  1  0.76587186  0.76840420  0.80058037  1
  Cu  Cu13  1  0.43354777  0.43101542  0.80058037  1
  Cu  Cu14  1  0.83725746  0.83441604  0.00000000  1
  Cu  Cu15  1  0.16274254  0.16558396  0.00000000  1
  Cu  Cu16  1  0.35611123  0.85611123  0.28777753  1
  Cu  Cu17  1  0.64388877  0.14388877  0.71222247  1
  Cu  Cu18  1  0.50000000  -0.00000000  0.00000000  1
  Cu  Cu19  1  0.78739757  0.28739757  0.42520486  1
  Cu  Cu20  1  0.21260243  0.71260243  0.57479514  1
  Cu  Cu21  1  0.63404994  0.63737800  0.40019169  1
  Cu  Cu22  1  0.96575837  0.96243031  0.40019169  1
  Cu  Cu23  1  0.36595006  0.36262200  0.59980831  1
  Cu  Cu24  1  0.03424163  0.03756969  0.59980831  1
  Cu  Cu25  1  0.92964450  0.42964450  0.14071101  1
  Cu  Cu26  1  0.07035550  0.57035550  0.85928899  1
  O  O27  1  0.41281522  0.87794522  0.43061875  1
  O  O28  1  0.15656603  0.69143603  0.43061875  1
  O  O29  1  0.58718478  0.12205478  0.56938125  1
  O  O30  1  0.84343397  0.30856397  0.56938125  1
  O  O31  1  0.53653548  0.04625064  0.14805398  1
  O  O32  1  0.31541055  0.80569539  0.14805398  1
  O  O33  1  0.46346452  0.95374936  0.85194602  1
  O  O34  1  0.68458945  0.19430461  0.85194602  1
  O  O35  1  0.09026770  0.63392011  0.00000000  1
  O  O36  1  0.90973230  0.36607989  0.00000000  1
  O  O37  1  0.97014298  0.47762212  0.28001086  1
  O  O38  1  0.74984616  0.24236702  0.28001086  1
  O  O39  1  0.02985702  0.52237788  0.71998914  1
  O  O40  1  0.25015384  0.75763298  0.71998914  1
  O  O41  1  0.32379426  0.33290035  0.00000000  1
  O  O42  1  0.67620574  0.66709965  0.00000000  1
  O  O43  1  0.40037110  0.40037110  0.19925780  1
  O  O44  1  0.59962890  0.59962890  0.80074220  1
  O  O45  1  0.80170214  0.80170214  0.39659573  1
  O  O46  1  0.19829786  0.19829786  0.60340427  1
  O  O47  1  -0.00000000  -0.00000000  0.00000000  1
  O  O48  1  0.13307961  0.12575490  0.39876955  1
  O  O49  1  0.46815083  0.47547555  0.39876955  1
  O  O50  1  0.86692039  0.87424510  0.60123045  1
  O  O51  1  0.53184917  0.52452445  0.60123045  1
  O  O52  1  0.73239079  0.73880365  0.19982775  1
  O  O53  1  0.06778146  0.06136860  0.19982775  1
  O  O54  1  0.26760921  0.26119635  0.80017225  1
  O  O55  1  0.93221854  0.93863140  0.80017225  1
