# generated using pymatgen
data_Sr5La6Nb4O24
_symmetry_space_group_name_H-M   'P 1'
_cell_length_a   11.77298502
_cell_length_b   11.73626509
_cell_length_c   11.78112367
_cell_angle_alpha   60.29602389
_cell_angle_beta   60.19264130
_cell_angle_gamma   90.29552879
_symmetry_Int_Tables_number   1
_chemical_formula_structural   Sr5La6Nb4O24
_chemical_formula_sum   'Sr10 La12 Nb8 O48'
_cell_volume   1156.54538837
_cell_formula_units_Z   2
loop_
 _symmetry_equiv_pos_site_id
 _symmetry_equiv_pos_as_xyz
  1  'x, y, z'
loop_
 _atom_site_type_symbol
 _atom_site_label
 _atom_site_symmetry_multiplicity
 _atom_site_fract_x
 _atom_site_fract_y
 _atom_site_fract_z
 _atom_site_occupancy
  Sr  Sr0  1  0.86502872  0.11502872  0.26994256  1
  Sr  Sr1  1  0.61555852  0.36555852  0.76888297  1
  Sr  Sr2  1  0.13497128  0.88497128  0.73005744  1
  Sr  Sr3  1  0.38444148  0.63444148  0.23111703  1
  Sr  Sr4  1  0.62596379  0.87596379  0.74807242  1
  Sr  Sr5  1  0.37403621  0.12403621  0.25192758  1
  Sr  Sr6  1  0.15058731  0.92988282  0.23101528  1
  Sr  Sr7  1  0.61839742  0.33910190  0.23101528  1
  Sr  Sr8  1  0.84941269  0.07011718  0.76898472  1
  Sr  Sr9  1  0.38160258  0.66089810  0.76898472  1
  La  La10  1  0.19255250  0.67443949  0.57025322  1
  La  La11  1  0.23719428  0.25530729  0.57025322  1
  La  La12  1  0.75683842  0.69061965  0.07121043  1
  La  La13  1  0.17195115  0.73816992  0.07121043  1
  La  La14  1  0.80744750  0.32556051  0.42974678  1
  La  La15  1  0.76280572  0.74469271  0.42974678  1
  La  La16  1  0.24316158  0.30938035  0.92878957  1
  La  La17  1  0.82804885  0.26183008  0.92878957  1
  La  La18  1  0.83783301  0.65206597  0.73198305  1
  La  La19  1  0.43018394  0.11595098  0.73198305  1
  La  La20  1  0.16216699  0.34793403  0.26801695  1
  La  La21  1  0.56981606  0.88404902  0.26801695  1
  Nb  Nb22  1  0.00000000  0.50000000  0.50000000  1
  Nb  Nb23  1  0.50000000  0.50000000  0.50000000  1
  Nb  Nb24  1  0.00000000  0.50000000  -0.00000000  1
  Nb  Nb25  1  0.00000000  0.00000000  -0.00000000  1
  Nb  Nb26  1  0.50000000  0.00000000  0.50000000  1
  Nb  Nb27  1  0.00000000  0.00000000  0.50000000  1
  Nb  Nb28  1  0.50000000  0.00000000  -0.00000000  1
  Nb  Nb29  1  0.50000000  0.50000000  -0.00000000  1
  O  O30  1  0.35604400  0.85616570  0.54188550  1
  O  O31  1  0.10207050  0.10194880  0.54188550  1
  O  O32  1  0.59717886  0.85379682  0.05104354  1
  O  O33  1  0.35177760  0.59515964  0.05104354  1
  O  O34  1  0.64395600  0.14383430  0.45811450  1
  O  O35  1  0.89792950  0.89805120  0.45811450  1
  O  O36  1  0.40282114  0.14620318  0.94895646  1
  O  O37  1  0.64822240  0.40484036  0.94895646  1
  O  O38  1  0.84736737  0.86740325  0.73590889  1
  O  O39  1  0.41672374  0.89668787  0.73590889  1
  O  O40  1  0.38672113  0.34731243  0.23726926  1
  O  O41  1  0.37600961  0.91541831  0.23726926  1
  O  O42  1  0.15263263  0.13259675  0.26409111  1
  O  O43  1  0.58327626  0.10331213  0.26409111  1
  O  O44  1  0.61327887  0.65268757  0.76273074  1
  O  O45  1  0.62399039  0.08458169  0.76273074  1
  O  O46  1  0.15854197  0.41829169  0.44593808  1
  O  O47  1  0.39551995  0.63577023  0.44593808  1
  O  O48  1  0.12999503  0.66049956  0.94772153  1
  O  O49  1  0.92228344  0.89177892  0.94772153  1
  O  O50  1  0.84145803  0.58170831  0.55406192  1
  O  O51  1  0.60448005  0.36422977  0.55406192  1
  O  O52  1  0.87000497  0.33950044  0.05227847  1
  O  O53  1  0.07771656  0.10822108  0.05227847  1
  O  O54  1  0.10066539  0.86113101  0.51625100  1
  O  O55  1  0.38308361  0.12261799  0.51625100  1
  O  O56  1  0.62563217  0.60427048  0.01050173  1
  O  O57  1  0.36386611  0.88522779  0.01050173  1
  O  O58  1  0.89933461  0.13886899  0.48374900  1
  O  O59  1  0.61691639  0.87738201  0.48374900  1
  O  O60  1  0.37436783  0.39572952  0.98949827  1
  O  O61  1  0.63613389  0.11477221  0.98949827  1
  O  O62  1  0.32906690  0.32124553  0.68334453  1
  O  O63  1  0.98758857  0.49540994  0.68334453  1
  O  O64  1  0.99123309  0.82702902  0.18202852  1
  O  O65  1  0.82673838  0.49094246  0.18202852  1
  O  O66  1  0.67093310  0.67875447  0.31665547  1
  O  O67  1  0.01241143  0.50459006  0.31665547  1
  O  O68  1  0.00876691  0.17297098  0.81797148  1
  O  O69  1  0.17326162  0.50905754  0.81797148  1
  O  O70  1  0.49706001  0.53167167  0.65153948  1
  O  O71  1  0.85140051  0.31678885  0.65153948  1
  O  O72  1  0.81165395  0.99367977  0.15216569  1
  O  O73  1  0.03618036  0.35415454  0.15216569  1
  O  O74  1  0.50293999  0.46832833  0.34846052  1
  O  O75  1  0.14859949  0.68321115  0.34846052  1
  O  O76  1  0.18834605  0.00632023  0.84783431  1
  O  O77  1  0.96381964  0.64584546  0.84783431  1
