# generated using pymatgen
data_Sr4CaYCu6(PbO4)4
_symmetry_space_group_name_H-M   'P 1'
_cell_length_a   5.40827988
_cell_length_b   16.47759997
_cell_length_c   5.40419974
_cell_angle_alpha   80.56165111
_cell_angle_beta   90.00000000
_cell_angle_gamma   80.55445997
_symmetry_Int_Tables_number   1
_chemical_formula_structural   Sr4CaYCu6(PbO4)4
_chemical_formula_sum   'Sr4 Ca1 Y1 Cu6 Pb4 O16'
_cell_volume   468.45789295
_cell_formula_units_Z   1
loop_
 _symmetry_equiv_pos_site_id
 _symmetry_equiv_pos_as_xyz
  1  'x, y, z'
loop_
 _atom_site_type_symbol
 _atom_site_label
 _atom_site_symmetry_multiplicity
 _atom_site_fract_x
 _atom_site_fract_y
 _atom_site_fract_z
 _atom_site_occupancy
  Sr  Sr0  1  0.10900130  0.78199740  0.10900130  1
  Sr  Sr1  1  0.60976416  0.78047167  0.60976416  1
  Sr  Sr2  1  0.39023584  0.21952833  0.39023584  1
  Sr  Sr3  1  0.89099870  0.21800260  0.89099870  1
  Ca  Ca4  1  -0.00000000  0.00000000  -0.00000000  1
  Y  Y5  1  0.50000000  0.00000000  0.50000000  1
  Cu  Cu6  1  0.55322347  0.89355307  0.05322347  1
  Cu  Cu7  1  0.05317469  0.89365061  0.55317469  1
  Cu  Cu8  1  0.94682531  0.10634939  0.44682531  1
  Cu  Cu9  1  0.44677653  0.10644693  0.94677653  1
  Cu  Cu10  1  0.24990651  0.50018699  0.24990651  1
  Cu  Cu11  1  0.75009349  0.49981301  0.75009349  1
  Pb  Pb12  1  0.69371214  0.61257572  0.19371214  1
  Pb  Pb13  1  0.19373644  0.61252711  0.69373644  1
  Pb  Pb14  1  0.80626356  0.38747289  0.30626356  1
  Pb  Pb15  1  0.30628786  0.38742428  0.80628786  1
  O  O16  1  0.62581605  0.74836790  0.12581605  1
  O  O17  1  0.12582871  0.74834258  0.62582871  1
  O  O18  1  0.87417129  0.25165742  0.37417129  1
  O  O19  1  0.37418395  0.25163210  0.87418395  1
  O  O20  1  0.79265894  0.90483186  0.30261416  1
  O  O21  1  0.30250920  0.90483186  0.79255398  1
  O  O22  1  0.69749080  0.09516814  0.69738584  1
  O  O23  1  0.20734106  0.09516814  0.20744602  1
  O  O24  1  0.20734106  0.09516814  0.69738584  1
  O  O25  1  0.69749080  0.09516814  0.20744602  1
  O  O26  1  0.30250920  0.90483186  0.30261416  1
  O  O27  1  0.79265894  0.90483186  0.79255398  1
  O  O28  1  0.19190892  0.61618216  0.19190892  1
  O  O29  1  0.69210277  0.61579446  0.69210277  1
  O  O30  1  0.30789723  0.38420554  0.30789723  1
  O  O31  1  0.80809108  0.38381784  0.80809108  1
