# generated using pymatgen
data_Sb6Pb6Se17
_symmetry_space_group_name_H-M   'P 1'
_cell_length_a   4.13942120
_cell_length_b   16.34938495
_cell_length_c   24.46948176
_cell_angle_alpha   90.00000000
_cell_angle_beta   90.00000000
_cell_angle_gamma   90.00000000
_symmetry_Int_Tables_number   1
_chemical_formula_structural   Sb6Pb6Se17
_chemical_formula_sum   'Sb12 Pb12 Se34'
_cell_volume   1656.02088875
_cell_formula_units_Z   2
loop_
 _symmetry_equiv_pos_site_id
 _symmetry_equiv_pos_as_xyz
  1  'x, y, z'
loop_
 _atom_site_type_symbol
 _atom_site_label
 _atom_site_symmetry_multiplicity
 _atom_site_fract_x
 _atom_site_fract_y
 _atom_site_fract_z
 _atom_site_occupancy
  Sb  Sb0  1  0.50061811  0.67429346  0.60362545  1
  Sb  Sb1  1  0.50061811  0.32570654  0.39637455  1
  Sb  Sb2  1  0.49938189  0.17429346  0.89637455  1
  Sb  Sb3  1  0.49938189  0.82570654  0.10362545  1
  Sb  Sb4  1  0.49857361  0.43943979  0.25713209  1
  Sb  Sb5  1  0.49857361  0.56056021  0.74286791  1
  Sb  Sb6  1  0.50142639  0.93943979  0.24286791  1
  Sb  Sb7  1  0.50142639  0.06056021  0.75713209  1
  Sb  Sb8  1  0.49740535  0.56340955  0.42974505  1
  Sb  Sb9  1  0.49740535  0.43659045  0.57025495  1
  Sb  Sb10  1  0.50259465  0.06340955  0.07025495  1
  Sb  Sb11  1  0.50259465  0.93659045  0.92974505  1
  Pb  Pb12  1  0.00046829  0.79492745  0.46556432  1
  Pb  Pb13  1  0.00046829  0.20507255  0.53443568  1
  Pb  Pb14  1  0.99953171  0.29492745  0.03443568  1
  Pb  Pb15  1  0.99953171  0.70507255  0.96556432  1
  Pb  Pb16  1  -0.00002697  0.67662397  0.29799066  1
  Pb  Pb17  1  -0.00002697  0.32337603  0.70200934  1
  Pb  Pb18  1  0.00002697  0.17662397  0.20200934  1
  Pb  Pb19  1  0.00002697  0.82337603  0.79799066  1
  Pb  Pb20  1  0.00053859  0.57765230  0.12708163  1
  Pb  Pb21  1  0.00053859  0.42234770  0.87291837  1
  Pb  Pb22  1  0.99946141  0.07765230  0.37291837  1
  Pb  Pb23  1  0.99946141  0.92234770  0.62708163  1
  Se  Se24  1  0.51035953  0.94949481  0.42510068  1
  Se  Se25  1  0.51035953  0.05050519  0.57489932  1
  Se  Se26  1  0.48964047  0.44949481  0.07489932  1
  Se  Se27  1  0.48964047  0.55050519  0.92510068  1
  Se  Se28  1  0.00236801  0.61925312  0.50615433  1
  Se  Se29  1  0.00236801  0.38074688  0.49384567  1
  Se  Se30  1  0.99763199  0.11925312  0.99384567  1
  Se  Se31  1  0.99763199  0.88074688  0.00615433  1
  Se  Se32  1  0.50263080  0.81617044  0.55481645  1
  Se  Se33  1  0.50263080  0.18382956  0.44518355  1
  Se  Se34  1  0.49736920  0.31617044  0.94518355  1
  Se  Se35  1  0.49736920  0.68382956  0.05481645  1
  Se  Se36  1  0.49839905  0.59180246  0.22165594  1
  Se  Se37  1  0.49839905  0.40819754  0.77834406  1
  Se  Se38  1  0.50160095  0.09180246  0.27834406  1
  Se  Se39  1  0.50160095  0.90819754  0.72165594  1
  Se  Se40  1  0.00936672  0.39688493  0.18821837  1
  Se  Se41  1  0.00936672  0.60311507  0.81178163  1
  Se  Se42  1  0.99063328  0.89688493  0.31178163  1
  Se  Se43  1  0.99063328  0.10311507  0.68821837  1
  Se  Se44  1  0.00385982  0.51507281  0.35038753  1
  Se  Se45  1  0.00385982  0.48492719  0.64961247  1
  Se  Se46  1  0.99614018  0.01507281  0.14961247  1
  Se  Se47  1  0.99614018  0.98492719  0.85038753  1
  Se  Se48  1  0.00146773  0.72710544  0.66909384  1
  Se  Se49  1  0.00146773  0.27289456  0.33090616  1
  Se  Se50  1  0.99853227  0.22710544  0.83090616  1
  Se  Se51  1  0.99853227  0.77289456  0.16909384  1
  Se  Se52  1  0.50112240  0.71099735  0.38611450  1
  Se  Se53  1  0.50112240  0.28900265  0.61388550  1
  Se  Se54  1  0.49887760  0.21099735  0.11388550  1
  Se  Se55  1  0.49887760  0.78900265  0.88611450  1
  Se  Se56  1  0.17619332  0.00000000  0.50000000  1
  Se  Se57  1  0.82380668  0.50000000  -0.00000000  1
