# generated using pymatgen
data_Sm4Fe27Co7C2
_symmetry_space_group_name_H-M   'P 1'
_cell_length_a   6.48240921
_cell_length_b   6.48240921
_cell_length_c   12.90920748
_cell_angle_alpha   83.56157227
_cell_angle_beta   83.56157227
_cell_angle_gamma   83.55521711
_symmetry_Int_Tables_number   1
_chemical_formula_structural   Sm4Fe27Co7C2
_chemical_formula_sum   'Sm4 Fe27 Co7 C2'
_cell_volume   532.90894513
_cell_formula_units_Z   1
loop_
 _symmetry_equiv_pos_site_id
 _symmetry_equiv_pos_as_xyz
  1  'x, y, z'
loop_
 _atom_site_type_symbol
 _atom_site_label
 _atom_site_symmetry_multiplicity
 _atom_site_fract_x
 _atom_site_fract_y
 _atom_site_fract_z
 _atom_site_occupancy
  Sm  Sm0  1  0.66185740  0.66185740  0.32437951  1
  Sm  Sm1  1  0.66149672  0.66149672  0.82400444  1
  Sm  Sm2  1  0.33902180  0.33902180  0.17633403  1
  Sm  Sm3  1  0.33897324  0.33897324  0.67601017  1
  Fe  Fe4  1  0.34199243  0.34199243  0.42506502  1
  Fe  Fe5  1  0.34237557  0.34237557  0.92585064  1
  Fe  Fe6  1  0.34044561  0.84925382  0.17111465  1
  Fe  Fe7  1  0.34083329  0.84964357  0.67060654  1
  Fe  Fe8  1  0.84925382  0.34044561  0.17111465  1
  Fe  Fe9  1  0.84964357  0.34083329  0.67060654  1
  Fe  Fe10  1  0.65735177  0.65735177  0.07436013  1
  Fe  Fe11  1  0.65902060  0.65902060  0.57346925  1
  Fe  Fe12  1  0.66055690  0.14875829  0.33033817  1
  Fe  Fe13  1  0.65939493  0.15033586  0.82917015  1
  Fe  Fe14  1  0.14875829  0.66055690  0.33033817  1
  Fe  Fe15  1  0.15033586  0.65939493  0.82917015  1
  Fe  Fe16  1  0.28607538  0.71446945  0.99988180  1
  Fe  Fe17  1  0.28700847  0.71275501  0.49995805  1
  Fe  Fe18  1  0.71207139  0.99976125  0.14356091  1
  Fe  Fe19  1  0.71227924  0.00024083  0.64313478  1
  Fe  Fe20  1  0.99918219  0.28844149  0.35673479  1
  Fe  Fe21  1  0.00012639  0.28815061  0.85632550  1
  Fe  Fe22  1  0.28844149  0.99918219  0.35673479  1
  Fe  Fe23  1  0.28815061  0.00012639  0.85632550  1
  Fe  Fe24  1  0.99976125  0.71207139  0.14356091  1
  Fe  Fe25  1  0.00024083  0.71227924  0.64313478  1
  Fe  Fe26  1  0.71446945  0.28607538  0.99988180  1
  Fe  Fe27  1  0.71275501  0.28700847  0.49995805  1
  Fe  Fe28  1  0.90470342  0.90470342  0.95243253  1
  Fe  Fe29  1  0.09504343  0.09504343  0.04735711  1
  Fe  Fe30  1  0.09244597  0.09244597  0.54632746  1
  Co  Co31  1  0.00005266  0.00005266  0.25032661  1
  Co  Co32  1  0.00020311  0.00020311  0.74975905  1
  Co  Co33  1  0.00006211  0.50033404  0.99991418  1
  Co  Co34  1  0.00018591  0.49987758  0.50009355  1
  Co  Co35  1  0.49987758  0.00018591  0.50009355  1
  Co  Co36  1  0.50033404  0.00006211  0.99991418  1
  Co  Co37  1  0.90502508  0.90502508  0.45259350  1
  C  C38  1  0.50007463  0.50007463  -0.00001725  1
  C  C39  1  0.50011857  0.50011857  0.50008166  1
