# generated using pymatgen
data_Sm(CrFe5)2
_symmetry_space_group_name_H-M   'P 1'
_cell_length_a   4.68154400
_cell_length_b   6.41946057
_cell_length_c   6.41946057
_cell_angle_alpha   97.19910691
_cell_angle_beta   111.38523670
_cell_angle_gamma   68.61476330
_symmetry_Int_Tables_number   1
_chemical_formula_structural   Sm(CrFe5)2
_chemical_formula_sum   'Sm1 Cr2 Fe10'
_cell_volume   167.26628830
_cell_formula_units_Z   1
loop_
 _symmetry_equiv_pos_site_id
 _symmetry_equiv_pos_as_xyz
  1  'x, y, z'
loop_
 _atom_site_type_symbol
 _atom_site_label
 _atom_site_symmetry_multiplicity
 _atom_site_fract_x
 _atom_site_fract_y
 _atom_site_fract_z
 _atom_site_occupancy
  Sm  Sm0  1  0.00000000  -0.00000000  -0.00000000  1
  Cr  Cr1  1  0.00000000  0.36832930  0.36832930  1
  Cr  Cr2  1  -0.00000000  0.63167070  0.63167070  1
  Fe  Fe3  1  0.50000000  -0.00000000  0.50000000  1
  Fe  Fe4  1  0.00000000  -0.00000000  0.50000000  1
  Fe  Fe5  1  0.50000000  0.50000000  -0.00000000  1
  Fe  Fe6  1  0.00000000  0.50000000  -0.00000000  1
  Fe  Fe7  1  0.72824867  0.77175133  0.22824867  1
  Fe  Fe8  1  0.27175133  0.22824867  0.77175133  1
  Fe  Fe9  1  0.50000000  0.76843570  0.76843570  1
  Fe  Fe10  1  0.50000000  0.23156430  0.23156430  1
  Fe  Fe11  1  0.64002393  0.35997607  0.64002393  1
  Fe  Fe12  1  0.35997607  0.64002393  0.35997607  1
