# generated using pymatgen
data_Si2Ag9NO11
_symmetry_space_group_name_H-M   'P 1'
_cell_length_a   5.82541452
_cell_length_b   6.94296080
_cell_length_c   9.00961945
_cell_angle_alpha   107.97226215
_cell_angle_beta   98.64012097
_cell_angle_gamma   95.39116722
_symmetry_Int_Tables_number   1
_chemical_formula_structural   Si2Ag9NO11
_chemical_formula_sum   'Si2 Ag9 N1 O11'
_cell_volume   338.84991452
_cell_formula_units_Z   1
loop_
 _symmetry_equiv_pos_site_id
 _symmetry_equiv_pos_as_xyz
  1  'x, y, z'
loop_
 _atom_site_type_symbol
 _atom_site_label
 _atom_site_symmetry_multiplicity
 _atom_site_fract_x
 _atom_site_fract_y
 _atom_site_fract_z
 _atom_site_occupancy
  Si  Si0  1  0.27611564  0.67330363  0.82038010  1
  Si  Si1  1  0.73304678  0.32435665  0.18236679  1
  Ag  Ag2  1  0.25749830  0.53190724  0.14297203  1
  Ag  Ag3  1  0.76328053  0.47451259  0.86548299  1
  Ag  Ag4  1  0.01874924  0.69180540  0.48765677  1
  Ag  Ag5  1  0.01442667  0.28595004  0.51415464  1
  Ag  Ag6  1  0.50102628  0.50014853  0.50173622  1
  Ag  Ag7  1  0.27184431  0.18768244  0.85937940  1
  Ag  Ag8  1  0.73089004  0.80943519  0.14993050  1
  Ag  Ag9  1  0.18023546  0.03548414  0.14261612  1
  Ag  Ag10  1  0.82926625  0.96489319  0.86153913  1
  N  N11  1  0.52548987  0.00519622  0.50252381  1
  O  O12  1  0.88935432  0.17448038  0.25554416  1
  O  O13  1  0.11766807  0.82171838  0.74682107  1
  O  O14  1  0.48725165  0.34018404  0.25549231  1
  O  O15  1  0.52316430  0.66157475  0.74914770  1
  O  O16  1  0.34360644  0.77299483  0.01675567  1
  O  O17  1  0.66206693  0.22432080  0.98627844  1
  O  O18  1  0.12173912  0.44087745  0.77136487  1
  O  O19  1  0.88992974  0.55502877  0.22964719  1
  O  O20  1  0.72740773  0.95874309  0.48030861  1
  O  O21  1  0.34243800  0.90691201  0.40168035  1
  O  O22  1  0.50840436  0.15159027  0.62392112  1
