# generated using pymatgen
data_Rb2BaCl4
_symmetry_space_group_name_H-M   'P 1'
_cell_length_a   8.39244947
_cell_length_b   8.39244947
_cell_length_c   8.39244947
_cell_angle_alpha   70.12854564
_cell_angle_beta   71.32631516
_cell_angle_gamma   109.87145436
_symmetry_Int_Tables_number   1
_chemical_formula_structural   Rb2BaCl4
_chemical_formula_sum   'Rb4 Ba2 Cl8'
_cell_volume   454.96847552
_cell_formula_units_Z   2
loop_
 _symmetry_equiv_pos_site_id
 _symmetry_equiv_pos_as_xyz
  1  'x, y, z'
loop_
 _atom_site_type_symbol
 _atom_site_label
 _atom_site_symmetry_multiplicity
 _atom_site_fract_x
 _atom_site_fract_y
 _atom_site_fract_z
 _atom_site_occupancy
  Rb  Rb0  1  0.86441711  0.61441711  0.75000000  1
  Rb  Rb1  1  0.63558289  0.88558289  0.25000000  1
  Rb  Rb2  1  0.75000000  0.11441711  0.63558289  1
  Rb  Rb3  1  0.25000000  0.38558289  0.86441711  1
  Ba  Ba4  1  0.37500000  0.25000000  0.37500000  1
  Ba  Ba5  1  0.12500000  0.75000000  0.12500000  1
  Cl  Cl6  1  0.84770215  0.36455920  0.15173636  1
  Cl  Cl7  1  0.48370443  0.13544080  0.01685705  1
  Cl  Cl8  1  0.65229785  0.50056148  0.48314295  1
  Cl  Cl9  1  0.01629557  0.99943852  0.34826364  1
  Cl  Cl10  1  0.48314295  0.63544080  0.01629557  1
  Cl  Cl11  1  0.34826364  0.86455920  0.65229785  1
  Cl  Cl12  1  0.15173636  0.49943852  0.48370443  1
  Cl  Cl13  1  0.01685705  0.00056148  0.84770215  1
