# generated using pymatgen
data_Sm3CuSe6
_symmetry_space_group_name_H-M   'P 1'
_cell_length_a   7.21130291
_cell_length_b   7.90938127
_cell_length_c   17.28552251
_cell_angle_alpha   90.00000000
_cell_angle_beta   90.00000000
_cell_angle_gamma   90.00000000
_symmetry_Int_Tables_number   1
_chemical_formula_structural   Sm3CuSe6
_chemical_formula_sum   'Sm12 Cu4 Se24'
_cell_volume   985.91338233
_cell_formula_units_Z   4
loop_
 _symmetry_equiv_pos_site_id
 _symmetry_equiv_pos_as_xyz
  1  'x, y, z'
loop_
 _atom_site_type_symbol
 _atom_site_label
 _atom_site_symmetry_multiplicity
 _atom_site_fract_x
 _atom_site_fract_y
 _atom_site_fract_z
 _atom_site_occupancy
  Sm  Sm0  1  0.26732058  0.94356092  0.75232320  1
  Sm  Sm1  1  0.73267942  0.05643908  0.25232320  1
  Sm  Sm2  1  0.26732058  0.55643908  0.25232320  1
  Sm  Sm3  1  0.73267942  0.44356092  0.75232320  1
  Sm  Sm4  1  0.22755688  0.55636852  0.58769438  1
  Sm  Sm5  1  0.77244312  0.44363148  0.08769438  1
  Sm  Sm6  1  0.23995456  0.93985725  0.40966008  1
  Sm  Sm7  1  0.76004544  0.06014275  0.90966008  1
  Sm  Sm8  1  0.76004544  0.43985725  0.40966008  1
  Sm  Sm9  1  0.23995456  0.56014275  0.90966008  1
  Sm  Sm10  1  0.77244312  0.05636852  0.58769438  1
  Sm  Sm11  1  0.22755688  0.94363148  0.08769438  1
  Cu  Cu12  1  0.39722911  0.20739436  0.52563985  1
  Cu  Cu13  1  0.60277089  0.79260564  0.02563985  1
  Cu  Cu14  1  0.60277089  0.70739436  0.52563985  1
  Cu  Cu15  1  0.39722911  0.29260564  0.02563985  1
  Se  Se16  1  0.06995942  0.24913065  0.50019594  1
  Se  Se17  1  0.93004058  0.75086935  0.00019594  1
  Se  Se18  1  0.93004058  0.74913065  0.50019594  1
  Se  Se19  1  0.06995942  0.25086935  0.00019594  1
  Se  Se20  1  0.07577502  0.25222085  0.67951171  1
  Se  Se21  1  0.92422498  0.74777915  0.17951171  1
  Se  Se22  1  0.07503885  0.24639779  0.32139827  1
  Se  Se23  1  0.92496115  0.75360221  0.82139827  1
  Se  Se24  1  0.92496115  0.74639779  0.32139827  1
  Se  Se25  1  0.07503885  0.25360221  0.82139827  1
  Se  Se26  1  0.92422498  0.75222085  0.67951171  1
  Se  Se27  1  0.07577502  0.24777915  0.17951171  1
  Se  Se28  1  0.38773982  0.90889190  0.58255093  1
  Se  Se29  1  0.61226018  0.09110810  0.08255093  1
  Se  Se30  1  0.38741566  0.59623368  0.42005832  1
  Se  Se31  1  0.61258434  0.40376632  0.92005832  1
  Se  Se32  1  0.61258434  0.09623368  0.42005832  1
  Se  Se33  1  0.38741566  0.90376632  0.92005832  1
  Se  Se34  1  0.61226018  0.40889190  0.58255093  1
  Se  Se35  1  0.38773982  0.59110810  0.08255093  1
  Se  Se36  1  0.37776536  0.59869653  0.74886731  1
  Se  Se37  1  0.62223464  0.40130347  0.24886731  1
  Se  Se38  1  0.37776536  0.90130347  0.24886731  1
  Se  Se39  1  0.62223464  0.09869653  0.74886731  1
