# generated using pymatgen
data_PrCoSbPbO6
_symmetry_space_group_name_H-M   'P 1'
_cell_length_a   5.68870986
_cell_length_b   5.79127823
_cell_length_c   8.05289645
_cell_angle_alpha   90.00000000
_cell_angle_beta   89.86879835
_cell_angle_gamma   90.00000000
_symmetry_Int_Tables_number   1
_chemical_formula_structural   PrCoSbPbO6
_chemical_formula_sum   'Pr2 Co2 Sb2 Pb2 O12'
_cell_volume   265.30118536
_cell_formula_units_Z   2
loop_
 _symmetry_equiv_pos_site_id
 _symmetry_equiv_pos_as_xyz
  1  'x, y, z'
loop_
 _atom_site_type_symbol
 _atom_site_label
 _atom_site_symmetry_multiplicity
 _atom_site_fract_x
 _atom_site_fract_y
 _atom_site_fract_z
 _atom_site_occupancy
  Pr  Pr0  1  0.51444596  0.44815179  0.75147913  1
  Pr  Pr1  1  0.01444596  0.05184821  0.25147913  1
  Co  Co2  1  0.00136732  0.51216508  0.50263973  1
  Co  Co3  1  0.50136732  0.98783492  0.00263973  1
  Sb  Sb4  1  0.00066733  0.50718106  0.99912536  1
  Sb  Sb5  1  0.50066733  0.99281894  0.49912536  1
  Pb  Pb6  1  0.49660018  0.51645641  0.25345314  1
  Pb  Pb7  1  0.99660018  0.98354359  0.75345314  1
  O  O8  1  0.21071304  0.80428459  0.45144497  1
  O  O9  1  0.71071304  0.69571541  0.95144497  1
  O  O10  1  0.77255388  0.21303240  0.53725797  1
  O  O11  1  0.27255388  0.28696760  0.03725797  1
  O  O12  1  0.28568250  0.26865279  0.45799787  1
  O  O13  1  0.78568250  0.23134721  0.95799787  1
  O  O14  1  0.68929467  0.70735455  0.54536201  1
  O  O15  1  0.18929467  0.79264545  0.04536201  1
  O  O16  1  0.59596891  0.98991143  0.25726840  1
  O  O17  1  0.09596891  0.51008857  0.75726840  1
  O  O18  1  0.43270621  0.03043714  0.74397142  1
  O  O19  1  0.93270621  0.46956286  0.24397142  1
