# generated using pymatgen
data_NdTiFe11
_symmetry_space_group_name_H-M   'P 1'
_cell_length_a   4.69322152
_cell_length_b   6.50876924
_cell_length_c   6.50876924
_cell_angle_alpha   96.98673563
_cell_angle_beta   111.13278459
_cell_angle_gamma   68.86721541
_symmetry_Int_Tables_number   1
_chemical_formula_structural   NdTiFe11
_chemical_formula_sum   'Nd1 Ti1 Fe11'
_cell_volume   172.97244370
_cell_formula_units_Z   1
loop_
 _symmetry_equiv_pos_site_id
 _symmetry_equiv_pos_as_xyz
  1  'x, y, z'
loop_
 _atom_site_type_symbol
 _atom_site_label
 _atom_site_symmetry_multiplicity
 _atom_site_fract_x
 _atom_site_fract_y
 _atom_site_fract_z
 _atom_site_occupancy
  Nd  Nd0  1  0.00536033  0.99463967  0.00536033  1
  Ti  Ti1  1  0.63199752  0.36800248  0.63199752  1
  Fe  Fe2  1  0.73465792  0.76534208  0.23465792  1
  Fe  Fe3  1  0.27077607  0.22922393  0.77077607  1
  Fe  Fe4  1  0.49884053  0.77329664  0.77097771  1
  Fe  Fe5  1  0.49884053  0.22902229  0.22670336  1
  Fe  Fe6  1  0.50039915  0.99811484  0.49989601  1
  Fe  Fe7  1  0.00138203  0.99811484  0.49989601  1
  Fe  Fe8  1  0.50039915  0.50010399  0.00188516  1
  Fe  Fe9  1  0.00138203  0.50010399  0.00188516  1
  Fe  Fe10  1  0.35569769  0.64430231  0.35569769  1
  Fe  Fe11  1  0.00013353  0.35753735  0.35780440  1
  Fe  Fe12  1  0.00013353  0.64219560  0.64246265  1
