# generated using pymatgen
data_Nb3Al2Mo3
_symmetry_space_group_name_H-M   'P 1'
_cell_length_a   5.09564982
_cell_length_b   5.09564982
_cell_length_c   5.09564982
_cell_angle_alpha   90.23344822
_cell_angle_beta   89.76655178
_cell_angle_gamma   89.76655178
_symmetry_Int_Tables_number   1
_chemical_formula_structural   Nb3Al2Mo3
_chemical_formula_sum   'Nb3 Al2 Mo3'
_cell_volume   132.30854129
_cell_formula_units_Z   1
loop_
 _symmetry_equiv_pos_site_id
 _symmetry_equiv_pos_as_xyz
  1  'x, y, z'
loop_
 _atom_site_type_symbol
 _atom_site_label
 _atom_site_symmetry_multiplicity
 _atom_site_fract_x
 _atom_site_fract_y
 _atom_site_fract_z
 _atom_site_occupancy
  Nb  Nb0  1  0.49625028  0.25000000  0.99625028  1
  Nb  Nb1  1  0.75000000  0.99625028  0.50374972  1
  Nb  Nb2  1  0.00374972  0.50374972  0.25000000  1
  Al  Al3  1  0.49810824  0.50189176  0.50189176  1
  Al  Al4  1  0.00189176  0.99810824  0.99810824  1
  Mo  Mo5  1  0.49971913  0.75000000  0.99971913  1
  Mo  Mo6  1  0.25000000  0.99971913  0.50028087  1
  Mo  Mo7  1  0.00028087  0.50028087  0.75000000  1
