# generated using pymatgen
data_PH6NO4
_symmetry_space_group_name_H-M   'P 1'
_cell_length_a   6.50431309
_cell_length_b   6.50431309
_cell_length_c   6.72606506
_cell_angle_alpha   73.09824741
_cell_angle_beta   73.09824741
_cell_angle_gamma   113.49776055
_symmetry_Int_Tables_number   1
_chemical_formula_structural   PH6NO4
_chemical_formula_sum   'P2 H12 N2 O8'
_cell_volume   221.25309580
_cell_formula_units_Z   2
loop_
 _symmetry_equiv_pos_site_id
 _symmetry_equiv_pos_as_xyz
  1  'x, y, z'
loop_
 _atom_site_type_symbol
 _atom_site_label
 _atom_site_symmetry_multiplicity
 _atom_site_fract_x
 _atom_site_fract_y
 _atom_site_fract_z
 _atom_site_occupancy
  P  P0  1  0.27298040  0.77298040  0.50000000  1
  P  P1  1  0.02298040  0.02298040  -0.00000000  1
  H  H2  1  0.00635096  0.42879863  0.84669903  1
  H  H3  1  0.27549766  0.85304999  0.15330097  1
  H  H4  1  0.67879863  0.75635096  0.34669903  1
  H  H5  1  0.10304999  0.02549766  0.65330097  1
  H  H6  1  0.68785689  0.04736036  0.54568889  1
  H  H7  1  0.60862427  0.65957241  0.86140969  1
  H  H8  1  0.59304926  0.23354579  0.45431111  1
  H  H9  1  0.52098210  0.47003397  0.13859031  1
  H  H10  1  0.72003397  0.27098210  0.63859031  1
  H  H11  1  0.29736036  0.43785689  0.04568889  1
  H  H12  1  0.90957241  0.35862427  0.36140969  1
  H  H13  1  0.48354579  0.34304926  0.95431111  1
  N  N14  1  0.73208664  0.23208664  0.50000000  1
  N  N15  1  0.48208664  0.48208664  -0.00000000  1
  O  O16  1  0.00221835  0.55693125  0.71721119  1
  O  O17  1  0.99750165  0.22954710  0.04916227  1
  O  O18  1  0.27414244  0.71942954  0.28278881  1
  O  O19  1  0.27870937  0.04666392  0.95083773  1
  O  O20  1  0.29666392  0.02870937  0.45083773  1
  O  O21  1  0.80693125  0.75221835  0.21721119  1
  O  O22  1  0.47954710  0.74750165  0.54916227  1
  O  O23  1  0.96942954  0.02414244  0.78278881  1
