# generated using pymatgen
data_Nb5V(FeSe10)2
_symmetry_space_group_name_H-M   'P 1'
_cell_length_a   3.52697909
_cell_length_b   9.39559566
_cell_length_c   18.89116210
_cell_angle_alpha   86.17015774
_cell_angle_beta   90.00000000
_cell_angle_gamma   90.00000000
_symmetry_Int_Tables_number   1
_chemical_formula_structural   Nb5V(FeSe10)2
_chemical_formula_sum   'Nb5 V1 Fe2 Se20'
_cell_volume   624.61863021
_cell_formula_units_Z   1
loop_
 _symmetry_equiv_pos_site_id
 _symmetry_equiv_pos_as_xyz
  1  'x, y, z'
loop_
 _atom_site_type_symbol
 _atom_site_label
 _atom_site_symmetry_multiplicity
 _atom_site_fract_x
 _atom_site_fract_y
 _atom_site_fract_z
 _atom_site_occupancy
  Nb  Nb0  1  0.75000000  0.40706182  0.31683607  1
  Nb  Nb1  1  0.75000000  0.90564027  0.81764508  1
  Nb  Nb2  1  0.25000000  0.09649644  0.18050806  1
  Nb  Nb3  1  0.25000000  0.59649321  0.68110749  1
  Nb  Nb4  1  0.25000000  0.08887130  0.45756775  1
  V  V5  1  0.25000000  0.59437035  0.95591674  1
  Fe  Fe6  1  0.75000000  0.39818761  0.04854802  1
  Fe  Fe7  1  0.75000000  0.90141713  0.54892939  1
  Se  Se8  1  0.25000000  0.57911787  0.37811756  1
  Se  Se9  1  0.25000000  0.07713786  0.87901966  1
  Se  Se10  1  0.75000000  0.92339738  0.12029140  1
  Se  Se11  1  0.75000000  0.42418633  0.62059163  1
  Se  Se12  1  0.25000000  0.19574375  0.31547818  1
  Se  Se13  1  0.25000000  0.69387767  0.81780770  1
  Se  Se14  1  0.75000000  0.30904649  0.17653845  1
  Se  Se15  1  0.75000000  0.80829531  0.67708876  1
  Se  Se16  1  0.25000000  0.58454342  0.25226978  1
  Se  Se17  1  0.25000000  0.08425012  0.75310346  1
  Se  Se18  1  0.75000000  0.91767541  0.24603909  1
  Se  Se19  1  0.75000000  0.41800294  0.74658396  1
  Se  Se20  1  0.75000000  0.30568153  0.45589487  1
  Se  Se21  1  0.75000000  0.79673722  0.95503548  1
  Se  Se22  1  0.25000000  0.21774746  0.04473712  1
  Se  Se23  1  0.25000000  0.71828593  0.54464272  1
  Se  Se24  1  0.75000000  0.91076996  0.42025591  1
  Se  Se25  1  0.75000000  0.42460499  0.92295851  1
  Se  Se26  1  0.25000000  0.56204028  0.07978949  1
  Se  Se27  1  0.25000000  0.06031994  0.58669767  1
