# generated using pymatgen
data_Pr2Co16Cu
_symmetry_space_group_name_H-M   'P 1'
_cell_length_a   6.32856998
_cell_length_b   6.32856998
_cell_length_c   6.32857030
_cell_angle_alpha   83.65629280
_cell_angle_beta   83.65629280
_cell_angle_gamma   83.65629724
_symmetry_Int_Tables_number   1
_chemical_formula_structural   Pr2Co16Cu
_chemical_formula_sum   'Pr2 Co16 Cu1'
_cell_volume   249.12743879
_cell_formula_units_Z   1
loop_
 _symmetry_equiv_pos_site_id
 _symmetry_equiv_pos_as_xyz
  1  'x, y, z'
loop_
 _atom_site_type_symbol
 _atom_site_label
 _atom_site_symmetry_multiplicity
 _atom_site_fract_x
 _atom_site_fract_y
 _atom_site_fract_z
 _atom_site_occupancy
  Pr  Pr0  1  0.65587975  0.65587975  0.65587975  1
  Pr  Pr1  1  0.34462310  0.34462310  0.34462310  1
  Co  Co2  1  0.28344970  0.71715314  -0.00004646  1
  Co  Co3  1  0.71715314  -0.00004646  0.28344970  1
  Co  Co4  1  -0.00004646  0.28344970  0.71715314  1
  Co  Co5  1  0.28344970  -0.00004646  0.71715314  1
  Co  Co6  1  -0.00004646  0.71715314  0.28344970  1
  Co  Co7  1  0.71715314  0.28344970  -0.00004646  1
  Co  Co8  1  0.34512862  0.34512862  0.84757460  1
  Co  Co9  1  0.34512862  0.84757460  0.34512862  1
  Co  Co10  1  0.84757460  0.34512862  0.34512862  1
  Co  Co11  1  0.65757479  0.65757479  0.15025888  1
  Co  Co12  1  0.65757479  0.15025888  0.65757479  1
  Co  Co13  1  0.15025888  0.65757479  0.65757479  1
  Co  Co14  1  0.99751535  0.99751535  0.50418720  1
  Co  Co15  1  0.99751535  0.50418720  0.99751535  1
  Co  Co16  1  0.50418720  0.99751535  0.99751535  1
  Co  Co17  1  0.89700396  0.89700396  0.89700396  1
  Cu  Cu18  1  0.09892224  0.09892224  0.09892224  1
