# generated using pymatgen
data_NbVSi4
_symmetry_space_group_name_H-M   'P 1'
_cell_length_a   4.72341517
_cell_length_b   4.68994088
_cell_length_c   13.01680746
_cell_angle_alpha   90.00000000
_cell_angle_beta   90.00000000
_cell_angle_gamma   119.95330567
_symmetry_Int_Tables_number   1
_chemical_formula_structural   NbVSi4
_chemical_formula_sum   'Nb3 V3 Si12'
_cell_volume   249.84045036
_cell_formula_units_Z   3
loop_
 _symmetry_equiv_pos_site_id
 _symmetry_equiv_pos_as_xyz
  1  'x, y, z'
loop_
 _atom_site_type_symbol
 _atom_site_label
 _atom_site_symmetry_multiplicity
 _atom_site_fract_x
 _atom_site_fract_y
 _atom_site_fract_z
 _atom_site_occupancy
  Nb  Nb0  1  0.50000000  0.00000000  0.08198098  1
  Nb  Nb1  1  0.50000000  0.00000000  0.58536904  1
  Nb  Nb2  1  0.50000000  0.50000000  0.24944762  1
  V  V3  1  0.50000000  0.50000000  0.74958729  1
  V  V4  1  -0.00000000  0.50000000  0.41806957  1
  V  V5  1  -0.00000000  0.50000000  0.91558390  1
  Si  Si6  1  0.84426371  0.67873112  0.07899392  1
  Si  Si7  1  0.83707510  0.67325647  0.58436579  1
  Si  Si8  1  0.84328420  0.16698905  0.25311384  1
  Si  Si9  1  0.84590774  0.16690553  0.75315547  1
  Si  Si10  1  0.31561529  0.15768252  0.41787091  1
  Si  Si11  1  0.32268383  0.16765687  0.91248086  1
  Si  Si12  1  0.15573629  0.32126888  0.07899392  1
  Si  Si13  1  0.16292490  0.32674353  0.58436579  1
  Si  Si14  1  0.15671580  0.83301095  0.25311384  1
  Si  Si15  1  0.15409226  0.83309447  0.75315547  1
  Si  Si16  1  0.68438471  0.84231748  0.41787091  1
  Si  Si17  1  0.67731617  0.83234313  0.91248086  1
