# generated using pymatgen
data_Mg14CoSnO16
_symmetry_space_group_name_H-M   'P 1'
_cell_length_a   8.66909027
_cell_length_b   8.68757194
_cell_length_c   4.31202791
_cell_angle_alpha   90.00000000
_cell_angle_beta   90.00000000
_cell_angle_gamma   90.00000000
_symmetry_Int_Tables_number   1
_chemical_formula_structural   Mg14CoSnO16
_chemical_formula_sum   'Mg14 Co1 Sn1 O16'
_cell_volume   324.75324725
_cell_formula_units_Z   1
loop_
 _symmetry_equiv_pos_site_id
 _symmetry_equiv_pos_as_xyz
  1  'x, y, z'
loop_
 _atom_site_type_symbol
 _atom_site_label
 _atom_site_symmetry_multiplicity
 _atom_site_fract_x
 _atom_site_fract_y
 _atom_site_fract_z
 _atom_site_occupancy
  Mg  Mg0  1  0.50000000  -0.00000000  0.00000000  1
  Mg  Mg1  1  0.50000000  0.50000000  0.00000000  1
  Mg  Mg2  1  -0.00000000  0.23440732  0.50000000  1
  Mg  Mg3  1  -0.00000000  0.76559268  0.50000000  1
  Mg  Mg4  1  0.50000000  0.24685287  0.50000000  1
  Mg  Mg5  1  0.50000000  0.75314713  0.50000000  1
  Mg  Mg6  1  0.24892036  -0.00000000  0.50000000  1
  Mg  Mg7  1  0.26081482  0.50000000  0.50000000  1
  Mg  Mg8  1  0.75107964  -0.00000000  0.50000000  1
  Mg  Mg9  1  0.73918518  0.50000000  0.50000000  1
  Mg  Mg10  1  0.25342241  0.24107124  -0.00000000  1
  Mg  Mg11  1  0.25342241  0.75892876  0.00000000  1
  Mg  Mg12  1  0.74657759  0.24107124  0.00000000  1
  Mg  Mg13  1  0.74657759  0.75892876  0.00000000  1
  Co  Co14  1  -0.00000000  -0.00000000  0.00000000  1
  Sn  Sn15  1  -0.00000000  0.50000000  0.00000000  1
  O  O16  1  0.26293802  -0.00000000  0.00000000  1
  O  O17  1  0.26488889  0.50000000  0.00000000  1
  O  O18  1  0.73706198  -0.00000000  0.00000000  1
  O  O19  1  0.73511111  0.50000000  -0.00000000  1
  O  O20  1  0.24874180  0.25076894  0.50000000  1
  O  O21  1  0.24874180  0.74923106  0.50000000  1
  O  O22  1  0.75125820  0.25076894  0.50000000  1
  O  O23  1  0.75125820  0.74923106  0.50000000  1
  O  O24  1  -0.00000000  -0.00000000  0.50000000  1
  O  O25  1  -0.00000000  0.50000000  0.50000000  1
  O  O26  1  0.50000000  -0.00000000  0.50000000  1
  O  O27  1  0.50000000  0.50000000  0.50000000  1
  O  O28  1  -0.00000000  0.24405195  0.00000000  1
  O  O29  1  -0.00000000  0.75594805  0.00000000  1
  O  O30  1  0.50000000  0.24984433  -0.00000000  1
  O  O31  1  0.50000000  0.75015567  0.00000000  1
