# generated using pymatgen
data_Nd15(B3C10)2
_symmetry_space_group_name_H-M   'P 1'
_cell_length_a   8.38793155
_cell_length_b   8.44871214
_cell_length_c   9.23298816
_cell_angle_alpha   84.41093769
_cell_angle_beta   84.76298595
_cell_angle_gamma   89.45672547
_symmetry_Int_Tables_number   1
_chemical_formula_structural   Nd15(B3C10)2
_chemical_formula_sum   'Nd15 B6 C20'
_cell_volume   648.48710126
_cell_formula_units_Z   1
loop_
 _symmetry_equiv_pos_site_id
 _symmetry_equiv_pos_as_xyz
  1  'x, y, z'
loop_
 _atom_site_type_symbol
 _atom_site_label
 _atom_site_symmetry_multiplicity
 _atom_site_fract_x
 _atom_site_fract_y
 _atom_site_fract_z
 _atom_site_occupancy
  Nd  Nd0  1  0.80465546  0.40599710  0.92661717  1
  Nd  Nd1  1  0.19534454  0.59400290  0.07338283  1
  Nd  Nd2  1  0.93476641  0.13905597  0.63907765  1
  Nd  Nd3  1  0.06523359  0.86094403  0.36092235  1
  Nd  Nd4  1  0.54201770  0.34279539  0.63909212  1
  Nd  Nd5  1  0.45798230  0.65720461  0.36090788  1
  Nd  Nd6  1  0.25879401  0.27229654  0.36801938  1
  Nd  Nd7  1  0.74120599  0.72770346  0.63198062  1
  Nd  Nd8  1  0.40348575  0.19793309  0.00802752  1
  Nd  Nd9  1  0.59651425  0.80206691  0.99197248  1
  Nd  Nd10  1  0.13240551  0.53144060  0.64291055  1
  Nd  Nd11  1  0.86759449  0.46855940  0.35708945  1
  Nd  Nd12  1  0.00000000  -0.00000000  -0.00000000  1
  Nd  Nd13  1  0.67070101  0.06659698  0.34972401  1
  Nd  Nd14  1  0.32929899  0.93340302  0.65027599  1
  B  B15  1  0.18823228  0.22971156  0.79289673  1
  B  B16  1  0.81176772  0.77028844  0.20710327  1
  B  B17  1  0.44793106  0.60799568  0.79196629  1
  B  B18  1  0.55206894  0.39200432  0.20803371  1
  B  B19  1  0.99643187  0.20164450  0.21378738  1
  B  B20  1  0.00356813  0.79835550  0.78621262  1
  C  C21  1  0.16673243  0.56320444  0.35305228  1
  C  C22  1  0.83326757  0.43679556  0.64694772  1
  C  C23  1  0.11532307  0.29512377  0.92705945  1
  C  C24  1  0.88467693  0.70487623  0.07294055  1
  C  C25  1  0.56611122  0.35995954  0.36525383  1
  C  C26  1  0.43388878  0.64004046  0.63474617  1
  C  C27  1  0.30624140  0.89481127  0.10152885  1
  C  C28  1  0.69375860  0.10518873  0.89847115  1
  C  C29  1  0.07408225  0.28476155  0.07727598  1
  C  C30  1  0.92591775  0.71523845  0.92272402  1
  C  C31  1  0.35270669  0.94202020  0.22934106  1
  C  C32  1  0.64729331  0.05797980  0.77065894  1
  C  C33  1  0.96258452  0.16814893  0.37135934  1
  C  C34  1  0.03741548  0.83185107  0.62864066  1
  C  C35  1  0.49436203  0.51325269  0.92475821  1
  C  C36  1  0.50563797  0.48674731  0.07524179  1
  C  C37  1  0.23799687  0.23575437  0.63572187  1
  C  C38  1  0.76200313  0.76424563  0.36427813  1
  C  C39  1  0.36720822  0.96482054  0.36914685  1
  C  C40  1  0.63279178  0.03517946  0.63085315  1
