# generated using pymatgen
data_NiRuS4
_symmetry_space_group_name_H-M   'P 1'
_cell_length_a   5.65563889
_cell_length_b   5.67486249
_cell_length_c   5.59467530
_cell_angle_alpha   90.64261350
_cell_angle_beta   90.00000000
_cell_angle_gamma   90.00000000
_symmetry_Int_Tables_number   1
_chemical_formula_structural   NiRuS4
_chemical_formula_sum   'Ni2 Ru2 S8'
_cell_volume   179.54965919
_cell_formula_units_Z   2
loop_
 _symmetry_equiv_pos_site_id
 _symmetry_equiv_pos_as_xyz
  1  'x, y, z'
loop_
 _atom_site_type_symbol
 _atom_site_label
 _atom_site_symmetry_multiplicity
 _atom_site_fract_x
 _atom_site_fract_y
 _atom_site_fract_z
 _atom_site_occupancy
  Ni  Ni0  1  0.50000000  -0.00000000  0.50000000  1
  Ni  Ni1  1  0.00000000  0.50000000  0.50000000  1
  Ru  Ru2  1  0.50000000  0.50000000  -0.00000000  1
  Ru  Ru3  1  0.00000000  -0.00000000  -0.00000000  1
  S  S4  1  0.88901943  0.38854277  0.11046380  1
  S  S5  1  0.38901943  0.11145723  0.88953620  1
  S  S6  1  0.10991035  0.89553353  0.39184680  1
  S  S7  1  0.60991035  0.60446647  0.60815320  1
  S  S8  1  0.11098057  0.61145723  0.88953620  1
  S  S9  1  0.61098057  0.88854277  0.11046380  1
  S  S10  1  0.89008965  0.10446647  0.60815320  1
  S  S11  1  0.39008965  0.39553353  0.39184680  1
