# generated using pymatgen
data_NaAlSiO4
_symmetry_space_group_name_H-M   'P 1'
_cell_length_a   9.28339093
_cell_length_b   9.28339093
_cell_length_c   9.28339093
_cell_angle_alpha   90.20205760
_cell_angle_beta   89.79794240
_cell_angle_gamma   89.79794240
_symmetry_Int_Tables_number   1
_chemical_formula_structural   NaAlSiO4
_chemical_formula_sum   'Na6 Al6 Si6 O24'
_cell_volume   800.04017756
_cell_formula_units_Z   6
loop_
 _symmetry_equiv_pos_site_id
 _symmetry_equiv_pos_as_xyz
  1  'x, y, z'
loop_
 _atom_site_type_symbol
 _atom_site_label
 _atom_site_symmetry_multiplicity
 _atom_site_fract_x
 _atom_site_fract_y
 _atom_site_fract_z
 _atom_site_occupancy
  Na  Na0  1  0.25478735  0.26101931  0.74118613  1
  Na  Na1  1  0.25881387  0.74521265  0.26101931  1
  Na  Na2  1  0.73898069  0.74118613  0.74521265  1
  Na  Na3  1  0.75478735  0.24118613  0.76101931  1
  Na  Na4  1  0.75881387  0.76101931  0.24521265  1
  Na  Na5  1  0.23898069  0.24521265  0.24118613  1
  Al  Al6  1  0.99523721  0.24850096  0.49541645  1
  Al  Al7  1  0.75149904  0.49541645  0.00476279  1
  Al  Al8  1  0.50458355  0.00476279  0.24850096  1
  Al  Al9  1  0.25149904  0.50476279  0.99541645  1
  Al  Al10  1  0.49523721  0.99541645  0.74850096  1
  Al  Al11  1  0.00458355  0.74850096  0.50476279  1
  Si  Si12  1  0.49789839  0.24983341  0.99670082  1
  Si  Si13  1  0.75016659  0.99670082  0.50210161  1
  Si  Si14  1  0.00329918  0.50210161  0.24983341  1
  Si  Si15  1  0.25016659  0.00210161  0.49670082  1
  Si  Si16  1  0.99789839  0.49670082  0.74983341  1
  Si  Si17  1  0.50329918  0.74983341  0.00210161  1
  O  O18  1  0.99169385  0.35541429  0.34212027  1
  O  O19  1  0.64458571  0.34212027  0.00830615  1
  O  O20  1  0.65787973  0.00830615  0.35541429  1
  O  O21  1  0.01454811  0.34880273  0.65412818  1
  O  O22  1  0.35079765  0.34521699  0.97350566  1
  O  O23  1  0.34436130  0.03002494  0.64245371  1
  O  O24  1  0.02649434  0.64920235  0.34521699  1
  O  O25  1  0.35754629  0.65563870  0.03002494  1
  O  O26  1  0.34587182  0.98545189  0.34880273  1
  O  O27  1  0.96997506  0.64245371  0.65563870  1
  O  O28  1  0.65119727  0.65412818  0.98545189  1
  O  O29  1  0.65478301  0.97350566  0.64920235  1
  O  O30  1  0.85079765  0.47350566  0.84521699  1
  O  O31  1  0.84436130  0.14245371  0.53002494  1
  O  O32  1  0.51454811  0.15412818  0.84880273  1
  O  O33  1  0.85754629  0.53002494  0.15563870  1
  O  O34  1  0.84587182  0.84880273  0.48545189  1
  O  O35  1  0.52649434  0.84521699  0.14920235  1
  O  O36  1  0.14458571  0.50830615  0.84212027  1
  O  O37  1  0.15787973  0.85541429  0.50830615  1
  O  O38  1  0.49169385  0.84212027  0.85541429  1
  O  O39  1  0.15119727  0.48545189  0.15412818  1
  O  O40  1  0.15478301  0.14920235  0.47350566  1
  O  O41  1  0.46997506  0.15563870  0.14245371  1
