# generated using pymatgen
data_MnZn4S5
_symmetry_space_group_name_H-M   'P 1'
_cell_length_a   3.87457751
_cell_length_b   3.87457751
_cell_length_c   31.70936002
_cell_angle_alpha   90.00002200
_cell_angle_beta   89.99997800
_cell_angle_gamma   119.99553331
_symmetry_Int_Tables_number   1
_chemical_formula_structural   MnZn4S5
_chemical_formula_sum   'Mn2 Zn8 S10'
_cell_volume   412.27439374
_cell_formula_units_Z   2
loop_
 _symmetry_equiv_pos_site_id
 _symmetry_equiv_pos_as_xyz
  1  'x, y, z'
loop_
 _atom_site_type_symbol
 _atom_site_label
 _atom_site_symmetry_multiplicity
 _atom_site_fract_x
 _atom_site_fract_y
 _atom_site_fract_z
 _atom_site_occupancy
  Mn  Mn0  1  0.66667287  0.33332713  0.79978502  1
  Mn  Mn1  1  0.66667644  0.33332356  0.99980274  1
  Zn  Zn2  1  0.33332092  0.66667908  0.10022662  1
  Zn  Zn3  1  0.33332082  0.66667918  0.30004805  1
  Zn  Zn4  1  0.33332082  0.66667918  0.50004585  1
  Zn  Zn5  1  0.33332086  0.66667914  0.69980936  1
  Zn  Zn6  1  0.33332094  0.66667906  0.89999466  1
  Zn  Zn7  1  0.66668017  0.33331983  0.20005002  1
  Zn  Zn8  1  0.66668024  0.33331976  0.40004619  1
  Zn  Zn9  1  0.66668023  0.33331977  0.60004401  1
  S  S10  1  0.33332471  0.66667529  0.02624304  1
  S  S11  1  0.33332292  0.66667708  0.22515138  1
  S  S12  1  0.33332393  0.66667607  0.42514853  1
  S  S13  1  0.33332375  0.66667625  0.62507808  1
  S  S14  1  0.33332450  0.66667550  0.82615619  1
  S  S15  1  0.66667678  0.33332322  0.12517979  1
  S  S16  1  0.66667706  0.33332294  0.32514796  1
  S  S17  1  0.66667739  0.33332261  0.52514911  1
  S  S18  1  0.66667776  0.33332224  0.72443650  1
  S  S19  1  0.66667689  0.33332311  0.92445691  1
