# generated using pymatgen
data_LiCoAsO4
_symmetry_space_group_name_H-M   'P 1'
_cell_length_a   5.88104681
_cell_length_b   5.81127591
_cell_length_c   5.94562953
_cell_angle_alpha   90.00000000
_cell_angle_beta   59.63606511
_cell_angle_gamma   119.60832224
_symmetry_Int_Tables_number   1
_chemical_formula_structural   LiCoAsO4
_chemical_formula_sum   'Li2 Co2 As2 O8'
_cell_volume   143.73816866
_cell_formula_units_Z   2
loop_
 _symmetry_equiv_pos_site_id
 _symmetry_equiv_pos_as_xyz
  1  'x, y, z'
loop_
 _atom_site_type_symbol
 _atom_site_label
 _atom_site_symmetry_multiplicity
 _atom_site_fract_x
 _atom_site_fract_y
 _atom_site_fract_z
 _atom_site_occupancy
  Li  Li0  1  0.50000000  -0.00000000  0.50000000  1
  Li  Li1  1  0.50000000  0.50000000  0.50000000  1
  Co  Co2  1  -0.00000000  0.50000000  0.00000000  1
  Co  Co3  1  -0.00000000  0.50000000  0.50000000  1
  As  As4  1  0.26016596  0.13008298  0.11991702  1
  As  As5  1  0.73983404  0.86991702  0.88008298  1
  O  O6  1  0.00744764  0.76065516  0.24627618  1
  O  O7  1  0.00744764  0.24679248  0.24627618  1
  O  O8  1  0.49056915  0.24528457  0.76345129  1
  O  O9  1  0.49056915  0.24528457  0.24597956  1
  O  O10  1  0.99255236  0.23934484  0.75372382  1
  O  O11  1  0.99255236  0.75320752  0.75372382  1
  O  O12  1  0.50943085  0.75471543  0.23654871  1
  O  O13  1  0.50943085  0.75471543  0.75402044  1
