# generated using pymatgen
data_Nd6Ga3Fe11
_symmetry_space_group_name_H-M   'P 1'
_cell_length_a   8.12447149
_cell_length_b   8.12447149
_cell_length_c   13.06281725
_cell_angle_alpha   71.88188343
_cell_angle_beta   71.88188343
_cell_angle_gamma   90.00000000
_symmetry_Int_Tables_number   1
_chemical_formula_structural   Nd6Ga3Fe11
_chemical_formula_sum   'Nd12 Ga6 Fe22'
_cell_volume   774.37728725
_cell_formula_units_Z   2
loop_
 _symmetry_equiv_pos_site_id
 _symmetry_equiv_pos_as_xyz
  1  'x, y, z'
loop_
 _atom_site_type_symbol
 _atom_site_label
 _atom_site_symmetry_multiplicity
 _atom_site_fract_x
 _atom_site_fract_y
 _atom_site_fract_z
 _atom_site_occupancy
  Nd  Nd0  1  0.35342022  0.85342022  0.62839828  1
  Nd  Nd1  1  0.01818149  0.51818149  0.62839828  1
  Nd  Nd2  1  0.51818149  0.35342022  0.62839828  1
  Nd  Nd3  1  0.85342022  0.01818149  0.62839828  1
  Nd  Nd4  1  0.64144337  0.14144337  0.37781879  1
  Nd  Nd5  1  0.98073784  0.48073784  0.37781879  1
  Nd  Nd6  1  0.48073784  0.64144337  0.37781879  1
  Nd  Nd7  1  0.14144337  0.98073784  0.37781879  1
  Nd  Nd8  1  0.39471306  0.39471306  0.21057389  1
  Nd  Nd9  1  0.89471306  0.89471306  0.21057389  1
  Nd  Nd10  1  0.60533381  0.60533381  0.78933237  1
  Nd  Nd11  1  0.10533381  0.10533381  0.78933237  1
  Ga  Ga12  1  0.75036250  0.75036250  0.49927499  1
  Ga  Ga13  1  0.25036250  0.25036250  0.49927499  1
  Ga  Ga14  1  0.52553708  0.02553708  0.19074712  1
  Ga  Ga15  1  0.28371580  0.78371580  0.19074712  1
  Ga  Ga16  1  0.78371580  0.52553708  0.19074712  1
  Ga  Ga17  1  0.02553708  0.28371580  0.19074712  1
  Fe  Fe18  1  0.23737928  0.73737928  0.88210914  1
  Fe  Fe19  1  0.88051158  0.38051158  0.88210914  1
  Fe  Fe20  1  0.38051158  0.23737928  0.88210914  1
  Fe  Fe21  1  0.73737928  0.88051158  0.88210914  1
  Fe  Fe22  1  0.76903026  0.26903026  0.11201245  1
  Fe  Fe23  1  0.11895729  0.61895729  0.11201245  1
  Fe  Fe24  1  0.61895729  0.76903026  0.11201245  1
  Fe  Fe25  1  0.26903026  0.11895729  0.11201245  1
  Fe  Fe26  1  0.71109738  0.56886710  0.99868523  1
  Fe  Fe27  1  0.29021739  0.43244768  0.99868523  1
  Fe  Fe28  1  0.79021739  0.06886710  0.99868523  1
  Fe  Fe29  1  0.21109738  0.93244768  0.99868523  1
  Fe  Fe30  1  0.56886710  0.29021739  0.99868523  1
  Fe  Fe31  1  0.43244768  0.71109738  0.99868523  1
  Fe  Fe32  1  0.06886710  0.21109738  0.99868523  1
  Fe  Fe33  1  0.93244768  0.79021739  0.99868523  1
  Fe  Fe34  1  0.00050731  0.50050731  0.99898538  1
  Fe  Fe35  1  0.50050731  0.00050731  0.99898538  1
  Fe  Fe36  1  0.47975374  0.97975374  0.81246044  1
  Fe  Fe37  1  0.70778582  0.20778582  0.81246044  1
  Fe  Fe38  1  0.20778582  0.47975374  0.81246044  1
  Fe  Fe39  1  0.97975374  0.70778582  0.81246044  1
