# generated using pymatgen
data_Na2UI6
_symmetry_space_group_name_H-M   'P 1'
_cell_length_a   7.91870630
_cell_length_b   7.91870630
_cell_length_c   8.62888698
_cell_angle_alpha   89.99999988
_cell_angle_beta   117.31284201
_cell_angle_gamma   60.00000467
_symmetry_Int_Tables_number   1
_chemical_formula_structural   Na2UI6
_chemical_formula_sum   'Na2 U1 I6'
_cell_volume   397.41297441
_cell_formula_units_Z   1
loop_
 _symmetry_equiv_pos_site_id
 _symmetry_equiv_pos_as_xyz
  1  'x, y, z'
loop_
 _atom_site_type_symbol
 _atom_site_label
 _atom_site_symmetry_multiplicity
 _atom_site_fract_x
 _atom_site_fract_y
 _atom_site_fract_z
 _atom_site_occupancy
  Na  Na0  1  0.99690980  0.50154510  0.49536470  1
  Na  Na1  1  0.36276508  0.31861746  0.04414762  1
  U  U2  1  0.99752125  0.00123938  0.99628187  1
  I  I3  1  0.47521426  0.90695292  0.24503239  1
  I  I4  1  0.15198531  0.61783281  0.24503239  1
  I  I5  1  0.86286520  0.23018187  0.24503239  1
  I  I6  1  0.52207408  0.09460061  0.76136955  1
  I  I7  1  0.85597016  0.38332531  0.76136955  1
  I  I8  1  0.14469486  0.76070453  0.76136955  1
