# generated using pymatgen
data_Mg6Sn2Ge
_symmetry_space_group_name_H-M   'P 1'
_cell_length_a   4.73145536
_cell_length_b   4.73145536
_cell_length_c   11.52025541
_cell_angle_alpha   90.00000000
_cell_angle_beta   90.00000000
_cell_angle_gamma   120.00000000
_symmetry_Int_Tables_number   1
_chemical_formula_structural   Mg6Sn2Ge
_chemical_formula_sum   'Mg6 Sn2 Ge1'
_cell_volume   223.34808507
_cell_formula_units_Z   1
loop_
 _symmetry_equiv_pos_site_id
 _symmetry_equiv_pos_as_xyz
  1  'x, y, z'
loop_
 _atom_site_type_symbol
 _atom_site_label
 _atom_site_symmetry_multiplicity
 _atom_site_fract_x
 _atom_site_fract_y
 _atom_site_fract_z
 _atom_site_occupancy
  Mg  Mg0  1  -0.00000000  0.00000000  0.75621838  1
  Mg  Mg1  1  0.66666700  0.33333300  0.07815062  1
  Mg  Mg2  1  0.33333300  0.66666700  0.41600745  1
  Mg  Mg3  1  0.33333300  0.66666700  0.92184938  1
  Mg  Mg4  1  0.00000000  -0.00000000  0.24378162  1
  Mg  Mg5  1  0.66666700  0.33333300  0.58399255  1
  Sn  Sn6  1  0.66666700  0.33333300  0.33167158  1
  Sn  Sn7  1  0.33333300  0.66666700  0.66832842  1
  Ge  Ge8  1  0.00000000  -0.00000000  0.00000000  1
