# generated using pymatgen
data_LiY9(Si3O13)2
_symmetry_space_group_name_H-M   'P 1'
_cell_length_a   6.78190565
_cell_length_b   9.45472229
_cell_length_c   9.45479575
_cell_angle_alpha   60.00033238
_cell_angle_beta   90.00017208
_cell_angle_gamma   90.00006062
_symmetry_Int_Tables_number   1
_chemical_formula_structural   LiY9(Si3O13)2
_chemical_formula_sum   'Li1 Y9 Si6 O26'
_cell_volume   525.03077196
_cell_formula_units_Z   1
loop_
 _symmetry_equiv_pos_site_id
 _symmetry_equiv_pos_as_xyz
  1  'x, y, z'
loop_
 _atom_site_type_symbol
 _atom_site_label
 _atom_site_symmetry_multiplicity
 _atom_site_fract_x
 _atom_site_fract_y
 _atom_site_fract_z
 _atom_site_occupancy
  Li  Li0  1  0.97603049  0.66661450  0.66669293  1
  Y  Y1  1  0.75063124  0.99834247  0.76448013  1
  Y  Y2  1  0.75062771  0.23717445  0.99833921  1
  Y  Y3  1  0.75062812  0.76448388  0.23717335  1
  Y  Y4  1  0.24804543  0.99738381  0.23536646  1
  Y  Y5  1  0.24804601  0.76725188  0.99738462  1
  Y  Y6  1  0.24804710  0.23536296  0.76725407  1
  Y  Y7  1  0.49729959  0.33333277  0.33333379  1
  Y  Y8  1  0.00105257  0.33333034  0.33333559  1
  Y  Y9  1  0.50075059  0.66667637  0.66666154  1
  Si  Si10  1  0.74864632  0.37243361  0.60169037  1
  Si  Si11  1  0.74864060  0.02587433  0.37243146  1
  Si  Si12  1  0.74864353  0.60168950  0.02587977  1
  Si  Si13  1  0.24892634  0.62663064  0.40302396  1
  Si  Si14  1  0.24893054  0.97034919  0.62662932  1
  Si  Si15  1  0.24893161  0.40302763  0.97034472  1
  O  O16  1  0.55763298  0.24714756  0.65519835  1
  O  O17  1  0.55763164  0.09765763  0.24713892  1
  O  O18  1  0.55763201  0.65519751  0.09765737  1
  O  O19  1  0.06478320  0.75489373  0.32239230  1
  O  O20  1  0.06478878  0.92272604  0.75488915  1
  O  O21  1  0.06478796  0.32238927  0.92271908  1
  O  O22  1  0.44220772  0.74950432  0.33971459  1
  O  O23  1  0.44220847  0.91079116  0.74950435  1
  O  O24  1  0.44221022  0.33971535  0.91078097  1
  O  O25  1  0.94192658  0.25083593  0.65555227  1
  O  O26  1  0.94192416  0.09360353  0.25083548  1
  O  O27  1  0.94192521  0.65555646  0.09360793  1
  O  O28  1  0.74515850  0.48505795  0.68522212  1
  O  O29  1  0.74514164  0.82972826  0.48505881  1
  O  O30  1  0.74514705  0.68521929  0.82972627  1
  O  O31  1  0.24901308  0.50308564  0.32796731  1
  O  O32  1  0.24901416  0.16894972  0.50307791  1
  O  O33  1  0.24901416  0.32797102  0.16894442  1
  O  O34  1  0.74965061  0.47049476  0.39915338  1
  O  O35  1  0.74964736  0.13036020  0.47048666  1
  O  O36  1  0.74965113  0.39914939  0.13035825  1
  O  O37  1  0.25897953  0.52458992  0.60175671  1
  O  O38  1  0.25900003  0.87365881  0.52458702  1
  O  O39  1  0.25898147  0.60175983  0.87365059  1
  O  O40  1  0.75075273  0.99999878  0.99999625  1
  O  O41  1  0.25731183  0.99999960  0.00000227  1
