# generated using pymatgen
data_LaCeCo10
_symmetry_space_group_name_H-M   'P 1'
_cell_length_a   4.00201886
_cell_length_b   4.92733918
_cell_length_c   8.55130847
_cell_angle_alpha   90.00000073
_cell_angle_beta   90.00000000
_cell_angle_gamma   90.00000000
_symmetry_Int_Tables_number   1
_chemical_formula_structural   LaCeCo10
_chemical_formula_sum   'La1 Ce1 Co10'
_cell_volume   168.62585431
_cell_formula_units_Z   1
loop_
 _symmetry_equiv_pos_site_id
 _symmetry_equiv_pos_as_xyz
  1  'x, y, z'
loop_
 _atom_site_type_symbol
 _atom_site_label
 _atom_site_symmetry_multiplicity
 _atom_site_fract_x
 _atom_site_fract_y
 _atom_site_fract_z
 _atom_site_occupancy
  La  La0  1  -0.00000000  0.49998290  0.50000000  1
  Ce  Ce1  1  -0.00000000  0.99992847  0.00000000  1
  Co  Co2  1  -0.00000000  0.99999627  0.32012514  1
  Co  Co3  1  0.00000000  0.49998276  0.84372101  1
  Co  Co4  1  0.00000000  0.49998276  0.15627899  1
  Co  Co5  1  -0.00000000  0.99999627  0.67987486  1
  Co  Co6  1  0.50000000  0.49993851  -0.00000000  1
  Co  Co7  1  0.50000000  0.00004406  0.50000000  1
  Co  Co8  1  0.50000000  0.24969843  0.24701752  1
  Co  Co9  1  0.50000000  0.75027557  0.75297036  1
  Co  Co10  1  0.50000000  0.75027557  0.24702964  1
  Co  Co11  1  0.50000000  0.24969843  0.75298248  1
