# generated using pymatgen
data_La(Al5Cu)2
_symmetry_space_group_name_H-M   'P 1'
_cell_length_a   5.24685698
_cell_length_b   7.17270913
_cell_length_c   6.83232624
_cell_angle_alpha   98.07322652
_cell_angle_beta   112.57999024
_cell_angle_gamma   68.54617167
_symmetry_Int_Tables_number   1
_chemical_formula_structural   La(Al5Cu)2
_chemical_formula_sum   'La1 Al10 Cu2'
_cell_volume   220.96848853
_cell_formula_units_Z   1
loop_
 _symmetry_equiv_pos_site_id
 _symmetry_equiv_pos_as_xyz
  1  'x, y, z'
loop_
 _atom_site_type_symbol
 _atom_site_label
 _atom_site_symmetry_multiplicity
 _atom_site_fract_x
 _atom_site_fract_y
 _atom_site_fract_z
 _atom_site_occupancy
  La  La0  1  -0.00000000  0.00000000  0.00000000  1
  Al  Al1  1  0.64773166  0.36022262  0.65568595  1
  Al  Al2  1  0.35226834  0.63977738  0.34431405  1
  Al  Al3  1  0.99204571  0.36022262  0.34431405  1
  Al  Al4  1  0.00795429  0.63977738  0.65568595  1
  Al  Al5  1  0.72525463  0.76661697  0.21712623  1
  Al  Al6  1  0.27474537  0.23338303  0.78287377  1
  Al  Al7  1  0.50812840  0.76661697  0.78287377  1
  Al  Al8  1  0.49187160  0.23338303  0.21712623  1
  Al  Al9  1  0.50000000  0.00000000  0.50000000  1
  Al  Al10  1  -0.00000000  0.00000000  0.50000000  1
  Cu  Cu11  1  0.50000000  0.50000000  0.00000000  1
  Cu  Cu12  1  -0.00000000  0.50000000  0.00000000  1
