# generated using pymatgen
data_La4HoC10
_symmetry_space_group_name_H-M   'P 1'
_cell_length_a   4.27630966
_cell_length_b   4.27630966
_cell_length_c   13.90473793
_cell_angle_alpha   82.53758384
_cell_angle_beta   97.46241616
_cell_angle_gamma   81.06009059
_symmetry_Int_Tables_number   1
_chemical_formula_structural   La4HoC10
_chemical_formula_sum   'La4 Ho1 C10'
_cell_volume   246.11696764
_cell_formula_units_Z   1
loop_
 _symmetry_equiv_pos_site_id
 _symmetry_equiv_pos_as_xyz
  1  'x, y, z'
loop_
 _atom_site_type_symbol
 _atom_site_label
 _atom_site_symmetry_multiplicity
 _atom_site_fract_x
 _atom_site_fract_y
 _atom_site_fract_z
 _atom_site_occupancy
  La  La0  1  0.59894737  0.40105263  0.19789474  1
  La  La1  1  0.19955958  0.80044042  0.39911917  1
  La  La2  1  0.80044042  0.19955958  0.60088083  1
  La  La3  1  0.40105263  0.59894737  0.80210526  1
  Ho  Ho4  1  -0.00000000  0.00000000  -0.00000000  1
  C  C5  1  0.80511594  0.99551781  0.80959813  1
  C  C6  1  0.20017112  0.59998843  0.60018269  1
  C  C7  1  0.59998843  0.20017112  0.39981731  1
  C  C8  1  0.39962876  0.39962876  -0.00000000  1
  C  C9  1  0.99551781  0.80511594  0.19040187  1
  C  C10  1  0.40001157  0.79982888  0.60018269  1
  C  C11  1  0.79982888  0.40001157  0.39981731  1
  C  C12  1  0.19488406  0.00448219  0.19040187  1
  C  C13  1  0.00448219  0.19488406  0.80959813  1
  C  C14  1  0.60037124  0.60037124  -0.00000000  1
