# generated using pymatgen
data_La2Al3Ge
_symmetry_space_group_name_H-M   'P 1'
_cell_length_a   4.39747430
_cell_length_b   4.39768225
_cell_length_c   8.87610049
_cell_angle_alpha   90.00000000
_cell_angle_beta   90.00000000
_cell_angle_gamma   60.00284752
_symmetry_Int_Tables_number   1
_chemical_formula_structural   La2Al3Ge
_chemical_formula_sum   'La2 Al3 Ge1'
_cell_volume   148.65942865
_cell_formula_units_Z   1
loop_
 _symmetry_equiv_pos_site_id
 _symmetry_equiv_pos_as_xyz
  1  'x, y, z'
loop_
 _atom_site_type_symbol
 _atom_site_label
 _atom_site_symmetry_multiplicity
 _atom_site_fract_x
 _atom_site_fract_y
 _atom_site_fract_z
 _atom_site_occupancy
  La  La0  1  0.99997805  -0.00000150  0.00059008  1
  La  La1  1  0.99997805  -0.00000150  0.49940992  1
  Al  Al2  1  0.66661951  0.66668736  0.75000000  1
  Al  Al3  1  0.33329307  0.33331914  0.25000000  1
  Al  Al4  1  0.33329016  0.33331812  0.75000000  1
  Ge  Ge5  1  0.66664116  0.66667838  0.25000000  1
