# generated using pymatgen
data_Lu(CrFe5)2
_symmetry_space_group_name_H-M   'P 1'
_cell_length_a   4.67043366
_cell_length_b   6.34762367
_cell_length_c   6.34762367
_cell_angle_alpha   97.22667065
_cell_angle_beta   111.58544145
_cell_angle_gamma   68.41455855
_symmetry_Int_Tables_number   1
_chemical_formula_structural   Lu(CrFe5)2
_chemical_formula_sum   'Lu1 Cr2 Fe10'
_cell_volume   162.70374330
_cell_formula_units_Z   1
loop_
 _symmetry_equiv_pos_site_id
 _symmetry_equiv_pos_as_xyz
  1  'x, y, z'
loop_
 _atom_site_type_symbol
 _atom_site_label
 _atom_site_symmetry_multiplicity
 _atom_site_fract_x
 _atom_site_fract_y
 _atom_site_fract_z
 _atom_site_occupancy
  Lu  Lu0  1  0.00000000  -0.00000000  0.00000000  1
  Cr  Cr1  1  -0.00000000  0.36762902  0.36762902  1
  Cr  Cr2  1  0.00000000  0.63237098  0.63237098  1
  Fe  Fe3  1  0.72273334  0.77726666  0.22273334  1
  Fe  Fe4  1  0.27726666  0.22273334  0.77726666  1
  Fe  Fe5  1  0.50000000  0.77388563  0.77388563  1
  Fe  Fe6  1  0.50000000  0.22611437  0.22611437  1
  Fe  Fe7  1  0.50000000  -0.00000000  0.50000000  1
  Fe  Fe8  1  0.00000000  -0.00000000  0.50000000  1
  Fe  Fe9  1  0.50000000  0.50000000  0.00000000  1
  Fe  Fe10  1  0.00000000  0.50000000  0.00000000  1
  Fe  Fe11  1  0.64160175  0.35839825  0.64160175  1
  Fe  Fe12  1  0.35839825  0.64160175  0.35839825  1
