# generated using pymatgen
data_Li4GeS4
_symmetry_space_group_name_H-M   'P 1'
_cell_length_a   6.45861047
_cell_length_b   7.86855753
_cell_length_c   13.44115330
_cell_angle_alpha   90.00000000
_cell_angle_beta   90.00000000
_cell_angle_gamma   90.00000000
_symmetry_Int_Tables_number   1
_chemical_formula_structural   Li4GeS4
_chemical_formula_sum   'Li16 Ge4 S16'
_cell_volume   683.07871240
_cell_formula_units_Z   4
loop_
 _symmetry_equiv_pos_site_id
 _symmetry_equiv_pos_as_xyz
  1  'x, y, z'
loop_
 _atom_site_type_symbol
 _atom_site_label
 _atom_site_symmetry_multiplicity
 _atom_site_fract_x
 _atom_site_fract_y
 _atom_site_fract_z
 _atom_site_occupancy
  Li  Li0  1  0.16897572  0.50364665  0.34388935  1
  Li  Li1  1  0.35405816  0.00703729  0.84188612  1
  Li  Li2  1  0.83102428  0.00364665  0.65611065  1
  Li  Li3  1  0.64594184  0.50703729  0.15811388  1
  Li  Li4  1  0.85405816  0.50703729  0.65811388  1
  Li  Li5  1  0.66897572  0.00364665  0.15611065  1
  Li  Li6  1  0.14594184  0.00703729  0.34188612  1
  Li  Li7  1  0.33102428  0.50364665  0.84388935  1
  Li  Li8  1  0.35036839  0.24707807  0.06721763  1
  Li  Li9  1  0.14963161  0.24707807  0.56721763  1
  Li  Li10  1  0.64963161  0.74707807  0.93278237  1
  Li  Li11  1  0.85036839  0.74707807  0.43278237  1
  Li  Li12  1  0.48721550  0.78929572  0.29782824  1
  Li  Li13  1  0.51278450  0.28929572  0.70217176  1
  Li  Li14  1  0.98721550  0.28929572  0.20217176  1
  Li  Li15  1  0.01278450  0.78929572  0.79782824  1
  Ge  Ge16  1  0.15072331  0.75033370  0.08986954  1
  Ge  Ge17  1  0.34927669  0.75033370  0.58986954  1
  Ge  Ge18  1  0.84927669  0.25033370  0.91013046  1
  Ge  Ge19  1  0.65072331  0.25033370  0.41013046  1
  S  S20  1  0.28440327  0.97570080  0.17241066  1
  S  S21  1  0.22796818  0.51664952  0.66909132  1
  S  S22  1  0.71559673  0.47570080  0.82758934  1
  S  S23  1  0.77203182  0.01664952  0.33090868  1
  S  S24  1  0.72796818  0.01664952  0.83090868  1
  S  S25  1  0.78440327  0.47570080  0.32758934  1
  S  S26  1  0.27203182  0.51664952  0.16909132  1
  S  S27  1  0.21559673  0.97570080  0.67241066  1
  S  S28  1  0.30755000  0.25164374  0.40681749  1
  S  S29  1  0.19245000  0.25164374  0.90681749  1
  S  S30  1  0.69245000  0.75164374  0.59318251  1
  S  S31  1  0.80755000  0.75164374  0.09318251  1
  S  S32  1  0.23341170  0.75561452  0.43272270  1
  S  S33  1  0.26658830  0.75561452  0.93272270  1
  S  S34  1  0.76658830  0.25561452  0.56727730  1
  S  S35  1  0.73341170  0.25561452  0.06727730  1
