# generated using pymatgen
data_La6ZnSb15
_symmetry_space_group_name_H-M   'P 1'
_cell_length_a   4.56506061
_cell_length_b   12.43175340
_cell_length_c   12.43175340
_cell_angle_alpha   80.01121242
_cell_angle_beta   100.69727024
_cell_angle_gamma   79.30272976
_symmetry_Int_Tables_number   1
_chemical_formula_structural   La6ZnSb15
_chemical_formula_sum   'La6 Zn1 Sb15'
_cell_volume   665.23436396
_cell_formula_units_Z   1
loop_
 _symmetry_equiv_pos_site_id
 _symmetry_equiv_pos_as_xyz
  1  'x, y, z'
loop_
 _atom_site_type_symbol
 _atom_site_label
 _atom_site_symmetry_multiplicity
 _atom_site_fract_x
 _atom_site_fract_y
 _atom_site_fract_z
 _atom_site_occupancy
  La  La0  1  0.03228272  0.73035860  0.00034903  1
  La  La1  1  0.76347964  0.27270663  0.99572163  1
  La  La2  1  0.76347964  0.00427837  0.72729337  1
  La  La3  1  0.03228272  0.99965097  0.26964140  1
  La  La4  1  0.89789200  0.66924104  0.67323362  1
  La  La5  1  0.89789200  0.32676638  0.33075896  1
  Zn  Zn6  1  0.17589007  0.74388670  0.25611330  1
  Sb  Sb7  1  0.10692021  0.48663891  0.91610600  1
  Sb  Sb8  1  0.67863340  0.51435119  0.08013424  1
  Sb  Sb9  1  0.67863340  0.91986576  0.48564881  1
  Sb  Sb10  1  0.10692021  0.08389400  0.51336109  1
  Sb  Sb11  1  0.80508169  0.59278327  0.40721673  1
  Sb  Sb12  1  0.99188578  0.39730839  0.60269161  1
  Sb  Sb13  1  0.39564132  0.79950561  0.79612435  1
  Sb  Sb14  1  0.39564132  0.20387565  0.20049439  1
  Sb  Sb15  1  0.24815292  0.52912948  0.24473685  1
  Sb  Sb16  1  0.54470430  0.45812914  0.75310838  1
  Sb  Sb17  1  0.54470430  0.24689162  0.54187086  1
  Sb  Sb18  1  0.24815292  0.75526315  0.47087052  1
  Sb  Sb19  1  0.54199510  0.85502009  0.14497991  1
  Sb  Sb20  1  0.26263731  0.14560856  0.85439144  1
  Sb  Sb21  1  0.94319705  0.00584650  0.99415350  1
