# generated using pymatgen
data_HoMnAl
_symmetry_space_group_name_H-M   'P 1'
_cell_length_a   5.41722600
_cell_length_b   5.41722600
_cell_length_c   5.41722600
_cell_angle_alpha   88.65599684
_cell_angle_beta   61.06853218
_cell_angle_gamma   119.52358187
_symmetry_Int_Tables_number   1
_chemical_formula_structural   HoMnAl
_chemical_formula_sum   'Ho2 Mn2 Al2'
_cell_volume   113.68781294
_cell_formula_units_Z   2
loop_
 _symmetry_equiv_pos_site_id
 _symmetry_equiv_pos_as_xyz
  1  'x, y, z'
loop_
 _atom_site_type_symbol
 _atom_site_label
 _atom_site_symmetry_multiplicity
 _atom_site_fract_x
 _atom_site_fract_y
 _atom_site_fract_z
 _atom_site_occupancy
  Ho  Ho0  1  0.50000000  0.75491676  0.74508324  1
  Ho  Ho1  1  -0.00000000  0.99508324  0.00491676  1
  Mn  Mn2  1  0.25000000  0.87500000  0.37500000  1
  Mn  Mn3  1  0.75000000  0.37500000  0.37500000  1
  Al  Al4  1  0.75000000  0.37500000  0.87500000  1
  Al  Al5  1  0.25000000  0.37500000  0.37500000  1
