# generated using pymatgen
data_KOsNO3
_symmetry_space_group_name_H-M   'P 1'
_cell_length_a   5.81193038
_cell_length_b   5.81097333
_cell_length_c   7.85722939
_cell_angle_alpha   68.09891709
_cell_angle_beta   69.07255760
_cell_angle_gamma   90.01351445
_symmetry_Int_Tables_number   1
_chemical_formula_structural   KOsNO3
_chemical_formula_sum   'K2 Os2 N2 O6'
_cell_volume   227.22529326
_cell_formula_units_Z   2
loop_
 _symmetry_equiv_pos_site_id
 _symmetry_equiv_pos_as_xyz
  1  'x, y, z'
loop_
 _atom_site_type_symbol
 _atom_site_label
 _atom_site_symmetry_multiplicity
 _atom_site_fract_x
 _atom_site_fract_y
 _atom_site_fract_z
 _atom_site_occupancy
  K  K0  1  0.87522215  0.12495828  0.24951769  1
  K  K1  1  0.12300231  0.87526377  0.74950479  1
  Os  Os2  1  0.37578965  0.62518008  0.25170094  1
  Os  Os3  1  0.62451552  0.37215405  0.75162832  1
  N  N4  1  0.22915327  0.59913080  0.10527528  1
  N  N5  1  0.59786809  0.66480240  0.60520293  1
  O  O6  1  0.67465173  0.80432513  0.09763908  1
  O  O7  1  0.80325025  0.22697123  0.59773219  1
  O  O8  1  0.77943982  0.40876093  0.89839588  1
  O  O9  1  0.32134529  0.19999972  0.89746176  1
  O  O10  1  0.40207666  0.31946338  0.39898227  1
  O  O11  1  0.19368526  0.77899023  0.39695886  1
