# generated using pymatgen
data_La4Ga3FeO12
_symmetry_space_group_name_H-M   'P 1'
_cell_length_a   5.54619536
_cell_length_b   5.54742476
_cell_length_c   9.66798834
_cell_angle_alpha   73.62184138
_cell_angle_beta   90.58402987
_cell_angle_gamma   60.59421810
_symmetry_Int_Tables_number   1
_chemical_formula_structural   La4Ga3FeO12
_chemical_formula_sum   'La4 Ga3 Fe1 O12'
_cell_volume   244.65470303
_cell_formula_units_Z   1
loop_
 _symmetry_equiv_pos_site_id
 _symmetry_equiv_pos_as_xyz
  1  'x, y, z'
loop_
 _atom_site_type_symbol
 _atom_site_label
 _atom_site_symmetry_multiplicity
 _atom_site_fract_x
 _atom_site_fract_y
 _atom_site_fract_z
 _atom_site_occupancy
  La  La0  1  0.37564343  0.24919983  0.12514822  1
  La  La1  1  0.87468841  0.25091946  0.62497148  1
  La  La2  1  0.12531159  0.74908054  0.37502852  1
  La  La3  1  0.62435657  0.75080017  0.87485178  1
  Ga  Ga4  1  0.74929188  0.50100130  0.24952545  1
  Ga  Ga5  1  0.25070812  0.49899870  0.75047455  1
  Ga  Ga6  1  -0.00000000  0.00000000  -0.00000000  1
  Fe  Fe7  1  0.50000000  0.00000000  0.50000000  1
  O  O8  1  0.94505067  0.68097303  0.12481379  1
  O  O9  1  0.44299939  0.67896462  0.62614815  1
  O  O10  1  0.08702353  0.25283039  0.40796847  1
  O  O11  1  0.59174442  0.24883729  0.91039090  1
  O  O12  1  0.59189929  0.81733811  0.33952390  1
  O  O13  1  0.09056060  0.81959401  0.84037969  1
  O  O14  1  0.40825558  0.75116271  0.08960910  1
  O  O15  1  0.91297647  0.74716961  0.59203153  1
  O  O16  1  0.90943940  0.18040599  0.15962031  1
  O  O17  1  0.40810071  0.18266189  0.66047610  1
  O  O18  1  0.55700061  0.32103538  0.37385185  1
  O  O19  1  0.05494933  0.31902697  0.87518621  1
