# generated using pymatgen
data_In2GaAs3
_symmetry_space_group_name_H-M   'P 1'
_cell_length_a   4.28036848
_cell_length_b   9.55225268
_cell_length_c   4.28036848
_cell_angle_alpha   77.05296647
_cell_angle_beta   90.00000000
_cell_angle_gamma   77.05296647
_symmetry_Int_Tables_number   1
_chemical_formula_structural   In2GaAs3
_chemical_formula_sum   'In2 Ga1 As3'
_cell_volume   165.99444928
_cell_formula_units_Z   1
loop_
 _symmetry_equiv_pos_site_id
 _symmetry_equiv_pos_as_xyz
  1  'x, y, z'
loop_
 _atom_site_type_symbol
 _atom_site_label
 _atom_site_symmetry_multiplicity
 _atom_site_fract_x
 _atom_site_fract_y
 _atom_site_fract_z
 _atom_site_occupancy
  In  In0  1  0.33675534  0.32648831  0.33675534  1
  In  In1  1  0.66324466  0.67351169  0.66324466  1
  Ga  Ga2  1  0.00000000  -0.00000000  0.00000000  1
  As  As3  1  0.25000000  0.50000000  0.75000000  1
  As  As4  1  0.57547406  0.84905088  0.07547406  1
  As  As5  1  0.92452594  0.15094912  0.42452594  1
