# generated using pymatgen
data_KAl(SiO3)2
_symmetry_space_group_name_H-M   'P 1'
_cell_length_a   7.51776703
_cell_length_b   7.51776703
_cell_length_c   10.28342529
_cell_angle_alpha   90.00000000
_cell_angle_beta   90.00000000
_cell_angle_gamma   91.94666321
_symmetry_Int_Tables_number   1
_chemical_formula_structural   KAl(SiO3)2
_chemical_formula_sum   'K4 Al4 Si8 O24'
_cell_volume   580.85109408
_cell_formula_units_Z   4
loop_
 _symmetry_equiv_pos_site_id
 _symmetry_equiv_pos_as_xyz
  1  'x, y, z'
loop_
 _atom_site_type_symbol
 _atom_site_label
 _atom_site_symmetry_multiplicity
 _atom_site_fract_x
 _atom_site_fract_y
 _atom_site_fract_z
 _atom_site_occupancy
  K  K0  1  0.29647857  0.70352143  0.25000000  1
  K  K1  1  0.70352143  0.29647857  0.75000000  1
  K  K2  1  0.20369553  0.20369553  0.50000000  1
  K  K3  1  0.79630447  0.79630447  0.00000000  1
  Al  Al4  1  0.85710415  0.35803621  0.06451617  1
  Al  Al5  1  0.14289585  0.64196379  0.56451617  1
  Al  Al6  1  0.64196379  0.14289585  0.43548383  1
  Al  Al7  1  0.35803621  0.85710415  0.93548383  1
  Si  Si8  1  0.86291005  0.64140165  0.31451654  1
  Si  Si9  1  0.13708995  0.35859835  0.81451654  1
  Si  Si10  1  0.64140165  0.86291005  0.68548346  1
  Si  Si11  1  0.35859835  0.13708995  0.18548346  1
  Si  Si12  1  0.94443213  0.05556787  0.25000000  1
  Si  Si13  1  0.05556787  0.94443213  0.75000000  1
  Si  Si14  1  0.55773368  0.55773368  0.50000000  1
  Si  Si15  1  0.44226632  0.44226632  0.00000000  1
  O  O16  1  0.86426173  0.13518723  0.11657148  1
  O  O17  1  0.13573827  0.86481277  0.61657148  1
  O  O18  1  0.65391196  0.64032738  0.36639159  1
  O  O19  1  0.34608804  0.35967262  0.86639159  1
  O  O20  1  0.86481277  0.13573827  0.38342852  1
  O  O21  1  0.13518723  0.86426173  0.88342852  1
  O  O22  1  0.64032738  0.65391196  0.63360841  1
  O  O23  1  0.35967262  0.34608804  0.13360841  1
  O  O24  1  0.00473580  0.39373750  0.93408257  1
  O  O25  1  0.99526420  0.60626250  0.43408257  1
  O  O26  1  0.89085769  0.50745981  0.19318999  1
  O  O27  1  0.10914231  0.49254019  0.69318999  1
  O  O28  1  0.60626250  0.99526420  0.56591743  1
  O  O29  1  0.39373750  0.00473580  0.06591743  1
  O  O30  1  0.50745981  0.89085769  0.80681001  1
  O  O31  1  0.49254019  0.10914231  0.30681001  1
  O  O32  1  0.65278339  0.40670006  0.98905866  1
  O  O33  1  0.34721661  0.59329994  0.48905866  1
  O  O34  1  0.90897987  0.83789346  0.24674272  1
  O  O35  1  0.09102013  0.16210654  0.74674272  1
  O  O36  1  0.59329994  0.34721661  0.51094134  1
  O  O37  1  0.40670006  0.65278339  0.01094134  1
  O  O38  1  0.83789346  0.90897987  0.75325728  1
  O  O39  1  0.16210654  0.09102013  0.25325728  1
