# generated using pymatgen
data_InTe5Pb4
_symmetry_space_group_name_H-M   'P 1'
_cell_length_a   4.58838065
_cell_length_b   4.58838064
_cell_length_c   19.04671051
_cell_angle_alpha   83.08188593
_cell_angle_beta   90.00000000
_cell_angle_gamma   119.99999995
_symmetry_Int_Tables_number   1
_chemical_formula_structural   InTe5Pb4
_chemical_formula_sum   'In1 Te5 Pb4'
_cell_volume   343.89647687
_cell_formula_units_Z   1
loop_
 _symmetry_equiv_pos_site_id
 _symmetry_equiv_pos_as_xyz
  1  'x, y, z'
loop_
 _atom_site_type_symbol
 _atom_site_label
 _atom_site_symmetry_multiplicity
 _atom_site_fract_x
 _atom_site_fract_y
 _atom_site_fract_z
 _atom_site_occupancy
  In  In0  1  -0.00000000  -0.00000000  0.00000000  1
  Te  Te1  1  0.69994982  0.39989965  0.90015053  1
  Te  Te2  1  0.50000000  -0.00000000  0.50000000  1
  Te  Te3  1  0.10026006  0.20052011  0.69921983  1
  Te  Te4  1  0.30005018  0.60010035  0.09984947  1
  Te  Te5  1  0.89973994  0.79947989  0.30078017  1
  Pb  Pb6  1  0.60143755  0.20287511  0.19568734  1
  Pb  Pb7  1  0.20023449  0.40046898  0.39929652  1
  Pb  Pb8  1  0.79976551  0.59953102  0.60070348  1
  Pb  Pb9  1  0.39856245  0.79712489  0.80431266  1
