# generated using pymatgen
data_KIn(MoSe)6
_symmetry_space_group_name_H-M   'P 1'
_cell_length_a   4.52223415
_cell_length_b   9.58352534
_cell_length_c   9.63479492
_cell_angle_alpha   60.01539296
_cell_angle_beta   90.00000000
_cell_angle_gamma   90.00000000
_symmetry_Int_Tables_number   1
_chemical_formula_structural   KIn(MoSe)6
_chemical_formula_sum   'K1 In1 Mo6 Se6'
_cell_volume   361.67524945
_cell_formula_units_Z   1
loop_
 _symmetry_equiv_pos_site_id
 _symmetry_equiv_pos_as_xyz
  1  'x, y, z'
loop_
 _atom_site_type_symbol
 _atom_site_label
 _atom_site_symmetry_multiplicity
 _atom_site_fract_x
 _atom_site_fract_y
 _atom_site_fract_z
 _atom_site_occupancy
  K  K0  1  0.75000000  0.66746844  0.66667603  1
  In  In1  1  0.25000000  0.33282247  0.33317243  1
  Mo  Mo2  1  0.75000000  0.00764107  0.83608859  1
  Mo  Mo3  1  0.75000000  0.15646530  0.00749509  1
  Mo  Mo4  1  0.75000000  0.83622235  0.15685526  1
  Mo  Mo5  1  0.25000000  0.99267853  0.16392277  1
  Mo  Mo6  1  0.25000000  0.84330159  0.99275814  1
  Mo  Mo7  1  0.25000000  0.16360859  0.84292959  1
  Se  Se8  1  0.75000000  0.68770843  0.99010736  1
  Se  Se9  1  0.75000000  0.32213194  0.68856835  1
  Se  Se10  1  0.75000000  0.98981805  0.32145074  1
  Se  Se11  1  0.25000000  0.31062967  0.01590739  1
  Se  Se12  1  0.25000000  0.67352150  0.30969726  1
  Se  Se13  1  0.25000000  0.01598206  0.67437101  1
