# generated using pymatgen
data_GaMo4(SeS)4
_symmetry_space_group_name_H-M   'P 1'
_cell_length_a   7.19291887
_cell_length_b   7.19291887
_cell_length_c   7.19291887
_cell_angle_alpha   90.00000000
_cell_angle_beta   60.00000000
_cell_angle_gamma   120.00000000
_symmetry_Int_Tables_number   1
_chemical_formula_structural   GaMo4(SeS)4
_chemical_formula_sum   'Ga1 Mo4 Se4 S4'
_cell_volume   263.14825101
_cell_formula_units_Z   1
loop_
 _symmetry_equiv_pos_site_id
 _symmetry_equiv_pos_as_xyz
  1  'x, y, z'
loop_
 _atom_site_type_symbol
 _atom_site_label
 _atom_site_symmetry_multiplicity
 _atom_site_fract_x
 _atom_site_fract_y
 _atom_site_fract_z
 _atom_site_occupancy
  Ga  Ga0  1  -0.00000000  0.00000000  0.00000000  1
  Mo  Mo1  1  0.19746136  0.59873068  0.20380796  1
  Mo  Mo2  1  0.80253864  0.59873068  0.59873068  1
  Mo  Mo3  1  0.80253864  0.20380796  0.59873068  1
  Mo  Mo4  1  0.19746136  0.59873068  0.59873068  1
  Se  Se5  1  0.72624241  0.86312121  0.41063638  1
  Se  Se6  1  0.27375759  0.86312121  0.86312121  1
  Se  Se7  1  0.27375759  0.41063638  0.86312121  1
  Se  Se8  1  0.72624241  0.86312121  0.86312121  1
  S  S9  1  0.74075567  0.37037783  0.88886650  1
  S  S10  1  0.25924433  0.37037783  0.37037783  1
  S  S11  1  0.25924433  0.88886650  0.37037783  1
  S  S12  1  0.74075567  0.37037783  0.37037783  1
