# generated using pymatgen
data_HfTaV4
_symmetry_space_group_name_H-M   'P 1'
_cell_length_a   5.10271182
_cell_length_b   5.10271182
_cell_length_c   5.10271182
_cell_angle_alpha   90.00000000
_cell_angle_beta   60.00000000
_cell_angle_gamma   120.00000000
_symmetry_Int_Tables_number   1
_chemical_formula_structural   HfTaV4
_chemical_formula_sum   'Hf1 Ta1 V4'
_cell_volume   93.94812732
_cell_formula_units_Z   1
loop_
 _symmetry_equiv_pos_site_id
 _symmetry_equiv_pos_as_xyz
  1  'x, y, z'
loop_
 _atom_site_type_symbol
 _atom_site_label
 _atom_site_symmetry_multiplicity
 _atom_site_fract_x
 _atom_site_fract_y
 _atom_site_fract_z
 _atom_site_occupancy
  Hf  Hf0  1  0.50000000  0.75000000  0.75000000  1
  Ta  Ta1  1  -0.00000000  0.00000000  0.00000000  1
  V  V2  1  0.75025001  0.37512501  0.87462498  1
  V  V3  1  0.24974999  0.37512501  0.37512501  1
  V  V4  1  0.24974999  0.87462498  0.37512501  1
  V  V5  1  0.75025001  0.37512501  0.37512501  1
