# generated using pymatgen
data_GeTe5Pb4
_symmetry_space_group_name_H-M   'P 1'
_cell_length_a   4.58053777
_cell_length_b   4.58053777
_cell_length_c   18.71994868
_cell_angle_alpha   97.02738694
_cell_angle_beta   82.97261306
_cell_angle_gamma   120.00000000
_symmetry_Int_Tables_number   1
_chemical_formula_structural   GeTe5Pb4
_chemical_formula_sum   'Ge1 Te5 Pb4'
_cell_volume   336.73690511
_cell_formula_units_Z   1
loop_
 _symmetry_equiv_pos_site_id
 _symmetry_equiv_pos_as_xyz
  1  'x, y, z'
loop_
 _atom_site_type_symbol
 _atom_site_label
 _atom_site_symmetry_multiplicity
 _atom_site_fract_x
 _atom_site_fract_y
 _atom_site_fract_z
 _atom_site_occupancy
  Ge  Ge0  1  -0.00000000  -0.00000000  -0.00000000  1
  Te  Te1  1  0.69481398  0.30518602  0.91555806  1
  Te  Te2  1  0.50000000  0.50000000  0.50000000  1
  Te  Te3  1  0.09773767  0.90226233  0.70678699  1
  Te  Te4  1  0.30518602  0.69481398  0.08444194  1
  Te  Te5  1  0.90226233  0.09773767  0.29321301  1
  Pb  Pb6  1  0.60354842  0.39645158  0.18935474  1
  Pb  Pb7  1  0.20109061  0.79890939  0.39672817  1
  Pb  Pb8  1  0.79890939  0.20109061  0.60327183  1
  Pb  Pb9  1  0.39645158  0.60354842  0.81064526  1
