# generated using pymatgen
data_In10SnS14
_symmetry_space_group_name_H-M   'P 1'
_cell_length_a   3.92842646
_cell_length_b   9.21050110
_cell_length_c   17.27266693
_cell_angle_alpha   102.41204748
_cell_angle_beta   90.00000000
_cell_angle_gamma   90.00000000
_symmetry_Int_Tables_number   1
_chemical_formula_structural   In10SnS14
_chemical_formula_sum   'In10 Sn1 S14'
_cell_volume   610.36561333
_cell_formula_units_Z   1
loop_
 _symmetry_equiv_pos_site_id
 _symmetry_equiv_pos_as_xyz
  1  'x, y, z'
loop_
 _atom_site_type_symbol
 _atom_site_label
 _atom_site_symmetry_multiplicity
 _atom_site_fract_x
 _atom_site_fract_y
 _atom_site_fract_z
 _atom_site_occupancy
  In  In0  1  0.25000000  0.52384215  0.60717545  1
  In  In1  1  0.75000000  0.47540929  0.39840038  1
  In  In2  1  0.25000000  0.56521782  0.12210517  1
  In  In3  1  0.75000000  0.42322888  0.87181672  1
  In  In4  1  0.25000000  0.81962728  0.47022928  1
  In  In5  1  0.75000000  0.16763485  0.53609500  1
  In  In6  1  0.25000000  0.14652045  0.94962003  1
  In  In7  1  0.75000000  0.85846469  0.04560361  1
  In  In8  1  0.25000000  0.31280542  0.18788432  1
  In  In9  1  0.75000000  0.68373524  0.80831119  1
  Sn  Sn10  1  0.25000000  0.96171323  0.27969447  1
  S  S11  1  0.25000000  0.05645221  0.09315432  1
  S  S12  1  0.75000000  0.94424498  0.91176245  1
  S  S13  1  0.25000000  0.33572959  0.46762134  1
  S  S14  1  0.75000000  0.67345183  0.53025744  1
  S  S15  1  0.25000000  0.61734752  0.34520191  1
  S  S16  1  0.75000000  0.38570155  0.65368243  1
  S  S17  1  0.25000000  0.03246246  0.58580112  1
  S  S18  1  0.75000000  0.96840337  0.39963066  1
  S  S19  1  0.25000000  0.66917788  0.99951004  1
  S  S20  1  0.75000000  0.33838827  0.00746470  1
  S  S21  1  0.25000000  0.25001747  0.82315505  1
  S  S22  1  0.75000000  0.76099626  0.18193637  1
  S  S23  1  0.25000000  0.74504889  0.72641535  1
  S  S24  1  0.75000000  0.25357842  0.27277120  1
