# generated using pymatgen
data_H8S2N2O3
_symmetry_space_group_name_H-M   'P 1'
_cell_length_a   6.15549024
_cell_length_b   6.17731294
_cell_length_c   8.90049381
_cell_angle_alpha   86.99361330
_cell_angle_beta   87.54558169
_cell_angle_gamma   65.46832871
_symmetry_Int_Tables_number   1
_chemical_formula_structural   H8S2N2O3
_chemical_formula_sum   'H16 S4 N4 O6'
_cell_volume   307.37960356
_cell_formula_units_Z   2
loop_
 _symmetry_equiv_pos_site_id
 _symmetry_equiv_pos_as_xyz
  1  'x, y, z'
loop_
 _atom_site_type_symbol
 _atom_site_label
 _atom_site_symmetry_multiplicity
 _atom_site_fract_x
 _atom_site_fract_y
 _atom_site_fract_z
 _atom_site_occupancy
  H  H0  1  0.20652045  0.69278764  0.26979688  1
  H  H1  1  0.30602781  0.79480839  0.73060905  1
  H  H2  1  0.02418802  0.56194684  0.21977415  1
  H  H3  1  0.43851195  0.97512135  0.77728407  1
  H  H4  1  0.09188272  0.02757047  0.06798750  1
  H  H5  1  0.97293564  0.90852329  0.94267677  1
  H  H6  1  0.15487654  0.50064642  0.39268330  1
  H  H7  1  0.49619039  0.84263269  0.60436168  1
  H  H8  1  0.79904632  0.08691155  0.07782628  1
  H  H9  1  0.91354466  0.19973549  0.92929189  1
  H  H10  1  0.32452338  0.39600735  0.23888945  1
  H  H11  1  0.60442567  0.67719687  0.76160878  1
  H  H12  1  0.75910354  0.15505105  0.41487392  1
  H  H13  1  0.83939884  0.27714453  0.56279774  1
  H  H14  1  0.58164617  0.24250845  0.56709702  1
  H  H15  1  0.84965263  0.00095013  0.58097629  1
  S  S16  1  0.52616666  0.88919964  0.26890324  1
  S  S17  1  0.11788718  0.47597903  0.72749005  1
  S  S18  1  0.67740301  0.65656015  0.10721195  1
  S  S19  1  0.34189347  0.32965618  0.89482276  1
  N  N20  1  0.94470233  0.05579060  0.00394946  1
  N  N21  1  0.17619761  0.53913006  0.27932231  1
  N  N22  1  0.46051595  0.82437658  0.71918969  1
  N  N23  1  0.75997319  0.16881553  0.53036315  1
  O  O24  1  0.26045386  0.97566393  0.26340501  1
  O  O25  1  0.02894443  0.74331953  0.72676005  1
  O  O26  1  0.59427943  0.09733989  0.24137057  1
  O  O27  1  0.90926513  0.41003092  0.74580138  1
  O  O28  1  0.61479781  0.77372465  0.41831143  1
  O  O29  1  0.24694521  0.38517081  0.58196417  1
