# generated using pymatgen
data_FeMo6Pd3N2
_symmetry_space_group_name_H-M   'P 1'
_cell_length_a   6.81772369
_cell_length_b   6.82170897
_cell_length_c   6.82418861
_cell_angle_alpha   90.00000000
_cell_angle_beta   89.83548466
_cell_angle_gamma   90.00000000
_symmetry_Int_Tables_number   1
_chemical_formula_structural   FeMo6Pd3N2
_chemical_formula_sum   'Fe2 Mo12 Pd6 N4'
_cell_volume   317.38165085
_cell_formula_units_Z   2
loop_
 _symmetry_equiv_pos_site_id
 _symmetry_equiv_pos_as_xyz
  1  'x, y, z'
loop_
 _atom_site_type_symbol
 _atom_site_label
 _atom_site_symmetry_multiplicity
 _atom_site_fract_x
 _atom_site_fract_y
 _atom_site_fract_z
 _atom_site_occupancy
  Fe  Fe0  1  0.81360276  0.31230166  0.18923428  1
  Fe  Fe1  1  0.18639724  0.81230166  0.31076572  1
  Mo  Mo2  1  0.94903198  0.37525118  0.80075884  1
  Mo  Mo3  1  0.05096802  0.87525118  0.69924116  1
  Mo  Mo4  1  0.46383267  0.12880596  0.20013681  1
  Mo  Mo5  1  0.53616733  0.62880596  0.29986319  1
  Mo  Mo6  1  0.36707649  0.79671378  0.96757172  1
  Mo  Mo7  1  0.87634827  0.69588689  0.04905863  1
  Mo  Mo8  1  0.12365173  0.19588689  0.45094137  1
  Mo  Mo9  1  0.63292351  0.29671378  0.53242828  1
  Mo  Mo10  1  0.80696586  0.95863172  0.36772168  1
  Mo  Mo11  1  0.70709425  0.04922532  0.87856976  1
  Mo  Mo12  1  0.19303414  0.45863172  0.13227832  1
  Mo  Mo13  1  0.29290575  0.54922532  0.62143024  1
  Pd  Pd14  1  0.31251316  0.18803760  0.81113543  1
  Pd  Pd15  1  0.68748684  0.68803760  0.68886457  1
  Pd  Pd16  1  0.43395206  0.93748683  0.55081631  1
  Pd  Pd17  1  0.94143786  0.56130839  0.42873974  1
  Pd  Pd18  1  0.56604794  0.43748683  0.94918369  1
  Pd  Pd19  1  0.05856214  0.06130839  0.07126026  1
  N  N20  1  0.12461892  0.62333479  0.87417124  1
  N  N21  1  0.87538108  0.12333479  0.62582876  1
  N  N22  1  0.62703835  0.87301589  0.12518934  1
  N  N23  1  0.37296165  0.37301589  0.37481066  1
