# generated using pymatgen
data_HfTi(PbO3)2
_symmetry_space_group_name_H-M   'P 1'
_cell_length_a   5.70817766
_cell_length_b   5.70817766
_cell_length_c   5.83455382
_cell_angle_alpha   60.71395580
_cell_angle_beta   60.71395580
_cell_angle_gamma   90.00000000
_symmetry_Int_Tables_number   1
_chemical_formula_structural   HfTi(PbO3)2
_chemical_formula_sum   'Hf1 Ti1 Pb2 O6'
_cell_volume   137.27728929
_cell_formula_units_Z   1
loop_
 _symmetry_equiv_pos_site_id
 _symmetry_equiv_pos_as_xyz
  1  'x, y, z'
loop_
 _atom_site_type_symbol
 _atom_site_label
 _atom_site_symmetry_multiplicity
 _atom_site_fract_x
 _atom_site_fract_y
 _atom_site_fract_z
 _atom_site_occupancy
  Hf  Hf0  1  0.72953486  0.22953486  0.54093029  1
  Ti  Ti1  1  0.22943853  0.72943853  0.54112293  1
  Pb  Pb2  1  0.50547670  0.50547670  0.98904661  1
  Pb  Pb3  1  0.00547670  0.00547670  0.98904661  1
  O  O4  1  0.43848076  0.93848076  0.61124776  1
  O  O5  1  0.95027148  0.45027148  0.61124776  1
  O  O6  1  0.95027148  0.93848076  0.61124776  1
  O  O7  1  0.43848076  0.45027148  0.61124776  1
  O  O8  1  0.44758659  0.94758659  0.10482681  1
  O  O9  1  0.96098213  0.46098213  0.07803573  1
