# generated using pymatgen
data_Fe6BP
_symmetry_space_group_name_H-M   'P 1'
_cell_length_a   4.31792473
_cell_length_b   6.63726837
_cell_length_c   6.51158150
_cell_angle_alpha   94.13911050
_cell_angle_beta   109.36332034
_cell_angle_gamma   71.01754037
_symmetry_Int_Tables_number   1
_chemical_formula_structural   Fe6BP
_chemical_formula_sum   'Fe12 B2 P2'
_cell_volume   166.35327687
_cell_formula_units_Z   2
loop_
 _symmetry_equiv_pos_site_id
 _symmetry_equiv_pos_as_xyz
  1  'x, y, z'
loop_
 _atom_site_type_symbol
 _atom_site_label
 _atom_site_symmetry_multiplicity
 _atom_site_fract_x
 _atom_site_fract_y
 _atom_site_fract_z
 _atom_site_occupancy
  Fe  Fe0  1  0.06938334  0.39836688  0.03481856  1
  Fe  Fe1  1  0.43293166  0.60163312  0.96518144  1
  Fe  Fe2  1  0.96949580  0.94427091  0.38450331  1
  Fe  Fe3  1  0.52926341  0.05572909  0.61549669  1
  Fe  Fe4  1  0.65413152  0.38932704  0.67480094  1
  Fe  Fe5  1  0.36865762  0.61067296  0.32519906  1
  Fe  Fe6  1  0.01240193  0.34014148  0.39270704  1
  Fe  Fe7  1  0.95983637  0.65985852  0.60729296  1
  Fe  Fe8  1  0.66681321  0.18748674  0.01434529  1
  Fe  Fe9  1  0.83995467  0.81251326  0.98565471  1
  Fe  Fe10  1  0.35843734  0.96008649  0.18644922  1
  Fe  Fe11  1  0.13207461  0.03991351  0.81355078  1
  B  B12  1  0.21561321  0.33822294  0.74759258  1
  B  B13  1  0.80624357  0.66177706  0.25240742  1
  P  P14  1  0.53530704  0.24916868  0.33502100  1
  P  P15  1  0.44945471  0.75083132  0.66497900  1
