# generated using pymatgen
data_Cu2SnTe3
_symmetry_space_group_name_H-M   'P 1'
_cell_length_a   7.57746194
_cell_length_b   7.57746194
_cell_length_c   13.84968153
_cell_angle_alpha   79.38429055
_cell_angle_beta   100.61570945
_cell_angle_gamma   70.93856404
_symmetry_Int_Tables_number   1
_chemical_formula_structural   Cu2SnTe3
_chemical_formula_sum   'Cu8 Sn4 Te12'
_cell_volume   712.73325891
_cell_formula_units_Z   4
loop_
 _symmetry_equiv_pos_site_id
 _symmetry_equiv_pos_as_xyz
  1  'x, y, z'
loop_
 _atom_site_type_symbol
 _atom_site_label
 _atom_site_symmetry_multiplicity
 _atom_site_fract_x
 _atom_site_fract_y
 _atom_site_fract_z
 _atom_site_occupancy
  Cu  Cu0  1  0.26033591  0.24555677  0.49979132  1
  Cu  Cu1  1  0.90969267  0.57635867  0.83333300  1
  Cu  Cu2  1  0.57888977  0.92700291  0.16687568  1
  Cu  Cu3  1  0.34387759  0.66201508  0.66687568  1
  Cu  Cu4  1  0.99534808  0.01054459  0.99979132  1
  Cu  Cu5  1  0.65969267  0.32635867  0.33333300  1
  Cu  Cu6  1  0.41689068  0.08355668  0.83333300  1
  Cu  Cu7  1  0.16689068  0.83355668  0.33333300  1
  Sn  Sn8  1  0.09520808  0.40390769  0.17153888  1
  Sn  Sn9  1  0.73724069  0.76187508  0.49512812  1
  Sn  Sn10  1  0.82544557  0.17367020  0.67153888  1
  Sn  Sn11  1  0.50700320  0.49211257  0.99512812  1
  Te  Te12  1  0.09913273  0.65449836  0.98629866  1
  Te  Te13  1  0.79828232  0.97217017  0.32106211  1
  Te  Te14  1  0.42679245  0.30086619  0.66658281  1
  Te  Te15  1  0.63420019  0.09345845  0.00008319  1
  Te  Te16  1  0.30550317  0.46494932  0.34560489  1
  Te  Te17  1  0.98783136  0.76579973  0.68036834  1
  Te  Te18  1  0.06055321  0.20989928  0.84560489  1
  Te  Te19  1  0.69616807  0.55746302  0.18036834  1
  Te  Te20  1  0.34354264  0.88411599  0.50008319  1
  Te  Te21  1  0.89079602  0.36283507  0.48629866  1
  Te  Te22  1  0.54323228  0.72722021  0.82106211  1
  Te  Te23  1  0.21744999  0.01020864  0.16658281  1
