# generated using pymatgen
data_Co6W20C7
_symmetry_space_group_name_H-M   'P 1'
_cell_length_a   7.87553480
_cell_length_b   7.87553480
_cell_length_c   7.88106238
_cell_angle_alpha   90.00000000
_cell_angle_beta   90.00000000
_cell_angle_gamma   120.00820218
_symmetry_Int_Tables_number   1
_chemical_formula_structural   Co6W20C7
_chemical_formula_sum   'Co6 W20 C7'
_cell_volume   423.29155639
_cell_formula_units_Z   1
loop_
 _symmetry_equiv_pos_site_id
 _symmetry_equiv_pos_as_xyz
  1  'x, y, z'
loop_
 _atom_site_type_symbol
 _atom_site_label
 _atom_site_symmetry_multiplicity
 _atom_site_fract_x
 _atom_site_fract_y
 _atom_site_fract_z
 _atom_site_occupancy
  Co  Co0  1  0.11128620  0.22283043  0.75000000  1
  Co  Co1  1  0.11136829  0.88863171  0.75000000  1
  Co  Co2  1  0.77716957  0.88871380  0.75000000  1
  Co  Co3  1  0.88921824  0.77828179  0.25000000  1
  Co  Co4  1  0.88921287  0.11078713  0.25000000  1
  Co  Co5  1  0.22171821  0.11078176  0.25000000  1
  W  W6  1  0.79632780  0.59261069  0.57189751  1
  W  W7  1  0.79622984  0.20377016  0.57182032  1
  W  W8  1  0.40738931  0.20367220  0.57189751  1
  W  W9  1  0.19961584  0.39925867  0.42947927  1
  W  W10  1  0.19964876  0.80035124  0.42950243  1
  W  W11  1  0.60074133  0.80038416  0.42947927  1
  W  W12  1  0.19961584  0.39925867  0.07052073  1
  W  W13  1  0.19964876  0.80035124  0.07049757  1
  W  W14  1  0.60074133  0.80038416  0.07052073  1
  W  W15  1  0.79632780  0.59261069  0.92810249  1
  W  W16  1  0.79622984  0.20377016  0.92817968  1
  W  W17  1  0.40738931  0.20367220  0.92810249  1
  W  W18  1  0.44738563  0.89499963  0.75000000  1
  W  W19  1  0.44763973  0.55236027  0.75000000  1
  W  W20  1  0.10500037  0.55261437  0.75000000  1
  W  W21  1  0.54862266  0.09707080  0.25000000  1
  W  W22  1  0.54847625  0.45152375  0.25000000  1
  W  W23  1  0.90292920  0.45137734  0.25000000  1
  W  W24  1  0.00001098  -0.00001098  0.49942881  1
  W  W25  1  0.00001098  -0.00001098  0.00057119  1
  C  C26  1  0.49759990  0.99520465  0.50016049  1
  C  C27  1  0.49763328  0.50236672  0.50014299  1
  C  C28  1  0.00479535  0.50240010  0.50016049  1
  C  C29  1  0.49759990  0.99520465  0.99983951  1
  C  C30  1  0.49763328  0.50236672  0.99985701  1
  C  C31  1  0.00479535  0.50240010  0.99983951  1
  C  C32  1  0.66668798  0.33331202  0.75000000  1
