# generated using pymatgen
data_FeCoSn2
_symmetry_space_group_name_H-M   'P 1'
_cell_length_a   4.33372541
_cell_length_b   5.16832464
_cell_length_c   9.39144483
_cell_angle_alpha   90.44244269
_cell_angle_beta   90.00000000
_cell_angle_gamma   90.00000000
_symmetry_Int_Tables_number   1
_chemical_formula_structural   FeCoSn2
_chemical_formula_sum   'Fe3 Co3 Sn6'
_cell_volume   210.34424732
_cell_formula_units_Z   3
loop_
 _symmetry_equiv_pos_site_id
 _symmetry_equiv_pos_as_xyz
  1  'x, y, z'
loop_
 _atom_site_type_symbol
 _atom_site_label
 _atom_site_symmetry_multiplicity
 _atom_site_fract_x
 _atom_site_fract_y
 _atom_site_fract_z
 _atom_site_occupancy
  Fe  Fe0  1  -0.00000000  0.74997681  0.74998456  1
  Fe  Fe1  1  0.00000000  0.74998983  0.24999142  1
  Fe  Fe2  1  0.00000000  0.24998219  0.74999888  1
  Co  Co3  1  -0.00000000  0.99627556  0.49955849  1
  Co  Co4  1  0.00000000  0.50374057  0.00044476  1
  Co  Co5  1  -0.00000000  0.24995546  0.25001938  1
  Sn  Sn6  1  0.50000000  0.00109696  0.33681381  1
  Sn  Sn7  1  0.50000000  0.50092563  0.83778168  1
  Sn  Sn8  1  0.50000000  0.49881875  0.16320918  1
  Sn  Sn9  1  0.50000000  0.99903445  0.66220665  1
  Sn  Sn10  1  -0.00000000  0.00339624  0.00052271  1
  Sn  Sn11  1  0.00000000  0.49660756  0.49946849  1
