# generated using pymatgen
data_In16Bi8Pb3S38
_symmetry_space_group_name_H-M   'P 1'
_cell_length_a   7.78597882
_cell_length_b   15.05611539
_cell_length_c   14.80332728
_cell_angle_alpha   65.40921498
_cell_angle_beta   97.54617193
_cell_angle_gamma   82.53722772
_symmetry_Int_Tables_number   1
_chemical_formula_structural   In16Bi8Pb3S38
_chemical_formula_sum   'In16 Bi8 Pb3 S38'
_cell_volume   1531.15990715
_cell_formula_units_Z   1
loop_
 _symmetry_equiv_pos_site_id
 _symmetry_equiv_pos_as_xyz
  1  'x, y, z'
loop_
 _atom_site_type_symbol
 _atom_site_label
 _atom_site_symmetry_multiplicity
 _atom_site_fract_x
 _atom_site_fract_y
 _atom_site_fract_z
 _atom_site_occupancy
  In  In0  1  0.01379145  0.86418658  0.91999253  1
  In  In1  1  0.51376448  0.86479522  0.92004920  1
  In  In2  1  0.98656727  0.13640016  0.07928918  1
  In  In3  1  0.48597182  0.13636742  0.07961091  1
  In  In4  1  0.17562225  0.40335969  0.10529261  1
  In  In5  1  0.67595513  0.40304773  0.10735431  1
  In  In6  1  0.82437718  0.59575329  0.89477793  1
  In  In7  1  0.32481002  0.59578193  0.89527438  1
  In  In8  1  0.81425342  0.88447117  0.14429698  1
  In  In9  1  0.31451688  0.88433370  0.14425069  1
  In  In10  1  0.18107197  0.11755157  0.85397207  1
  In  In11  1  0.68811089  0.11747850  0.85411588  1
  In  In12  1  0.97511078  0.75810938  0.65793770  1
  In  In13  1  0.47621507  0.75830250  0.65812466  1
  In  In14  1  0.02177745  0.24527459  0.34188169  1
  In  In15  1  0.52573440  0.24505648  0.34189630  1
  Bi  Bi16  1  0.15129562  0.61791293  0.21912952  1
  Bi  Bi17  1  0.65169316  0.61558868  0.21814520  1
  Bi  Bi18  1  0.84900890  0.37942858  0.77717646  1
  Bi  Bi19  1  0.34741221  0.38743817  0.77989293  1
  Bi  Bi20  1  0.38431073  0.06097248  0.59750260  1
  Bi  Bi21  1  0.88645831  0.05846521  0.60112712  1
  Bi  Bi22  1  0.61376539  0.94596031  0.39955822  1
  Bi  Bi23  1  0.11391787  0.94543317  0.39890963  1
  Pb  Pb24  1  0.29185999  0.36494409  0.52171160  1
  Pb  Pb25  1  0.20824662  0.63462617  0.48050572  1
  Pb  Pb26  1  0.71050685  0.63013076  0.47983156  1
  S  S27  1  0.02757861  0.73271567  0.84580906  1
  S  S28  1  0.52787090  0.73296914  0.84616416  1
  S  S29  1  0.97475407  0.26569821  0.15517408  1
  S  S30  1  0.47109256  0.26590650  0.15540086  1
  S  S31  1  0.17929374  0.22968406  0.94603177  1
  S  S32  1  0.67979397  0.22973488  0.94606016  1
  S  S33  1  0.82018437  0.76937417  0.05517584  1
  S  S34  1  0.32272216  0.76932662  0.05508968  1
  S  S35  1  0.32721324  0.09032244  0.40144143  1
  S  S36  1  0.82812576  0.09113161  0.40278937  1
  S  S37  1  0.67345359  0.90630676  0.59743243  1
  S  S38  1  0.17014023  0.90628018  0.59725018  1
  S  S39  1  0.29585050  0.02165682  0.20477109  1
  S  S40  1  0.79572724  0.02211192  0.20486297  1
  S  S41  1  0.70455518  0.97814591  0.79627909  1
  S  S42  1  0.20362801  0.97792172  0.79638317  1
  S  S43  1  0.11179528  0.46923427  0.91160073  1
  S  S44  1  0.61214310  0.46878669  0.91286157  1
  S  S45  1  0.88941048  0.53122275  0.08873808  1
  S  S46  1  0.38705059  0.53146109  0.08886022  1
  S  S47  1  0.23421928  0.36579623  0.30452930  1
  S  S48  1  0.73255345  0.36702080  0.29992901  1
  S  S49  1  0.76552603  0.63456271  0.69538868  1
  S  S50  1  0.26622556  0.63495460  0.69584031  1
  S  S51  1  0.50049747  0.99974332  0.00008895  1
  S  S52  1  0.00044696  0.99910794  0.00300900  1
  S  S53  1  0.91712093  0.79310364  0.46579067  1
  S  S54  1  0.41951350  0.79332194  0.46588676  1
  S  S55  1  0.08473737  0.20238681  0.53462100  1
  S  S56  1  0.58051096  0.20272018  0.53435355  1
  S  S57  1  0.05386519  0.45050917  0.63505297  1
  S  S58  1  0.53904999  0.45049696  0.63542346  1
  S  S59  1  0.95826145  0.55080532  0.36453743  1
  S  S60  1  0.44928129  0.55099391  0.36451838  1
  S  S61  1  0.38023062  0.22168369  0.74062447  1
  S  S62  1  0.88014546  0.21950929  0.73902593  1
  S  S63  1  0.62043743  0.77717692  0.26037651  1
  S  S64  1  0.11996738  0.77944471  0.26012009  1
