# generated using pymatgen
data_Dy4Cu5P7
_symmetry_space_group_name_H-M   'P 1'
_cell_length_a   5.27655802
_cell_length_b   5.27655802
_cell_length_c   10.32738500
_cell_angle_alpha   75.19889639
_cell_angle_beta   75.19889639
_cell_angle_gamma   90.00000000
_symmetry_Int_Tables_number   1
_chemical_formula_structural   Dy4Cu5P7
_chemical_formula_sum   'Dy4 Cu5 P7'
_cell_volume   268.11467088
_cell_formula_units_Z   1
loop_
 _symmetry_equiv_pos_site_id
 _symmetry_equiv_pos_as_xyz
  1  'x, y, z'
loop_
 _atom_site_type_symbol
 _atom_site_label
 _atom_site_symmetry_multiplicity
 _atom_site_fract_x
 _atom_site_fract_y
 _atom_site_fract_z
 _atom_site_occupancy
  Dy  Dy0  1  0.10614751  0.35614751  0.76849975  1
  Dy  Dy1  1  0.62535273  0.87535273  0.76849975  1
  Dy  Dy2  1  0.39385249  0.12464727  0.23150025  1
  Dy  Dy3  1  0.87464727  0.64385249  0.23150025  1
  Cu  Cu4  1  0.50063869  0.75063869  0.49872262  1
  Cu  Cu5  1  0.99936131  0.24936131  0.50127738  1
  Cu  Cu6  1  0.00000000  0.75000000  0.50000000  1
  Cu  Cu7  1  0.50000000  0.25000000  0.50000000  1
  Cu  Cu8  1  0.25000000  0.50000000  -0.00000000  1
  P  P9  1  0.32391807  0.57391807  0.34326708  1
  P  P10  1  0.83281485  0.08281485  0.34326708  1
  P  P11  1  0.17608193  0.91718515  0.65673292  1
  P  P12  1  0.66718515  0.42608193  0.65673292  1
  P  P13  1  0.75000000  0.00000000  -0.00000000  1
  P  P14  1  0.75000000  0.50000000  -0.00000000  1
  P  P15  1  0.25000000  0.00000000  -0.00000000  1
