# generated using pymatgen
data_DyGaCo4
_symmetry_space_group_name_H-M   'P 1'
_cell_length_a   4.01286945
_cell_length_b   4.89359273
_cell_length_c   4.98480219
_cell_angle_alpha   119.39654195
_cell_angle_beta   90.00000000
_cell_angle_gamma   90.00000000
_symmetry_Int_Tables_number   1
_chemical_formula_structural   DyGaCo4
_chemical_formula_sum   'Dy1 Ga1 Co4'
_cell_volume   85.28453825
_cell_formula_units_Z   1
loop_
 _symmetry_equiv_pos_site_id
 _symmetry_equiv_pos_as_xyz
  1  'x, y, z'
loop_
 _atom_site_type_symbol
 _atom_site_label
 _atom_site_symmetry_multiplicity
 _atom_site_fract_x
 _atom_site_fract_y
 _atom_site_fract_z
 _atom_site_occupancy
  Dy  Dy0  1  0.00000000  0.99997016  0.00000000  1
  Ga  Ga1  1  0.50000000  0.49997544  0.00000000  1
  Co  Co2  1  0.00000000  0.31602914  0.63206473  1
  Co  Co3  1  0.00000000  0.68396441  0.36793527  1
  Co  Co4  1  0.50000000  0.49998167  0.50000250  1
  Co  Co5  1  0.50000000  0.99997918  0.49999750  1
