# generated using pymatgen
data_Ce2Mn3Si4Pd
_symmetry_space_group_name_H-M   'P 1'
_cell_length_a   4.03298559
_cell_length_b   4.03298559
_cell_length_c   10.34013417
_cell_angle_alpha   90.00000000
_cell_angle_beta   90.00000000
_cell_angle_gamma   90.00000000
_symmetry_Int_Tables_number   1
_chemical_formula_structural   Ce2Mn3Si4Pd
_chemical_formula_sum   'Ce2 Mn3 Si4 Pd1'
_cell_volume   168.18200070
_cell_formula_units_Z   1
loop_
 _symmetry_equiv_pos_site_id
 _symmetry_equiv_pos_as_xyz
  1  'x, y, z'
loop_
 _atom_site_type_symbol
 _atom_site_label
 _atom_site_symmetry_multiplicity
 _atom_site_fract_x
 _atom_site_fract_y
 _atom_site_fract_z
 _atom_site_occupancy
  Ce  Ce0  1  -0.00000000  0.00000000  0.99510364  1
  Ce  Ce1  1  0.50000000  0.50000000  0.50489636  1
  Mn  Mn2  1  0.50000000  0.00000000  0.75000000  1
  Mn  Mn3  1  0.50000000  0.00000000  0.25000000  1
  Mn  Mn4  1  0.00000000  0.50000000  0.75000000  1
  Si  Si5  1  0.50000000  0.50000000  0.11173895  1
  Si  Si6  1  -0.00000000  -0.00000000  0.62184446  1
  Si  Si7  1  0.00000000  -0.00000000  0.38826105  1
  Si  Si8  1  0.50000000  0.50000000  0.87815554  1
  Pd  Pd9  1  0.00000000  0.50000000  0.25000000  1
