# generated using pymatgen
data_Co7(SbO6)2
_symmetry_space_group_name_H-M   'P 1'
_cell_length_a   6.07455839
_cell_length_b   6.10550982
_cell_length_c   15.34576723
_cell_angle_alpha   90.20356265
_cell_angle_beta   90.00000000
_cell_angle_gamma   119.83244588
_symmetry_Int_Tables_number   1
_chemical_formula_structural   Co7(SbO6)2
_chemical_formula_sum   'Co14 Sb4 O24'
_cell_volume   493.72261926
_cell_formula_units_Z   2
loop_
 _symmetry_equiv_pos_site_id
 _symmetry_equiv_pos_as_xyz
  1  'x, y, z'
loop_
 _atom_site_type_symbol
 _atom_site_label
 _atom_site_symmetry_multiplicity
 _atom_site_fract_x
 _atom_site_fract_y
 _atom_site_fract_z
 _atom_site_occupancy
  Co  Co0  1  0.66524709  0.83049318  0.69784076  1
  Co  Co1  1  0.32624395  0.15248890  0.02520145  1
  Co  Co2  1  0.99449283  0.48898567  0.37584636  1
  Co  Co3  1  0.67217417  0.84434733  0.95748664  1
  Co  Co4  1  0.34042205  0.18084510  0.30813255  1
  Co  Co5  1  0.00141991  0.50283982  0.63549224  1
  Co  Co6  1  0.49896698  0.49793395  0.50500160  1
  Co  Co7  1  0.16770002  0.83539905  0.82833140  1
  Co  Co8  1  0.83333300  0.66666700  0.16666700  1
  Co  Co9  1  0.49965927  0.99912525  0.50442243  1
  Co  Co10  1  0.16700773  0.33420775  0.82891057  1
  Co  Co11  1  0.33333300  0.66666700  0.16666700  1
  Co  Co12  1  -0.00053401  0.99912525  0.50442243  1
  Co  Co13  1  0.66720101  0.33420775  0.82891057  1
  Sb  Sb14  1  0.00550562  0.51101124  0.99430968  1
  Sb  Sb15  1  0.66116138  0.82232176  0.33902332  1
  Sb  Sb16  1  0.33333300  0.16666700  0.66666700  1
  Sb  Sb17  1  0.83333300  0.16666700  0.16666700  1
  O  O18  1  0.33128330  0.16256761  0.90299958  1
  O  O19  1  0.99242556  0.48485112  0.23629576  1
  O  O20  1  0.66457337  0.82914573  0.56890162  1
  O  O21  1  0.48552183  0.47104267  0.74689492  1
  O  O22  1  0.14827256  0.79654612  0.08326333  1
  O  O23  1  0.81588854  0.13177708  0.41134415  1
  O  O24  1  0.48758478  0.01489447  0.74612079  1
  O  O25  1  0.14177222  0.33417825  0.08492332  1
  O  O26  1  0.82453780  0.67801831  0.41065000  1
  O  O27  1  0.02731069  0.01489447  0.74612079  1
  O  O28  1  0.69240503  0.33417825  0.08492332  1
  O  O29  1  0.35348051  0.67801831  0.41065000  1
  O  O30  1  0.00209363  0.50418727  0.76443138  1
  O  O31  1  0.67424144  0.84848188  0.09703724  1
  O  O32  1  0.33538270  0.17076639  0.43033442  1
  O  O33  1  0.85077846  0.20155592  0.92198885  1
  O  O34  1  0.51839344  0.53678788  0.25007067  1
  O  O35  1  0.18114517  0.86229033  0.58643808  1
  O  O36  1  0.84212920  0.65531469  0.92268300  1
  O  O37  1  0.52489378  0.99915575  0.24841068  1
  O  O38  1  0.17908222  0.31843853  0.58721221  1
  O  O39  1  0.31318649  0.65531469  0.92268300  1
  O  O40  1  0.97426097  0.99915575  0.24841068  1
  O  O41  1  0.63935631  0.31843853  0.58721221  1
