# generated using pymatgen
data_CrCdInS4
_symmetry_space_group_name_H-M   'P 1'
_cell_length_a   7.55548589
_cell_length_b   7.47809840
_cell_length_c   7.58189941
_cell_angle_alpha   90.00000000
_cell_angle_beta   59.88428771
_cell_angle_gamma   119.66175344
_symmetry_Int_Tables_number   1
_chemical_formula_structural   CrCdInS4
_chemical_formula_sum   'Cr2 Cd2 In2 S8'
_cell_volume   303.92333907
_cell_formula_units_Z   2
loop_
 _symmetry_equiv_pos_site_id
 _symmetry_equiv_pos_as_xyz
  1  'x, y, z'
loop_
 _atom_site_type_symbol
 _atom_site_label
 _atom_site_symmetry_multiplicity
 _atom_site_fract_x
 _atom_site_fract_y
 _atom_site_fract_z
 _atom_site_occupancy
  Cr  Cr0  1  0.50000000  0.50000000  -0.00000000  1
  Cr  Cr1  1  0.50000000  0.00000000  -0.00000000  1
  Cd  Cd2  1  0.74703957  0.37351978  0.37648022  1
  Cd  Cd3  1  0.25296043  0.62648022  0.62351978  1
  In  In4  1  0.00000000  0.00000000  0.50000000  1
  In  In5  1  0.00000000  0.00000000  -0.00000000  1
  S  S6  1  0.04607053  0.78594715  0.22696473  1
  S  S7  1  0.04607053  0.26012338  0.22696473  1
  S  S8  1  0.49271825  0.24635913  0.79190614  1
  S  S9  1  0.49271825  0.24635913  0.21537561  1
  S  S10  1  0.95392947  0.21405285  0.77303527  1
  S  S11  1  0.95392947  0.73987662  0.77303527  1
  S  S12  1  0.50728175  0.75364087  0.20809386  1
  S  S13  1  0.50728175  0.75364087  0.78462439  1
