# generated using pymatgen
data_Cd5TeS4
_symmetry_space_group_name_H-M   'P 1'
_cell_length_a   4.30246527
_cell_length_b   15.38741415
_cell_length_c   4.30246527
_cell_angle_alpha   81.96345545
_cell_angle_beta   90.00000000
_cell_angle_gamma   98.03654455
_symmetry_Int_Tables_number   1
_chemical_formula_structural   Cd5TeS4
_chemical_formula_sum   'Cd5 Te1 S4'
_cell_volume   279.21682742
_cell_formula_units_Z   1
loop_
 _symmetry_equiv_pos_site_id
 _symmetry_equiv_pos_as_xyz
  1  'x, y, z'
loop_
 _atom_site_type_symbol
 _atom_site_label
 _atom_site_symmetry_multiplicity
 _atom_site_fract_x
 _atom_site_fract_y
 _atom_site_fract_z
 _atom_site_occupancy
  Cd  Cd0  1  0.99057140  0.98114281  0.00942860  1
  Cd  Cd1  1  0.60942860  0.21885719  0.39057140  1
  Cd  Cd2  1  0.20407771  0.40815543  0.79592229  1
  Cd  Cd3  1  0.80000000  0.60000000  0.20000000  1
  Cd  Cd4  1  0.39592229  0.79184457  0.60407771  1
  Te  Te5  1  0.05000000  0.10000000  0.45000000  1
  S  S6  1  0.65679198  0.31358396  0.84320802  1
  S  S7  1  0.25176138  0.50352275  0.24823862  1
  S  S8  1  0.84823862  0.69647725  0.65176138  1
  S  S9  1  0.44320802  0.88641604  0.05679198  1
