# generated using pymatgen
data_Cr11NiS16
_symmetry_space_group_name_H-M   'P 1'
_cell_length_a   6.94254837
_cell_length_b   8.24612577
_cell_length_c   8.12883363
_cell_angle_alpha   93.80282362
_cell_angle_beta   90.55142970
_cell_angle_gamma   91.27979029
_symmetry_Int_Tables_number   1
_chemical_formula_structural   Cr11NiS16
_chemical_formula_sum   'Cr11 Ni1 S16'
_cell_volume   464.19938134
_cell_formula_units_Z   1
loop_
 _symmetry_equiv_pos_site_id
 _symmetry_equiv_pos_as_xyz
  1  'x, y, z'
loop_
 _atom_site_type_symbol
 _atom_site_label
 _atom_site_symmetry_multiplicity
 _atom_site_fract_x
 _atom_site_fract_y
 _atom_site_fract_z
 _atom_site_occupancy
  Cr  Cr0  1  0.76168801  0.47948145  0.98982165  1
  Cr  Cr1  1  0.01293812  0.73686938  0.74654945  1
  Cr  Cr2  1  0.26012614  0.98091779  0.48937404  1
  Cr  Cr3  1  0.51465742  0.23173512  0.23475091  1
  Cr  Cr4  1  0.98706188  0.26313062  0.25345055  1
  Cr  Cr5  1  0.23831199  0.52051855  0.01017835  1
  Cr  Cr6  1  0.48534258  0.76826488  0.76524909  1
  Cr  Cr7  1  0.73987386  0.01908221  0.51062596  1
  Cr  Cr8  1  0.24572093  0.24598143  0.75369369  1
  Cr  Cr9  1  0.50000000  0.50000000  0.50000000  1
  Cr  Cr10  1  0.75427907  0.75401857  0.24630631  1
  Ni  Ni11  1  0.00000000  -0.00000000  -0.00000000  1
  S  S12  1  0.75913653  0.20292984  0.04126853  1
  S  S13  1  0.00815439  0.45689903  0.79474646  1
  S  S14  1  0.25590483  0.70519406  0.54579819  1
  S  S15  1  0.50904540  0.95688881  0.29383862  1
  S  S16  1  0.99184561  0.54310097  0.20525354  1
  S  S17  1  0.24086347  0.79707016  0.95873147  1
  S  S18  1  0.49095460  0.04311119  0.70616138  1
  S  S19  1  0.74409517  0.29480594  0.45420181  1
  S  S20  1  0.49092530  0.46811344  0.79737946  1
  S  S21  1  0.74232197  0.72022562  0.54744230  1
  S  S22  1  0.99224958  0.97032213  0.29705324  1
  S  S23  1  0.24201611  0.22145749  0.04844707  1
  S  S24  1  0.25767803  0.27977438  0.45255770  1
  S  S25  1  0.50907470  0.53188656  0.20262054  1
  S  S26  1  0.75798389  0.77854251  0.95155293  1
  S  S27  1  0.00775042  0.02967787  0.70294676  1
