# generated using pymatgen
data_Ce4SmO10
_symmetry_space_group_name_H-M   'P 1'
_cell_length_a   5.47422751
_cell_length_b   6.71451641
_cell_length_c   6.71451641
_cell_angle_alpha   99.56528878
_cell_angle_beta   114.05674664
_cell_angle_gamma   65.94325336
_symmetry_Int_Tables_number   1
_chemical_formula_structural   Ce4SmO10
_chemical_formula_sum   'Ce4 Sm1 O10'
_cell_volume   205.79230057
_cell_formula_units_Z   1
loop_
 _symmetry_equiv_pos_site_id
 _symmetry_equiv_pos_as_xyz
  1  'x, y, z'
loop_
 _atom_site_type_symbol
 _atom_site_label
 _atom_site_symmetry_multiplicity
 _atom_site_fract_x
 _atom_site_fract_y
 _atom_site_fract_z
 _atom_site_occupancy
  Ce  Ce0  1  0.60058224  0.19851595  0.39968042  1
  Ce  Ce1  1  0.20090182  0.39968042  0.80148405  1
  Ce  Ce2  1  0.79909818  0.60031958  0.19851595  1
  Ce  Ce3  1  0.39941776  0.80148405  0.60031958  1
  Sm  Sm4  1  0.00000000  0.00000000  0.00000000  1
  O  O5  1  0.25000000  0.50000000  0.50000000  1
  O  O6  1  0.84723731  0.69498585  0.89810976  1
  O  O7  1  0.45777684  0.89810976  0.30501415  1
  O  O8  1  0.05087245  0.10189024  0.69498585  1
  O  O9  1  0.64411340  0.30501415  0.10189024  1
  O  O10  1  0.15276269  0.30501415  0.10189024  1
  O  O11  1  0.75000000  0.50000000  0.50000000  1
  O  O12  1  0.35588660  0.69498585  0.89810976  1
  O  O13  1  0.94912755  0.89810976  0.30501415  1
  O  O14  1  0.54222316  0.10189024  0.69498585  1
