# generated using pymatgen
data_CaYAl3O7
_symmetry_space_group_name_H-M   'P 1'
_cell_length_a   5.09811409
_cell_length_b   7.75913163
_cell_length_c   7.75889112
_cell_angle_alpha   90.17022602
_cell_angle_beta   90.00000000
_cell_angle_gamma   90.00000000
_symmetry_Int_Tables_number   1
_chemical_formula_structural   CaYAl3O7
_chemical_formula_sum   'Ca2 Y2 Al6 O14'
_cell_volume   306.91662274
_cell_formula_units_Z   2
loop_
 _symmetry_equiv_pos_site_id
 _symmetry_equiv_pos_as_xyz
  1  'x, y, z'
loop_
 _atom_site_type_symbol
 _atom_site_label
 _atom_site_symmetry_multiplicity
 _atom_site_fract_x
 _atom_site_fract_y
 _atom_site_fract_z
 _atom_site_occupancy
  Ca  Ca0  1  0.51543063  0.33892290  0.16109895  1
  Ca  Ca1  1  0.51543063  0.66107710  0.83890105  1
  Y  Y2  1  0.48500408  0.16153690  0.66154184  1
  Y  Y3  1  0.48500408  0.83846310  0.33845816  1
  Al  Al4  1  0.00085942  0.50000000  0.50000000  1
  Al  Al5  1  0.00080603  0.00000000  -0.00000000  1
  Al  Al6  1  0.95619606  0.14262556  0.35742141  1
  Al  Al7  1  0.04399632  0.35432726  0.85435670  1
  Al  Al8  1  0.95619606  0.85737444  0.64257859  1
  Al  Al9  1  0.04399632  0.64567274  0.14564330  1
  O  O10  1  0.79920807  0.33729627  0.41338350  1
  O  O11  1  0.20481102  0.15631052  0.90209957  1
  O  O12  1  0.79920807  0.66270373  0.58661650  1
  O  O13  1  0.20481102  0.84368948  0.09790043  1
  O  O14  1  0.20481721  0.59789316  0.34364941  1
  O  O15  1  0.79921782  0.91336446  0.83727320  1
  O  O16  1  0.20481721  0.40210684  0.65635059  1
  O  O17  1  0.79921782  0.08663554  0.16272680  1
  O  O18  1  0.29872525  0.13076490  0.36932454  1
  O  O19  1  0.70265120  0.34716297  0.84723325  1
  O  O20  1  0.29872525  0.86923510  0.63067546  1
  O  O21  1  0.70265120  0.65283703  0.15276675  1
  O  O22  1  0.18334718  0.50000000  -0.00000000  1
  O  O23  1  0.79487202  0.00000000  0.50000000  1
