# generated using pymatgen
data_Co10SnSb30
_symmetry_space_group_name_H-M   'P 1'
_cell_length_a   7.90683382
_cell_length_b   7.90683382
_cell_length_c   32.57870054
_cell_angle_alpha   85.31878095
_cell_angle_beta   85.40671538
_cell_angle_gamma   109.49770069
_symmetry_Int_Tables_number   1
_chemical_formula_structural   Co10SnSb30
_chemical_formula_sum   'Co20 Sn2 Sb60'
_cell_volume   1901.02748083
_cell_formula_units_Z   2
loop_
 _symmetry_equiv_pos_site_id
 _symmetry_equiv_pos_as_xyz
  1  'x, y, z'
loop_
 _atom_site_type_symbol
 _atom_site_label
 _atom_site_symmetry_multiplicity
 _atom_site_fract_x
 _atom_site_fract_y
 _atom_site_fract_z
 _atom_site_occupancy
  Co  Co0  1  0.70000000  0.70000000  0.10000000  1
  Co  Co1  1  0.09968542  0.09984857  0.30011373  1
  Co  Co2  1  0.50005171  0.49999933  0.49996859  1
  Co  Co3  1  0.89994829  0.90000067  0.70003141  1
  Co  Co4  1  0.30031458  0.30015143  0.89988627  1
  Co  Co5  1  0.89991561  0.39986727  0.20004811  1
  Co  Co6  1  0.30009303  0.80010244  0.39994885  1
  Co  Co7  1  0.70000000  0.20000000  0.60000000  1
  Co  Co8  1  0.09990697  0.59989756  0.80005115  1
  Co  Co9  1  0.50008439  0.00013273  0.99995189  1
  Co  Co10  1  0.99991538  0.49996372  0.99995189  1
  Co  Co11  1  0.40008462  0.90003628  0.20004811  1
  Co  Co12  1  0.79994871  0.29995812  0.39994885  1
  Co  Co13  1  0.20000000  0.70000000  0.60000000  1
  Co  Co14  1  0.60005129  0.10004188  0.80005115  1
  Co  Co15  1  0.20000000  0.20000000  0.10000000  1
  Co  Co16  1  0.60003770  0.60020085  0.30011373  1
  Co  Co17  1  0.00003208  0.99997969  0.49996859  1
  Co  Co18  1  0.39996792  0.40002031  0.70003141  1
  Co  Co19  1  0.79996230  0.79979915  0.89988627  1
  Sn  Sn20  1  0.99979897  0.99992278  0.00027825  1
  Sn  Sn21  1  0.40020103  0.40007722  0.19972175  1
  Sb  Sb22  1  0.75933061  0.42569874  0.13335618  1
  Sb  Sb23  1  0.15927060  0.82579552  0.33334626  1
  Sb  Sb24  1  0.55957258  0.22549982  0.53317615  1
  Sb  Sb25  1  0.95969359  0.62557712  0.73315369  1
  Sb  Sb26  1  0.36059410  0.02577923  0.93299755  1
  Sb  Sb27  1  0.64066939  0.97430126  0.06664382  1
  Sb  Sb28  1  0.03940590  0.37422077  0.26700245  1
  Sb  Sb29  1  0.44030641  0.77442288  0.46684631  1
  Sb  Sb30  1  0.84042742  0.17450018  0.66682385  1
  Sb  Sb31  1  0.24072940  0.57420448  0.86665374  1
  Sb  Sb32  1  0.44094508  0.10731321  0.13335618  1
  Sb  Sb33  1  0.84085822  0.50738314  0.33334626  1
  Sb  Sb34  1  0.24132403  0.90725127  0.53317615  1
  Sb  Sb35  1  0.64126919  0.30715272  0.73315369  1
  Sb  Sb36  1  0.04122322  0.70640835  0.93299755  1
  Sb  Sb37  1  0.95905492  0.29268679  0.06664382  1
  Sb  Sb38  1  0.35877678  0.69359165  0.26700245  1
  Sb  Sb39  1  0.75873081  0.09284728  0.46684631  1
  Sb  Sb40  1  0.15867597  0.49274873  0.66682385  1
  Sb  Sb41  1  0.55914178  0.89261686  0.86665374  1
  Sb  Sb42  1  0.73031996  0.57131463  0.03173687  1
  Sb  Sb43  1  0.13025735  0.97166014  0.23177870  1
  Sb  Sb44  1  0.52963933  0.37046144  0.43186082  1
  Sb  Sb45  1  0.92952126  0.77037619  0.63183917  1
  Sb  Sb46  1  0.32970730  0.17038428  0.83180974  1
  Sb  Sb47  1  0.66968004  0.82868537  0.16826313  1
  Sb  Sb48  1  0.07029270  0.22961572  0.36819026  1
  Sb  Sb49  1  0.47047874  0.62962381  0.56816083  1
  Sb  Sb50  1  0.87036067  0.02953856  0.76813918  1
  Sb  Sb51  1  0.26974265  0.42833986  0.96822130  1
  Sb  Sb52  1  0.00305151  0.16205683  0.16826313  1
  Sb  Sb53  1  0.40219402  0.56151704  0.36819026  1
  Sb  Sb54  1  0.80221536  0.96136043  0.56816083  1
  Sb  Sb55  1  0.20232226  0.36150015  0.76813918  1
  Sb  Sb56  1  0.60343884  0.76203606  0.96822130  1
  Sb  Sb57  1  0.39694849  0.23794317  0.03173687  1
  Sb  Sb58  1  0.79656116  0.63796394  0.23177870  1
  Sb  Sb59  1  0.19767774  0.03849985  0.43186082  1
  Sb  Sb60  1  0.59778464  0.43863957  0.63183917  1
  Sb  Sb61  1  0.99780598  0.83848296  0.83180974  1
  Sb  Sb62  1  0.17127158  0.66364034  0.16508808  1
  Sb  Sb63  1  0.57127589  0.06356511  0.36515901  1
  Sb  Sb64  1  0.97091130  0.46408623  0.56500247  1
  Sb  Sb65  1  0.37085574  0.86414933  0.76499492  1
  Sb  Sb66  1  0.77029188  0.26478548  0.96492264  1
  Sb  Sb67  1  0.22872842  0.73635966  0.03491192  1
  Sb  Sb68  1  0.62970812  0.13521452  0.23507736  1
  Sb  Sb69  1  0.02914426  0.53585067  0.43500508  1
  Sb  Sb70  1  0.42908870  0.93591377  0.63499753  1
  Sb  Sb71  1  0.82872411  0.33643489  0.83484099  1
  Sb  Sb72  1  0.36208995  0.53640360  0.10150645  1
  Sb  Sb73  1  0.76218283  0.93635015  0.30146702  1
  Sb  Sb74  1  0.16183778  0.33681907  0.50134315  1
  Sb  Sb75  1  0.56188389  0.73679247  0.70132364  1
  Sb  Sb76  1  0.96193440  0.13695034  0.90111526  1
  Sb  Sb77  1  0.03791005  0.86359640  0.09849355  1
  Sb  Sb78  1  0.43806560  0.26304966  0.29888474  1
  Sb  Sb79  1  0.83811611  0.66320753  0.49867636  1
  Sb  Sb80  1  0.23816222  0.06318093  0.69865685  1
  Sb  Sb81  1  0.63781717  0.46364985  0.89853298  1
