# generated using pymatgen
data_CsLu4F13
_symmetry_space_group_name_H-M   'P 1'
_cell_length_a   8.01010176
_cell_length_b   17.26068746
_cell_length_c   7.98683474
_cell_angle_alpha   89.61889649
_cell_angle_beta   120.09675053
_cell_angle_gamma   89.99969100
_symmetry_Int_Tables_number   1
_chemical_formula_structural   CsLu4F13
_chemical_formula_sum   'Cs3 Lu12 F39'
_cell_volume   955.35411294
_cell_formula_units_Z   3
loop_
 _symmetry_equiv_pos_site_id
 _symmetry_equiv_pos_as_xyz
  1  'x, y, z'
loop_
 _atom_site_type_symbol
 _atom_site_label
 _atom_site_symmetry_multiplicity
 _atom_site_fract_x
 _atom_site_fract_y
 _atom_site_fract_z
 _atom_site_occupancy
  Cs  Cs0  1  0.50084193  0.11568503  0.00168759  1
  Cs  Cs1  1  0.50001287  0.37511750  0.00001766  1
  Cs  Cs2  1  0.49952812  0.63263299  0.99905433  1
  Lu  Lu3  1  0.01390072  0.25434518  0.49940550  1
  Lu  Lu4  1  0.01369514  0.50506126  0.49915118  1
  Lu  Lu5  1  0.01155570  0.75651813  0.49546017  1
  Lu  Lu6  1  0.01556310  0.00378483  0.50223801  1
  Lu  Lu7  1  0.48550762  0.25434301  0.49941092  1
  Lu  Lu8  1  0.48545605  0.50506405  0.49915318  1
  Lu  Lu9  1  0.48390367  0.75651856  0.49545900  1
  Lu  Lu10  1  0.48667456  0.00378237  0.50223935  1
  Lu  Lu11  1  0.01424406  0.25806171  0.02849064  1
  Lu  Lu12  1  0.01437695  0.50229130  0.02875410  1
  Lu  Lu13  1  0.01467100  0.74444832  0.02934407  1
  Lu  Lu14  1  0.01623242  0.01589651  0.03246839  1
  F  F15  1  0.17288741  0.03381497  0.34576889  1
  F  F16  1  0.17134227  0.27800608  0.34270195  1
  F  F17  1  0.17052670  0.52796204  0.34106061  1
  F  F18  1  0.15936231  0.79840574  0.31874051  1
  F  F19  1  0.06494144  0.00419071  0.79441357  1
  F  F20  1  0.06895092  0.25750830  0.79169888  1
  F  F21  1  0.06905612  0.50630099  0.79184034  1
  F  F22  1  0.06655477  0.75998419  0.79351328  1
  F  F23  1  0.72946744  0.00419024  0.79441197  1
  F  F24  1  0.72274595  0.25751107  0.79170341  1
  F  F25  1  0.72278671  0.50629884  0.79183862  1
  F  F26  1  0.72696980  0.75998216  0.79351176  1
  F  F27  1  0.84747289  0.99249940  0.17314276  1
  F  F28  1  0.83569542  0.24609346  0.17328842  1
  F  F29  1  0.83541698  0.49510812  0.17384125  1
  F  F30  1  0.84907180  0.73490071  0.17906168  1
  F  F31  1  0.32567349  0.99250149  0.17314696  1
  F  F32  1  0.33758882  0.24609515  0.17330098  1
  F  F33  1  0.33843007  0.49510512  0.17383505  1
  F  F34  1  0.32998926  0.73490570  0.17906612  1
  F  F35  1  0.72157634  0.25593762  0.44314990  1
  F  F36  1  0.72170574  0.50517199  0.44340788  1
  F  F37  1  0.72165279  0.75207224  0.44330529  1
  F  F38  1  0.72066816  0.01056966  0.44134024  1
  F  F39  1  0.33869209  0.99840779  0.67737087  1
  F  F40  1  0.33955261  0.24496704  0.67910632  1
  F  F41  1  0.33907894  0.49599560  0.67815864  1
  F  F42  1  0.32564165  0.73948569  0.65128549  1
  F  F43  1  0.01556298  0.12980321  0.50702670  1
  F  F44  1  0.01689521  0.37989816  0.50524695  1
  F  F45  1  0.01580751  0.63028015  0.50630618  1
  F  F46  1  0.01064124  0.88033158  0.50609154  1
  F  F47  1  0.49146430  0.12979954  0.50702602  1
  F  F48  1  0.48836502  0.37989841  0.50525121  1
  F  F49  1  0.49050215  0.63028230  0.50631133  1
  F  F50  1  0.49545241  0.88033037  0.50609644  1
  F  F51  1  0.01195932  0.13406004  0.02391216  1
  F  F52  1  0.01310094  0.38030879  0.02620851  1
  F  F53  1  0.01148613  0.62643458  0.02297722  1
