# generated using pymatgen
data_Mg14MnSnO16
_symmetry_space_group_name_H-M   'P 1'
_cell_length_a   8.72131651
_cell_length_b   8.71545123
_cell_length_c   4.38216893
_cell_angle_alpha   90.00000000
_cell_angle_beta   90.00000000
_cell_angle_gamma   90.00000000
_symmetry_Int_Tables_number   1
_chemical_formula_structural   Mg14MnSnO16
_chemical_formula_sum   'Mg14 Mn1 Sn1 O16'
_cell_volume   333.08957495
_cell_formula_units_Z   1
loop_
 _symmetry_equiv_pos_site_id
 _symmetry_equiv_pos_as_xyz
  1  'x, y, z'
loop_
 _atom_site_type_symbol
 _atom_site_label
 _atom_site_symmetry_multiplicity
 _atom_site_fract_x
 _atom_site_fract_y
 _atom_site_fract_z
 _atom_site_occupancy
  Mg  Mg0  1  0.50000000  0.00000000  -0.00000000  1
  Mg  Mg1  1  0.50000000  0.50000000  -0.00000000  1
  Mg  Mg2  1  0.00000000  0.24226973  0.50000000  1
  Mg  Mg3  1  0.00000000  0.75773027  0.50000000  1
  Mg  Mg4  1  0.50000000  0.24865837  0.50000000  1
  Mg  Mg5  1  0.50000000  0.75134163  0.50000000  1
  Mg  Mg6  1  0.25371079  -0.00000000  0.50000000  1
  Mg  Mg7  1  0.25958211  0.50000000  0.50000000  1
  Mg  Mg8  1  0.74628921  -0.00000000  0.50000000  1
  Mg  Mg9  1  0.74041789  0.50000000  0.50000000  1
  Mg  Mg10  1  0.25657816  0.24609194  -0.00000000  1
  Mg  Mg11  1  0.25657816  0.75390806  -0.00000000  1
  Mg  Mg12  1  0.74342184  0.24609194  -0.00000000  1
  Mg  Mg13  1  0.74342184  0.75390806  0.00000000  1
  Mn  Mn14  1  0.00000000  0.00000000  -0.00000000  1
  Sn  Sn15  1  0.00000000  0.50000000  -0.00000000  1
  O  O16  1  0.26163263  0.00000000  -0.00000000  1
  O  O17  1  0.27248249  0.50000000  0.00000000  1
  O  O18  1  0.73836737  0.00000000  0.00000000  1
  O  O19  1  0.72751751  0.50000000  -0.00000000  1
  O  O20  1  0.24988410  0.24954512  0.50000000  1
  O  O21  1  0.24988410  0.75045488  0.50000000  1
  O  O22  1  0.75011590  0.24954512  0.50000000  1
  O  O23  1  0.75011590  0.75045488  0.50000000  1
  O  O24  1  0.00000000  0.00000000  0.50000000  1
  O  O25  1  0.00000000  0.50000000  0.50000000  1
  O  O26  1  0.50000000  0.00000000  0.50000000  1
  O  O27  1  0.50000000  0.50000000  0.50000000  1
  O  O28  1  0.00000000  0.23470478  -0.00000000  1
  O  O29  1  0.00000000  0.76529522  -0.00000000  1
  O  O30  1  0.50000000  0.24716227  -0.00000000  1
  O  O31  1  0.50000000  0.75283773  0.00000000  1
