# generated using pymatgen
data_Be8NbCr3
_symmetry_space_group_name_H-M   'P 1'
_cell_length_a   4.32111766
_cell_length_b   4.32111766
_cell_length_c   7.08279529
_cell_angle_alpha   90.01461873
_cell_angle_beta   89.98538127
_cell_angle_gamma   120.01930252
_symmetry_Int_Tables_number   1
_chemical_formula_structural   Be8NbCr3
_chemical_formula_sum   'Be8 Nb1 Cr3'
_cell_volume   114.50988562
_cell_formula_units_Z   1
loop_
 _symmetry_equiv_pos_site_id
 _symmetry_equiv_pos_as_xyz
  1  'x, y, z'
loop_
 _atom_site_type_symbol
 _atom_site_label
 _atom_site_symmetry_multiplicity
 _atom_site_fract_x
 _atom_site_fract_y
 _atom_site_fract_z
 _atom_site_occupancy
  Be  Be0  1  0.99998404  0.00001596  0.49547992  1
  Be  Be1  1  0.00001360  0.99998640  0.00142544  1
  Be  Be2  1  0.17017747  0.34017977  0.75973591  1
  Be  Be3  1  0.17015689  0.82984311  0.76001651  1
  Be  Be4  1  0.65982023  0.82982253  0.75973591  1
  Be  Be5  1  0.83030057  0.66081821  0.24291388  1
  Be  Be6  1  0.83035029  0.16964971  0.24270971  1
  Be  Be7  1  0.33918179  0.16969943  0.24291388  1
  Nb  Nb8  1  0.66677771  0.33322229  0.56331541  1
  Cr  Cr9  1  0.33324206  0.66675794  0.42271064  1
  Cr  Cr10  1  0.33323821  0.66676179  0.06700590  1
  Cr  Cr11  1  0.66675714  0.33324286  0.94203688  1
