# generated using pymatgen
data_CeYFe17
_symmetry_space_group_name_H-M   'P 1'
_cell_length_a   8.31019062
_cell_length_b   8.48350883
_cell_length_c   8.48905014
_cell_angle_alpha   60.02159071
_cell_angle_beta   90.00000000
_cell_angle_gamma   90.00000000
_symmetry_Int_Tables_number   1
_chemical_formula_structural   CeYFe17
_chemical_formula_sum   'Ce2 Y2 Fe34'
_cell_volume   518.40678524
_cell_formula_units_Z   2
loop_
 _symmetry_equiv_pos_site_id
 _symmetry_equiv_pos_as_xyz
  1  'x, y, z'
loop_
 _atom_site_type_symbol
 _atom_site_label
 _atom_site_symmetry_multiplicity
 _atom_site_fract_x
 _atom_site_fract_y
 _atom_site_fract_z
 _atom_site_occupancy
  Ce  Ce0  1  0.25000000  0.66672770  0.66654460  1
  Ce  Ce1  1  0.75000000  0.33327230  0.33345540  1
  Y  Y2  1  0.75000000  0.00004091  0.99991819  1
  Y  Y3  1  0.25000000  0.99995909  0.00008181  1
  Fe  Fe4  1  0.60662066  0.66668151  0.66663698  1
  Fe  Fe5  1  0.39337934  0.33331849  0.33336302  1
  Fe  Fe6  1  0.10662066  0.33331849  0.33336302  1
  Fe  Fe7  1  0.89337934  0.66668151  0.66663698  1
  Fe  Fe8  1  0.48671370  0.83421428  0.83415384  1
  Fe  Fe9  1  0.48668081  0.83419106  0.33161789  1
  Fe  Fe10  1  0.48671370  0.33163189  0.83415384  1
  Fe  Fe11  1  0.51328630  0.16578572  0.16584616  1
  Fe  Fe12  1  0.51331919  0.16580894  0.66838211  1
  Fe  Fe13  1  0.51328630  0.66836811  0.16584616  1
  Fe  Fe14  1  0.98671370  0.16578572  0.16584616  1
  Fe  Fe15  1  0.98668081  0.16580894  0.66838211  1
  Fe  Fe16  1  0.98671370  0.66836811  0.16584616  1
  Fe  Fe17  1  0.01328630  0.83421428  0.83415384  1
  Fe  Fe18  1  0.01331919  0.83419106  0.33161789  1
  Fe  Fe19  1  0.01328630  0.33163189  0.83415384  1
  Fe  Fe20  1  0.50000000  0.50000000  0.50000000  1
  Fe  Fe21  1  0.50000000  0.50000000  -0.00000000  1
  Fe  Fe22  1  0.50000000  -0.00000000  0.50000000  1
  Fe  Fe23  1  0.00000000  0.50000000  0.50000000  1
  Fe  Fe24  1  -0.00000000  0.50000000  -0.00000000  1
  Fe  Fe25  1  -0.00000000  -0.00000000  0.50000000  1
  Fe  Fe26  1  0.75000000  0.67049036  0.36777646  1
  Fe  Fe27  1  0.75000000  0.36778951  0.96171685  1
  Fe  Fe28  1  0.75000000  0.96174626  0.67049494  1
  Fe  Fe29  1  0.75000000  0.36775880  0.67049494  1
  Fe  Fe30  1  0.75000000  0.96173318  0.36777646  1
  Fe  Fe31  1  0.75000000  0.67049364  0.96171685  1
  Fe  Fe32  1  0.25000000  0.32950964  0.63222354  1
  Fe  Fe33  1  0.25000000  0.63221049  0.03828315  1
  Fe  Fe34  1  0.25000000  0.03825374  0.32950506  1
  Fe  Fe35  1  0.25000000  0.63224120  0.32950506  1
  Fe  Fe36  1  0.25000000  0.03826682  0.63222354  1
  Fe  Fe37  1  0.25000000  0.32950636  0.03828315  1
