# generated using pymatgen
data_AlMo(WO4)2
_symmetry_space_group_name_H-M   'P 1'
_cell_length_a   5.17915694
_cell_length_b   5.65901271
_cell_length_c   6.44382383
_cell_angle_alpha   98.75310426
_cell_angle_beta   124.14243151
_cell_angle_gamma   95.72316563
_symmetry_Int_Tables_number   1
_chemical_formula_structural   AlMo(WO4)2
_chemical_formula_sum   'Al1 Mo1 W2 O8'
_cell_volume   150.48116977
_cell_formula_units_Z   1
loop_
 _symmetry_equiv_pos_site_id
 _symmetry_equiv_pos_as_xyz
  1  'x, y, z'
loop_
 _atom_site_type_symbol
 _atom_site_label
 _atom_site_symmetry_multiplicity
 _atom_site_fract_x
 _atom_site_fract_y
 _atom_site_fract_z
 _atom_site_occupancy
  Al  Al0  1  0.59466712  0.78550573  0.15096893  1
  Mo  Mo1  1  0.12750452  0.21000528  0.09222031  1
  W  W2  1  0.90052585  0.39821222  0.57759658  1
  W  W3  1  0.36836261  0.04268362  0.61992328  1
  O  O4  1  0.18853911  0.66795984  0.84846324  1
  O  O5  1  0.55224954  0.51616822  0.28567373  1
  O  O6  1  0.17809308  0.16451971  0.78980719  1
  O  O7  1  0.53451489  0.04096311  0.34433603  1
  O  O8  1  0.68606078  0.93367243  0.93068453  1
  O  O9  1  0.02961036  0.79075207  0.35614978  1
  O  O10  1  0.10253104  0.28688284  0.40767865  1
  O  O11  1  0.73334009  0.34117093  0.79259275  1
