# generated using pymatgen
data_K6Mo7H18O35
_symmetry_space_group_name_H-M   'P 1'
_cell_length_a   8.70418283
_cell_length_b   10.74587848
_cell_length_c   20.30156563
_cell_angle_alpha   90.00000000
_cell_angle_beta   90.00000000
_cell_angle_gamma   66.10881083
_symmetry_Int_Tables_number   1
_chemical_formula_structural   K6Mo7H18O35
_chemical_formula_sum   'K12 Mo14 H36 O70'
_cell_volume   1736.18459200
_cell_formula_units_Z   2
loop_
 _symmetry_equiv_pos_site_id
 _symmetry_equiv_pos_as_xyz
  1  'x, y, z'
loop_
 _atom_site_type_symbol
 _atom_site_label
 _atom_site_symmetry_multiplicity
 _atom_site_fract_x
 _atom_site_fract_y
 _atom_site_fract_z
 _atom_site_occupancy
  K  K0  1  0.57514259  -0.00000000  0.00000000  1
  K  K1  1  0.57514259  -0.00000000  0.50000000  1
  K  K2  1  0.90274814  0.57710211  0.95337300  1
  K  K3  1  0.47985025  0.42289789  0.04662700  1
  K  K4  1  0.90274814  0.57710211  0.54662700  1
  K  K5  1  0.47985025  0.42289789  0.45337300  1
  K  K6  1  0.09039907  0.15595997  0.59557081  1
  K  K7  1  0.24635904  0.84404003  0.40442919  1
  K  K8  1  0.09039907  0.15595997  0.90442919  1
  K  K9  1  0.24635904  0.84404003  0.09557081  1
  K  K10  1  0.77004675  0.26414676  0.75000000  1
  K  K11  1  0.03419351  0.73585324  0.25000000  1
  Mo  Mo12  1  0.38228256  0.71260245  0.75000000  1
  Mo  Mo13  1  0.09488501  0.28739755  0.25000000  1
  Mo  Mo14  1  0.33607262  0.70480761  0.91534795  1
  Mo  Mo15  1  0.04088023  0.29519239  0.08465205  1
  Mo  Mo16  1  0.33607262  0.70480761  0.58465205  1
  Mo  Mo17  1  0.04088023  0.29519239  0.41534795  1
  Mo  Mo18  1  0.33947088  0.44324429  0.83312110  1
  Mo  Mo19  1  0.78271517  0.55675571  0.16687890  1
  Mo  Mo20  1  0.33947088  0.44324429  0.66687890  1
  Mo  Mo21  1  0.78271517  0.55675571  0.33312110  1
  Mo  Mo22  1  0.99280473  0.86736536  0.83235419  1
  Mo  Mo23  1  0.86017009  0.13263464  0.16764581  1
  Mo  Mo24  1  0.99280473  0.86736536  0.66764581  1
  Mo  Mo25  1  0.86017009  0.13263464  0.33235419  1
  H  H26  1  0.86022552  0.64958635  0.75000000  1
  H  H27  1  0.50981187  0.35041365  0.25000000  1
  H  H28  1  0.16179632  0.05218205  0.75000000  1
  H  H29  1  0.21397836  0.94781795  0.25000000  1
  H  H30  1  0.69044518  0.46628100  0.63118638  1
  H  H31  1  0.15672618  0.53371900  0.36881362  1
  H  H32  1  0.69044518  0.46628100  0.86881362  1
  H  H33  1  0.15672618  0.53371900  0.13118638  1
  H  H34  1  0.59943523  0.86347897  0.14810352  1
  H  H35  1  0.46291420  0.13652103  0.85189648  1
  H  H36  1  0.59943523  0.86347897  0.35189648  1
  H  H37  1  0.46291420  0.13652103  0.64810352  1
  H  H38  1  0.00943057  0.50767111  0.75000000  1
  H  H39  1  0.51710168  0.49232889  0.25000000  1
  H  H40  1  0.46923390  0.01640613  0.15264675  1
  H  H41  1  0.48564003  0.98359387  0.84735325  1
  H  H42  1  0.46923390  0.01640613  0.34735325  1
  H  H43  1  0.48564003  0.98359387  0.65264675  1
  H  H44  1  0.22748987  0.16877619  0.75000000  1
  H  H45  1  0.39626606  0.83122381  0.25000000  1
  H  H46  1  0.82761644  0.48281126  0.67752803  1
  H  H47  1  0.31042770  0.51718874  0.32247197  1
  H  H48  1  0.82761644  0.48281126  0.82247197  1
  H  H49  1  0.31042770  0.51718874  0.17752803  1
  H  H50  1  0.85271398  0.77914604  0.09477442  1
  H  H51  1  0.63186002  0.22085396  0.90522558  1
  H  H52  1  0.85271398  0.77914604  0.40522558  1
  H  H53  1  0.63186002  0.22085396  0.59477442  1
  H  H54  1  0.00195549  0.72260830  0.04512958  1
  H  H55  1  0.72456379  0.27739170  0.95487042  1
  H  H56  1  0.00195549  0.72260830  0.45487042  1
  H  H57  1  0.72456379  0.27739170  0.54512958  1
  H  H58  1  0.85955240  0.07608026  0.99086913  1
  H  H59  1  0.93563266  0.92391974  0.00913087  1
  H  H60  1  0.85955240  0.07608026  0.50913087  1
  H  H61  1  0.93563266  0.92391974  0.49086913  1
  O  O62  1  0.22173203  0.67200096  0.97887697  1
  O  O63  1  0.89373298  0.32799904  0.02112303  1
  O  O64  1  0.22173203  0.67200096  0.52112303  1
  O  O65  1  0.89373298  0.32799904  0.47887697  1
  O  O66  1  0.81269749  0.42818967  0.64036441  1
  O  O67  1  0.24088716  0.57181033  0.35963559  1
  O  O68  1  0.81269749  0.42818967  0.85963559  1
  O  O69  1  0.24088716  0.57181033  0.14036441  1
  O  O70  1  0.43198158  0.81766306  0.96467543  1
  O  O71  1  0.24964464  0.18233694  0.03532457  1
  O  O72  1  0.43198158  0.81766306  0.53532457  1
  O  O73  1  0.24964464  0.18233694  0.46467543  1
  O  O74  1  0.22184064  0.66584198  0.83268324  1
  O  O75  1  0.88768263  0.33415802  0.16731676  1
  O  O76  1  0.22184064  0.66584198  0.66731676  1
  O  O77  1  0.88768263  0.33415802  0.33268324  1
  O  O78  1  0.96723334  0.00000000  0.00000000  1
  O  O79  1  0.96723334  0.00000000  0.50000000  1
  O  O80  1  0.92572105  0.80634573  0.75000000  1
  O  O81  1  0.73206678  0.19365427  0.25000000  1
  O  O82  1  0.49728885  0.93313041  0.12732440  1
  O  O83  1  0.43041926  0.06686959  0.87267560  1
  O  O84  1  0.49728885  0.93313041  0.37267560  1
  O  O85  1  0.43041926  0.06686959  0.62732440  1
  O  O86  1  0.88350787  0.55177684  0.75000000  1
  O  O87  1  0.43528471  0.44822316  0.25000000  1
  O  O88  1  0.50195085  0.27528187  0.67120843  1
  O  O89  1  0.77723272  0.72471813  0.32879157  1
  O  O90  1  0.50195085  0.27528187  0.82879157  1
  O  O91  1  0.77723272  0.72471813  0.17120843  1
  O  O92  1  0.47092004  0.50685942  0.89244333  1
  O  O93  1  0.97777947  0.49314058  0.10755667  1
  O  O94  1  0.47092004  0.50685942  0.60755667  1
  O  O95  1  0.97777947  0.49314058  0.39244333  1
  O  O96  1  0.12530131  0.15227020  0.75000000  1
  O  O97  1  0.27757151  0.84772980  0.25000000  1
  O  O98  1  0.88173423  0.80991915  0.88769783  1
  O  O99  1  0.69165338  0.19008085  0.11230217  1
  O  O100  1  0.88173423  0.80991915  0.61230217  1
  O  O101  1  0.69165338  0.19008085  0.38769783  1
  O  O102  1  0.54841111  0.67384376  0.96215079  1
  O  O103  1  0.22225487  0.32615624  0.03784921  1
  O  O104  1  0.54841111  0.67384376  0.53784921  1
  O  O105  1  0.22225487  0.32615624  0.46215079  1
  O  O106  1  0.46219953  0.51772705  0.75000000  1
  O  O107  1  0.97992658  0.48227295  0.25000000  1
  O  O108  1  0.17020866  0.88279687  0.88751772  1
  O  O109  1  0.05300553  0.11720313  0.11248228  1
  O  O110  1  0.17020866  0.88279687  0.61248228  1
  O  O111  1  0.05300553  0.11720313  0.38751772  1
  O  O112  1  0.21984156  0.44519018  0.75000000  1
  O  O113  1  0.66503174  0.55480982  0.25000000  1
  O  O114  1  0.19052422  0.42649231  0.88535900  1
  O  O115  1  0.61701653  0.57350769  0.11464100  1
  O  O116  1  0.19052422  0.42649231  0.61464100  1
  O  O117  1  0.61701653  0.57350769  0.38535900  1
  O  O118  1  0.17693791  0.87230445  0.75000000  1
  O  O119  1  0.04924236  0.12769555  0.25000000  1
  O  O120  1  0.88386961  0.78516647  0.04835323  1
  O  O121  1  0.66903608  0.21483353  0.95164677  1
  O  O122  1  0.88386961  0.78516647  0.45164677  1
  O  O123  1  0.66903608  0.21483353  0.54835323  1
  O  O124  1  0.48380467  0.74179309  0.82066502  1
  O  O125  1  0.22559776  0.25820691  0.17933498  1
  O  O126  1  0.48380467  0.74179309  0.67933498  1
  O  O127  1  0.22559776  0.25820691  0.32066502  1
  O  O128  1  0.87854485  0.04400948  0.82780223  1
  O  O129  1  0.92255433  0.95599052  0.17219777  1
  O  O130  1  0.87854485  0.04400948  0.67219777  1
  O  O131  1  0.92255433  0.95599052  0.32780223  1
