# generated using pymatgen
data_BaZr5Pb4O15
_symmetry_space_group_name_H-M   'P 1'
_cell_length_a   4.25038005
_cell_length_b   4.25038005
_cell_length_c   21.98906127
_cell_angle_alpha   100.76238185
_cell_angle_beta   100.76238185
_cell_angle_gamma   89.26173360
_symmetry_Int_Tables_number   1
_chemical_formula_structural   BaZr5Pb4O15
_chemical_formula_sum   'Ba1 Zr5 Pb4 O15'
_cell_volume   383.29672905
_cell_formula_units_Z   1
loop_
 _symmetry_equiv_pos_site_id
 _symmetry_equiv_pos_as_xyz
  1  'x, y, z'
loop_
 _atom_site_type_symbol
 _atom_site_label
 _atom_site_symmetry_multiplicity
 _atom_site_fract_x
 _atom_site_fract_y
 _atom_site_fract_z
 _atom_site_occupancy
  Ba  Ba0  1  0.43149253  0.43149253  0.91020967  1
  Zr  Zr1  1  0.02338083  0.02338083  0.00606741  1
  Zr  Zr2  1  0.22855342  0.22855342  0.20450867  1
  Zr  Zr3  1  0.42822379  0.42822379  0.40383940  1
  Zr  Zr4  1  0.62848411  0.62848411  0.60329133  1
  Zr  Zr5  1  0.82583800  0.82583800  0.80400882  1
  Pb  Pb6  1  0.69194979  0.69194979  0.11474282  1
  Pb  Pb7  1  0.89432284  0.89432284  0.31398725  1
  Pb  Pb8  1  0.09434703  0.09434703  0.51329671  1
  Pb  Pb9  1  0.29627706  0.29627706  0.71192004  1
  O  O10  1  0.08202215  0.08202215  0.10294045  1
  O  O11  1  0.27956558  0.27956558  0.30191127  1
  O  O12  1  0.47889338  0.47889338  0.50116871  1
  O  O13  1  0.67895499  0.67895499  0.70020592  1
  O  O14  1  0.90821700  0.90821700  0.89993204  1
  O  O15  1  0.17540800  0.70158517  0.19759315  1
  O  O16  1  0.37448505  0.90108571  0.39711979  1
  O  O17  1  0.57352477  0.10149247  0.59678744  1
  O  O18  1  0.78098832  0.30493610  0.79750232  1
  O  O19  1  0.99893984  0.50463209  0.99728202  1
  O  O20  1  0.70158517  0.17540800  0.19759315  1
  O  O21  1  0.90108571  0.37448505  0.39711979  1
  O  O22  1  0.10149247  0.57352477  0.59678744  1
  O  O23  1  0.30493610  0.78098832  0.79750232  1
  O  O24  1  0.50463209  0.99893984  0.99728202  1
