# generated using pymatgen
data_BaLa3Mn4O12
_symmetry_space_group_name_H-M   'P 1'
_cell_length_a   6.84548826
_cell_length_b   6.84548826
_cell_length_c   6.84548826
_cell_angle_alpha   70.52877937
_cell_angle_beta   109.47122063
_cell_angle_gamma   70.52877937
_symmetry_Int_Tables_number   1
_chemical_formula_structural   BaLa3Mn4O12
_chemical_formula_sum   'Ba1 La3 Mn4 O12'
_cell_volume   246.93997470
_cell_formula_units_Z   1
loop_
 _symmetry_equiv_pos_site_id
 _symmetry_equiv_pos_as_xyz
  1  'x, y, z'
loop_
 _atom_site_type_symbol
 _atom_site_label
 _atom_site_symmetry_multiplicity
 _atom_site_fract_x
 _atom_site_fract_y
 _atom_site_fract_z
 _atom_site_occupancy
  Ba  Ba0  1  -0.00000000  0.00000000  0.00000000  1
  La  La1  1  0.50000000  0.00000000  0.50000000  1
  La  La2  1  -0.00000000  0.50000000  0.50000000  1
  La  La3  1  0.50000000  0.50000000  0.00000000  1
  Mn  Mn4  1  0.50000000  0.50000000  0.50000000  1
  Mn  Mn5  1  0.50000000  0.00000000  0.00000000  1
  Mn  Mn6  1  -0.00000000  0.00000000  0.50000000  1
  Mn  Mn7  1  -0.00000000  0.50000000  0.00000000  1
  O  O8  1  0.25750541  0.74249459  0.51501083  1
  O  O9  1  0.25750541  0.25750541  -0.00000000  1
  O  O10  1  0.74249459  0.25750541  0.48498917  1
  O  O11  1  0.74249459  0.74249459  0.00000000  1
  O  O12  1  0.25750541  0.48498917  0.25750541  1
  O  O13  1  0.25750541  -0.00000000  0.74249459  1
  O  O14  1  0.74249459  0.00000000  0.25750541  1
  O  O15  1  0.74249459  0.51501083  0.74249459  1
  O  O16  1  0.48498917  0.25750541  0.74249459  1
  O  O17  1  0.51501083  0.74249459  0.25750541  1
  O  O18  1  -0.00000000  0.74249459  0.74249459  1
  O  O19  1  0.00000000  0.25750541  0.25750541  1
