# generated using pymatgen
data_Ca4Mn3SbO12
_symmetry_space_group_name_H-M   'P 1'
_cell_length_a   5.40383936
_cell_length_b   5.50352049
_cell_length_c   7.70916260
_cell_angle_alpha   90.18756207
_cell_angle_beta   89.86445787
_cell_angle_gamma   89.96917304
_symmetry_Int_Tables_number   1
_chemical_formula_structural   Ca4Mn3SbO12
_chemical_formula_sum   'Ca4 Mn3 Sb1 O12'
_cell_volume   229.26967583
_cell_formula_units_Z   1
loop_
 _symmetry_equiv_pos_site_id
 _symmetry_equiv_pos_as_xyz
  1  'x, y, z'
loop_
 _atom_site_type_symbol
 _atom_site_label
 _atom_site_symmetry_multiplicity
 _atom_site_fract_x
 _atom_site_fract_y
 _atom_site_fract_z
 _atom_site_occupancy
  Ca  Ca0  1  0.99353332  0.95927283  0.73310470  1
  Ca  Ca1  1  0.00646668  0.04072717  0.26689530  1
  Ca  Ca2  1  0.51101161  0.44933552  0.73401084  1
  Ca  Ca3  1  0.48898839  0.55066448  0.26598916  1
  Mn  Mn4  1  0.50000000  0.00000000  0.50000000  1
  Mn  Mn5  1  0.50000000  0.00000000  -0.00000000  1
  Mn  Mn6  1  -0.00000000  0.50000000  0.50000000  1
  Sb  Sb7  1  -0.00000000  0.50000000  -0.00000000  1
  O  O8  1  0.71149161  0.71024460  0.53819637  1
  O  O9  1  0.30139109  0.29679651  0.04688795  1
  O  O10  1  0.28850839  0.28975540  0.46180363  1
  O  O11  1  0.69860891  0.70320349  0.95311205  1
  O  O12  1  0.08415034  0.52274844  0.74837990  1
  O  O13  1  0.91584966  0.47725156  0.25162010  1
  O  O14  1  0.79174097  0.21181635  0.53867903  1
  O  O15  1  0.20098657  0.79898616  0.04727406  1
  O  O16  1  0.20825903  0.78818365  0.46132097  1
  O  O17  1  0.79901343  0.20101384  0.95272594  1
  O  O18  1  0.42013703  0.02346946  0.75163571  1
  O  O19  1  0.57986297  0.97653054  0.24836429  1
