# generated using pymatgen
data_Ca2Fe2O5
_symmetry_space_group_name_H-M   'P 1'
_cell_length_a   5.56487119
_cell_length_b   5.65768146
_cell_length_c   8.42704993
_cell_angle_alpha   70.06718665
_cell_angle_beta   70.39714128
_cell_angle_gamma   89.09201631
_symmetry_Int_Tables_number   1
_chemical_formula_structural   Ca2Fe2O5
_chemical_formula_sum   'Ca4 Fe4 O10'
_cell_volume   233.50972922
_cell_formula_units_Z   2
loop_
 _symmetry_equiv_pos_site_id
 _symmetry_equiv_pos_as_xyz
  1  'x, y, z'
loop_
 _atom_site_type_symbol
 _atom_site_label
 _atom_site_symmetry_multiplicity
 _atom_site_fract_x
 _atom_site_fract_y
 _atom_site_fract_z
 _atom_site_occupancy
  Ca  Ca0  1  0.63201126  0.63454043  0.78706910  1
  Ca  Ca1  1  0.36798874  0.36545957  0.21293090  1
  Ca  Ca2  1  0.08091963  0.07839047  0.78706910  1
  Ca  Ca3  1  0.91908037  0.92160953  0.21293090  1
  Fe  Fe4  1  0.50000000  -0.00000000  -0.00000000  1
  Fe  Fe5  1  0.00000000  0.50000000  -0.00000000  1
  Fe  Fe6  1  0.67503218  0.30914941  0.50000000  1
  Fe  Fe7  1  0.32496782  0.69085059  0.50000000  1
  O  O8  1  0.26825072  0.26825072  0.96349856  1
  O  O9  1  0.24010486  0.74010486  0.01979027  1
  O  O10  1  0.75989514  0.25989514  0.98020973  1
  O  O11  1  0.73174928  0.73174928  0.03650144  1
  O  O12  1  0.66981279  0.07350252  0.71925365  1
  O  O13  1  0.33018721  0.92649748  0.28074635  1
  O  O14  1  0.11093356  0.70724383  0.71925365  1
  O  O15  1  0.88906644  0.29275617  0.28074635  1
  O  O16  1  0.68147157  0.65740597  0.50000000  1
  O  O17  1  0.31852843  0.34259403  0.50000000  1
