# generated using pymatgen
data_CdHg6(Sb2I3)2
_symmetry_space_group_name_H-M   'P 1'
_cell_length_a   13.88191665
_cell_length_b   13.88191711
_cell_length_c   13.81664268
_cell_angle_alpha   90.84909853
_cell_angle_beta   90.84910143
_cell_angle_gamma   91.25618228
_symmetry_Int_Tables_number   1
_chemical_formula_structural   CdHg6(Sb2I3)2
_chemical_formula_sum   'Cd4 Hg24 Sb16 I24'
_cell_volume   2661.33463106
_cell_formula_units_Z   4
loop_
 _symmetry_equiv_pos_site_id
 _symmetry_equiv_pos_as_xyz
  1  'x, y, z'
loop_
 _atom_site_type_symbol
 _atom_site_label
 _atom_site_symmetry_multiplicity
 _atom_site_fract_x
 _atom_site_fract_y
 _atom_site_fract_z
 _atom_site_occupancy
  Cd  Cd0  1  0.73961155  0.26810863  0.32578571  1
  Cd  Cd1  1  0.26038845  0.73189137  0.67421429  1
  Cd  Cd2  1  0.76810863  0.23961155  0.82578571  1
  Cd  Cd3  1  0.23189137  0.76038845  0.17421429  1
  Hg  Hg4  1  0.47178035  0.25557328  0.50429083  1
  Hg  Hg5  1  0.24520749  0.48076346  0.47272559  1
  Hg  Hg6  1  0.49735975  0.48612592  0.25025582  1
  Hg  Hg7  1  0.52821965  0.74442672  0.49570917  1
  Hg  Hg8  1  0.75479251  0.51923654  0.52727441  1
  Hg  Hg9  1  0.50264025  0.51387408  0.74974418  1
  Hg  Hg10  1  0.98076346  0.74520749  0.97272559  1
  Hg  Hg11  1  0.98612592  0.99735975  0.75025582  1
  Hg  Hg12  1  0.75557328  0.97178035  0.00429083  1
  Hg  Hg13  1  0.01923654  0.25479251  0.02727441  1
  Hg  Hg14  1  0.01387408  0.00264025  0.24974418  1
  Hg  Hg15  1  0.24442672  0.02821965  0.99570917  1
  Hg  Hg16  1  0.45728664  0.04271336  0.75000000  1
  Hg  Hg17  1  0.01895978  0.75090589  0.46272622  1
  Hg  Hg18  1  0.74909411  0.48104022  0.03727378  1
  Hg  Hg19  1  0.54271336  0.95728664  0.25000000  1
  Hg  Hg20  1  0.98104022  0.24909411  0.53727378  1
  Hg  Hg21  1  0.25090589  0.51895978  0.96272622  1
  Hg  Hg22  1  0.24378849  0.00914436  0.50432576  1
  Hg  Hg23  1  0.00384080  0.49615920  0.25000000  1
  Hg  Hg24  1  0.49085564  0.25621151  0.99567424  1
  Hg  Hg25  1  0.75621151  0.99085564  0.49567424  1
  Hg  Hg26  1  0.99615920  0.50384080  0.75000000  1
  Hg  Hg27  1  0.50914436  0.74378849  0.00432576  1
  Sb  Sb28  1  0.43787809  0.43904384  0.43701914  1
  Sb  Sb29  1  0.56212191  0.56095616  0.56298086  1
  Sb  Sb30  1  0.93904384  0.93787809  0.93701914  1
  Sb  Sb31  1  0.06095616  0.06212191  0.06298086  1
  Sb  Sb32  1  0.43309383  0.06390122  0.55176597  1
  Sb  Sb33  1  0.06290071  0.55471754  0.43530864  1
  Sb  Sb34  1  0.55260999  0.43658275  0.06326869  1
  Sb  Sb35  1  0.56690617  0.93609878  0.44823403  1
  Sb  Sb36  1  0.93709929  0.44528246  0.56469136  1
  Sb  Sb37  1  0.44739001  0.56341725  0.93673131  1
  Sb  Sb38  1  0.05471754  0.56290071  0.93530864  1
  Sb  Sb39  1  0.93658275  0.05260999  0.56326869  1
  Sb  Sb40  1  0.56390122  0.93309383  0.05176597  1
  Sb  Sb41  1  0.94528246  0.43709929  0.06469136  1
  Sb  Sb42  1  0.06341725  0.94739001  0.43673131  1
  Sb  Sb43  1  0.43609878  0.06690617  0.94823403  1
  I  I44  1  0.55950029  0.19578547  0.25408155  1
  I  I45  1  0.19429346  0.26276234  0.53166452  1
  I  I46  1  0.25692972  0.55864748  0.19521553  1
  I  I47  1  0.44049971  0.80421453  0.74591845  1
  I  I48  1  0.80570654  0.73723766  0.46833548  1
  I  I49  1  0.74307028  0.44135252  0.80478447  1
  I  I50  1  0.76276234  0.69429346  0.03166452  1
  I  I51  1  0.05864748  0.75692972  0.69521553  1
  I  I52  1  0.69578547  0.05950029  0.75408155  1
  I  I53  1  0.23723766  0.30570654  0.96833548  1
  I  I54  1  0.94135252  0.24307028  0.30478447  1
  I  I55  1  0.30421453  0.94049971  0.24591845  1
  I  I56  1  0.69923815  0.24736250  0.52683346  1
  I  I57  1  0.25816152  0.52676401  0.70097156  1
  I  I58  1  0.52212649  0.70101403  0.25382441  1
  I  I59  1  0.30076185  0.75263750  0.47316654  1
  I  I60  1  0.74183848  0.47323599  0.29902844  1
  I  I61  1  0.47787351  0.29898597  0.74617559  1
  I  I62  1  0.02676401  0.75816152  0.20097156  1
  I  I63  1  0.20101403  0.02212649  0.75382441  1
  I  I64  1  0.74736250  0.19923815  0.02683346  1
  I  I65  1  0.97323599  0.24183848  0.79902844  1
  I  I66  1  0.79898597  0.97787351  0.24617559  1
  I  I67  1  0.25263750  0.80076185  0.97316654  1
