# generated using pymatgen
data_Ca4MgAl2Si3O14
_symmetry_space_group_name_H-M   'P 1'
_cell_length_a   5.08735456
_cell_length_b   7.81176408
_cell_length_c   7.87312255
_cell_angle_alpha   89.89596318
_cell_angle_beta   90.04197539
_cell_angle_gamma   89.88250212
_symmetry_Int_Tables_number   1
_chemical_formula_structural   Ca4MgAl2Si3O14
_chemical_formula_sum   'Ca4 Mg1 Al2 Si3 O14'
_cell_volume   312.88618652
_cell_formula_units_Z   1
loop_
 _symmetry_equiv_pos_site_id
 _symmetry_equiv_pos_as_xyz
  1  'x, y, z'
loop_
 _atom_site_type_symbol
 _atom_site_label
 _atom_site_symmetry_multiplicity
 _atom_site_fract_x
 _atom_site_fract_y
 _atom_site_fract_z
 _atom_site_occupancy
  Ca  Ca0  1  0.51188714  0.32911543  0.17913197  1
  Ca  Ca1  1  0.49447209  0.17639406  0.64011488  1
  Ca  Ca2  1  0.51175145  0.65843241  0.83156253  1
  Ca  Ca3  1  0.48960795  0.84631728  0.33524992  1
  Mg  Mg4  1  0.99954658  0.50101269  0.49992879  1
  Al  Al5  1  0.99333188  -0.00000785  0.99956618  1
  Al  Al6  1  0.95017619  0.13967153  0.35682774  1
  Si  Si7  1  0.05643595  0.35635865  0.86032421  1
  Si  Si8  1  0.94187916  0.85827929  0.64561974  1
  Si  Si9  1  0.05580465  0.64451190  0.13908196  1
  O  O10  1  0.17776272  0.49778569  0.00255320  1
  O  O11  1  0.81536861  0.99391832  0.50705700  1
  O  O12  1  0.29115490  0.13370687  0.35931715  1
  O  O13  1  0.73872272  0.35970568  0.85708240  1
  O  O14  1  0.26047298  0.85545428  0.64611911  1
  O  O15  1  0.73853880  0.64641534  0.13699854  1
  O  O16  1  0.77652609  0.32474527  0.41363992  1
  O  O17  1  0.18985863  0.17204036  0.92029985  1
  O  O18  1  0.78986896  0.67980597  0.59976458  1
  O  O19  1  0.19473323  0.82629850  0.07362116  1
  O  O20  1  0.20881059  0.59773455  0.31531134  1
  O  O21  1  0.80622604  0.91679807  0.82899937  1
  O  O22  1  0.21268159  0.41090613  0.68716628  1
  O  O23  1  0.79438109  0.07459958  0.16466218  1
