# generated using pymatgen
data_BaZr2Ti3Pb4O15
_symmetry_space_group_name_H-M   'P 1'
_cell_length_a   4.05207467
_cell_length_b   20.01394984
_cell_length_c   4.41651478
_cell_angle_alpha   89.84324953
_cell_angle_beta   90.00000000
_cell_angle_gamma   90.00000000
_symmetry_Int_Tables_number   1
_chemical_formula_structural   BaZr2Ti3Pb4O15
_chemical_formula_sum   'Ba1 Zr2 Ti3 Pb4 O15'
_cell_volume   358.16925999
_cell_formula_units_Z   1
loop_
 _symmetry_equiv_pos_site_id
 _symmetry_equiv_pos_as_xyz
  1  'x, y, z'
loop_
 _atom_site_type_symbol
 _atom_site_label
 _atom_site_symmetry_multiplicity
 _atom_site_fract_x
 _atom_site_fract_y
 _atom_site_fract_z
 _atom_site_occupancy
  Ba  Ba0  1  0.00000000  0.20821813  0.03002906  1
  Zr  Zr1  1  0.50000000  0.10345715  0.52917076  1
  Zr  Zr2  1  0.50000000  0.89387566  0.52119061  1
  Ti  Ti3  1  0.50000000  0.30685582  0.50814885  1
  Ti  Ti4  1  0.50000000  0.50018137  0.51018019  1
  Ti  Ti5  1  0.50000000  0.69305431  0.51191330  1
  Pb  Pb6  1  -0.00000000  0.99574924  0.95719602  1
  Pb  Pb7  1  -0.00000000  0.40366112  0.94889555  1
  Pb  Pb8  1  0.00000000  0.59586274  0.95509577  1
  Pb  Pb9  1  0.00000000  0.78818581  0.95813643  1
  O  O10  1  0.50000000  0.10761306  0.07503622  1
  O  O11  1  0.50000000  0.30661404  0.10706099  1
  O  O12  1  0.50000000  0.50099750  0.11349493  1
  O  O13  1  0.50000000  0.69495846  0.11458964  1
  O  O14  1  0.50000000  0.89677322  0.07312294  1
  O  O15  1  0.50000000  0.99850386  0.60678078  1
  O  O16  1  0.50000000  0.21115576  0.57104746  1
  O  O17  1  0.50000000  0.40515498  0.61028534  1
  O  O18  1  0.50000000  0.59742278  0.61226872  1
  O  O19  1  0.50000000  0.78887864  0.61265089  1
  O  O20  1  0.00000000  0.10312587  0.60646872  1
  O  O21  1  -0.00000000  0.30875831  0.58350789  1
  O  O22  1  0.00000000  0.50178367  0.59901618  1
  O  O23  1  0.00000000  0.69440829  0.60115284  1
  O  O24  1  0.00000000  0.89475022  0.61855992  1
