# generated using pymatgen
data_Ba4Tm2Cu6O13
_symmetry_space_group_name_H-M   'P 1'
_cell_length_a   5.49706451
_cell_length_b   5.49706451
_cell_length_c   12.58262611
_cell_angle_alpha   77.59293399
_cell_angle_beta   77.59293399
_cell_angle_gamma   90.93982759
_symmetry_Int_Tables_number   1
_chemical_formula_structural   Ba4Tm2Cu6O13
_chemical_formula_sum   'Ba4 Tm2 Cu6 O13'
_cell_volume   361.88521025
_cell_formula_units_Z   1
loop_
 _symmetry_equiv_pos_site_id
 _symmetry_equiv_pos_as_xyz
  1  'x, y, z'
loop_
 _atom_site_type_symbol
 _atom_site_label
 _atom_site_symmetry_multiplicity
 _atom_site_fract_x
 _atom_site_fract_y
 _atom_site_fract_z
 _atom_site_occupancy
  Ba  Ba0  1  0.91265738  0.41265738  0.19151028  1
  Ba  Ba1  1  0.39583233  0.89583233  0.19151028  1
  Ba  Ba2  1  0.58734262  0.08734262  0.80848972  1
  Ba  Ba3  1  0.10416767  0.60416767  0.80848972  1
  Tm  Tm4  1  0.25000000  0.75000000  0.50000000  1
  Tm  Tm5  1  0.75000000  0.25000000  0.50000000  1
  Cu  Cu6  1  0.31853412  0.31589329  0.36557260  1
  Cu  Cu7  1  0.81589329  0.81853412  0.36557260  1
  Cu  Cu8  1  0.18146588  0.18410671  0.63442740  1
  Cu  Cu9  1  0.68410671  0.68146588  0.63442740  1
  Cu  Cu10  1  0.49232556  0.50767444  -0.00000000  1
  Cu  Cu11  1  0.00767444  0.99232556  -0.00000000  1
  O  O12  1  0.44603118  0.40275949  0.15120933  1
  O  O13  1  0.90275949  0.94603118  0.15120933  1
  O  O14  1  0.05396882  0.09724051  0.84879067  1
  O  O15  1  0.59724051  0.55396882  0.84879067  1
  O  O16  1  0.05796014  0.05796014  0.38407972  1
  O  O17  1  0.55796014  0.55796014  0.38407972  1
  O  O18  1  0.94203986  0.94203986  0.61592028  1
  O  O19  1  0.44203986  0.44203986  0.61592028  1
  O  O20  1  0.55761959  0.05761959  0.38476082  1
  O  O21  1  0.05983558  0.55983558  0.38032883  1
  O  O22  1  0.44016442  0.94016442  0.61967117  1
  O  O23  1  0.94238041  0.44238041  0.61523918  1
  O  O24  1  0.25000000  0.75000000  -0.00000000  1
