# generated using pymatgen
data_Ba3Be2B5HO13
_symmetry_space_group_name_H-M   'P 1'
_cell_length_a   6.84574604
_cell_length_b   6.95564521
_cell_length_c   6.95565771
_cell_angle_alpha   100.85557247
_cell_angle_beta   102.57638749
_cell_angle_gamma   102.57601842
_symmetry_Int_Tables_number   1
_chemical_formula_structural   Ba3Be2B5HO13
_chemical_formula_sum   'Ba3 Be2 B5 H1 O13'
_cell_volume   305.68824249
_cell_formula_units_Z   1
loop_
 _symmetry_equiv_pos_site_id
 _symmetry_equiv_pos_as_xyz
  1  'x, y, z'
loop_
 _atom_site_type_symbol
 _atom_site_label
 _atom_site_symmetry_multiplicity
 _atom_site_fract_x
 _atom_site_fract_y
 _atom_site_fract_z
 _atom_site_occupancy
  Ba  Ba0  1  0.97967060  0.41290146  0.98001807  1
  Ba  Ba1  1  0.41437000  0.98810207  0.98809105  1
  Ba  Ba2  1  0.97967851  0.98000754  0.41290416  1
  Be  Be3  1  0.55852011  0.56181625  0.27698899  1
  Be  Be4  1  0.55852805  0.27697484  0.56183005  1
  B  B5  1  0.89124367  0.43925529  0.43925280  1
  B  B6  1  0.43095491  0.43172132  0.87854795  1
  B  B7  1  0.43095539  0.87854845  0.43172003  1
  B  B8  1  0.95725814  0.95679013  0.95678772  1
  B  B9  1  0.29129869  0.56139235  0.56139220  1
  H  H10  1  0.59341701  0.59079963  0.59079775  1
  O  O11  1  0.03664567  0.81166464  0.03732681  1
  O  O12  1  0.81686424  0.04027522  0.04032027  1
  O  O13  1  0.03660118  0.03738231  0.81166663  1
  O  O14  1  0.47464554  0.48923831  0.48923700  1
  O  O15  1  0.09630740  0.42990560  0.42990441  1
  O  O16  1  0.40758418  0.42348919  0.06921695  1
  O  O17  1  0.40758410  0.06921808  0.42348971  1
  O  O18  1  0.79680845  0.32463686  0.54996498  1
  O  O19  1  0.32312002  0.55118696  0.77583112  1
  O  O20  1  0.54894153  0.79397587  0.32448784  1
  O  O21  1  0.79681072  0.54996744  0.32463182  1
  O  O22  1  0.54894360  0.32448490  0.79397532  1
  O  O23  1  0.32311829  0.77583527  0.55118639  1
