# generated using pymatgen
data_Mg14AlCdO16
_symmetry_space_group_name_H-M   'P 1'
_cell_length_a   8.65327091
_cell_length_b   8.62324497
_cell_length_c   4.31793188
_cell_angle_alpha   90.00000000
_cell_angle_beta   90.00000000
_cell_angle_gamma   90.00000000
_symmetry_Int_Tables_number   1
_chemical_formula_structural   Mg14AlCdO16
_chemical_formula_sum   'Mg14 Al1 Cd1 O16'
_cell_volume   322.20094573
_cell_formula_units_Z   1
loop_
 _symmetry_equiv_pos_site_id
 _symmetry_equiv_pos_as_xyz
  1  'x, y, z'
loop_
 _atom_site_type_symbol
 _atom_site_label
 _atom_site_symmetry_multiplicity
 _atom_site_fract_x
 _atom_site_fract_y
 _atom_site_fract_z
 _atom_site_occupancy
  Mg  Mg0  1  0.50000000  0.00000000  -0.00000000  1
  Mg  Mg1  1  0.50000000  0.50000000  -0.00000000  1
  Mg  Mg2  1  0.00000000  0.24767765  0.50000000  1
  Mg  Mg3  1  0.00000000  0.75232235  0.50000000  1
  Mg  Mg4  1  0.50000000  0.25052181  0.50000000  1
  Mg  Mg5  1  0.50000000  0.74947819  0.50000000  1
  Mg  Mg6  1  0.25099968  0.00000000  0.50000000  1
  Mg  Mg7  1  0.25502949  0.50000000  0.50000000  1
  Mg  Mg8  1  0.74900032  0.00000000  0.50000000  1
  Mg  Mg9  1  0.74497051  0.50000000  0.50000000  1
  Mg  Mg10  1  0.25305280  0.25055384  0.00000000  1
  Mg  Mg11  1  0.25305280  0.74944616  -0.00000000  1
  Mg  Mg12  1  0.74694720  0.25055384  0.00000000  1
  Mg  Mg13  1  0.74694720  0.74944616  -0.00000000  1
  Al  Al14  1  0.00000000  0.00000000  -0.00000000  1
  Cd  Cd15  1  0.00000000  0.50000000  -0.00000000  1
  O  O16  1  0.23812827  0.00000000  0.00000000  1
  O  O17  1  0.27219850  0.50000000  0.00000000  1
  O  O18  1  0.76187173  0.00000000  -0.00000000  1
  O  O19  1  0.72780150  0.50000000  -0.00000000  1
  O  O20  1  0.24966934  0.24844528  0.50000000  1
  O  O21  1  0.24966934  0.75155472  0.50000000  1
  O  O22  1  0.75033066  0.24844528  0.50000000  1
  O  O23  1  0.75033066  0.75155472  0.50000000  1
  O  O24  1  0.00000000  0.00000000  0.50000000  1
  O  O25  1  0.00000000  0.50000000  0.50000000  1
  O  O26  1  0.50000000  0.00000000  0.50000000  1
  O  O27  1  0.50000000  0.50000000  0.50000000  1
  O  O28  1  0.00000000  0.21181610  -0.00000000  1
  O  O29  1  -0.00000000  0.78818390  0.00000000  1
  O  O30  1  0.50000000  0.24197041  0.00000000  1
  O  O31  1  0.50000000  0.75802959  -0.00000000  1
