# generated using pymatgen
data_Ba3Ti(FeO4)2
_symmetry_space_group_name_H-M   'P 1'
_cell_length_a   5.80889370
_cell_length_b   5.79986465
_cell_length_c   14.31381409
_cell_angle_alpha   90.00000000
_cell_angle_beta   90.00000000
_cell_angle_gamma   59.94855142
_symmetry_Int_Tables_number   1
_chemical_formula_structural   Ba3Ti(FeO4)2
_chemical_formula_sum   'Ba6 Ti2 Fe4 O16'
_cell_volume   417.41870526
_cell_formula_units_Z   2
loop_
 _symmetry_equiv_pos_site_id
 _symmetry_equiv_pos_as_xyz
  1  'x, y, z'
loop_
 _atom_site_type_symbol
 _atom_site_label
 _atom_site_symmetry_multiplicity
 _atom_site_fract_x
 _atom_site_fract_y
 _atom_site_fract_z
 _atom_site_occupancy
  Ba  Ba0  1  0.32745430  0.33097534  0.58404745  1
  Ba  Ba1  1  0.65841515  0.66903317  0.41594808  1
  Ba  Ba2  1  0.65841515  0.66903317  0.08405192  1
  Ba  Ba3  1  0.32745430  0.33097534  0.91595255  1
  Ba  Ba4  1  0.00938337  0.01046325  0.75000000  1
  Ba  Ba5  1  0.01982213  0.98955038  0.25000000  1
  Ti  Ti6  1  0.00638429  0.00000467  0.50000022  1
  Ti  Ti7  1  0.00638429  0.00000467  -0.00000022  1
  Fe  Fe8  1  0.36272954  0.32160908  0.35096390  1
  Fe  Fe9  1  0.68428171  0.67836154  0.64902336  1
  Fe  Fe10  1  0.68428171  0.67836154  0.85097664  1
  Fe  Fe11  1  0.36272954  0.32160908  0.14903610  1
  O  O12  1  0.82574600  0.32442990  0.58495137  1
  O  O13  1  0.33097921  0.82345501  0.57832173  1
  O  O14  1  0.84283054  0.83833768  0.57875770  1
  O  O15  1  0.15016373  0.67557525  0.41504195  1
  O  O16  1  0.68117516  0.16165644  0.42124057  1
  O  O17  1  0.15442552  0.17653992  0.42167533  1
  O  O18  1  0.15016373  0.67557525  0.08495805  1
  O  O19  1  0.68117516  0.16165644  0.07875943  1
  O  O20  1  0.15442552  0.17653992  0.07832467  1
  O  O21  1  0.82574600  0.32442990  0.91504863  1
  O  O22  1  0.33097921  0.82345501  0.92167827  1
  O  O23  1  0.84283054  0.83833768  0.92124230  1
  O  O24  1  0.49332216  0.94739667  0.75000000  1
  O  O25  1  0.95821906  0.49917720  0.75000000  1
  O  O26  1  0.44068523  0.05262384  0.25000000  1
  O  O27  1  0.45739775  0.50083267  0.25000000  1
