# generated using pymatgen
data_Ba4PrY(CuO2)8
_symmetry_space_group_name_H-M   'P 1'
_cell_length_a   3.90655831
_cell_length_b   13.99147593
_cell_length_c   7.83373259
_cell_angle_alpha   98.00609926
_cell_angle_beta   90.00000000
_cell_angle_gamma   90.00000000
_symmetry_Int_Tables_number   1
_chemical_formula_structural   Ba4PrY(CuO2)8
_chemical_formula_sum   'Ba4 Pr1 Y1 Cu8 O16'
_cell_volume   424.00683649
_cell_formula_units_Z   1
loop_
 _symmetry_equiv_pos_site_id
 _symmetry_equiv_pos_as_xyz
  1  'x, y, z'
loop_
 _atom_site_type_symbol
 _atom_site_label
 _atom_site_symmetry_multiplicity
 _atom_site_fract_x
 _atom_site_fract_y
 _atom_site_fract_z
 _atom_site_occupancy
  Ba  Ba0  1  0.50000000  0.27127696  0.31769957  1
  Ba  Ba1  1  0.50000000  0.27257686  0.81810262  1
  Ba  Ba2  1  0.50000000  0.72742314  0.68189738  1
  Ba  Ba3  1  0.50000000  0.72872304  0.18230043  1
  Pr  Pr4  1  0.50000000  -0.00000000  0.75000000  1
  Y  Y5  1  0.50000000  -0.00000000  0.25000000  1
  Cu  Cu6  1  0.00000000  0.42467925  0.60593372  1
  Cu  Cu7  1  -0.00000000  0.42468853  0.10625119  1
  Cu  Cu8  1  0.00000000  0.57531147  0.39374881  1
  Cu  Cu9  1  0.00000000  0.57532075  0.89406628  1
  Cu  Cu10  1  0.00000000  0.12544948  0.52865884  1
  Cu  Cu11  1  0.00000000  0.12547251  0.03371989  1
  Cu  Cu12  1  -0.00000000  0.87452749  0.46628011  1
  Cu  Cu13  1  -0.00000000  0.87455052  0.97134116  1
  O  O14  1  0.50000000  0.10706407  0.51770727  1
  O  O15  1  0.50000000  0.10705978  0.03574264  1
  O  O16  1  0.50000000  0.89294022  0.46425736  1
  O  O17  1  0.50000000  0.89293593  0.98229273  1
  O  O18  1  0.00000000  0.29114948  0.57321687  1
  O  O19  1  -0.00000000  0.29111886  0.07333352  1
  O  O20  1  0.00000000  0.70888114  0.42666648  1
  O  O21  1  -0.00000000  0.70885052  0.92678313  1
  O  O22  1  -0.00000000  0.43857599  0.35964996  1
  O  O23  1  0.00000000  0.43854189  0.85953853  1
  O  O24  1  -0.00000000  0.56145811  0.64046147  1
  O  O25  1  0.00000000  0.56142401  0.14035004  1
  O  O26  1  -0.00000000  0.10452600  0.27604328  1
  O  O27  1  0.00000000  0.11260041  0.77790333  1
  O  O28  1  -0.00000000  0.88739959  0.72209667  1
  O  O29  1  0.00000000  0.89547400  0.22395672  1
