# generated using pymatgen
data_Ba3Sm2WO9
_symmetry_space_group_name_H-M   'P 1'
_cell_length_a   6.20195638
_cell_length_b   8.80446503
_cell_length_c   10.75011909
_cell_angle_alpha   114.17377025
_cell_angle_beta   106.76577780
_cell_angle_gamma   90.00000000
_symmetry_Int_Tables_number   1
_chemical_formula_structural   Ba3Sm2WO9
_chemical_formula_sum   'Ba6 Sm4 W2 O18'
_cell_volume   508.05852414
_cell_formula_units_Z   2
loop_
 _symmetry_equiv_pos_site_id
 _symmetry_equiv_pos_as_xyz
  1  'x, y, z'
loop_
 _atom_site_type_symbol
 _atom_site_label
 _atom_site_symmetry_multiplicity
 _atom_site_fract_x
 _atom_site_fract_y
 _atom_site_fract_z
 _atom_site_occupancy
  Ba  Ba0  1  0.83951908  0.57904896  0.67903916  1
  Ba  Ba1  1  0.50000000  0.26537048  1.00000000  1
  Ba  Ba2  1  0.16048092  0.90001080  0.32096084  1
  Ba  Ba3  1  0.83951908  0.09998920  0.67903916  1
  Ba  Ba4  1  0.50000000  0.73462952  0.00000000  1
  Ba  Ba5  1  0.16048092  0.42095104  0.32096084  1
  Sm  Sm6  1  0.32638470  0.32638470  0.65277041  1
  Sm  Sm7  1  0.00000000  0.00000000  0.00000000  1
  Sm  Sm8  1  0.67361530  0.67361530  0.34722959  1
  Sm  Sm9  1  0.00000000  0.50000000  0.00000000  1
  W  W10  1  0.66508387  0.16508387  0.33016675  1
  W  W11  1  0.33491613  0.83491613  0.66983325  1
  O  O12  1  0.33067955  0.60565368  0.66136010  1
  O  O13  1  0.00000000  0.24713750  0.00000000  1
  O  O14  1  0.66932045  0.94429458  0.33863990  1
  O  O15  1  0.63467167  0.90952637  0.81905275  1
  O  O16  1  0.34088939  0.59026573  0.18053046  1
  O  O17  1  0.96421311  0.23877219  0.47754538  1
  O  O18  1  0.48666873  0.76122781  0.52245462  1
  O  O19  1  0.16035792  0.40973427  0.81946954  1
  O  O20  1  0.81561892  0.09047363  0.18094725  1
  O  O21  1  0.33067955  0.05570542  0.66136010  1
  O  O22  1  1.00000000  0.75286250  1.00000000  1
  O  O23  1  0.66932045  0.39434632  0.33863990  1
  O  O24  1  0.03578689  0.76122781  0.52245462  1
  O  O25  1  0.65911061  0.40973427  0.81946954  1
  O  O26  1  0.36532833  0.09047363  0.18094725  1
  O  O27  1  0.18438108  0.90952637  0.81905275  1
  O  O28  1  0.83964208  0.59026573  0.18053046  1
  O  O29  1  0.51333127  0.23877219  0.47754538  1
