# generated using pymatgen
data_Ba5Co4PtClO13
_symmetry_space_group_name_H-M   'P 1'
_cell_length_a   5.84283257
_cell_length_b   5.81060226
_cell_length_c   25.34453538
_cell_angle_alpha   90.00000000
_cell_angle_beta   90.00000000
_cell_angle_gamma   60.18230199
_symmetry_Int_Tables_number   1
_chemical_formula_structural   Ba5Co4PtClO13
_chemical_formula_sum   'Ba10 Co8 Pt2 Cl2 O26'
_cell_volume   746.54230935
_cell_formula_units_Z   2
loop_
 _symmetry_equiv_pos_site_id
 _symmetry_equiv_pos_as_xyz
  1  'x, y, z'
loop_
 _atom_site_type_symbol
 _atom_site_label
 _atom_site_symmetry_multiplicity
 _atom_site_fract_x
 _atom_site_fract_y
 _atom_site_fract_z
 _atom_site_occupancy
  Ba  Ba0  1  0.33255678  0.33372161  0.87044024  1
  Ba  Ba1  1  0.66744322  0.66627839  0.12955976  1
  Ba  Ba2  1  0.66744322  0.66627839  0.37044024  1
  Ba  Ba3  1  0.33255678  0.33372161  0.62955976  1
  Ba  Ba4  1  0.33431386  0.33284307  0.45951865  1
  Ba  Ba5  1  0.66568614  0.66715693  0.54048135  1
  Ba  Ba6  1  0.66568614  0.66715693  0.95951865  1
  Ba  Ba7  1  0.33431386  0.33284307  0.04048135  1
  Ba  Ba8  1  0.00071390  0.99964305  0.75000000  1
  Ba  Ba9  1  0.99928610  0.00035695  0.25000000  1
  Co  Co10  1  0.33300712  0.33349644  0.32209444  1
  Co  Co11  1  0.66699288  0.66650356  0.67790556  1
  Co  Co12  1  0.66699288  0.66650356  0.82209444  1
  Co  Co13  1  0.33300712  0.33349644  0.17790556  1
  Co  Co14  1  0.00079012  0.99960494  0.10693539  1
  Co  Co15  1  0.99920988  0.00039506  0.89306461  1
  Co  Co16  1  0.99920988  0.00039506  0.60693539  1
  Co  Co17  1  0.00079012  0.99960494  0.39306461  1
  Pt  Pt18  1  -0.00000000  0.00000000  0.50000000  1
  Pt  Pt19  1  -0.00000000  0.00000000  -0.00000000  1
  Cl  Cl20  1  0.33373013  0.33313493  0.75000000  1
  Cl  Cl21  1  0.66626987  0.66686507  0.25000000  1
  O  O22  1  0.15443587  0.15159546  0.94819900  1
  O  O23  1  0.15443587  0.69396867  0.94819900  1
  O  O24  1  0.68897643  0.15551179  0.94934165  1
  O  O25  1  0.84556413  0.84840454  0.05180100  1
  O  O26  1  0.84556413  0.30603133  0.05180100  1
  O  O27  1  0.31102357  0.84448821  0.05065835  1
  O  O28  1  0.84556413  0.84840454  0.44819900  1
  O  O29  1  0.84556413  0.30603133  0.44819900  1
  O  O30  1  0.31102357  0.84448821  0.44934165  1
  O  O31  1  0.15443587  0.15159546  0.55180100  1
  O  O32  1  0.15443587  0.69396867  0.55180100  1
  O  O33  1  0.68897643  0.15551179  0.55065835  1
  O  O34  1  0.83674740  0.83705341  0.84855119  1
  O  O35  1  0.83674740  0.32619918  0.84855119  1
  O  O36  1  0.33071240  0.83464380  0.84812548  1
  O  O37  1  0.16325260  0.16294659  0.15144881  1
  O  O38  1  0.16325260  0.67380082  0.15144881  1
  O  O39  1  0.66928760  0.16535620  0.15187452  1
  O  O40  1  0.16325260  0.16294659  0.34855119  1
  O  O41  1  0.16325260  0.67380082  0.34855119  1
  O  O42  1  0.66928760  0.16535620  0.34812548  1
  O  O43  1  0.83674740  0.83705341  0.65144881  1
  O  O44  1  0.83674740  0.32619918  0.65144881  1
  O  O45  1  0.33071240  0.83464380  0.65187452  1
  O  O46  1  0.32935671  0.33532164  0.25000000  1
  O  O47  1  0.67064329  0.66467836  0.75000000  1
