# generated using pymatgen
data_Ba4Y2Cu7O15
_symmetry_space_group_name_H-M   'P 1'
_cell_length_a   3.87367248
_cell_length_b   3.90996417
_cell_length_c   25.61177771
_cell_angle_alpha   85.62227648
_cell_angle_beta   90.00000000
_cell_angle_gamma   90.00000000
_symmetry_Int_Tables_number   1
_chemical_formula_structural   Ba4Y2Cu7O15
_chemical_formula_sum   'Ba4 Y2 Cu7 O15'
_cell_volume   386.78221474
_cell_formula_units_Z   1
loop_
 _symmetry_equiv_pos_site_id
 _symmetry_equiv_pos_as_xyz
  1  'x, y, z'
loop_
 _atom_site_type_symbol
 _atom_site_label
 _atom_site_symmetry_multiplicity
 _atom_site_fract_x
 _atom_site_fract_y
 _atom_site_fract_z
 _atom_site_occupancy
  Ba  Ba0  1  0.50000000  0.31201961  0.37596078  1
  Ba  Ba1  1  0.50000000  0.68798039  0.62403922  1
  Ba  Ba2  1  0.50000000  0.45812565  0.08374869  1
  Ba  Ba3  1  0.50000000  0.54187435  0.91625131  1
  Y  Y4  1  0.50000000  0.38496249  0.23007503  1
  Y  Y5  1  0.50000000  0.61503751  0.76992497  1
  Cu  Cu6  1  0.00000000  0.91857812  0.16284375  1
  Cu  Cu7  1  0.00000000  0.08142188  0.83715625  1
  Cu  Cu8  1  -0.00000000  0.85143929  0.29712143  1
  Cu  Cu9  1  -0.00000000  0.14856071  0.70287857  1
  Cu  Cu10  1  0.00000000  0.00000000  -0.00000000  1
  Cu  Cu11  1  -0.00000000  0.77014461  0.45971078  1
  Cu  Cu12  1  -0.00000000  0.22985539  0.54028922  1
  O  O13  1  0.00000000  0.41286789  0.17426422  1
  O  O14  1  -0.00000000  0.58713211  0.82573578  1
  O  O15  1  0.00000000  0.26692654  0.46614692  1
  O  O16  1  -0.00000000  0.73307346  0.53385308  1
  O  O17  1  0.50000000  0.91274196  0.17451609  1
  O  O18  1  0.50000000  0.08725804  0.82548391  1
  O  O19  1  0.00000000  0.96323561  0.07352879  1
  O  O20  1  0.00000000  0.03676439  0.92647121  1
  O  O21  1  0.00000000  0.80634055  0.38731891  1
  O  O22  1  0.00000000  0.19365945  0.61268109  1
  O  O23  1  0.50000000  0.85644845  0.28710310  1
  O  O24  1  0.50000000  0.14355155  0.71289690  1
  O  O25  1  0.00000000  0.35659060  0.28681881  1
  O  O26  1  -0.00000000  0.64340940  0.71318119  1
  O  O27  1  0.00000000  0.50000000  -0.00000000  1
