# generated using pymatgen
data_Ba3NaSr(SbO4)3
_symmetry_space_group_name_H-M   'P 1'
_cell_length_a   8.37149413
_cell_length_b   8.37149413
_cell_length_c   8.36100859
_cell_angle_alpha   90.00000000
_cell_angle_beta   90.00000000
_cell_angle_gamma   90.35356029
_symmetry_Int_Tables_number   1
_chemical_formula_structural   Ba3NaSr(SbO4)3
_chemical_formula_sum   'Ba6 Na2 Sr2 Sb6 O24'
_cell_volume   585.94432809
_cell_formula_units_Z   2
loop_
 _symmetry_equiv_pos_site_id
 _symmetry_equiv_pos_as_xyz
  1  'x, y, z'
loop_
 _atom_site_type_symbol
 _atom_site_label
 _atom_site_symmetry_multiplicity
 _atom_site_fract_x
 _atom_site_fract_y
 _atom_site_fract_z
 _atom_site_occupancy
  Ba  Ba0  1  0.25041780  0.75041780  0.25000000  1
  Ba  Ba1  1  0.74958220  0.24958220  0.25000000  1
  Ba  Ba2  1  0.24976610  0.25023390  0.75000000  1
  Ba  Ba3  1  0.75023390  0.74976610  0.75000000  1
  Ba  Ba4  1  0.75019547  0.74980453  0.25000000  1
  Ba  Ba5  1  0.24980453  0.25019547  0.25000000  1
  Na  Na6  1  0.50000000  0.50000000  0.50034952  1
  Na  Na7  1  -0.00000000  -0.00000000  0.99965048  1
  Sr  Sr8  1  0.24971866  0.74971866  0.75000000  1
  Sr  Sr9  1  0.75028134  0.25028134  0.75000000  1
  Sb  Sb10  1  0.50000000  0.50000000  0.99779429  1
  Sb  Sb11  1  -0.00000000  -0.00000000  0.50220571  1
  Sb  Sb12  1  -0.00000000  0.50000000  0.50199957  1
  Sb  Sb13  1  0.50000000  -0.00000000  0.99786482  1
  Sb  Sb14  1  0.50000000  -0.00000000  0.50213518  1
  Sb  Sb15  1  -0.00000000  0.50000000  0.99800043  1
  O  O16  1  0.00787926  0.75005084  0.50460085  1
  O  O17  1  0.99212074  0.24994916  0.50460085  1
  O  O18  1  0.49635993  0.25004316  0.99708056  1
  O  O19  1  0.50364007  0.74995684  0.99708056  1
  O  O20  1  0.75004316  0.99635993  0.50291944  1
  O  O21  1  0.24995684  0.00364007  0.50291944  1
  O  O22  1  0.25005084  0.50787926  0.99539915  1
  O  O23  1  0.74994916  0.49212074  0.99539915  1
  O  O24  1  0.50000000  0.50000000  0.22707365  1
  O  O25  1  -0.00000000  -0.00000000  0.73093379  1
  O  O26  1  0.50000000  0.50000000  0.76906621  1
  O  O27  1  -0.00000000  -0.00000000  0.27292635  1
  O  O28  1  -0.00000000  0.50000000  0.25000000  1
  O  O29  1  0.50000000  -0.00000000  0.75000000  1
  O  O30  1  0.50000000  -0.00000000  0.25000000  1
  O  O31  1  -0.00000000  0.50000000  0.75000000  1
  O  O32  1  0.49251545  0.77131475  0.50353892  1
  O  O33  1  0.50748455  0.22868525  0.50353892  1
  O  O34  1  0.00152214  0.27129080  0.99708309  1
  O  O35  1  0.99847786  0.72870920  0.99708309  1
  O  O36  1  0.77129080  0.50152214  0.50291691  1
  O  O37  1  0.22870920  0.49847786  0.50291691  1
  O  O38  1  0.27131475  0.99251545  0.99646108  1
  O  O39  1  0.72868525  0.00748455  0.99646108  1
