# generated using pymatgen
data_Ba4Y2Cu7O15
_symmetry_space_group_name_H-M   'P 1'
_cell_length_a   3.91252880
_cell_length_b   3.88416662
_cell_length_c   25.68283307
_cell_angle_alpha   85.66326961
_cell_angle_beta   90.00000000
_cell_angle_gamma   90.00000000
_symmetry_Int_Tables_number   1
_chemical_formula_structural   Ba4Y2Cu7O15
_chemical_formula_sum   'Ba4 Y2 Cu7 O15'
_cell_volume   389.18231729
_cell_formula_units_Z   1
loop_
 _symmetry_equiv_pos_site_id
 _symmetry_equiv_pos_as_xyz
  1  'x, y, z'
loop_
 _atom_site_type_symbol
 _atom_site_label
 _atom_site_symmetry_multiplicity
 _atom_site_fract_x
 _atom_site_fract_y
 _atom_site_fract_z
 _atom_site_occupancy
  Ba  Ba0  1  0.50000000  0.31145191  0.37709618  1
  Ba  Ba1  1  0.50000000  0.68854809  0.62290382  1
  Ba  Ba2  1  0.50000000  0.45804871  0.08390259  1
  Ba  Ba3  1  0.50000000  0.54195129  0.91609741  1
  Y  Y4  1  0.50000000  0.38482668  0.23034665  1
  Y  Y5  1  0.50000000  0.61517332  0.76965335  1
  Cu  Cu6  1  0.00000000  0.91842340  0.16315319  1
  Cu  Cu7  1  0.00000000  0.08157660  0.83684681  1
  Cu  Cu8  1  0.00000000  0.77013260  0.45973481  1
  Cu  Cu9  1  0.00000000  0.22986740  0.54026519  1
  Cu  Cu10  1  -0.00000000  0.85130940  0.29738121  1
  Cu  Cu11  1  -0.00000000  0.14869060  0.70261879  1
  Cu  Cu12  1  0.00000000  0.00000000  -0.00000000  1
  O  O13  1  0.00000000  0.26675926  0.46648149  1
  O  O14  1  0.00000000  0.73324074  0.53351851  1
  O  O15  1  0.50000000  0.85567718  0.28864563  1
  O  O16  1  0.50000000  0.14432282  0.71135437  1
  O  O17  1  0.00000000  0.41333873  0.17332254  1
  O  O18  1  0.00000000  0.58666127  0.82667746  1
  O  O19  1  0.00000000  0.80624072  0.38751856  1
  O  O20  1  0.00000000  0.19375928  0.61248144  1
  O  O21  1  0.50000000  0.91203315  0.17593369  1
  O  O22  1  0.50000000  0.08796685  0.82406631  1
  O  O23  1  0.00000000  0.96327909  0.07344182  1
  O  O24  1  0.00000000  0.03672091  0.92655818  1
  O  O25  1  0.00000000  0.35737538  0.28524924  1
  O  O26  1  0.00000000  0.64262462  0.71475076  1
  O  O27  1  0.50000000  0.00000000  -0.00000000  1
