# generated using pymatgen
data_Ag(Te5Au2)2
_symmetry_space_group_name_H-M   'P 1'
_cell_length_a   4.26904368
_cell_length_b   4.26904368
_cell_length_c   25.70301795
_cell_angle_alpha   90.74817687
_cell_angle_beta   90.74817687
_cell_angle_gamma   60.27804683
_symmetry_Int_Tables_number   1
_chemical_formula_structural   Ag(Te5Au2)2
_chemical_formula_sum   'Ag1 Te10 Au4'
_cell_volume   406.75830592
_cell_formula_units_Z   1
loop_
 _symmetry_equiv_pos_site_id
 _symmetry_equiv_pos_as_xyz
  1  'x, y, z'
loop_
 _atom_site_type_symbol
 _atom_site_label
 _atom_site_symmetry_multiplicity
 _atom_site_fract_x
 _atom_site_fract_y
 _atom_site_fract_z
 _atom_site_occupancy
  Ag  Ag0  1  -0.00000000  -0.00000000  0.80000000  1
  Te  Te1  1  0.68673700  0.68673700  0.05774339  1
  Te  Te2  1  0.68582977  0.68582977  0.25791634  1
  Te  Te3  1  0.68627852  0.68627852  0.45770066  1
  Te  Te4  1  0.68742294  0.68742294  0.65834524  1
  Te  Te5  1  0.68528422  0.68528422  0.85909081  1
  Te  Te6  1  0.31372148  0.31372148  0.14229934  1
  Te  Te7  1  0.31417023  0.31417023  0.34208366  1
  Te  Te8  1  0.31326300  0.31326300  0.54225661  1
  Te  Te9  1  0.31471578  0.31471578  0.74090919  1
  Te  Te10  1  0.31257706  0.31257706  0.94165476  1
  Au  Au11  1  0.99995580  0.99995580  0.00010263  1
  Au  Au12  1  0.99986268  0.99986268  0.19991488  1
  Au  Au13  1  0.00013732  0.00013732  0.40008512  1
  Au  Au14  1  0.00004420  0.00004420  0.59989737  1
