# generated using pymatgen
data_Ba2CaY(Co4O7)2
_symmetry_space_group_name_H-M   'P 1'
_cell_length_a   6.41341543
_cell_length_b   6.41341543
_cell_length_c   10.38074330
_cell_angle_alpha   89.40462120
_cell_angle_beta   90.59537880
_cell_angle_gamma   119.70684964
_symmetry_Int_Tables_number   1
_chemical_formula_structural   Ba2CaY(Co4O7)2
_chemical_formula_sum   'Ba2 Ca1 Y1 Co8 O14'
_cell_volume   370.83592728
_cell_formula_units_Z   1
loop_
 _symmetry_equiv_pos_site_id
 _symmetry_equiv_pos_as_xyz
  1  'x, y, z'
loop_
 _atom_site_type_symbol
 _atom_site_label
 _atom_site_symmetry_multiplicity
 _atom_site_fract_x
 _atom_site_fract_y
 _atom_site_fract_z
 _atom_site_occupancy
  Ba  Ba0  1  0.66012413  0.33987587  0.01948429  1
  Ba  Ba1  1  0.34207622  0.65792378  0.52166702  1
  Ca  Ca2  1  0.66748865  0.33251135  0.62751736  1
  Y  Y3  1  0.33239414  0.66760586  0.13270522  1
  Co  Co4  1  0.16869988  0.83130012  0.81180370  1
  Co  Co5  1  0.66235386  0.82688554  0.81324884  1
  Co  Co6  1  0.17311446  0.33764614  0.81324884  1
  Co  Co7  1  0.83069348  0.16930652  0.31353856  1
  Co  Co8  1  0.33632621  0.16724715  0.31103667  1
  Co  Co9  1  0.83275285  0.66367379  0.31103667  1
  Co  Co10  1  0.99567983  0.00432017  0.05438873  1
  Co  Co11  1  0.00411600  0.99588400  0.55254126  1
  O  O12  1  0.99823551  0.00176449  0.24100234  1
  O  O13  1  0.00438801  0.99561199  0.74686801  1
  O  O14  1  0.49443903  0.50556097  0.74828274  1
  O  O15  1  0.02331881  0.51840865  0.74920460  1
  O  O16  1  0.48159135  0.97668119  0.74920460  1
  O  O17  1  0.50481950  0.49518050  0.24372832  1
  O  O18  1  0.98961246  0.49627616  0.24128040  1
  O  O19  1  0.50372384  0.01038754  0.24128040  1
  O  O20  1  0.16014026  0.83985974  0.99386381  1
  O  O21  1  0.67662196  0.82781889  0.00323031  1
  O  O22  1  0.17218111  0.32337804  0.00323031  1
  O  O23  1  0.84037532  0.15962468  0.50108525  1
  O  O24  1  0.31744154  0.17270842  0.49986089  1
  O  O25  1  0.82729158  0.68255846  0.49986089  1
