# generated using pymatgen
data_Gd9Al5Se21
_symmetry_space_group_name_H-M   'P 1'
_cell_length_a   12.06910156
_cell_length_b   12.05343991
_cell_length_c   12.05507128
_cell_angle_alpha   94.20891659
_cell_angle_beta   85.84192897
_cell_angle_gamma   85.80521272
_symmetry_Int_Tables_number   1
_chemical_formula_structural   Gd9Al5Se21
_chemical_formula_sum   'Gd18 Al10 Se42'
_cell_volume   1738.93200585
_cell_formula_units_Z   2
loop_
 _symmetry_equiv_pos_site_id
 _symmetry_equiv_pos_as_xyz
  1  'x, y, z'
loop_
 _atom_site_type_symbol
 _atom_site_label
 _atom_site_symmetry_multiplicity
 _atom_site_fract_x
 _atom_site_fract_y
 _atom_site_fract_z
 _atom_site_occupancy
  Gd  Gd0  1  0.26090664  0.11139422  0.88261973  1
  Gd  Gd1  1  0.92726898  0.45445615  0.22569657  1
  Gd  Gd2  1  0.60397973  0.76746890  0.55496486  1
  Gd  Gd3  1  0.44586409  0.39576008  0.76816964  1
  Gd  Gd4  1  0.11678605  0.73976579  0.11059730  1
  Gd  Gd5  1  0.77401750  0.07132325  0.45399308  1
  Gd  Gd6  1  0.54536701  0.22730839  0.07249872  1
  Gd  Gd7  1  0.23147839  0.55295247  0.39398419  1
  Gd  Gd8  1  0.88836582  0.88322957  0.73848935  1
  Gd  Gd9  1  0.41458341  0.21090626  0.43191461  1
  Gd  Gd10  1  0.07007705  0.54886045  0.77824794  1
  Gd  Gd11  1  0.75316336  0.87676163  0.09788592  1
  Gd  Gd12  1  0.22384260  0.93122670  0.54862592  1
  Gd  Gd13  1  0.90295520  0.24543242  0.87662761  1
  Gd  Gd14  1  0.56772619  0.58561413  0.21169492  1
  Gd  Gd15  1  0.12440708  0.09546040  0.24544415  1
  Gd  Gd16  1  0.78980372  0.43242373  0.58563876  1
  Gd  Gd17  1  0.45017567  0.77577479  0.93053081  1
  Al  Al18  1  0.95396799  0.72084378  0.38501721  1
  Al  Al19  1  0.61461504  0.04776739  0.72087033  1
  Al  Al20  1  0.27859438  0.38473755  0.04656937  1
  Al  Al21  1  0.45419901  0.88267626  0.22343530  1
  Al  Al22  1  0.11685654  0.22459132  0.54745242  1
  Al  Al23  1  0.77645654  0.54593463  0.88505220  1
  Al  Al24  1  0.14386630  0.85643509  0.85619128  1
  Al  Al25  1  0.82682599  0.17435437  0.17439727  1
  Al  Al26  1  0.32938101  0.67050520  0.66910011  1
  Al  Al27  1  0.64109152  0.35752477  0.35843068  1
  Se  Se28  1  0.82856351  0.84096718  0.50981581  1
  Se  Se29  1  0.49027835  0.17235602  0.84254337  1
  Se  Se30  1  0.15680906  0.50956937  0.17007280  1
  Se  Se31  1  0.65779148  0.67354574  0.00909793  1
  Se  Se32  1  0.32702996  0.00808962  0.34112097  1
  Se  Se33  1  0.99234833  0.34209794  0.67487188  1
  Se  Se34  1  0.99313267  0.53906095  0.44718146  1
  Se  Se35  1  0.65020097  0.86658298  0.78494136  1
  Se  Se36  1  0.30959105  0.20071496  0.10769853  1
  Se  Se37  1  0.89203457  0.69133717  0.20147089  1
  Se  Se38  1  0.55305243  0.00590262  0.53929661  1
  Se  Se39  1  0.21493456  0.34939886  0.86582982  1
  Se  Se40  1  0.13379504  0.78573274  0.34892411  1
  Se  Se41  1  0.79881944  0.10884266  0.69018762  1
  Se  Se42  1  0.45979183  0.44757191  0.00604297  1
  Se  Se43  1  0.52250657  0.96491581  0.05967849  1
  Se  Se44  1  0.18541243  0.29682889  0.37870954  1
  Se  Se45  1  0.84189683  0.62728945  0.71786552  1
  Se  Se46  1  0.62133061  0.81500261  0.29801886  1
  Se  Se47  1  0.28319200  0.15974375  0.62897045  1
  Se  Se48  1  0.93923676  0.47550943  0.96679138  1
  Se  Se49  1  0.37190062  0.71603773  0.15860934  1
  Se  Se50  1  0.03490241  0.06116155  0.47769808  1
  Se  Se51  1  0.70249217  0.37933474  0.81408474  1
  Se  Se52  1  0.69054788  0.55767748  0.41410490  1
  Se  Se53  1  0.33871289  0.89471424  0.75934004  1
  Se  Se54  1  0.00526210  0.23806255  0.10090852  1
  Se  Se55  1  0.89924752  0.99562055  0.23908824  1
  Se  Se56  1  0.58694792  0.31098827  0.55789014  1
  Se  Se57  1  0.24053726  0.66142977  0.89495688  1
  Se  Se58  1  0.10717134  0.76030050  0.66234503  1
  Se  Se59  1  0.76099765  0.10131663  0.99646640  1
  Se  Se60  1  0.44210908  0.41347403  0.30862859  1
  Se  Se61  1  0.61880867  0.15066766  0.28443758  1
  Se  Se62  1  0.26982478  0.48481736  0.61912915  1
  Se  Se63  1  0.95878975  0.79440276  0.94141040  1
  Se  Se64  1  0.38118019  0.72853932  0.48330405  1
  Se  Se65  1  0.05811700  0.04210415  0.79364112  1
  Se  Se66  1  0.71448670  0.38150064  0.15067701  1
  Se  Se67  1  0.20782078  0.94120484  0.03996128  1
  Se  Se68  1  0.84753512  0.28478448  0.38003326  1
  Se  Se69  1  0.51490287  0.61864442  0.72934864  1
