# generated using pymatgen
data_CaSO4
_symmetry_space_group_name_H-M   'P 1'
_cell_length_a   6.43128326
_cell_length_b   6.79687892
_cell_length_c   6.98728764
_cell_angle_alpha   90.00000000
_cell_angle_beta   90.00000000
_cell_angle_gamma   103.56493322
_symmetry_Int_Tables_number   1
_chemical_formula_structural   CaSO4
_chemical_formula_sum   'Ca4 S4 O16'
_cell_volume   296.91275241
_cell_formula_units_Z   4
loop_
 _symmetry_equiv_pos_site_id
 _symmetry_equiv_pos_as_xyz
  1  'x, y, z'
loop_
 _atom_site_type_symbol
 _atom_site_label
 _atom_site_symmetry_multiplicity
 _atom_site_fract_x
 _atom_site_fract_y
 _atom_site_fract_z
 _atom_site_occupancy
  O  O0  1  0.20066156  0.62648634  0.29189371  1
  O  O1  1  0.29933844  0.87351366  0.79189371  1
  O  O2  1  0.79933844  0.37351366  0.70810629  1
  O  O3  1  0.70066156  0.12648634  0.20810629  1
  O  O4  1  0.29879352  0.96464510  0.40129633  1
  O  O5  1  0.20120648  0.53535490  0.90129633  1
  O  O6  1  0.70120648  0.03535490  0.59870367  1
  O  O7  1  0.79879352  0.46464510  0.09870367  1
  O  O8  1  0.44381866  0.25241880  0.01029244  1
  O  O9  1  0.05618134  0.24758120  0.51029244  1
  O  O10  1  0.55618134  0.74758120  0.98970756  1
  O  O11  1  0.94381866  0.75241880  0.48970756  1
  O  O12  1  0.51037498  0.37940365  0.33045225  1
  O  O13  1  0.98962502  0.12059635  0.83045225  1
  O  O14  1  0.48962502  0.62059635  0.66954775  1
  O  O15  1  0.01037498  0.87940365  0.16954775  1
  S  S16  1  0.11185800  0.80321149  0.33919535  1
  S  S17  1  0.38814200  0.69678851  0.83919535  1
  S  S18  1  0.88814200  0.19678851  0.66080465  1
  S  S19  1  0.61185800  0.30321149  0.16080465  1
  Ca  Ca20  1  0.59352244  0.78361819  0.34568704  1
  Ca  Ca21  1  0.90647756  0.71638181  0.84568704  1
  Ca  Ca22  1  0.40647756  0.21638181  0.65431296  1
  Ca  Ca23  1  0.09352244  0.28361819  0.15431296  1
