# generated using pymatgen
data_Al2Te3
_symmetry_space_group_name_H-M   'P 1'
_cell_length_a   7.47159746
_cell_length_b   7.40088537
_cell_length_c   8.22795404
_cell_angle_alpha   63.28129815
_cell_angle_beta   88.44376124
_cell_angle_gamma   119.68612541
_symmetry_Int_Tables_number   1
_chemical_formula_structural   Al2Te3
_chemical_formula_sum   'Al4 Te6'
_cell_volume   334.25987772
_cell_formula_units_Z   2
loop_
 _symmetry_equiv_pos_site_id
 _symmetry_equiv_pos_as_xyz
  1  'x, y, z'
loop_
 _atom_site_type_symbol
 _atom_site_label
 _atom_site_symmetry_multiplicity
 _atom_site_fract_x
 _atom_site_fract_y
 _atom_site_fract_z
 _atom_site_occupancy
  Al  Al0  1  0.83941426  0.32301920  0.49741222  1
  Al  Al1  1  0.50665534  0.68288812  0.50593763  1
  Al  Al2  1  0.33944832  0.01903358  0.99741010  1
  Al  Al3  1  0.00672942  0.31791574  0.00600981  1
  Te  Te4  1  0.95437050  0.59105517  0.11232290  1
  Te  Te5  1  0.61864497  0.90065169  0.12025989  1
  Te  Te6  1  0.28928440  0.24424298  0.13901796  1
  Te  Te7  1  0.45440272  0.25096936  0.61229536  1
  Te  Te8  1  0.11852215  0.59752416  0.62033834  1
  Te  Te9  1  0.78919492  0.90603300  0.63899579  1
