# generated using pymatgen
data_Ba4Si22Au
_symmetry_space_group_name_H-M   'P 1'
_cell_length_a   10.42721505
_cell_length_b   10.42721505
_cell_length_c   10.50456415
_cell_angle_alpha   90.00000000
_cell_angle_beta   90.00000000
_cell_angle_gamma   90.01280834
_symmetry_Int_Tables_number   1
_chemical_formula_structural   Ba4Si22Au
_chemical_formula_sum   'Ba8 Si44 Au2'
_cell_volume   1142.12775972
_cell_formula_units_Z   2
loop_
 _symmetry_equiv_pos_site_id
 _symmetry_equiv_pos_as_xyz
  1  'x, y, z'
loop_
 _atom_site_type_symbol
 _atom_site_label
 _atom_site_symmetry_multiplicity
 _atom_site_fract_x
 _atom_site_fract_y
 _atom_site_fract_z
 _atom_site_occupancy
  Ba  Ba0  1  0.49850074  0.50251435  0.50000000  1
  Ba  Ba1  1  0.00251435  0.99850074  -0.00000000  1
  Ba  Ba2  1  0.49013993  0.74176584  -0.00000000  1
  Ba  Ba3  1  0.24176584  0.99013993  0.50000000  1
  Ba  Ba4  1  0.01082176  0.51082176  0.75000000  1
  Ba  Ba5  1  0.49176110  0.25563250  -0.00000000  1
  Ba  Ba6  1  0.75563250  0.99176110  0.50000000  1
  Ba  Ba7  1  0.01082176  0.51082176  0.25000000  1
  Si  Si8  1  0.31811565  0.68492380  0.68586168  1
  Si  Si9  1  0.68533093  0.31328318  0.31611425  1
  Si  Si10  1  0.68533093  0.31328318  0.68388575  1
  Si  Si11  1  0.31811565  0.68492380  0.31413832  1
  Si  Si12  1  0.68498930  0.68309988  0.31365230  1
  Si  Si13  1  0.31728017  0.31320260  0.68569395  1
  Si  Si14  1  0.31728017  0.31320260  0.31430605  1
  Si  Si15  1  0.68498930  0.68309988  0.68634770  1
  Si  Si16  1  0.18492380  0.81811565  0.18586168  1
  Si  Si17  1  0.81328318  0.18533093  0.81611425  1
  Si  Si18  1  0.81328318  0.18533093  0.18388575  1
  Si  Si19  1  0.18492380  0.81811565  0.81413832  1
  Si  Si20  1  0.18309988  0.18498930  0.81365230  1
  Si  Si21  1  0.81320260  0.81728017  0.18569395  1
  Si  Si22  1  0.81320260  0.81728017  0.81430605  1
  Si  Si23  1  0.18309988  0.18498930  0.18634770  1
  Si  Si24  1  0.38286536  0.49832244  0.80454918  1
  Si  Si25  1  0.50193649  0.80738284  0.62236015  1
  Si  Si26  1  0.19912828  0.61953649  0.50000000  1
  Si  Si27  1  0.61991360  0.49678185  0.19431882  1
  Si  Si28  1  0.50099368  0.19017050  0.38204730  1
  Si  Si29  1  0.80596797  0.38008435  0.50000000  1
  Si  Si30  1  0.61991360  0.49678185  0.80568118  1
  Si  Si31  1  0.50099368  0.19017050  0.61795270  1
  Si  Si32  1  0.38286536  0.49832244  0.19545082  1
  Si  Si33  1  0.50193649  0.80738284  0.37763985  1
  Si  Si34  1  0.80315753  0.61703574  0.50000000  1
  Si  Si35  1  0.19753501  0.37931573  0.50000000  1
  Si  Si36  1  0.99832244  0.88286536  0.30454918  1
  Si  Si37  1  0.30738284  0.00193649  0.12236015  1
  Si  Si38  1  0.11953649  0.69912828  -0.00000000  1
  Si  Si39  1  0.99678185  0.11991360  0.69431882  1
  Si  Si40  1  0.69017050  0.00099368  0.88204730  1
  Si  Si41  1  0.88008435  0.30596797  -0.00000000  1
  Si  Si42  1  0.99678185  0.11991360  0.30568118  1
  Si  Si43  1  0.69017050  0.00099368  0.11795270  1
  Si  Si44  1  0.99832244  0.88286536  0.69545082  1
  Si  Si45  1  0.30738284  0.00193649  0.87763985  1
  Si  Si46  1  0.11703574  0.30315753  -0.00000000  1
  Si  Si47  1  0.87931573  0.69753501  -0.00000000  1
  Si  Si48  1  0.49830545  0.99830545  0.75000000  1
  Si  Si49  1  0.00246172  0.25035259  0.50000000  1
  Si  Si50  1  0.75035259  0.50246172  -0.00000000  1
  Si  Si51  1  0.49830545  0.99830545  0.25000000  1
  Au  Au52  1  0.00049355  0.74917764  0.50000000  1
  Au  Au53  1  0.24917764  0.50049355  -0.00000000  1
