# generated using pymatgen
data_Mg30FeBO32
_symmetry_space_group_name_H-M   'P 1'
_cell_length_a   8.49810282
_cell_length_b   8.51320195
_cell_length_c   8.51320195
_cell_angle_alpha   90.00000000
_cell_angle_beta   90.00000000
_cell_angle_gamma   90.00000000
_symmetry_Int_Tables_number   1
_chemical_formula_structural   Mg30FeBO32
_chemical_formula_sum   'Mg30 Fe1 B1 O32'
_cell_volume   615.89666588
_cell_formula_units_Z   1
loop_
 _symmetry_equiv_pos_site_id
 _symmetry_equiv_pos_as_xyz
  1  'x, y, z'
loop_
 _atom_site_type_symbol
 _atom_site_label
 _atom_site_symmetry_multiplicity
 _atom_site_fract_x
 _atom_site_fract_y
 _atom_site_fract_z
 _atom_site_occupancy
  Mg  Mg0  1  0.00000000  -0.00000000  0.50000000  1
  Mg  Mg1  1  0.00000000  0.50000000  0.00000000  1
  Mg  Mg2  1  0.50000000  0.00000000  -0.00000000  1
  Mg  Mg3  1  0.50000000  -0.00000000  0.50000000  1
  Mg  Mg4  1  0.50000000  0.50000000  0.00000000  1
  Mg  Mg5  1  0.50000000  0.50000000  0.50000000  1
  Mg  Mg6  1  0.00000000  0.25170719  0.25170719  1
  Mg  Mg7  1  0.00000000  0.25170719  0.74829281  1
  Mg  Mg8  1  0.00000000  0.74829281  0.25170719  1
  Mg  Mg9  1  0.00000000  0.74829281  0.74829281  1
  Mg  Mg10  1  0.50000000  0.25017907  0.25017907  1
  Mg  Mg11  1  0.50000000  0.25017907  0.74982093  1
  Mg  Mg12  1  0.50000000  0.74982093  0.25017907  1
  Mg  Mg13  1  0.50000000  0.74982093  0.74982093  1
  Mg  Mg14  1  0.25005278  0.00000000  0.25113853  1
  Mg  Mg15  1  0.25005278  -0.00000000  0.74886147  1
  Mg  Mg16  1  0.24809532  0.50000000  0.25181572  1
  Mg  Mg17  1  0.24809532  0.50000000  0.74818428  1
  Mg  Mg18  1  0.74994722  0.00000000  0.25113853  1
  Mg  Mg19  1  0.74994722  0.00000000  0.74886147  1
  Mg  Mg20  1  0.75190468  0.50000000  0.25181572  1
  Mg  Mg21  1  0.75190468  0.50000000  0.74818428  1
  Mg  Mg22  1  0.25005278  0.25113853  0.00000000  1
  Mg  Mg23  1  0.24809532  0.25181572  0.50000000  1
  Mg  Mg24  1  0.25005278  0.74886147  -0.00000000  1
  Mg  Mg25  1  0.24809532  0.74818428  0.50000000  1
  Mg  Mg26  1  0.74994722  0.25113853  0.00000000  1
  Mg  Mg27  1  0.75190468  0.25181572  0.50000000  1
  Mg  Mg28  1  0.74994722  0.74886147  -0.00000000  1
  Mg  Mg29  1  0.75190468  0.74818428  0.50000000  1
  Fe  Fe30  1  0.00000000  0.00000000  0.00000000  1
  B  B31  1  0.00000000  0.50000000  0.50000000  1
  O  O32  1  0.25192572  -0.00000000  0.00000000  1
  O  O33  1  0.24995732  0.00000000  0.50000000  1
  O  O34  1  0.24995732  0.50000000  -0.00000000  1
  O  O35  1  0.24767511  0.50000000  0.50000000  1
  O  O36  1  0.74807428  0.00000000  -0.00000000  1
  O  O37  1  0.75004268  -0.00000000  0.50000000  1
  O  O38  1  0.75004268  0.50000000  0.00000000  1
  O  O39  1  0.75232489  0.50000000  0.50000000  1
  O  O40  1  0.24974641  0.24987616  0.24987616  1
  O  O41  1  0.24974641  0.24987616  0.75012384  1
  O  O42  1  0.24974641  0.75012384  0.24987616  1
  O  O43  1  0.24974641  0.75012384  0.75012384  1
  O  O44  1  0.75025359  0.24987616  0.24987616  1
  O  O45  1  0.75025359  0.24987616  0.75012384  1
  O  O46  1  0.75025359  0.75012384  0.24987616  1
  O  O47  1  0.75025359  0.75012384  0.75012384  1
  O  O48  1  0.00000000  -0.00000000  0.25626540  1
  O  O49  1  0.00000000  -0.00000000  0.74373460  1
  O  O50  1  0.00000000  0.50000000  0.25333597  1
  O  O51  1  0.00000000  0.50000000  0.74666403  1
  O  O52  1  0.50000000  -0.00000000  0.25007382  1
  O  O53  1  0.50000000  0.00000000  0.74992618  1
  O  O54  1  0.50000000  0.50000000  0.25069888  1
  O  O55  1  0.50000000  0.50000000  0.74930112  1
  O  O56  1  0.00000000  0.25626540  0.00000000  1
  O  O57  1  0.00000000  0.25333597  0.50000000  1
  O  O58  1  0.00000000  0.74373460  0.00000000  1
  O  O59  1  0.00000000  0.74666403  0.50000000  1
  O  O60  1  0.50000000  0.25007382  -0.00000000  1
  O  O61  1  0.50000000  0.25069888  0.50000000  1
  O  O62  1  0.50000000  0.74992618  0.00000000  1
  O  O63  1  0.50000000  0.74930112  0.50000000  1
