# generated using pymatgen
data_Ba2TiVS6
_symmetry_space_group_name_H-M   'P 1'
_cell_length_a   5.66442820
_cell_length_b   6.81156061
_cell_length_c   6.81155595
_cell_angle_alpha   59.99997732
_cell_angle_beta   89.99633887
_cell_angle_gamma   90.00000000
_symmetry_Int_Tables_number   1
_chemical_formula_structural   Ba2TiVS6
_chemical_formula_sum   'Ba2 Ti1 V1 S6'
_cell_volume   227.60382767
_cell_formula_units_Z   1
loop_
 _symmetry_equiv_pos_site_id
 _symmetry_equiv_pos_as_xyz
  1  'x, y, z'
loop_
 _atom_site_type_symbol
 _atom_site_label
 _atom_site_symmetry_multiplicity
 _atom_site_fract_x
 _atom_site_fract_y
 _atom_site_fract_z
 _atom_site_occupancy
  Ba  Ba0  1  0.24790457  0.66668178  0.66663644  1
  Ba  Ba1  1  0.75209543  0.33331822  0.33336356  1
  Ti  Ti2  1  0.50000000  0.00000000  -0.00000000  1
  V  V3  1  0.00000000  0.00000000  -0.00000000  1
  S  S4  1  0.75717082  0.83499129  0.83500907  1
  S  S5  1  0.75715619  0.83499752  0.33000496  1
  S  S6  1  0.75717082  0.32999964  0.83500907  1
  S  S7  1  0.24282918  0.16500871  0.16499093  1
  S  S8  1  0.24284381  0.16500248  0.66999504  1
  S  S9  1  0.24282918  0.67000036  0.16499093  1
