# generated using pymatgen
data_Ba3La3(Cu3O7)2
_symmetry_space_group_name_H-M   'P 1'
_cell_length_a   5.56129525
_cell_length_b   5.56129525
_cell_length_c   12.44956993
_cell_angle_alpha   76.76477634
_cell_angle_beta   76.76477634
_cell_angle_gamma   88.56421682
_symmetry_Int_Tables_number   1
_chemical_formula_structural   Ba3La3(Cu3O7)2
_chemical_formula_sum   'Ba3 La3 Cu6 O14'
_cell_volume   364.70525532
_cell_formula_units_Z   1
loop_
 _symmetry_equiv_pos_site_id
 _symmetry_equiv_pos_as_xyz
  1  'x, y, z'
loop_
 _atom_site_type_symbol
 _atom_site_label
 _atom_site_symmetry_multiplicity
 _atom_site_fract_x
 _atom_site_fract_y
 _atom_site_fract_z
 _atom_site_occupancy
  Ba  Ba0  1  0.58889510  0.08889510  0.82220981  1
  Ba  Ba1  1  0.09128452  0.59128452  0.81743096  1
  Ba  Ba2  1  0.90961395  0.40961395  0.18077210  1
  La  La3  1  0.25068663  0.75068663  0.49862673  1
  La  La4  1  0.75149804  0.25149804  0.49700392  1
  La  La5  1  0.40834315  0.90834315  0.18331370  1
  Cu  Cu6  1  0.17482329  0.17482329  0.65035342  1
  Cu  Cu7  1  0.67482329  0.67482329  0.65035342  1
  Cu  Cu8  1  0.32700728  0.32700728  0.34598543  1
  Cu  Cu9  1  0.82700728  0.82700728  0.34598543  1
  Cu  Cu10  1  0.49793150  0.49793150  0.00413700  1
  Cu  Cu11  1  0.99793150  0.99793150  0.00413700  1
  O  O12  1  0.07718574  0.07718574  0.84562853  1
  O  O13  1  0.57718574  0.57718574  0.84562853  1
  O  O14  1  0.41852527  0.41852527  0.16294946  1
  O  O15  1  0.91852527  0.91852527  0.16294946  1
  O  O16  1  0.93421495  0.93553379  0.63025126  1
  O  O17  1  0.43553379  0.43421495  0.63025126  1
  O  O18  1  0.43870304  0.93870304  0.62534910  1
  O  O19  1  0.93594787  0.43594787  0.62534910  1
  O  O20  1  0.07510901  0.06611455  0.35877644  1
  O  O21  1  0.56611455  0.57510901  0.35877644  1
  O  O22  1  0.56384856  0.06384856  0.35806352  1
  O  O23  1  0.07808791  0.57808791  0.35806352  1
  O  O24  1  0.70280650  0.77836627  0.01882723  1
  O  O25  1  0.27836627  0.20280650  0.01882723  1
