# generated using pymatgen
data_B
_symmetry_space_group_name_H-M   'P 1'
_cell_length_a   10.12299326
_cell_length_b   10.12299326
_cell_length_c   10.12299325
_cell_angle_alpha   65.24406491
_cell_angle_beta   65.24406491
_cell_angle_gamma   65.24406493
_symmetry_Int_Tables_number   1
_chemical_formula_structural   B
_chemical_formula_sum   B105
_cell_volume   817.33771144
_cell_formula_units_Z   105
loop_
 _symmetry_equiv_pos_site_id
 _symmetry_equiv_pos_as_xyz
  1  'x, y, z'
loop_
 _atom_site_type_symbol
 _atom_site_label
 _atom_site_symmetry_multiplicity
 _atom_site_fract_x
 _atom_site_fract_y
 _atom_site_fract_z
 _atom_site_occupancy
  B  B0  1  0.00260283  0.16390287  0.00260283  1
  B  B1  1  0.00260283  0.00260283  0.16390287  1
  B  B2  1  0.16390287  0.00260283  0.00260283  1
  B  B3  1  0.83609713  0.99739717  0.99739717  1
  B  B4  1  0.99739717  0.83609713  0.99739717  1
  B  B5  1  0.99739717  0.99739717  0.83609713  1
  B  B6  1  0.09950978  0.84138180  0.09950978  1
  B  B7  1  0.09950978  0.09950978  0.84138180  1
  B  B8  1  0.84138180  0.09950978  0.09950978  1
  B  B9  1  0.15861820  0.90049022  0.90049022  1
  B  B10  1  0.90049022  0.15861820  0.90049022  1
  B  B11  1  0.90049022  0.90049022  0.15861820  1
  B  B12  1  0.99509895  0.66514331  0.99509895  1
  B  B13  1  0.99509895  0.99509895  0.66514331  1
  B  B14  1  0.66514331  0.99509895  0.99509895  1
  B  B15  1  0.33485669  0.00490105  0.00490105  1
  B  B16  1  0.00490105  0.33485669  0.00490105  1
  B  B17  1  0.00490105  0.00490105  0.33485669  1
  B  B18  1  0.10416677  0.49044956  0.10416677  1
  B  B19  1  0.10416677  0.10416677  0.49044956  1
  B  B20  1  0.49044956  0.10416677  0.10416677  1
  B  B21  1  0.50955044  0.89583323  0.89583323  1
  B  B22  1  0.89583323  0.50955044  0.89583323  1
  B  B23  1  0.89583323  0.89583323  0.50955044  1
  B  B24  1  0.34966350  0.00386256  0.17398757  1
  B  B25  1  0.17398757  0.34966350  0.00386256  1
  B  B26  1  0.00386256  0.17398757  0.34966350  1
  B  B27  1  0.99613744  0.65033650  0.82601243  1
  B  B28  1  0.82601243  0.99613744  0.65033650  1
  B  B29  1  0.65033650  0.82601243  0.99613744  1
  B  B30  1  0.65033650  0.99613744  0.82601243  1
  B  B31  1  0.82601243  0.65033650  0.99613744  1
  B  B32  1  0.99613744  0.82601243  0.65033650  1
  B  B33  1  0.00386256  0.34966350  0.17398757  1
  B  B34  1  0.17398757  0.00386256  0.34966350  1
  B  B35  1  0.34966350  0.17398757  0.00386256  1
  B  B36  1  0.55101295  0.89505614  0.16594811  1
  B  B37  1  0.16594811  0.55101295  0.89505614  1
  B  B38  1  0.89505614  0.16594811  0.55101295  1
  B  B39  1  0.10494386  0.44898705  0.83405189  1
  B  B40  1  0.83405189  0.10494386  0.44898705  1
  B  B41  1  0.44898705  0.83405189  0.10494386  1
  B  B42  1  0.44898705  0.10494386  0.83405189  1
  B  B43  1  0.83405189  0.44898705  0.10494386  1
  B  B44  1  0.10494386  0.83405189  0.44898705  1
  B  B45  1  0.89505614  0.55101295  0.16594811  1
  B  B46  1  0.16594811  0.89505614  0.55101295  1
  B  B47  1  0.55101295  0.16594811  0.89505614  1
  B  B48  1  0.19890416  0.68682810  0.19890416  1
  B  B49  1  0.19890416  0.19890416  0.68682810  1
  B  B50  1  0.68682810  0.19890416  0.19890416  1
  B  B51  1  0.31317190  0.80109584  0.80109584  1
  B  B52  1  0.80109584  0.31317190  0.80109584  1
  B  B53  1  0.80109584  0.80109584  0.31317190  1
  B  B54  1  0.68409919  0.20017446  0.37554462  1
  B  B55  1  0.37554462  0.68409919  0.20017446  1
  B  B56  1  0.20017446  0.37554462  0.68409919  1
  B  B57  1  0.79982554  0.31590081  0.62445538  1
  B  B58  1  0.62445538  0.79982554  0.31590081  1
  B  B59  1  0.31590081  0.62445538  0.79982554  1
  B  B60  1  0.31590081  0.79982554  0.62445538  1
  B  B61  1  0.62445538  0.31590081  0.79982554  1
  B  B62  1  0.79982554  0.62445538  0.31590081  1
  B  B63  1  0.20017446  0.68409919  0.37554462  1
  B  B64  1  0.37554462  0.20017446  0.68409919  1
  B  B65  1  0.68409919  0.37554462  0.20017446  1
  B  B66  1  0.58036250  0.09597260  0.36356948  1
  B  B67  1  0.36356948  0.58036250  0.09597260  1
  B  B68  1  0.09597260  0.36356948  0.58036250  1
  B  B69  1  0.90402740  0.41963750  0.63643052  1
  B  B70  1  0.63643052  0.90402740  0.41963750  1
  B  B71  1  0.41963750  0.63643052  0.90402740  1
  B  B72  1  0.41963750  0.90402740  0.63643052  1
  B  B73  1  0.63643052  0.41963750  0.90402740  1
  B  B74  1  0.90402740  0.63643052  0.41963750  1
  B  B75  1  0.09597260  0.58036250  0.36356948  1
  B  B76  1  0.36356948  0.09597260  0.58036250  1
  B  B77  1  0.58036250  0.36356948  0.09597260  1
  B  B78  1  0.19917159  0.50603924  0.19917159  1
  B  B79  1  0.19917159  0.19917159  0.50603924  1
  B  B80  1  0.50603924  0.19917159  0.19917159  1
  B  B81  1  0.49396076  0.80082841  0.80082841  1
  B  B82  1  0.80082841  0.49396076  0.80082841  1
  B  B83  1  0.80082841  0.80082841  0.49396076  1
  B  B84  1  0.38442662  0.56826530  0.38442662  1
  B  B85  1  0.38442662  0.38442662  0.56826530  1
  B  B86  1  0.56826530  0.38442662  0.38442662  1
  B  B87  1  0.43173470  0.61557338  0.61557338  1
  B  B88  1  0.61557338  0.43173470  0.61557338  1
  B  B89  1  0.61557338  0.61557338  0.43173470  1
  B  B90  1  0.48931754  0.22109220  0.48931754  1
  B  B91  1  0.48931754  0.48931754  0.22109220  1
  B  B92  1  0.22109220  0.48931754  0.48931754  1
  B  B93  1  0.77890780  0.51068246  0.51068246  1
  B  B94  1  0.51068246  0.77890780  0.51068246  1
  B  B95  1  0.51068246  0.51068246  0.77890780  1
  B  B96  1  0.38157911  0.21356048  0.38157911  1
  B  B97  1  0.38157911  0.38157911  0.21356048  1
  B  B98  1  0.21356048  0.38157911  0.38157911  1
  B  B99  1  0.78643952  0.61842089  0.61842089  1
  B  B100  1  0.61842089  0.78643952  0.61842089  1
  B  B101  1  0.61842089  0.61842089  0.78643952  1
  B  B102  1  0.38480893  0.38480893  0.38480893  1
  B  B103  1  0.61519107  0.61519107  0.61519107  1
  B  B104  1  0.50000000  0.50000000  0.50000000  1
