# generated using pymatgen
data_Rb2Mo9S11
_symmetry_space_group_name_H-M   'P 1'
_cell_length_a   13.24924764
_cell_length_b   13.24924765
_cell_length_c   13.24924764
_cell_angle_alpha   41.99949951
_cell_angle_beta   41.99949948
_cell_angle_gamma   41.99949952
_symmetry_Int_Tables_number   1
_chemical_formula_structural   Rb2Mo9S11
_chemical_formula_sum   'Rb4 Mo18 S22'
_cell_volume   941.95243052
_cell_formula_units_Z   2
loop_
 _symmetry_equiv_pos_site_id
 _symmetry_equiv_pos_as_xyz
  1  'x, y, z'
loop_
 _atom_site_type_symbol
 _atom_site_label
 _atom_site_symmetry_multiplicity
 _atom_site_fract_x
 _atom_site_fract_y
 _atom_site_fract_z
 _atom_site_occupancy
  S  S0  1  0.05029805  0.44970195  0.75000000  1
  S  S1  1  0.01797891  0.28939076  0.61704619  1
  S  S2  1  0.75000000  0.05029805  0.44970195  1
  S  S3  1  0.61704619  0.01797891  0.28939076  1
  S  S4  1  0.86370937  0.86370937  0.86370937  1
  S  S5  1  0.63629063  0.63629063  0.63629063  1
  S  S6  1  0.13629063  0.13629063  0.13629063  1
  S  S7  1  0.36370937  0.36370937  0.36370937  1
  S  S8  1  0.51797891  0.11704619  0.78939076  1
  S  S9  1  0.11704619  0.78939076  0.51797891  1
  S  S10  1  0.78939076  0.51797891  0.11704619  1
  S  S11  1  0.71060924  0.38295381  0.98202109  1
  S  S12  1  0.38295381  0.98202109  0.71060924  1
  S  S13  1  0.98202109  0.71060924  0.38295381  1
  S  S14  1  0.48202109  0.88295381  0.21060924  1
  S  S15  1  0.88295381  0.21060924  0.48202109  1
  S  S16  1  0.21060924  0.48202109  0.88295381  1
  S  S17  1  0.28939076  0.61704619  0.01797891  1
  S  S18  1  0.55029805  0.25000000  0.94970195  1
  S  S19  1  0.94970195  0.55029805  0.25000000  1
  S  S20  1  0.25000000  0.94970195  0.55029805  1
  S  S21  1  0.44970195  0.75000000  0.05029805  1
  Rb  Rb22  1  0.94867778  0.94867778  0.94867778  1
  Rb  Rb23  1  0.05132222  0.05132222  0.05132222  1
  Rb  Rb24  1  0.55132222  0.55132222  0.55132222  1
  Rb  Rb25  1  0.44867778  0.44867778  0.44867778  1
  Mo  Mo26  1  0.85391731  0.52918386  0.67789895  1
  Mo  Mo27  1  0.52918386  0.67789895  0.85391731  1
  Mo  Mo28  1  0.67789895  0.85391731  0.52918386  1
  Mo  Mo29  1  0.82210105  0.97081614  0.64608269  1
  Mo  Mo30  1  0.97081614  0.64608269  0.82210105  1
  Mo  Mo31  1  0.64608269  0.82210105  0.97081614  1
  Mo  Mo32  1  0.14608269  0.47081614  0.32210105  1
  Mo  Mo33  1  0.47081614  0.32210105  0.14608269  1
  Mo  Mo34  1  0.32210105  0.14608269  0.47081614  1
  Mo  Mo35  1  0.17789895  0.02918386  0.35391731  1
  Mo  Mo36  1  0.02918386  0.35391731  0.17789895  1
  Mo  Mo37  1  0.35391731  0.17789895  0.02918386  1
  Mo  Mo38  1  0.58373476  0.91626524  0.75000000  1
  Mo  Mo39  1  0.91626524  0.75000000  0.58373476  1
  Mo  Mo40  1  0.75000000  0.58373476  0.91626524  1
  Mo  Mo41  1  0.41626524  0.08373476  0.25000000  1
  Mo  Mo42  1  0.08373476  0.25000000  0.41626524  1
  Mo  Mo43  1  0.25000000  0.41626524  0.08373476  1
