# generated using pymatgen
data_Sr3Er2(BO3)4
_symmetry_space_group_name_H-M   'P 1'
_cell_length_a   7.37573359
_cell_length_b   8.71818975
_cell_length_c   16.27192864
_cell_angle_alpha   90.00000000
_cell_angle_beta   90.00000000
_cell_angle_gamma   90.00000000
_symmetry_Int_Tables_number   1
_chemical_formula_structural   Sr3Er2(BO3)4
_chemical_formula_sum   'Sr12 Er8 B16 O48'
_cell_volume   1046.33455930
_cell_formula_units_Z   4
loop_
 _symmetry_equiv_pos_site_id
 _symmetry_equiv_pos_as_xyz
  1  'x, y, z'
loop_
 _atom_site_type_symbol
 _atom_site_label
 _atom_site_symmetry_multiplicity
 _atom_site_fract_x
 _atom_site_fract_y
 _atom_site_fract_z
 _atom_site_occupancy
  B  B0  1  0.98578257  0.37432791  0.05685040  1
  B  B1  1  0.01421743  0.62567209  0.55685040  1
  B  B2  1  0.51421743  0.87432791  0.55685040  1
  B  B3  1  0.48578257  0.12567209  0.05685040  1
  B  B4  1  0.28907720  0.34503324  0.55847957  1
  B  B5  1  0.71092280  0.65496676  0.05847957  1
  B  B6  1  0.21092280  0.84503324  0.05847957  1
  B  B7  1  0.78907720  0.15496676  0.55847957  1
  B  B8  1  0.34582482  0.43222397  0.27257792  1
  B  B9  1  0.65417518  0.56777603  0.77257792  1
  B  B10  1  0.15417518  0.93222397  0.77257792  1
  B  B11  1  0.84582482  0.06777603  0.27257792  1
  B  B12  1  0.32419456  0.45646502  0.86318407  1
  B  B13  1  0.67580544  0.54353498  0.36318407  1
  B  B14  1  0.17580544  0.95646502  0.36318407  1
  B  B15  1  0.82419456  0.04353498  0.86318407  1
  O  O16  1  0.38292342  0.25949361  0.05266489  1
  O  O17  1  0.61707658  0.74050639  0.55266489  1
  O  O18  1  0.11707658  0.75949361  0.55266489  1
  O  O19  1  0.88292342  0.24050639  0.05266489  1
  O  O20  1  0.05704643  0.42417887  0.13109308  1
  O  O21  1  0.94295357  0.57582113  0.63109308  1
  O  O22  1  0.44295357  0.92417887  0.63109308  1
  O  O23  1  0.55704643  0.07582113  0.13109308  1
  O  O24  1  0.03486951  0.45784282  0.98686118  1
  O  O25  1  0.96513049  0.54215718  0.48686118  1
  O  O26  1  0.46513049  0.95784282  0.48686118  1
  O  O27  1  0.53486951  0.04215718  0.98686118  1
  O  O28  1  0.22439877  0.26425811  0.62515177  1
  O  O29  1  0.77560123  0.73574189  0.12515177  1
  O  O30  1  0.27560123  0.76425811  0.12515177  1
  O  O31  1  0.72439877  0.23574189  0.62515177  1
  O  O32  1  0.26996891  0.27248557  0.48208860  1
  O  O33  1  0.73003109  0.72751443  0.98208860  1
  O  O34  1  0.23003109  0.77248557  0.98208860  1
  O  O35  1  0.76996891  0.22751443  0.48208860  1
  O  O36  1  0.62567207  0.51633151  0.06639073  1
  O  O37  1  0.37432793  0.48366849  0.56639073  1
  O  O38  1  0.87432793  0.01633151  0.56639073  1
  O  O39  1  0.12567207  0.98366849  0.06639073  1
  O  O40  1  0.20640409  0.46656344  0.32703287  1
  O  O41  1  0.79359591  0.53343656  0.82703287  1
  O  O42  1  0.29359591  0.96656344  0.82703287  1
  O  O43  1  0.70640409  0.03343656  0.32703287  1
  O  O44  1  0.44156490  0.29608791  0.28221368  1
  O  O45  1  0.55843510  0.70391209  0.78221368  1
  O  O46  1  0.05843510  0.79608791  0.78221368  1
  O  O47  1  0.94156490  0.20391209  0.28221368  1
  O  O48  1  0.61384183  0.47765586  0.70574477  1
  O  O49  1  0.38615817  0.52234414  0.20574477  1
  O  O50  1  0.88615817  0.97765586  0.20574477  1
  O  O51  1  0.11384183  0.02234414  0.70574477  1
  O  O52  1  0.81730908  0.48404883  0.31755683  1
  O  O53  1  0.18269092  0.51595117  0.81755683  1
  O  O54  1  0.68269092  0.98404883  0.81755683  1
  O  O55  1  0.31730908  0.01595117  0.31755683  1
  O  O56  1  0.38228369  0.30748722  0.85094759  1
  O  O57  1  0.61771631  0.69251278  0.35094759  1
  O  O58  1  0.11771631  0.80748722  0.35094759  1
  O  O59  1  0.88228369  0.19251278  0.85094759  1
  O  O60  1  0.58994114  0.45607064  0.42378864  1
  O  O61  1  0.41005886  0.54392936  0.92378864  1
  O  O62  1  0.91005886  0.95607064  0.92378864  1
  O  O63  1  0.08994114  0.04392936  0.42378864  1
  Sr  Sr64  1  0.66907873  0.35195759  0.93621061  1
  Sr  Sr65  1  0.33092127  0.64804241  0.43621061  1
  Sr  Sr66  1  0.83092127  0.85195759  0.43621061  1
  Sr  Sr67  1  0.16907873  0.14804241  0.93621061  1
  Sr  Sr68  1  0.96602421  0.33887976  0.73063073  1
  Sr  Sr69  1  0.03397579  0.66112024  0.23063073  1
  Sr  Sr70  1  0.53397579  0.83887976  0.23063073  1
  Sr  Sr71  1  0.46602421  0.16112024  0.73063073  1
  Sr  Sr72  1  0.69642633  0.34764451  0.18778864  1
  Sr  Sr73  1  0.30357367  0.65235549  0.68778864  1
  Sr  Sr74  1  0.80357367  0.84764451  0.68778864  1
  Sr  Sr75  1  0.19642633  0.15235549  0.18778864  1
  Er  Er76  1  0.00172988  0.32347145  0.39742108  1
  Er  Er77  1  0.99827012  0.67652855  0.89742108  1
  Er  Er78  1  0.49827012  0.82347145  0.89742108  1
  Er  Er79  1  0.50172988  0.17652855  0.39742108  1
  Er  Er80  1  0.68265127  0.47328559  0.56302235  1
  Er  Er81  1  0.31734873  0.52671441  0.06302235  1
  Er  Er82  1  0.81734873  0.97328559  0.06302235  1
  Er  Er83  1  0.18265127  0.02671441  0.56302235  1
