# generated using pymatgen
data_Sr2HoCu3(PbO4)2
_symmetry_space_group_name_H-M   'P 1'
_cell_length_a   3.82898223
_cell_length_b   3.82898223
_cell_length_c   15.99151528
_cell_angle_alpha   90.00000000
_cell_angle_beta   90.00000000
_cell_angle_gamma   90.00954003
_symmetry_Int_Tables_number   1
_chemical_formula_structural   Sr2HoCu3(PbO4)2
_chemical_formula_sum   'Sr2 Ho1 Cu3 Pb2 O8'
_cell_volume   234.45328033
_cell_formula_units_Z   1
loop_
 _symmetry_equiv_pos_site_id
 _symmetry_equiv_pos_as_xyz
  1  'x, y, z'
loop_
 _atom_site_type_symbol
 _atom_site_label
 _atom_site_symmetry_multiplicity
 _atom_site_fract_x
 _atom_site_fract_y
 _atom_site_fract_z
 _atom_site_occupancy
  O  O0  1  0.00000000  0.50000000  0.90962310  1
  O  O1  1  0.50000000  0.00000000  0.09037690  1
  O  O2  1  0.00000000  0.50000000  0.09037690  1
  O  O3  1  0.50000000  0.00000000  0.90962310  1
  O  O4  1  0.00000000  0.00000000  0.38350829  1
  O  O5  1  0.50000000  0.50000000  0.74927068  1
  O  O6  1  0.50000000  0.50000000  0.25072932  1
  O  O7  1  0.00000000  0.00000000  0.61649171  1
  Cu  Cu8  1  0.00000000  0.00000000  0.50000000  1
  Cu  Cu9  1  0.50000000  0.50000000  0.89669820  1
  Cu  Cu10  1  0.50000000  0.50000000  0.10330180  1
  Sr  Sr11  1  0.00000000  0.00000000  0.77928346  1
  Sr  Sr12  1  0.00000000  0.00000000  0.22071654  1
  Ho  Ho13  1  0.00000000  0.00000000  0.00000000  1
  Pb  Pb14  1  0.50000000  0.50000000  0.38746262  1
  Pb  Pb15  1  0.50000000  0.50000000  0.61253738  1
