# generated using pymatgen
data_NaGdTiO4
_symmetry_space_group_name_H-M   'P 1'
_cell_length_a   3.74191645
_cell_length_b   3.74191645
_cell_length_c   12.91215806
_cell_angle_alpha   90.00000000
_cell_angle_beta   90.00000000
_cell_angle_gamma   90.00000000
_symmetry_Int_Tables_number   1
_chemical_formula_structural   NaGdTiO4
_chemical_formula_sum   'Na2 Gd2 Ti2 O8'
_cell_volume   180.79524588
_cell_formula_units_Z   2
loop_
 _symmetry_equiv_pos_site_id
 _symmetry_equiv_pos_as_xyz
  1  'x, y, z'
loop_
 _atom_site_type_symbol
 _atom_site_label
 _atom_site_symmetry_multiplicity
 _atom_site_fract_x
 _atom_site_fract_y
 _atom_site_fract_z
 _atom_site_occupancy
  O  O0  1  0.75000000  0.75000000  0.93357932  1
  O  O1  1  0.25000000  0.25000000  0.06642068  1
  O  O2  1  0.75000000  0.75000000  0.59642074  1
  O  O3  1  0.25000000  0.25000000  0.40357926  1
  O  O4  1  0.75000000  0.25000000  0.22827963  1
  O  O5  1  0.25000000  0.75000000  0.22827963  1
  O  O6  1  0.75000000  0.25000000  0.77172037  1
  O  O7  1  0.25000000  0.75000000  0.77172037  1
  Na  Na8  1  0.25000000  0.25000000  0.58319678  1
  Na  Na9  1  0.75000000  0.75000000  0.41680322  1
  Ti  Ti10  1  0.25000000  0.25000000  0.26648491  1
  Ti  Ti11  1  0.75000000  0.75000000  0.73351509  1
  Gd  Gd12  1  0.75000000  0.75000000  0.10575242  1
  Gd  Gd13  1  0.25000000  0.25000000  0.89424758  1
