# generated using pymatgen
data_NaSm3SiS7
_symmetry_space_group_name_H-M   'P 1'
_cell_length_a   10.19147482
_cell_length_b   10.19147482
_cell_length_c   5.75021648
_cell_angle_alpha   90.00000000
_cell_angle_beta   90.00000000
_cell_angle_gamma   120.00000004
_symmetry_Int_Tables_number   1
_chemical_formula_structural   NaSm3SiS7
_chemical_formula_sum   'Na2 Sm6 Si2 S14'
_cell_volume   517.23618315
_cell_formula_units_Z   2
loop_
 _symmetry_equiv_pos_site_id
 _symmetry_equiv_pos_as_xyz
  1  'x, y, z'
loop_
 _atom_site_type_symbol
 _atom_site_label
 _atom_site_symmetry_multiplicity
 _atom_site_fract_x
 _atom_site_fract_y
 _atom_site_fract_z
 _atom_site_occupancy
  Na  Na0  1  0.00000000  0.00000000  0.02079833  1
  Na  Na1  1  0.00000000  0.00000000  0.52079833  1
  Si  Si2  1  0.66666667  0.33333333  0.66305601  1
  Si  Si3  1  0.33333333  0.66666667  0.16305601  1
  S  S4  1  0.09020573  0.83045621  0.27240870  1
  S  S5  1  0.74025047  0.90979427  0.27240870  1
  S  S6  1  0.83045621  0.74025047  0.77240870  1
  S  S7  1  0.90979427  0.16954379  0.77240870  1
  S  S8  1  0.52231967  0.40945035  0.51527722  1
  S  S9  1  0.16954379  0.25974953  0.27240870  1
  S  S10  1  0.33333333  0.66666667  0.53089002  1
  S  S11  1  0.66666667  0.33333333  0.03089002  1
  S  S12  1  0.40945035  0.88713068  0.01527722  1
  S  S13  1  0.11286932  0.52231967  0.01527722  1
  S  S14  1  0.47768033  0.59054965  0.01527722  1
  S  S15  1  0.59054965  0.11286932  0.51527722  1
  S  S16  1  0.88713068  0.47768033  0.51527722  1
  S  S17  1  0.25974953  0.09020573  0.77240870  1
  Sm  Sm18  1  0.12561656  0.76471949  0.75133263  1
  Sm  Sm19  1  0.36089707  0.12561656  0.25133263  1
  Sm  Sm20  1  0.23528051  0.36089707  0.75133263  1
  Sm  Sm21  1  0.63910293  0.87438344  0.75133263  1
  Sm  Sm22  1  0.76471949  0.63910293  0.25133263  1
  Sm  Sm23  1  0.87438344  0.23528051  0.25133263  1
