# generated using pymatgen
data_Er2SiO5
_symmetry_space_group_name_H-M   'P 1'
_cell_length_a   6.70942184
_cell_length_b   6.77365038
_cell_length_c   9.14488089
_cell_angle_alpha   90.00000000
_cell_angle_beta   103.56807064
_cell_angle_gamma   90.00000000
_symmetry_Int_Tables_number   1
_chemical_formula_structural   Er2SiO5
_chemical_formula_sum   'Er8 Si4 O20'
_cell_volume   404.01105301
_cell_formula_units_Z   4
loop_
 _symmetry_equiv_pos_site_id
 _symmetry_equiv_pos_as_xyz
  1  'x, y, z'
loop_
 _atom_site_type_symbol
 _atom_site_label
 _atom_site_symmetry_multiplicity
 _atom_site_fract_x
 _atom_site_fract_y
 _atom_site_fract_z
 _atom_site_occupancy
  O  O0  1  0.43200859  0.87927080  0.60989499  1
  O  O1  1  0.06799141  0.37927080  0.39010501  1
  O  O2  1  0.56799141  0.12072920  0.39010501  1
  O  O3  1  0.93200859  0.62072920  0.60989499  1
  O  O4  1  0.01116467  0.29097484  0.89793327  1
  O  O5  1  0.48883533  0.79097484  0.10206673  1
  O  O6  1  0.98883533  0.70902516  0.10206673  1
  O  O7  1  0.51116467  0.20902516  0.89793327  1
  O  O8  1  0.98083018  0.14153677  0.61484349  1
  O  O9  1  0.51916982  0.64153677  0.38515651  1
  O  O10  1  0.01916982  0.85846323  0.38515651  1
  O  O11  1  0.48083018  0.35846323  0.61484349  1
  O  O12  1  0.31830106  0.56550317  0.78944412  1
  O  O13  1  0.18169894  0.06550317  0.21055588  1
  O  O14  1  0.68169894  0.43449683  0.21055588  1
  O  O15  1  0.81830106  0.93449683  0.78944412  1
  O  O16  1  0.70208653  0.55926701  0.86196605  1
  O  O17  1  0.79791347  0.05926701  0.13803395  1
  O  O18  1  0.29791347  0.44073299  0.13803395  1
  O  O19  1  0.20208653  0.94073299  0.86196605  1
  Si  Si20  1  0.01213801  0.09356396  0.79841005  1
  Si  Si21  1  0.48786199  0.59356396  0.20158995  1
  Si  Si22  1  0.98786199  0.90643604  0.20158995  1
  Si  Si23  1  0.51213801  0.40643604  0.79841005  1
  Er  Er24  1  0.26898089  0.12090652  0.46879377  1
  Er  Er25  1  0.23101911  0.62090652  0.53120623  1
  Er  Er26  1  0.73101911  0.87909348  0.53120623  1
  Er  Er27  1  0.76898089  0.37909348  0.46879377  1
  Er  Er28  1  0.02928537  0.64043577  0.86156097  1
  Er  Er29  1  0.47071463  0.14043577  0.13843903  1
  Er  Er30  1  0.97071463  0.35956423  0.13843903  1
  Er  Er31  1  0.52928537  0.85956423  0.86156097  1
