# generated using pymatgen
data_V6O13
_symmetry_space_group_name_H-M   'P 1'
_cell_length_a   6.32380429
_cell_length_b   6.32380429
_cell_length_c   10.26757083
_cell_angle_alpha   79.66238575
_cell_angle_beta   100.33761423
_cell_angle_gamma   145.09179951
_symmetry_Int_Tables_number   1
_chemical_formula_structural   V6O13
_chemical_formula_sum   'V6 O13'
_cell_volume   230.77959504
_cell_formula_units_Z   1
loop_
 _symmetry_equiv_pos_site_id
 _symmetry_equiv_pos_as_xyz
  1  'x, y, z'
loop_
 _atom_site_type_symbol
 _atom_site_label
 _atom_site_symmetry_multiplicity
 _atom_site_fract_x
 _atom_site_fract_y
 _atom_site_fract_z
 _atom_site_occupancy
  O  O0  1  0.11894949  0.88104851  0.61586274  1
  O  O1  1  0.18746399  0.81253683  0.00016594  1
  O  O2  1  0.25310947  0.74689163  0.41042265  1
  O  O3  1  0.32490849  0.67509068  0.80130513  1
  O  O4  1  0.43926459  0.56073540  0.58850233  1
  O  O5  1  0.38779434  0.61220509  0.19820586  1
  O  O6  1  0.61220546  0.38779495  0.80179400  1
  O  O7  1  0.50000070  0.50000085  0.99999998  1
  O  O8  1  0.56073521  0.43926464  0.41149753  1
  O  O9  1  0.88105032  0.11895152  0.38413712  1
  O  O10  1  0.74689034  0.25310840  0.58957720  1
  O  O11  1  0.81253581  0.18746321  0.99983392  1
  O  O12  1  0.67509299  0.32490942  0.19869491  1
  V  V13  1  0.34909422  0.65090500  0.99661435  1
  V  V14  1  0.65090559  0.34909503  0.00338551  1
  V  V15  1  0.28515591  0.71484250  0.63374284  1
  V  V16  1  0.41251796  0.58747960  0.36428057  1
  V  V17  1  0.58748185  0.41252043  0.63572026  1
  V  V18  1  0.71484389  0.28515754  0.36625701  1
