# generated using pymatgen
data_Er2SiSeO4
_symmetry_space_group_name_H-M   'P 1'
_cell_length_a   6.02014620
_cell_length_b   6.92076889
_cell_length_c   10.78953671
_cell_angle_alpha   90.00000000
_cell_angle_beta   90.00000000
_cell_angle_gamma   90.00000000
_symmetry_Int_Tables_number   1
_chemical_formula_structural   Er2SiSeO4
_chemical_formula_sum   'Er8 Si4 Se4 O16'
_cell_volume   449.53569483
_cell_formula_units_Z   4
loop_
 _symmetry_equiv_pos_site_id
 _symmetry_equiv_pos_as_xyz
  1  'x, y, z'
loop_
 _atom_site_type_symbol
 _atom_site_label
 _atom_site_symmetry_multiplicity
 _atom_site_fract_x
 _atom_site_fract_y
 _atom_site_fract_z
 _atom_site_occupancy
  O  O0  1  0.27904488  0.43294552  0.03137211  1
  O  O1  1  0.27904488  0.06705448  0.96862789  1
  O  O2  1  0.72095512  0.93294552  0.46862789  1
  O  O3  1  0.72095512  0.56705448  0.53137211  1
  O  O4  1  0.72095512  0.56705448  0.96862789  1
  O  O5  1  0.72095512  0.93294552  0.03137211  1
  O  O6  1  0.27904488  0.06705448  0.53137211  1
  O  O7  1  0.27904488  0.43294552  0.46862789  1
  O  O8  1  0.05308718  0.74125299  0.12136256  1
  O  O9  1  0.05308718  0.74125299  0.37863744  1
  O  O10  1  0.94691282  0.24125299  0.37863744  1
  O  O11  1  0.94691282  0.25874701  0.62136256  1
  O  O12  1  0.94691282  0.25874701  0.87863744  1
  O  O13  1  0.94691282  0.24125299  0.12136256  1
  O  O14  1  0.05308718  0.75874701  0.62136256  1
  O  O15  1  0.05308718  0.75874701  0.87863744  1
  Si  Si16  1  0.11462443  0.25000000  0.00000000  1
  Si  Si17  1  0.88537557  0.75000000  0.00000000  1
  Si  Si18  1  0.88537557  0.75000000  0.50000000  1
  Si  Si19  1  0.11462443  0.25000000  0.50000000  1
  Se  Se20  1  0.57096242  0.86669728  0.75000000  1
  Se  Se21  1  0.57096242  0.63330272  0.25000000  1
  Se  Se22  1  0.42903758  0.36669728  0.75000000  1
  Se  Se23  1  0.42903758  0.13330272  0.25000000  1
  Er  Er24  1  0.60931291  0.25000000  0.50000000  1
  Er  Er25  1  0.60931291  0.25000000  0.00000000  1
  Er  Er26  1  0.39068709  0.75000000  0.50000000  1
  Er  Er27  1  0.39068709  0.75000000  0.00000000  1
  Er  Er28  1  0.86549429  0.52694238  0.75000000  1
  Er  Er29  1  0.86549429  0.97305762  0.25000000  1
  Er  Er30  1  0.13450571  0.02694238  0.75000000  1
  Er  Er31  1  0.13450571  0.47305762  0.25000000  1
