# generated using pymatgen
data_LiAlGeO4
_symmetry_space_group_name_H-M   'P 1'
_cell_length_a   8.63487427
_cell_length_b   8.63487427
_cell_length_c   8.63487427
_cell_angle_alpha   107.82906752
_cell_angle_beta   107.82906754
_cell_angle_gamma   107.82906749
_symmetry_Int_Tables_number   1
_chemical_formula_structural   LiAlGeO4
_chemical_formula_sum   'Li6 Al6 Ge6 O24'
_cell_volume   523.58441858
_cell_formula_units_Z   6
loop_
 _symmetry_equiv_pos_site_id
 _symmetry_equiv_pos_as_xyz
  1  'x, y, z'
loop_
 _atom_site_type_symbol
 _atom_site_label
 _atom_site_symmetry_multiplicity
 _atom_site_fract_x
 _atom_site_fract_y
 _atom_site_fract_z
 _atom_site_occupancy
  Li  Li0  1  0.46848797  0.23958292  0.07128006  1
  Li  Li1  1  0.07128006  0.46848797  0.23958292  1
  Li  Li2  1  0.23958292  0.07128006  0.46848797  1
  Li  Li3  1  0.53151203  0.76041708  0.92871994  1
  Li  Li4  1  0.92871994  0.53151203  0.76041708  1
  Li  Li5  1  0.76041708  0.92871994  0.53151203  1
  O  O6  1  0.68491105  0.34484025  0.65967896  1
  O  O7  1  0.32277963  0.37928731  0.04814475  1
  O  O8  1  0.37928731  0.04814475  0.32277963  1
  O  O9  1  0.04814475  0.32277963  0.37928731  1
  O  O10  1  0.67722037  0.62071269  0.95185525  1
  O  O11  1  0.62071269  0.95185525  0.67722037  1
  O  O12  1  0.95185525  0.67722037  0.62071269  1
  O  O13  1  0.65967896  0.68491105  0.34484025  1
  O  O14  1  0.40108096  0.73979156  0.07910643  1
  O  O15  1  0.34484025  0.65967896  0.68491105  1
  O  O16  1  0.34032104  0.31508895  0.65515975  1
  O  O17  1  0.31508895  0.65515975  0.34032104  1
  O  O18  1  0.59891904  0.26020844  0.92089357  1
  O  O19  1  0.92089357  0.59891904  0.26020844  1
  O  O20  1  0.26020844  0.92089357  0.59891904  1
  O  O21  1  0.27972878  0.97312415  0.95504940  1
  O  O22  1  0.07910643  0.40108096  0.73979156  1
  O  O23  1  0.73979156  0.07910643  0.40108096  1
  O  O24  1  0.02687585  0.04495060  0.72027122  1
  O  O25  1  0.95504940  0.27972878  0.97312415  1
  O  O26  1  0.97312415  0.95504940  0.27972878  1
  O  O27  1  0.72027122  0.02687585  0.04495060  1
  O  O28  1  0.04495060  0.72027122  0.02687585  1
  O  O29  1  0.65515975  0.34032104  0.31508895  1
  Al  Al30  1  0.78909337  0.56811026  0.38440357  1
  Al  Al31  1  0.56811026  0.38440357  0.78909337  1
  Al  Al32  1  0.21090663  0.43188974  0.61559643  1
  Al  Al33  1  0.61559643  0.21090663  0.43188974  1
  Al  Al34  1  0.43188974  0.61559643  0.21090663  1
  Al  Al35  1  0.38440357  0.78909337  0.56811026  1
  Ge  Ge36  1  0.72045566  0.13322067  0.89352540  1
  Ge  Ge37  1  0.89352540  0.72045566  0.13322067  1
  Ge  Ge38  1  0.86677933  0.10647460  0.27954434  1
  Ge  Ge39  1  0.27954434  0.86677933  0.10647460  1
  Ge  Ge40  1  0.10647460  0.27954434  0.86677933  1
  Ge  Ge41  1  0.13322067  0.89352540  0.72045566  1
