# generated using pymatgen
data_NaMn7O12
_symmetry_space_group_name_H-M   'P 1'
_cell_length_a   6.45009900
_cell_length_b   6.45009900
_cell_length_c   6.45009900
_cell_angle_alpha   109.47122063
_cell_angle_beta   109.47122062
_cell_angle_gamma   109.47122065
_symmetry_Int_Tables_number   1
_chemical_formula_structural   NaMn7O12
_chemical_formula_sum   'Na1 Mn7 O12'
_cell_volume   206.57475721
_cell_formula_units_Z   1
loop_
 _symmetry_equiv_pos_site_id
 _symmetry_equiv_pos_as_xyz
  1  'x, y, z'
loop_
 _atom_site_type_symbol
 _atom_site_label
 _atom_site_symmetry_multiplicity
 _atom_site_fract_x
 _atom_site_fract_y
 _atom_site_fract_z
 _atom_site_occupancy
  O  O0  1  0.81655014  0.31241818  0.12896832  1
  O  O1  1  0.18344986  0.68758182  0.87103168  1
  O  O2  1  0.81655014  0.68758182  0.50413196  1
  O  O3  1  0.31241818  0.49586804  0.18344986  1
  O  O4  1  0.49586804  0.18344986  0.31241818  1
  O  O5  1  0.12896832  0.81655014  0.31241818  1
  O  O6  1  0.68758182  0.87103168  0.18344986  1
  O  O7  1  0.50413196  0.81655014  0.68758182  1
  O  O8  1  0.18344986  0.31241818  0.49586804  1
  O  O9  1  0.68758182  0.50413196  0.81655014  1
  O  O10  1  0.87103168  0.18344986  0.68758182  1
  O  O11  1  0.31241818  0.12896832  0.81655014  1
  Na  Na12  1  0.00000000  0.00000000  0.00000000  1
  Mn  Mn13  1  0.00000000  0.00000000  0.50000000  1
  Mn  Mn14  1  0.00000000  0.50000000  0.00000000  1
  Mn  Mn15  1  0.50000000  0.50000000  0.50000000  1
  Mn  Mn16  1  0.50000000  0.00000000  0.50000000  1
  Mn  Mn17  1  0.50000000  0.50000000  0.00000000  1
  Mn  Mn18  1  0.00000000  0.50000000  0.50000000  1
  Mn  Mn19  1  0.50000000  0.00000000  0.00000000  1
