# generated using pymatgen
data_MgV2O5
_symmetry_space_group_name_H-M   'P 1'
_cell_length_a   3.72756670
_cell_length_b   5.42113452
_cell_length_c   11.20607897
_cell_angle_alpha   90.00000000
_cell_angle_beta   90.00000000
_cell_angle_gamma   110.10853013
_symmetry_Int_Tables_number   1
_chemical_formula_structural   MgV2O5
_chemical_formula_sum   'Mg2 V4 O10'
_cell_volume   212.64481716
_cell_formula_units_Z   2
loop_
 _symmetry_equiv_pos_site_id
 _symmetry_equiv_pos_as_xyz
  1  'x, y, z'
loop_
 _atom_site_type_symbol
 _atom_site_label
 _atom_site_symmetry_multiplicity
 _atom_site_fract_x
 _atom_site_fract_y
 _atom_site_fract_z
 _atom_site_occupancy
  O  O0  1  0.69602546  0.39204989  0.24999986  1
  O  O1  1  0.30397558  0.60795115  0.74999957  1
  O  O2  1  0.23555754  0.47111508  0.07751835  1
  O  O3  1  0.76444350  0.52888596  0.92248198  1
  O  O4  1  0.76444350  0.52888596  0.57751806  1
  O  O5  1  0.23555754  0.47111508  0.42248137  1
  O  O6  1  0.04102869  0.08205737  0.62794223  1
  O  O7  1  0.95897137  0.91794170  0.37205810  1
  O  O8  1  0.04102869  0.08205737  0.87205781  1
  O  O9  1  0.95897137  0.91794170  0.12794252  1
  Mg  Mg10  1  0.89138273  0.78276442  0.74999957  1
  Mg  Mg11  1  0.10861831  0.21723662  0.24999986  1
  V  V12  1  0.20110820  0.40221641  0.59778227  1
  V  V13  1  0.79889283  0.59778463  0.40221716  1
  V  V14  1  0.79889283  0.59778463  0.09778255  1
  V  V15  1  0.20110820  0.40221641  0.90221778  1
