# generated using pymatgen
data_Ba6Nd2Ti4O17
_symmetry_space_group_name_H-M   'P 1'
_cell_length_a   6.06662650
_cell_length_b   6.06662650
_cell_length_c   30.48331728
_cell_angle_alpha   90.00000000
_cell_angle_beta   90.00000000
_cell_angle_gamma   120.00000002
_symmetry_Int_Tables_number   1
_chemical_formula_structural   Ba6Nd2Ti4O17
_chemical_formula_sum   'Ba12 Nd4 Ti8 O34'
_cell_volume   971.59970308
_cell_formula_units_Z   2
loop_
 _symmetry_equiv_pos_site_id
 _symmetry_equiv_pos_as_xyz
  1  'x, y, z'
loop_
 _atom_site_type_symbol
 _atom_site_label
 _atom_site_symmetry_multiplicity
 _atom_site_fract_x
 _atom_site_fract_y
 _atom_site_fract_z
 _atom_site_occupancy
  O  O0  1  0.48148381  0.96296761  0.75000000  1
  O  O1  1  0.51851619  0.48148381  0.25000000  1
  O  O2  1  0.96296761  0.48148381  0.25000000  1
  O  O3  1  0.03703239  0.51851619  0.75000000  1
  O  O4  1  0.48148381  0.51851619  0.75000000  1
  O  O5  1  0.51851619  0.03703239  0.25000000  1
  O  O6  1  0.35642841  0.17821421  0.32904238  1
  O  O7  1  0.82178579  0.17821421  0.32904238  1
  O  O8  1  0.82178579  0.64357159  0.32904238  1
  O  O9  1  0.17821421  0.35642841  0.82904238  1
  O  O10  1  0.64357159  0.82178579  0.67095762  1
  O  O11  1  0.64357159  0.82178579  0.82904238  1
  O  O12  1  0.17821421  0.82178579  0.82904238  1
  O  O13  1  0.82178579  0.64357159  0.17095762  1
  O  O14  1  0.82178579  0.17821421  0.17095762  1
  O  O15  1  0.17821421  0.82178579  0.67095762  1
  O  O16  1  0.17821421  0.35642841  0.67095762  1
  O  O17  1  0.35642841  0.17821421  0.17095762  1
  O  O18  1  0.66018264  0.83009132  0.42511097  1
  O  O19  1  0.16990868  0.83009132  0.42511097  1
  O  O20  1  0.16990868  0.33981736  0.42511097  1
  O  O21  1  0.83009132  0.66018264  0.92511097  1
  O  O22  1  0.33981736  0.16990868  0.57488903  1
  O  O23  1  0.33981736  0.16990868  0.92511097  1
  O  O24  1  0.33333333  0.66666667  0.99423194  1
  O  O25  1  0.66666667  0.33333333  0.49423194  1
  O  O26  1  0.66666667  0.33333333  0.00576806  1
  O  O27  1  0.33333333  0.66666667  0.50576806  1
  O  O28  1  0.66018264  0.83009132  0.07488903  1
  O  O29  1  0.83009132  0.66018264  0.57488903  1
  O  O30  1  0.83009132  0.16990868  0.57488903  1
  O  O31  1  0.16990868  0.83009132  0.07488903  1
  O  O32  1  0.16990868  0.33981736  0.07488903  1
  O  O33  1  0.83009132  0.16990868  0.92511097  1
  Ti  Ti34  1  0.66666667  0.33333333  0.29575838  1
  Ti  Ti35  1  0.33333333  0.66666667  0.79575838  1
  Ti  Ti36  1  0.33333333  0.66666667  0.70424162  1
  Ti  Ti37  1  0.66666667  0.33333333  0.20424162  1
  Ti  Ti38  1  0.33333333  0.66666667  0.44740877  1
  Ti  Ti39  1  0.66666667  0.33333333  0.94740877  1
  Ti  Ti40  1  0.66666667  0.33333333  0.55259123  1
  Ti  Ti41  1  0.33333333  0.66666667  0.05259123  1
  Ba  Ba42  1  0.00000000  0.00000000  0.75000000  1
  Ba  Ba43  1  0.00000000  0.00000000  0.25000000  1
  Ba  Ba44  1  0.33333333  0.66666667  0.31321476  1
  Ba  Ba45  1  0.66666667  0.33333333  0.81321476  1
  Ba  Ba46  1  0.66666667  0.33333333  0.68678524  1
  Ba  Ba47  1  0.33333333  0.66666667  0.18678524  1
  Ba  Ba48  1  0.66666667  0.33333333  0.41123833  1
  Ba  Ba49  1  0.33333333  0.66666667  0.91123833  1
  Ba  Ba50  1  0.33333333  0.66666667  0.58876167  1
  Ba  Ba51  1  0.66666667  0.33333333  0.08876167  1
  Ba  Ba52  1  0.00000000  0.00000000  0.50000000  1
  Ba  Ba53  1  0.00000000  0.00000000  0.00000000  1
  Nd  Nd54  1  0.00000000  0.00000000  0.37357371  1
  Nd  Nd55  1  0.00000000  0.00000000  0.87357371  1
  Nd  Nd56  1  0.00000000  0.00000000  0.62642629  1
  Nd  Nd57  1  0.00000000  0.00000000  0.12642629  1
