# generated using pymatgen
data_Na2ZrCo(P2O7)2
_symmetry_space_group_name_H-M   'P 1'
_cell_length_a   6.99214562
_cell_length_b   6.62768084
_cell_length_c   6.62375966
_cell_angle_alpha   82.03610350
_cell_angle_beta   66.16238187
_cell_angle_gamma   85.45322055
_symmetry_Int_Tables_number   1
_chemical_formula_structural   Na2ZrCo(P2O7)2
_chemical_formula_sum   'Na2 Zr1 Co1 P4 O14'
_cell_volume   277.97157947
_cell_formula_units_Z   1
loop_
 _symmetry_equiv_pos_site_id
 _symmetry_equiv_pos_as_xyz
  1  'x, y, z'
loop_
 _atom_site_type_symbol
 _atom_site_label
 _atom_site_symmetry_multiplicity
 _atom_site_fract_x
 _atom_site_fract_y
 _atom_site_fract_z
 _atom_site_occupancy
  O  O0  1  0.97411788  0.04376839  0.67191119  1
  O  O1  1  0.41550971  0.74447835  0.48551157  1
  O  O2  1  0.48761415  0.37307303  0.81097263  1
  O  O3  1  0.35693608  0.29419512  0.51997919  1
  O  O4  1  0.77262790  0.76029529  0.63733809  1
  O  O5  1  0.68960782  0.13242573  0.52624877  1
  O  O6  1  0.34428241  0.02501145  0.83801831  1
  O  O7  1  0.73415660  0.55429682  0.25208753  1
  O  O8  1  0.07839325  0.68350940  0.95063878  1
  O  O9  1  0.96630472  0.32468143  0.97653541  1
  O  O10  1  0.01859190  0.97013826  0.29066643  1
  O  O11  1  0.45464061  0.66602550  0.10394588  1
  O  O12  1  0.07072261  0.41945408  0.27749535  1
  O  O13  1  0.69069486  0.92757024  0.13240400  1
  Na  Na14  1  0.39877812  0.25297013  0.17985454  1
  Na  Na15  1  0.08685608  0.53271889  0.57854430  1
  P  P16  1  0.45923184  0.21798607  0.67571983  1
  P  P17  1  0.86575961  0.96839064  0.53582971  1
  P  P18  1  0.56006135  0.73021214  0.24358645  1
  P  P19  1  0.97330504  0.49255638  0.11789852  1
  Co  Co20  1  0.46249605  0.69031949  0.78490284  1
  Zr  Zr21  1  0.00621105  0.00802514  0.97310872  1
