# generated using pymatgen
data_As2PbS4
_symmetry_space_group_name_H-M   'P 1'
_cell_length_a   3.76709820
_cell_length_b   9.46676399
_cell_length_c   18.62956339
_cell_angle_alpha   90.00000000
_cell_angle_beta   90.00000000
_cell_angle_gamma   90.00000000
_symmetry_Int_Tables_number   1
_chemical_formula_structural   As2PbS4
_chemical_formula_sum   'As8 Pb4 S16'
_cell_volume   664.37176671
_cell_formula_units_Z   4
loop_
 _symmetry_equiv_pos_site_id
 _symmetry_equiv_pos_as_xyz
  1  'x, y, z'
loop_
 _atom_site_type_symbol
 _atom_site_label
 _atom_site_symmetry_multiplicity
 _atom_site_fract_x
 _atom_site_fract_y
 _atom_site_fract_z
 _atom_site_occupancy
  S  S0  1  0.25000000  0.80527343  0.45392274  1
  S  S1  1  0.25000000  0.30527343  0.04607726  1
  S  S2  1  0.75000000  0.19472657  0.54607726  1
  S  S3  1  0.75000000  0.69472657  0.95392274  1
  S  S4  1  0.75000000  0.49074333  0.41901640  1
  S  S5  1  0.75000000  0.99074333  0.08098360  1
  S  S6  1  0.25000000  0.50925667  0.58098360  1
  S  S7  1  0.25000000  0.00925667  0.91901640  1
  S  S8  1  0.25000000  0.15178431  0.35250785  1
  S  S9  1  0.25000000  0.65178431  0.14749215  1
  S  S10  1  0.75000000  0.84821569  0.64749215  1
  S  S11  1  0.75000000  0.34821569  0.85250785  1
  S  S12  1  0.25000000  0.62698984  0.77790518  1
  S  S13  1  0.25000000  0.12698984  0.72209482  1
  S  S14  1  0.75000000  0.37301016  0.22209482  1
  S  S15  1  0.75000000  0.87301016  0.27790518  1
  As  As16  1  0.25000000  0.33734399  0.49381665  1
  As  As17  1  0.25000000  0.83734399  0.00618335  1
  As  As18  1  0.75000000  0.66265601  0.50618335  1
  As  As19  1  0.75000000  0.16265601  0.99381665  1
  As  As20  1  0.75000000  0.00006544  0.38162736  1
  As  As21  1  0.75000000  0.50006544  0.11837264  1
  As  As22  1  0.25000000  0.99993456  0.61837264  1
  As  As23  1  0.25000000  0.49993456  0.88162736  1
  Pb  Pb24  1  0.25000000  0.65669274  0.31433337  1
  Pb  Pb25  1  0.25000000  0.15669274  0.18566663  1
  Pb  Pb26  1  0.75000000  0.34330726  0.68566663  1
  Pb  Pb27  1  0.75000000  0.84330726  0.81433337  1
