# generated using pymatgen
data_La2InRh2
_symmetry_space_group_name_H-M   'P 1'
_cell_length_a   3.99844729
_cell_length_b   7.72113518
_cell_length_c   7.72113518
_cell_angle_alpha   90.00000000
_cell_angle_beta   90.00000000
_cell_angle_gamma   90.00000000
_symmetry_Int_Tables_number   1
_chemical_formula_structural   La2InRh2
_chemical_formula_sum   'La4 In2 Rh4'
_cell_volume   238.37114762
_cell_formula_units_Z   2
loop_
 _symmetry_equiv_pos_site_id
 _symmetry_equiv_pos_as_xyz
  1  'x, y, z'
loop_
 _atom_site_type_symbol
 _atom_site_label
 _atom_site_symmetry_multiplicity
 _atom_site_fract_x
 _atom_site_fract_y
 _atom_site_fract_z
 _atom_site_occupancy
  Rh  Rh0  1  0.00000000  0.63332107  0.13332107  1
  Rh  Rh1  1  0.00000000  0.86667893  0.63332107  1
  Rh  Rh2  1  0.00000000  0.13332107  0.36667893  1
  Rh  Rh3  1  0.00000000  0.36667893  0.86667893  1
  In  In4  1  0.00000000  0.00000000  0.00000000  1
  In  In5  1  0.00000000  0.50000000  0.50000000  1
  La  La6  1  0.50000000  0.32838020  0.17161980  1
  La  La7  1  0.50000000  0.17161980  0.67161980  1
  La  La8  1  0.50000000  0.67161980  0.82838020  1
  La  La9  1  0.50000000  0.82838020  0.32838020  1
