# generated using pymatgen
data_Sr2EuCu3(PbO4)2
_symmetry_space_group_name_H-M   'P 1'
_cell_length_a   3.84361298
_cell_length_b   3.84361298
_cell_length_c   16.12272442
_cell_angle_alpha   90.00000000
_cell_angle_beta   90.00000000
_cell_angle_gamma   89.99920710
_symmetry_Int_Tables_number   1
_chemical_formula_structural   Sr2EuCu3(PbO4)2
_chemical_formula_sum   'Sr2 Eu1 Cu3 Pb2 O8'
_cell_volume   238.18682413
_cell_formula_units_Z   1
loop_
 _symmetry_equiv_pos_site_id
 _symmetry_equiv_pos_as_xyz
  1  'x, y, z'
loop_
 _atom_site_type_symbol
 _atom_site_label
 _atom_site_symmetry_multiplicity
 _atom_site_fract_x
 _atom_site_fract_y
 _atom_site_fract_z
 _atom_site_occupancy
  O  O0  1  0.00000000  0.50000000  0.90253041  1
  O  O1  1  0.50000000  0.00000000  0.09746959  1
  O  O2  1  0.00000000  0.50000000  0.09746959  1
  O  O3  1  0.50000000  0.00000000  0.90253041  1
  O  O4  1  0.00000000  0.00000000  0.38470642  1
  O  O5  1  0.50000000  0.50000000  0.74707664  1
  O  O6  1  0.50000000  0.50000000  0.25292336  1
  O  O7  1  0.00000000  0.00000000  0.61529358  1
  Cu  Cu8  1  0.00000000  0.00000000  0.50000000  1
  Cu  Cu9  1  0.50000000  0.50000000  0.89105834  1
  Cu  Cu10  1  0.50000000  0.50000000  0.10894166  1
  Sr  Sr11  1  0.00000000  0.00000000  0.77782090  1
  Sr  Sr12  1  0.00000000  0.00000000  0.22217910  1
  Eu  Eu13  1  0.00000000  0.00000000  0.00000000  1
  Pb  Pb14  1  0.50000000  0.50000000  0.38809061  1
  Pb  Pb15  1  0.50000000  0.50000000  0.61190939  1
