# generated using pymatgen
data_Ta5P3
_symmetry_space_group_name_H-M   'P 1'
_cell_length_a   3.41756746
_cell_length_b   11.55280538
_cell_length_c   25.52944638
_cell_angle_alpha   90.00000000
_cell_angle_beta   90.00000000
_cell_angle_gamma   90.00000000
_symmetry_Int_Tables_number   1
_chemical_formula_structural   Ta5P3
_chemical_formula_sum   'Ta40 P24'
_cell_volume   1007.96615578
_cell_formula_units_Z   8
loop_
 _symmetry_equiv_pos_site_id
 _symmetry_equiv_pos_as_xyz
  1  'x, y, z'
loop_
 _atom_site_type_symbol
 _atom_site_label
 _atom_site_symmetry_multiplicity
 _atom_site_fract_x
 _atom_site_fract_y
 _atom_site_fract_z
 _atom_site_occupancy
  P  P0  1  0.25000000  0.58637262  0.92667022  1
  P  P1  1  0.75000000  0.41362738  0.07332978  1
  P  P2  1  0.75000000  0.08637262  0.57332978  1
  P  P3  1  0.25000000  0.91362738  0.42667022  1
  P  P4  1  0.25000000  0.31602535  0.84389177  1
  P  P5  1  0.75000000  0.68397465  0.15610823  1
  P  P6  1  0.75000000  0.81602535  0.65610823  1
  P  P7  1  0.25000000  0.18397465  0.34389177  1
  P  P8  1  0.25000000  0.75519763  0.80207690  1
  P  P9  1  0.75000000  0.24480237  0.19792310  1
  P  P10  1  0.75000000  0.25519763  0.69792310  1
  P  P11  1  0.25000000  0.74480237  0.30207690  1
  P  P12  1  0.25000000  0.49785025  0.72106612  1
  P  P13  1  0.75000000  0.50214975  0.27893388  1
  P  P14  1  0.75000000  -0.00214975  0.77893388  1
  P  P15  1  0.25000000  1.00214975  0.22106612  1
  P  P16  1  0.25000000  0.44973894  0.57789825  1
  P  P17  1  0.75000000  0.55026106  0.42210175  1
  P  P18  1  0.75000000  0.94973894  0.92210175  1
  P  P19  1  0.25000000  0.05026106  0.07789825  1
  P  P20  1  0.25000000  0.75104995  0.54919299  1
  P  P21  1  0.75000000  0.24895005  0.45080701  1
  P  P22  1  0.75000000  0.25104995  0.95080701  1
  P  P23  1  0.25000000  0.74895005  0.04919299  1
  Ta  Ta24  1  0.25000000  0.87854290  0.72456374  1
  Ta  Ta25  1  0.75000000  0.44363943  0.65259505  1
  Ta  Ta26  1  0.75000000  0.05636057  0.15259505  1
  Ta  Ta27  1  0.25000000  0.94363943  0.84740495  1
  Ta  Ta28  1  0.25000000  0.69109209  0.45506930  1
  Ta  Ta29  1  0.75000000  0.30890791  0.54493070  1
  Ta  Ta30  1  0.75000000  0.19109209  0.04493070  1
  Ta  Ta31  1  0.25000000  0.80890791  0.95506930  1
  Ta  Ta32  1  0.25000000  0.55636057  0.34740495  1
  Ta  Ta33  1  0.75000000  0.58427359  0.53692421  1
  Ta  Ta34  1  0.75000000  0.91572641  0.03692421  1
  Ta  Ta35  1  0.25000000  0.08427359  0.96307579  1
  Ta  Ta36  1  0.25000000  0.10811707  0.49994066  1
  Ta  Ta37  1  0.75000000  0.89188293  0.50005934  1
  Ta  Ta38  1  0.75000000  0.60811707  1.00005934  1
  Ta  Ta39  1  0.25000000  0.39188293  -0.00005934  1
  Ta  Ta40  1  0.25000000  0.54369246  0.82326087  1
  Ta  Ta41  1  0.75000000  0.45630754  0.17673913  1
  Ta  Ta42  1  0.75000000  0.04369246  0.67673913  1
  Ta  Ta43  1  0.25000000  0.95630754  0.32326087  1
  Ta  Ta44  1  0.25000000  0.15559599  0.76073185  1
  Ta  Ta45  1  0.75000000  0.84440401  0.23926815  1
  Ta  Ta46  1  0.75000000  0.65559599  0.73926815  1
  Ta  Ta47  1  0.25000000  0.34440401  0.26073185  1
  Ta  Ta48  1  0.25000000  0.41572641  0.46307579  1
  Ta  Ta49  1  0.75000000  0.12145710  0.27543626  1
  Ta  Ta50  1  0.75000000  0.37854290  0.77543626  1
  Ta  Ta51  1  0.25000000  0.62145710  0.22456374  1
  Ta  Ta52  1  0.25000000  0.65841976  0.63808760  1
  Ta  Ta53  1  0.75000000  0.34158024  0.36191240  1
  Ta  Ta54  1  0.75000000  0.15841976  0.86191240  1
  Ta  Ta55  1  0.25000000  0.84158024  0.13808760  1
  Ta  Ta56  1  0.25000000  0.21578834  0.62458167  1
  Ta  Ta57  1  0.75000000  0.78421166  0.37541833  1
  Ta  Ta58  1  0.75000000  0.71578834  0.87541833  1
  Ta  Ta59  1  0.25000000  0.28421166  0.12458167  1
  Ta  Ta60  1  0.25000000  0.93528016  0.59940264  1
  Ta  Ta61  1  0.75000000  0.06471984  0.40059736  1
  Ta  Ta62  1  0.75000000  0.43528016  0.90059736  1
  Ta  Ta63  1  0.25000000  0.56471984  0.09940264  1
