# generated using pymatgen
data_CuAs2PbO7
_symmetry_space_group_name_H-M   'P 1'
_cell_length_a   5.70385671
_cell_length_b   8.51009662
_cell_length_c   13.21940514
_cell_angle_alpha   90.00000000
_cell_angle_beta   92.19546845
_cell_angle_gamma   90.00000000
_symmetry_Int_Tables_number   1
_chemical_formula_structural   CuAs2PbO7
_chemical_formula_sum   'Cu4 As8 Pb4 O28'
_cell_volume   641.20381807
_cell_formula_units_Z   4
loop_
 _symmetry_equiv_pos_site_id
 _symmetry_equiv_pos_as_xyz
  1  'x, y, z'
loop_
 _atom_site_type_symbol
 _atom_site_label
 _atom_site_symmetry_multiplicity
 _atom_site_fract_x
 _atom_site_fract_y
 _atom_site_fract_z
 _atom_site_occupancy
  O  O0  1  0.65129125  0.66332529  0.15414777  1
  O  O1  1  0.84870875  0.16332529  0.34585223  1
  O  O2  1  0.34870875  0.33667471  0.84585223  1
  O  O3  1  0.15129125  0.83667471  0.65414777  1
  O  O4  1  0.03955548  0.45357904  0.19486170  1
  O  O5  1  0.46044452  0.95357904  0.30513830  1
  O  O6  1  0.96044452  0.54642096  0.80513830  1
  O  O7  1  0.53955548  0.04642096  0.69486170  1
  O  O8  1  0.56537002  0.37962518  0.23937557  1
  O  O9  1  0.93462998  0.87962518  0.26062443  1
  O  O10  1  0.43462998  0.62037482  0.76062443  1
  O  O11  1  0.06537002  0.12037482  0.73937557  1
  O  O12  1  0.37651257  0.15001981  0.01498733  1
  O  O13  1  0.12348743  0.65001981  0.48501267  1
  O  O14  1  0.62348743  0.84998019  0.98501267  1
  O  O15  1  0.87651257  0.34998019  0.51498733  1
  O  O16  1  0.20782162  0.10366490  0.53556892  1
  O  O17  1  0.29217838  0.60366490  0.96443108  1
  O  O18  1  0.79217838  0.89633510  0.46443108  1
  O  O19  1  0.70782162  0.39633510  0.03556892  1
  O  O20  1  0.32513940  0.40352843  0.60561600  1
  O  O21  1  0.17486060  0.90352843  0.89438400  1
  O  O22  1  0.67486060  0.59647157  0.39438400  1
  O  O23  1  0.82513940  0.09647157  0.10561600  1
  O  O24  1  0.79929707  0.17510510  0.89381856  1
  O  O25  1  0.70070293  0.67510510  0.60618144  1
  O  O26  1  0.20070293  0.82489490  0.10618144  1
  O  O27  1  0.29929707  0.32489490  0.39381856  1
  Cu  Cu28  1  0.70630829  0.36524313  0.38239874  1
  Cu  Cu29  1  0.79369171  0.86524313  0.11760126  1
  Cu  Cu30  1  0.29369171  0.63475687  0.61760126  1
  Cu  Cu31  1  0.20630829  0.13475687  0.88239874  1
  As  As32  1  0.82718194  0.68934152  0.49273736  1
  As  As33  1  0.67281806  0.18934152  0.00726264  1
  As  As34  1  0.17281806  0.31065848  0.50726264  1
  As  As35  1  0.32718194  0.81065848  0.99273736  1
  As  As36  1  0.74821844  0.97366082  0.34063765  1
  As  As37  1  0.75178156  0.47366082  0.15936235  1
  As  As38  1  0.25178156  0.02633918  0.65936235  1
  As  As39  1  0.24821844  0.52633918  0.84063765  1
  Pb  Pb40  1  0.20511641  0.18296619  0.22641285  1
  Pb  Pb41  1  0.29488359  0.68296619  0.27358715  1
  Pb  Pb42  1  0.79488359  0.81703381  0.77358715  1
  Pb  Pb43  1  0.70511641  0.31703381  0.72641285  1
