# generated using pymatgen
data_Pb5(SI3)2
_symmetry_space_group_name_H-M   'P 1'
_cell_length_a   4.51710702
_cell_length_b   7.86460697
_cell_length_c   15.01029149
_cell_angle_alpha   98.12050881
_cell_angle_beta   90.00000000
_cell_angle_gamma   106.68916897
_symmetry_Int_Tables_number   1
_chemical_formula_structural   Pb5(SI3)2
_chemical_formula_sum   'Pb5 S2 I6'
_cell_volume   505.19827605
_cell_formula_units_Z   1
loop_
 _symmetry_equiv_pos_site_id
 _symmetry_equiv_pos_as_xyz
  1  'x, y, z'
loop_
 _atom_site_type_symbol
 _atom_site_label
 _atom_site_symmetry_multiplicity
 _atom_site_fract_x
 _atom_site_fract_y
 _atom_site_fract_z
 _atom_site_occupancy
  Pb  Pb0  1  0.77608586  0.55217172  0.24234238  1
  Pb  Pb1  1  0.86853812  0.73707624  0.52843556  1
  Pb  Pb2  1  0.13146188  0.26292376  0.47156444  1
  Pb  Pb3  1  0.22391414  0.44782828  0.75765762  1
  Pb  Pb4  1  0.00000000  0.00000000  0.00000000  1
  S  S5  1  0.71525226  0.43050453  0.40579276  1
  S  S6  1  0.28474774  0.56949547  0.59420724  1
  I  I7  1  0.37006285  0.74012571  0.06604928  1
  I  I8  1  0.58180861  0.16361722  0.64292353  1
  I  I9  1  0.12153192  0.24306385  0.20237907  1
  I  I10  1  0.62993715  0.25987429  0.93395072  1
  I  I11  1  0.41819139  0.83638278  0.35707647  1
  I  I12  1  0.87846808  0.75693615  0.79762093  1
