# generated using pymatgen
data_Bi2Se3
_symmetry_space_group_name_H-M   'P 1'
_cell_length_a   4.16011469
_cell_length_b   11.62226866
_cell_length_c   12.53561929
_cell_angle_alpha   90.00000000
_cell_angle_beta   90.00000000
_cell_angle_gamma   90.00000000
_symmetry_Int_Tables_number   1
_chemical_formula_structural   Bi2Se3
_chemical_formula_sum   'Bi8 Se12'
_cell_volume   606.09682392
_cell_formula_units_Z   4
loop_
 _symmetry_equiv_pos_site_id
 _symmetry_equiv_pos_as_xyz
  1  'x, y, z'
loop_
 _atom_site_type_symbol
 _atom_site_label
 _atom_site_symmetry_multiplicity
 _atom_site_fract_x
 _atom_site_fract_y
 _atom_site_fract_z
 _atom_site_occupancy
  Se  Se0  1  0.25000000  0.30509518  0.71195195  1
  Se  Se1  1  0.75000000  0.69490482  0.28804805  1
  Se  Se2  1  0.75000000  0.80509518  0.78804805  1
  Se  Se3  1  0.25000000  0.19490482  0.21195195  1
  Se  Se4  1  0.25000000  0.95159262  0.37397916  1
  Se  Se5  1  0.75000000  0.04840738  0.62602084  1
  Se  Se6  1  0.75000000  0.45159262  0.12602084  1
  Se  Se7  1  0.25000000  0.54840738  0.87397916  1
  Se  Se8  1  0.25000000  0.86479427  0.05107768  1
  Se  Se9  1  0.75000000  0.13520573  0.94892232  1
  Se  Se10  1  0.75000000  0.36479427  0.44892232  1
  Se  Se11  1  0.25000000  0.63520573  0.55107768  1
  Bi  Bi12  1  0.25000000  0.96191520  0.85129182  1
  Bi  Bi13  1  0.75000000  0.03808480  0.14870818  1
  Bi  Bi14  1  0.75000000  0.46191520  0.64870818  1
  Bi  Bi15  1  0.25000000  0.53808480  0.35129182  1
  Bi  Bi16  1  0.25000000  0.16955346  0.52169092  1
  Bi  Bi17  1  0.75000000  0.83044654  0.47830908  1
  Bi  Bi18  1  0.75000000  0.66955346  0.97830908  1
  Bi  Bi19  1  0.25000000  0.33044654  0.02169092  1
