# generated using pymatgen
data_Tm2S3
_symmetry_space_group_name_H-M   'P 1'
_cell_length_a   3.88645784
_cell_length_b   10.89918766
_cell_length_c   11.15483469
_cell_angle_alpha   108.85307291
_cell_angle_beta   90.00000000
_cell_angle_gamma   90.00000000
_symmetry_Int_Tables_number   1
_chemical_formula_structural   Tm2S3
_chemical_formula_sum   'Tm8 S12'
_cell_volume   447.16023168
_cell_formula_units_Z   4
loop_
 _symmetry_equiv_pos_site_id
 _symmetry_equiv_pos_as_xyz
  1  'x, y, z'
loop_
 _atom_site_type_symbol
 _atom_site_label
 _atom_site_symmetry_multiplicity
 _atom_site_fract_x
 _atom_site_fract_y
 _atom_site_fract_z
 _atom_site_occupancy
  S  S0  1  0.25000000  0.97718867  0.11323398  1
  S  S1  1  0.75000000  0.02281133  0.88676602  1
  S  S2  1  0.25000000  0.30894454  0.25040125  1
  S  S3  1  0.75000000  0.69105546  0.74959875  1
  S  S4  1  0.25000000  0.89796132  0.56359080  1
  S  S5  1  0.75000000  0.10203868  0.43640920  1
  S  S6  1  0.25000000  0.41834848  0.59828468  1
  S  S7  1  0.75000000  0.58165152  0.40171532  1
  S  S8  1  0.25000000  0.24621876  0.77691318  1
  S  S9  1  0.75000000  0.75378124  0.22308682  1
  S  S10  1  0.25000000  0.61022786  0.96309211  1
  S  S11  1  0.75000000  0.38977214  0.03690789  1
  Tm  Tm12  1  0.25000000  0.18273144  0.00278732  1
  Tm  Tm13  1  0.75000000  0.81726856  0.99721268  1
  Tm  Tm14  1  0.25000000  0.54341304  0.19024356  1
  Tm  Tm15  1  0.75000000  0.45658696  0.80975644  1
  Tm  Tm16  1  0.25000000  0.93206283  0.33173591  1
  Tm  Tm17  1  0.75000000  0.06793717  0.66826409  1
  Tm  Tm18  1  0.25000000  0.66057777  0.58360204  1
  Tm  Tm19  1  0.75000000  0.33942223  0.41639796  1
