# generated using pymatgen
data_Th2In
_symmetry_space_group_name_H-M   'P 1'
_cell_length_a   6.02422052
_cell_length_b   6.30646172
_cell_length_c   6.30646171
_cell_angle_alpha   76.81337505
_cell_angle_beta   61.46973823
_cell_angle_gamma   61.46973823
_symmetry_Int_Tables_number   1
_chemical_formula_structural   Th2In
_chemical_formula_sum   'Th4 In2'
_cell_volume   184.93544415
_cell_formula_units_Z   2
loop_
 _symmetry_equiv_pos_site_id
 _symmetry_equiv_pos_as_xyz
  1  'x, y, z'
loop_
 _atom_site_type_symbol
 _atom_site_label
 _atom_site_symmetry_multiplicity
 _atom_site_fract_x
 _atom_site_fract_y
 _atom_site_fract_z
 _atom_site_occupancy
  In  In0  1  0.25000000  0.00000000  0.00000000  1
  In  In1  1  0.75000000  0.00000000  0.00000000  1
  Th  Th2  1  0.15274173  0.50000000  0.19451654  1
  Th  Th3  1  0.34725827  0.80548346  0.50000000  1
  Th  Th4  1  0.65274173  0.19451654  0.50000000  1
  Th  Th5  1  0.84725827  0.50000000  0.80548346  1
