# generated using pymatgen
data_LaTiO3
_symmetry_space_group_name_H-M   'P 1'
_cell_length_a   5.67329718
_cell_length_b   5.56856009
_cell_length_c   7.93828829
_cell_angle_alpha   90.00000000
_cell_angle_beta   90.00000000
_cell_angle_gamma   90.00000000
_symmetry_Int_Tables_number   1
_chemical_formula_structural   LaTiO3
_chemical_formula_sum   'La4 Ti4 O12'
_cell_volume   250.78716776
_cell_formula_units_Z   4
loop_
 _symmetry_equiv_pos_site_id
 _symmetry_equiv_pos_as_xyz
  1  'x, y, z'
loop_
 _atom_site_type_symbol
 _atom_site_label
 _atom_site_symmetry_multiplicity
 _atom_site_fract_x
 _atom_site_fract_y
 _atom_site_fract_z
 _atom_site_occupancy
  O  O0  1  0.71078217  0.29148285  0.53684412  1
  O  O1  1  0.21078217  0.20851715  0.96315588  1
  O  O2  1  0.78921783  0.79148285  0.46315588  1
  O  O3  1  0.28921783  0.70851715  0.03684412  1
  O  O4  1  0.28921783  0.70851715  0.46315588  1
  O  O5  1  0.78921783  0.79148285  0.03684412  1
  O  O6  1  0.21078217  0.20851715  0.53684412  1
  O  O7  1  0.71078217  0.29148285  0.96315588  1
  O  O8  1  0.51326911  0.93144297  0.75000000  1
  O  O9  1  0.01326911  0.56855703  0.75000000  1
  O  O10  1  0.98673089  0.43144297  0.25000000  1
  O  O11  1  0.48673089  0.06855703  0.25000000  1
  Ti  Ti12  1  0.50000000  0.00000000  0.50000000  1
  Ti  Ti13  1  0.00000000  0.50000000  0.00000000  1
  Ti  Ti14  1  0.00000000  0.50000000  0.50000000  1
  Ti  Ti15  1  0.50000000  0.00000000  0.00000000  1
  La  La16  1  0.04736879  0.99244169  0.25000000  1
  La  La17  1  0.54736879  0.50755831  0.25000000  1
  La  La18  1  0.45263121  0.49244169  0.75000000  1
  La  La19  1  0.95263121  0.00755831  0.75000000  1
