# generated using pymatgen
data_ZnH4(CO3)2
_symmetry_space_group_name_H-M   'P 1'
_cell_length_a   5.51344012
_cell_length_b   6.70826926
_cell_length_c   8.24026925
_cell_angle_alpha   81.02787978
_cell_angle_beta   70.45528153
_cell_angle_gamma   65.73587835
_symmetry_Int_Tables_number   1
_chemical_formula_structural   ZnH4(CO3)2
_chemical_formula_sum   'Zn2 H8 C4 O12'
_cell_volume   261.77836386
_cell_formula_units_Z   2
loop_
 _symmetry_equiv_pos_site_id
 _symmetry_equiv_pos_as_xyz
  1  'x, y, z'
loop_
 _atom_site_type_symbol
 _atom_site_label
 _atom_site_symmetry_multiplicity
 _atom_site_fract_x
 _atom_site_fract_y
 _atom_site_fract_z
 _atom_site_occupancy
  H  H0  1  0.35541512  0.66885700  0.34909300  1
  H  H1  1  0.87336511  0.83114300  0.15090700  1
  H  H2  1  0.49261715  0.66976233  0.14303842  1
  H  H3  1  0.80541789  0.83023767  0.35696158  1
  H  H4  1  0.50738285  0.33023767  0.85696158  1
  H  H5  1  0.12663489  0.16885700  0.84909300  1
  H  H6  1  0.64458488  0.33114300  0.65090700  1
  H  H7  1  0.19458211  0.16976233  0.64303842  1
  C  C8  1  0.12547652  0.24825097  0.14952695  1
  C  C9  1  0.97674556  0.74825097  0.64952695  1
  C  C10  1  0.87452348  0.75174903  0.85047305  1
  C  C11  1  0.02325444  0.25174903  0.35047305  1
  O  O12  1  0.60797919  0.40057803  0.75884387  1
  O  O13  1  0.96056247  0.24462969  0.07430761  1
  O  O14  1  0.26740110  0.09942197  0.74115613  1
  O  O15  1  0.77949976  0.25537031  0.42569239  1
  O  O16  1  0.73259890  0.90057803  0.25884387  1
  O  O17  1  0.39202081  0.59942197  0.24115613  1
  O  O18  1  0.19066545  0.25095516  0.42494979  1
  O  O19  1  0.63342960  0.75095516  0.92494979  1
  O  O20  1  0.22050024  0.74462969  0.57430761  1
  O  O21  1  0.36657040  0.24904484  0.07505021  1
  O  O22  1  0.03943753  0.75537031  0.92569239  1
  O  O23  1  0.80933455  0.74904484  0.57505021  1
  Zn  Zn24  1  0.57334235  0.25000000  0.25000000  1
  Zn  Zn25  1  0.42665765  0.75000000  0.75000000  1
