# generated using pymatgen
data_CoPb2WO6
_symmetry_space_group_name_H-M   'P 1'
_cell_length_a   5.71730651
_cell_length_b   5.70267958
_cell_length_c   5.71730652
_cell_angle_alpha   90.89565569
_cell_angle_beta   119.89078092
_cell_angle_gamma   119.16372817
_symmetry_Int_Tables_number   1
_chemical_formula_structural   CoPb2WO6
_chemical_formula_sum   'Co1 Pb2 W1 O6'
_cell_volume   132.64318659
_cell_formula_units_Z   1
loop_
 _symmetry_equiv_pos_site_id
 _symmetry_equiv_pos_as_xyz
  1  'x, y, z'
loop_
 _atom_site_type_symbol
 _atom_site_label
 _atom_site_symmetry_multiplicity
 _atom_site_fract_x
 _atom_site_fract_y
 _atom_site_fract_z
 _atom_site_occupancy
  O  O0  1  0.99699251  0.27046504  0.79100014  1
  O  O1  1  0.52053510  0.72953496  0.72652747  1
  O  O2  1  0.00300749  0.72953496  0.20899986  1
  O  O3  1  0.47946490  0.27046504  0.27347253  1
  O  O4  1  0.94236671  0.18206326  0.23969656  1
  O  O5  1  0.05763329  0.81793674  0.76030344  1
  Co  Co6  1  0.00000000  0.50000000  0.50000000  1
  W  W7  1  0.00000000  0.00000000  0.00000000  1
  Pb  Pb8  1  0.50833647  0.25891213  0.75057566  1
  Pb  Pb9  1  0.49166353  0.74108787  0.24942434  1
