# generated using pymatgen
data_AlP(H2O3)2
_symmetry_space_group_name_H-M   'P 1'
_cell_length_a   5.21059712
_cell_length_b   8.55072833
_cell_length_c   9.60963992
_cell_angle_alpha   90.00000000
_cell_angle_beta   90.00000000
_cell_angle_gamma   90.33290705
_symmetry_Int_Tables_number   1
_chemical_formula_structural   AlP(H2O3)2
_chemical_formula_sum   'Al4 P4 H16 O24'
_cell_volume   428.14451741
_cell_formula_units_Z   4
loop_
 _symmetry_equiv_pos_site_id
 _symmetry_equiv_pos_as_xyz
  1  'x, y, z'
loop_
 _atom_site_type_symbol
 _atom_site_label
 _atom_site_symmetry_multiplicity
 _atom_site_fract_x
 _atom_site_fract_y
 _atom_site_fract_z
 _atom_site_occupancy
  H  H0  1  0.94237599  0.48031404  0.85341446  1
  H  H1  1  0.55762401  0.01968596  0.35341446  1
  H  H2  1  0.05762401  0.51968596  0.14658554  1
  H  H3  1  0.44237599  0.98031404  0.64658554  1
  H  H4  1  0.24146497  0.48603179  0.82768701  1
  H  H5  1  0.25853503  0.01396821  0.32768701  1
  H  H6  1  0.75853503  0.51396821  0.17231299  1
  H  H7  1  0.74146497  0.98603179  0.67231299  1
  H  H8  1  0.42714612  0.83134804  0.05964318  1
  H  H9  1  0.07285388  0.66865196  0.55964318  1
  H  H10  1  0.34123222  0.21804552  0.04250356  1
  H  H11  1  0.15876778  0.28195448  0.54250356  1
  H  H12  1  0.65876778  0.78195448  0.95749644  1
  H  H13  1  0.84123222  0.71804552  0.45749644  1
  H  H14  1  0.57285388  0.16865196  0.94035682  1
  H  H15  1  0.92714612  0.33134804  0.44035682  1
  O  O16  1  0.58744339  0.47843959  0.71722918  1
  O  O17  1  0.18649233  0.78131210  0.29353862  1
  O  O18  1  0.68649233  0.28131210  0.20646138  1
  O  O19  1  0.31350767  0.71868790  0.79353862  1
  O  O20  1  0.11854247  0.82739669  0.01361352  1
  O  O21  1  0.38145753  0.67260331  0.51361352  1
  O  O22  1  0.88145753  0.17260331  0.98638648  1
  O  O23  1  0.61854247  0.32739669  0.48638648  1
  O  O24  1  0.88189179  0.67471653  0.55165175  1
  O  O25  1  0.61810821  0.82528347  0.05165175  1
  O  O26  1  0.11810821  0.32528347  0.44834825  1
  O  O27  1  0.38189179  0.17471653  0.94834825  1
  O  O28  1  0.60087858  0.91992885  0.63550263  1
  O  O29  1  0.89912142  0.58007115  0.13550263  1
  O  O30  1  0.39912142  0.08007115  0.36449737  1
  O  O31  1  0.10087858  0.41992885  0.86449737  1
  O  O32  1  0.41255661  0.52156041  0.28277082  1
  O  O33  1  0.08744339  0.97843959  0.78277082  1
  O  O34  1  0.33234300  0.22846588  0.67676952  1
  O  O35  1  0.16765700  0.27153412  0.17676952  1
  O  O36  1  0.66765700  0.77153412  0.32323048  1
  O  O37  1  0.83234300  0.72846588  0.82323048  1
  O  O38  1  0.81350767  0.21868790  0.70646138  1
  O  O39  1  0.91255661  0.02156041  0.21722918  1
  Al  Al40  1  0.59699463  0.69271362  0.67459989  1
  Al  Al41  1  0.90300537  0.80728638  0.17459989  1
  Al  Al42  1  0.40300537  0.30728638  0.32540011  1
  Al  Al43  1  0.09699463  0.19271362  0.82540011  1
  P  P44  1  0.09069783  0.81592487  0.85271362  1
  P  P45  1  0.40930217  0.68407513  0.35271362  1
  P  P46  1  0.90930217  0.18407513  0.14728638  1
  P  P47  1  0.59069783  0.31592487  0.64728638  1
