# generated using pymatgen
data_Li2ZnI4
_symmetry_space_group_name_H-M   'P 1'
_cell_length_a   7.06393166
_cell_length_b   8.68382762
_cell_length_c   15.00896346
_cell_angle_alpha   90.00000000
_cell_angle_beta   90.00000000
_cell_angle_gamma   90.00000000
_symmetry_Int_Tables_number   1
_chemical_formula_structural   Li2ZnI4
_chemical_formula_sum   'Li8 Zn4 I16'
_cell_volume   920.67930907
_cell_formula_units_Z   4
loop_
 _symmetry_equiv_pos_site_id
 _symmetry_equiv_pos_as_xyz
  1  'x, y, z'
loop_
 _atom_site_type_symbol
 _atom_site_label
 _atom_site_symmetry_multiplicity
 _atom_site_fract_x
 _atom_site_fract_y
 _atom_site_fract_z
 _atom_site_occupancy
  Li  Li0  1  0.00000000  0.00000000  0.00000000  1
  Li  Li1  1  0.50000000  0.00000000  0.50000000  1
  Li  Li2  1  0.00000000  0.50000000  0.00000000  1
  Li  Li3  1  0.50000000  0.50000000  0.50000000  1
  Li  Li4  1  0.99882179  0.75000000  0.73447319  1
  Li  Li5  1  0.49882179  0.25000000  0.76552681  1
  Li  Li6  1  0.00117821  0.25000000  0.26552681  1
  Li  Li7  1  0.50117821  0.75000000  0.23447319  1
  Zn  Zn8  1  0.59638823  0.75000000  0.91336858  1
  Zn  Zn9  1  0.09638823  0.25000000  0.58663142  1
  Zn  Zn10  1  0.40361177  0.25000000  0.08663142  1
  Zn  Zn11  1  0.90361177  0.75000000  0.41336858  1
  I  I12  1  0.22634042  0.75000000  0.91034199  1
  I  I13  1  0.72634042  0.25000000  0.58965801  1
  I  I14  1  0.77365958  0.25000000  0.08965801  1
  I  I15  1  0.27365958  0.75000000  0.41034199  1
  I  I16  1  0.74783000  0.75000000  0.57487287  1
  I  I17  1  0.24783000  0.25000000  0.92512713  1
  I  I18  1  0.25217000  0.25000000  0.42512713  1
  I  I19  1  0.75217000  0.75000000  0.07487287  1
  I  I20  1  0.75401721  0.99089291  0.83339096  1
  I  I21  1  0.25401721  0.00910709  0.66660904  1
  I  I22  1  0.24598279  0.49089291  0.16660904  1
  I  I23  1  0.74598279  0.50910709  0.33339096  1
  I  I24  1  0.24598279  0.00910709  0.16660904  1
  I  I25  1  0.74598279  0.99089291  0.33339096  1
  I  I26  1  0.75401721  0.50910709  0.83339096  1
  I  I27  1  0.25401721  0.49089291  0.66660904  1
