# generated using pymatgen
data_Li5Sb2P5O18
_symmetry_space_group_name_H-M   'P 1'
_cell_length_a   9.50811891
_cell_length_b   11.12789486
_cell_length_c   6.84592333
_cell_angle_alpha   89.93068222
_cell_angle_beta   91.30722346
_cell_angle_gamma   98.16353809
_symmetry_Int_Tables_number   1
_chemical_formula_structural   Li5Sb2P5O18
_chemical_formula_sum   'Li10 Sb4 P10 O36'
_cell_volume   716.80734784
_cell_formula_units_Z   2
loop_
 _symmetry_equiv_pos_site_id
 _symmetry_equiv_pos_as_xyz
  1  'x, y, z'
loop_
 _atom_site_type_symbol
 _atom_site_label
 _atom_site_symmetry_multiplicity
 _atom_site_fract_x
 _atom_site_fract_y
 _atom_site_fract_z
 _atom_site_occupancy
  Li  Li0  1  0.03257224  0.86821807  0.01921659  1
  Li  Li1  1  0.11414189  0.35167645  0.81770703  1
  Li  Li2  1  0.22596440  0.66555576  0.13951837  1
  Li  Li3  1  0.27597751  0.59989695  0.58395693  1
  Li  Li4  1  0.37728818  0.85587407  0.32918936  1
  Li  Li5  1  0.62271182  0.14412593  0.67081064  1
  Li  Li6  1  0.72402249  0.40010305  0.41604307  1
  Li  Li7  1  0.77403560  0.33444424  0.86048163  1
  Li  Li8  1  0.88585811  0.64832355  0.18229297  1
  Li  Li9  1  0.96742776  0.13178193  0.98078341  1
  O  O10  1  0.02433785  0.68503372  0.95574936  1
  O  O11  1  0.09177921  0.88804238  0.63005285  1
  O  O12  1  0.02673221  0.32422039  0.41832760  1
  O  O13  1  0.01680882  0.18743514  0.70281160  1
  O  O14  1  0.10424331  0.52025735  0.74259661  1
  O  O15  1  0.20952955  0.73734334  0.42031056  1
  O  O16  1  0.16306179  0.47356776  0.20693088  1
  O  O17  1  0.15416133  0.04370439  0.03315100  1
  O  O18  1  0.33157801  0.82907743  0.03662818  1
  O  O19  1  0.24243779  0.22227756  0.26010938  1
  O  O20  1  0.39149107  0.93505476  0.70462040  1
  O  O21  1  0.31365094  0.33351327  0.85647048  1
  O  O22  1  0.28395733  0.01185443  0.35712806  1
  O  O23  1  0.41953032  0.71238769  0.75296708  1
  O  O24  1  0.36390745  0.41169585  0.52225148  1
  O  O25  1  0.42564072  0.60860606  0.24950430  1
  O  O26  1  0.43328140  0.20112378  0.62352719  1
  O  O27  1  0.41646115  0.11551303  0.06951639  1
  O  O28  1  0.58353885  0.88448697  0.93048361  1
  O  O29  1  0.56671860  0.79887622  0.37647281  1
  O  O30  1  0.57435928  0.39139394  0.75049570  1
  O  O31  1  0.63609255  0.58830415  0.47774852  1
  O  O32  1  0.58046968  0.28761231  0.24703292  1
  O  O33  1  0.71604267  0.98814557  0.64287194  1
  O  O34  1  0.68634906  0.66648673  0.14352952  1
  O  O35  1  0.60850893  0.06494524  0.29537960  1
  O  O36  1  0.75756221  0.77772244  0.73989062  1
  O  O37  1  0.66842199  0.17092257  0.96337182  1
  O  O38  1  0.84583867  0.95629561  0.96684900  1
  O  O39  1  0.83693821  0.52643224  0.79306912  1
  O  O40  1  0.79047045  0.26265666  0.57968944  1
  O  O41  1  0.89575669  0.47974265  0.25740339  1
  O  O42  1  0.98319118  0.81256486  0.29718840  1
  O  O43  1  0.97326779  0.67577961  0.58167240  1
  O  O44  1  0.90822079  0.11195762  0.36994715  1
  O  O45  1  0.97566215  0.31496628  0.04425064  1
  P  P46  1  0.07204511  0.78491375  0.47527202  1
  P  P47  1  0.00895758  0.39978464  0.21990558  1
  P  P48  1  0.26719747  0.09851969  0.18081197  1
  P  P49  1  0.41953926  0.83428309  0.85506989  1
  P  P50  1  0.42074938  0.33258985  0.69266540  1
  P  P51  1  0.57925062  0.66741015  0.30733460  1
  P  P52  1  0.58046074  0.16571691  0.14493011  1
  P  P53  1  0.73280253  0.90148031  0.81918803  1
  P  P54  1  0.99104242  0.60021536  0.78009442  1
  P  P55  1  0.92795489  0.21508625  0.52472798  1
  Sb  Sb56  1  0.24303940  0.05177672  0.65523714  1
  Sb  Sb57  1  0.36379869  0.39983719  0.21665645  1
  Sb  Sb58  1  0.63620131  0.60016281  0.78334355  1
  Sb  Sb59  1  0.75696060  0.94822328  0.34476286  1
