# generated using pymatgen
data_ErSeF
_symmetry_space_group_name_H-M   'P 1'
_cell_length_a   4.07901188
_cell_length_b   9.95609934
_cell_length_c   18.87984010
_cell_angle_alpha   90.00000000
_cell_angle_beta   90.00000000
_cell_angle_gamma   90.00000000
_symmetry_Int_Tables_number   1
_chemical_formula_structural   ErSeF
_chemical_formula_sum   'Er12 Se12 F12'
_cell_volume   766.73008284
_cell_formula_units_Z   12
loop_
 _symmetry_equiv_pos_site_id
 _symmetry_equiv_pos_as_xyz
  1  'x, y, z'
loop_
 _atom_site_type_symbol
 _atom_site_label
 _atom_site_symmetry_multiplicity
 _atom_site_fract_x
 _atom_site_fract_y
 _atom_site_fract_z
 _atom_site_occupancy
  F  F0  1  0.25000000  0.20154942  0.19464393  1
  F  F1  1  0.75000000  0.79845058  0.80535607  1
  F  F2  1  0.25000000  0.70154942  0.30535607  1
  F  F3  1  0.75000000  0.29845058  0.69464393  1
  F  F4  1  0.25000000  0.86987464  0.86213732  1
  F  F5  1  0.75000000  0.13012536  0.13786268  1
  F  F6  1  0.25000000  0.36987464  0.63786268  1
  F  F7  1  0.75000000  0.63012536  0.36213732  1
  F  F8  1  0.25000000  0.97332773  0.97316364  1
  F  F9  1  0.75000000  0.02667227  0.02683636  1
  F  F10  1  0.25000000  0.47332773  0.52683636  1
  F  F11  1  0.75000000  0.52667227  0.47316364  1
  Se  Se12  1  0.75000000  0.16507520  0.84168794  1
  Se  Se13  1  0.25000000  0.83492480  0.15831206  1
  Se  Se14  1  0.75000000  0.66507520  0.65831206  1
  Se  Se15  1  0.25000000  0.33492480  0.34168794  1
  Se  Se16  1  0.75000000  0.16581154  0.51388898  1
  Se  Se17  1  0.25000000  0.83418846  0.48611102  1
  Se  Se18  1  0.75000000  0.66581154  0.98611102  1
  Se  Se19  1  0.25000000  0.33418846  0.01388898  1
  Se  Se20  1  0.75000000  0.50396951  0.17737961  1
  Se  Se21  1  0.25000000  0.49603049  0.82262039  1
  Se  Se22  1  0.75000000  0.00396951  0.32262039  1
  Se  Se23  1  0.25000000  0.99603049  0.67737961  1
  Er  Er24  1  0.25000000  0.25676489  0.74051038  1
  Er  Er25  1  0.75000000  0.74323511  0.25948962  1
  Er  Er26  1  0.25000000  0.75676489  0.75948962  1
  Er  Er27  1  0.75000000  0.24323511  0.24051038  1
  Er  Er28  1  0.25000000  0.07666461  0.08141200  1
  Er  Er29  1  0.75000000  0.92333539  0.91858800  1
  Er  Er30  1  0.25000000  0.57666461  0.41858800  1
  Er  Er31  1  0.75000000  0.42333539  0.58141200  1
  Er  Er32  1  0.25000000  0.09086393  0.41677295  1
  Er  Er33  1  0.75000000  0.90913607  0.58322705  1
  Er  Er34  1  0.25000000  0.59086393  0.08322705  1
  Er  Er35  1  0.75000000  0.40913607  0.91677295  1
