# generated using pymatgen
data_Li4Cu(PO4)2
_symmetry_space_group_name_H-M   'P 1'
_cell_length_a   8.17534937
_cell_length_b   10.37230105
_cell_length_c   8.27297570
_cell_angle_alpha   90.00000000
_cell_angle_beta   106.42160833
_cell_angle_gamma   90.00000000
_symmetry_Int_Tables_number   1
_chemical_formula_structural   Li4Cu(PO4)2
_chemical_formula_sum   'Li16 Cu4 P8 O32'
_cell_volume   672.90803699
_cell_formula_units_Z   4
loop_
 _symmetry_equiv_pos_site_id
 _symmetry_equiv_pos_as_xyz
  1  'x, y, z'
loop_
 _atom_site_type_symbol
 _atom_site_label
 _atom_site_symmetry_multiplicity
 _atom_site_fract_x
 _atom_site_fract_y
 _atom_site_fract_z
 _atom_site_occupancy
  Li  Li0  1  0.09519933  0.66403746  0.59592653  1
  Li  Li1  1  0.90480067  0.33596254  0.40407347  1
  Li  Li2  1  0.83009346  0.83554290  0.33247275  1
  Li  Li3  1  0.76908612  0.57421883  0.51746401  1
  Li  Li4  1  0.85275207  0.64807735  0.85384361  1
  Li  Li5  1  0.16990654  0.16445710  0.66752725  1
  Li  Li6  1  0.23091388  0.42578117  0.48253599  1
  Li  Li7  1  0.14724793  0.35192265  0.14615639  1
  Li  Li8  1  0.35275207  0.85192265  0.85384361  1
  Li  Li9  1  0.26908612  0.92578117  0.51746401  1
  Li  Li10  1  0.33009346  0.66445710  0.33247275  1
  Li  Li11  1  0.40480067  0.16403746  0.40407347  1
  Li  Li12  1  0.59519933  0.83596254  0.59592653  1
  Li  Li13  1  0.66990654  0.33554290  0.66752725  1
  Li  Li14  1  0.73091388  0.07421883  0.48253599  1
  Li  Li15  1  0.64724793  0.14807735  0.14615639  1
  O  O16  1  0.90457270  0.32864494  0.81867012  1
  O  O17  1  0.79771550  0.58998026  0.06449018  1
  O  O18  1  0.90281276  0.65393009  0.37548780  1
  O  O19  1  0.99762062  0.94706125  0.25733112  1
  O  O20  1  0.00237938  0.05293875  0.74266888  1
  O  O21  1  0.09718724  0.34606991  0.62451220  1
  O  O22  1  0.20228450  0.41001974  0.93550982  1
  O  O23  1  0.02105713  0.45217180  0.27672866  1
  O  O24  1  0.12975310  0.85033419  0.65735292  1
  O  O25  1  0.05572631  0.17152083  0.14573035  1
  O  O26  1  0.09542730  0.67135506  0.18132988  1
  O  O27  1  0.87024690  0.14966581  0.34264708  1
  O  O28  1  0.30802164  0.60646243  0.55368175  1
  O  O29  1  0.40457270  0.17135506  0.81867012  1
  O  O30  1  0.44427369  0.67152083  0.85426965  1
  O  O31  1  0.37024690  0.35033419  0.34264708  1
  O  O32  1  0.47894287  0.95217180  0.72327134  1
  O  O33  1  0.29771550  0.91001974  0.06449018  1
  O  O34  1  0.50237938  0.44706125  0.74266888  1
  O  O35  1  0.40281276  0.84606991  0.37548780  1
  O  O36  1  0.59718724  0.15393009  0.62451220  1
  O  O37  1  0.49762062  0.55293875  0.25733112  1
  O  O38  1  0.70228450  0.08998026  0.93550982  1
  O  O39  1  0.52105713  0.04782820  0.27672866  1
  O  O40  1  0.62975310  0.64966581  0.65735292  1
  O  O41  1  0.55572631  0.32847917  0.14573035  1
  O  O42  1  0.59542730  0.82864494  0.18132988  1
  O  O43  1  0.69197836  0.39353757  0.44631825  1
  O  O44  1  0.80802164  0.89353757  0.55368175  1
  O  O45  1  0.19197836  0.10646243  0.44631825  1
  O  O46  1  0.94427369  0.82847917  0.85426965  1
  O  O47  1  0.97894287  0.54782820  0.72327134  1
  P  P48  1  0.54588037  0.09035919  0.77352991  1
  P  P49  1  0.45411963  0.90964081  0.22647009  1
  P  P50  1  0.52738425  0.40564246  0.29802665  1
  P  P51  1  0.97261575  0.90564246  0.70197335  1
  P  P52  1  0.04588037  0.40964081  0.77352991  1
  P  P53  1  0.02738425  0.09435754  0.29802665  1
  P  P54  1  0.95411963  0.59035919  0.22647009  1
  P  P55  1  0.47261575  0.59435754  0.70197335  1
  Cu  Cu56  1  0.92673135  0.14333826  0.91386512  1
  Cu  Cu57  1  0.57326865  0.64333826  0.08613488  1
  Cu  Cu58  1  0.42673135  0.35666174  0.91386512  1
  Cu  Cu59  1  0.07326865  0.85666174  0.08613488  1
