# generated using pymatgen
data_Mg30MnBO32
_symmetry_space_group_name_H-M   'P 1'
_cell_length_a   8.52934852
_cell_length_b   8.52574383
_cell_length_c   8.52574383
_cell_angle_alpha   90.00000000
_cell_angle_beta   90.00000000
_cell_angle_gamma   90.00000000
_symmetry_Int_Tables_number   1
_chemical_formula_structural   Mg30MnBO32
_chemical_formula_sum   'Mg30 Mn1 B1 O32'
_cell_volume   619.98391102
_cell_formula_units_Z   1
loop_
 _symmetry_equiv_pos_site_id
 _symmetry_equiv_pos_as_xyz
  1  'x, y, z'
loop_
 _atom_site_type_symbol
 _atom_site_label
 _atom_site_symmetry_multiplicity
 _atom_site_fract_x
 _atom_site_fract_y
 _atom_site_fract_z
 _atom_site_occupancy
  Mg  Mg0  1  0.00000000  0.00000000  0.50000000  1
  Mg  Mg1  1  0.00000000  0.50000000  0.00000000  1
  Mg  Mg2  1  0.50000000  0.00000000  0.00000000  1
  Mg  Mg3  1  0.50000000  0.00000000  0.50000000  1
  Mg  Mg4  1  0.50000000  0.50000000  0.00000000  1
  Mg  Mg5  1  0.50000000  0.50000000  0.50000000  1
  Mg  Mg6  1  0.00000000  0.25274293  0.25274293  1
  Mg  Mg7  1  0.00000000  0.25274293  0.74725707  1
  Mg  Mg8  1  0.00000000  0.74725707  0.25274293  1
  Mg  Mg9  1  0.00000000  0.74725707  0.74725707  1
  Mg  Mg10  1  0.50000000  0.25045342  0.25045342  1
  Mg  Mg11  1  0.50000000  0.25045342  0.74954658  1
  Mg  Mg12  1  0.50000000  0.74954658  0.25045342  1
  Mg  Mg13  1  0.50000000  0.74954658  0.74954658  1
  Mg  Mg14  1  0.25114009  0.00000000  0.25114965  1
  Mg  Mg15  1  0.25114009  0.00000000  0.74885035  1
  Mg  Mg16  1  0.24825731  0.50000000  0.25193081  1
  Mg  Mg17  1  0.24825731  0.50000000  0.74806919  1
  Mg  Mg18  1  0.74885991  0.00000000  0.25114965  1
  Mg  Mg19  1  0.74885991  0.00000000  0.74885035  1
  Mg  Mg20  1  0.75174269  0.50000000  0.25193081  1
  Mg  Mg21  1  0.75174269  0.50000000  0.74806919  1
  Mg  Mg22  1  0.25114009  0.25114965  0.00000000  1
  Mg  Mg23  1  0.24825731  0.25193081  0.50000000  1
  Mg  Mg24  1  0.25114009  0.74885035  0.00000000  1
  Mg  Mg25  1  0.24825731  0.74806919  0.50000000  1
  Mg  Mg26  1  0.74885991  0.25114965  0.00000000  1
  Mg  Mg27  1  0.75174269  0.25193081  0.50000000  1
  Mg  Mg28  1  0.74885991  0.74885035  0.00000000  1
  Mg  Mg29  1  0.75174269  0.74806919  0.50000000  1
  Mn  Mn30  1  0.00000000  0.00000000  0.00000000  1
  B  B31  1  0.00000000  0.50000000  0.50000000  1
  O  O32  1  0.25671004  0.00000000  0.00000000  1
  O  O33  1  0.24976053  0.00000000  0.50000000  1
  O  O34  1  0.24976053  0.50000000  0.00000000  1
  O  O35  1  0.24788380  0.50000000  0.50000000  1
  O  O36  1  0.74328996  0.00000000  0.00000000  1
  O  O37  1  0.75023947  0.00000000  0.50000000  1
  O  O38  1  0.75023947  0.50000000  0.00000000  1
  O  O39  1  0.75211620  0.50000000  0.50000000  1
  O  O40  1  0.24960994  0.25017937  0.25017937  1
  O  O41  1  0.24960994  0.25017937  0.74982063  1
  O  O42  1  0.24960994  0.74982063  0.25017937  1
  O  O43  1  0.24960994  0.74982063  0.74982063  1
  O  O44  1  0.75039006  0.25017937  0.25017937  1
  O  O45  1  0.75039006  0.25017937  0.74982063  1
  O  O46  1  0.75039006  0.74982063  0.25017937  1
  O  O47  1  0.75039006  0.74982063  0.74982063  1
  O  O48  1  0.00000000  0.00000000  0.25726572  1
  O  O49  1  0.00000000  0.00000000  0.74273428  1
  O  O50  1  0.00000000  0.50000000  0.25413890  1
  O  O51  1  0.00000000  0.50000000  0.74586110  1
  O  O52  1  0.50000000  0.00000000  0.25142296  1
  O  O53  1  0.50000000  0.00000000  0.74857704  1
  O  O54  1  0.50000000  0.50000000  0.25124268  1
  O  O55  1  0.50000000  0.50000000  0.74875732  1
  O  O56  1  0.00000000  0.25726572  0.00000000  1
  O  O57  1  0.00000000  0.25413890  0.50000000  1
  O  O58  1  0.00000000  0.74273428  0.00000000  1
  O  O59  1  0.00000000  0.74586110  0.50000000  1
  O  O60  1  0.50000000  0.25142296  0.00000000  1
  O  O61  1  0.50000000  0.25124268  0.50000000  1
  O  O62  1  0.50000000  0.74857704  0.00000000  1
  O  O63  1  0.50000000  0.74875732  0.50000000  1
