# generated using pymatgen
data_Mn2GeO4
_symmetry_space_group_name_H-M   'P 1'
_cell_length_a   6.11796294
_cell_length_b   8.17833844
_cell_length_c   8.17833844
_cell_angle_alpha   65.81253153
_cell_angle_beta   68.03534282
_cell_angle_gamma   68.03534286
_symmetry_Int_Tables_number   1
_chemical_formula_structural   Mn2GeO4
_chemical_formula_sum   'Mn8 Ge4 O16'
_cell_volume   334.18622257
_cell_formula_units_Z   4
loop_
 _symmetry_equiv_pos_site_id
 _symmetry_equiv_pos_as_xyz
  1  'x, y, z'
loop_
 _atom_site_type_symbol
 _atom_site_label
 _atom_site_symmetry_multiplicity
 _atom_site_fract_x
 _atom_site_fract_y
 _atom_site_fract_z
 _atom_site_occupancy
  O  O0  1  0.63466828  0.61843415  0.62768097  1
  O  O1  1  0.88078362  0.38156571  0.37231972  1
  O  O2  1  0.86533054  0.87231889  0.88156603  1
  O  O3  1  0.61921642  0.12768097  0.11843326  1
  O  O4  1  0.36533170  0.38156571  0.37231894  1
  O  O5  1  0.11921636  0.61843415  0.62768141  1
  O  O6  1  0.13466943  0.12768097  0.11843387  1
  O  O7  1  0.38078355  0.87231889  0.88156665  1
  O  O8  1  0.49202193  0.25392878  0.76202677  1
  O  O9  1  0.50797756  0.74607247  0.23797270  1
  O  O10  1  0.00797832  0.73797308  0.24607088  1
  O  O11  1  0.99202118  0.26202818  0.75392859  1
  O  O12  1  0.24999901  0.96386056  0.53613997  1
  O  O13  1  0.75000097  0.03613930  0.46385994  1
  O  O14  1  0.75000005  0.53045001  0.96955069  1
  O  O15  1  0.24999993  0.46954986  0.03045044  1
  Mn  Mn16  1  0.00000000  0.00000000  0.00000000  1
  Mn  Mn17  1  0.50000063  0.50000063  0.49999949  1
  Mn  Mn18  1  0.25000018  0.71793804  0.78206193  1
  Mn  Mn19  1  0.74999980  0.28206183  0.21793798  1
  Mn  Mn20  1  0.87700541  0.12299496  0.62299547  1
  Mn  Mn21  1  0.62299579  0.87700491  0.37700525  1
  Mn  Mn22  1  0.37700418  0.12299495  0.62299465  1
  Mn  Mn23  1  0.12299457  0.87700491  0.37700567  1
  Ge  Ge24  1  0.11896894  0.49710217  0.26496136  1
  Ge  Ge25  1  0.88103104  0.50289769  0.73503854  1
  Ge  Ge26  1  0.38103152  0.23503889  0.00289743  1
  Ge  Ge27  1  0.61896845  0.76496097  0.99710248  1
