# generated using pymatgen
data_Li2CoPCO7
_symmetry_space_group_name_H-M   'P 1'
_cell_length_a   5.08359008
_cell_length_b   6.24716985
_cell_length_c   8.53173737
_cell_angle_alpha   90.00000000
_cell_angle_beta   86.37748991
_cell_angle_gamma   90.00000000
_symmetry_Int_Tables_number   1
_chemical_formula_structural   Li2CoPCO7
_chemical_formula_sum   'Li4 Co2 P2 C2 O14'
_cell_volume   270.40998241
_cell_formula_units_Z   2
loop_
 _symmetry_equiv_pos_site_id
 _symmetry_equiv_pos_as_xyz
  1  'x, y, z'
loop_
 _atom_site_type_symbol
 _atom_site_label
 _atom_site_symmetry_multiplicity
 _atom_site_fract_x
 _atom_site_fract_y
 _atom_site_fract_z
 _atom_site_occupancy
  Li  Li0  1  0.77675693  0.01416838  0.78081219  1
  Li  Li1  1  0.22324364  0.98583104  0.21918799  1
  Li  Li2  1  0.22324364  0.51416810  0.21918799  1
  Li  Li3  1  0.77675693  0.48583133  0.78081219  1
  C  C4  1  0.73011976  0.75000038  0.05665186  1
  C  C5  1  0.26987884  0.25000067  0.94334835  1
  O  O6  1  0.18065113  0.94635567  0.67086080  1
  O  O7  1  0.96152861  0.75000038  0.11700259  1
  O  O8  1  0.47140834  0.25000067  0.83761460  1
  O  O9  1  0.52859223  0.75000038  0.16238557  1
  O  O10  1  0.18065113  0.55364347  0.67086080  1
  O  O11  1  0.17310302  0.75000038  0.40914936  1
  O  O12  1  0.03847197  0.25000067  0.88299759  1
  O  O13  1  0.81934747  0.44635596  0.32913941  1
  O  O14  1  0.81934747  0.05364376  0.32913941  1
  O  O15  1  0.41031816  0.25000067  0.44365782  1
  O  O16  1  0.70226281  0.75000038  0.91054671  1
  O  O17  1  0.29773579  0.25000067  0.08945350  1
  O  O18  1  0.58968051  0.75000038  0.55634121  1
  O  O19  1  0.82689756  0.25000067  0.59085082  1
  P  P20  1  0.71665387  0.25000067  0.42601739  1
  P  P21  1  0.28334670  0.75000038  0.57398279  1
  Co  Co22  1  0.78573286  0.75000038  0.34454533  1
  Co  Co23  1  0.21426574  0.25000067  0.65545488  1
