# generated using pymatgen
data_Li2SnP2O7
_symmetry_space_group_name_H-M   'P 1'
_cell_length_a   13.63493533
_cell_length_b   5.10163438
_cell_length_c   9.09699768
_cell_angle_alpha   90.00000000
_cell_angle_beta   98.89591222
_cell_angle_gamma   90.00000000
_symmetry_Int_Tables_number   1
_chemical_formula_structural   Li2SnP2O7
_chemical_formula_sum   'Li8 Sn4 P8 O28'
_cell_volume   625.17938728
_cell_formula_units_Z   4
loop_
 _symmetry_equiv_pos_site_id
 _symmetry_equiv_pos_as_xyz
  1  'x, y, z'
loop_
 _atom_site_type_symbol
 _atom_site_label
 _atom_site_symmetry_multiplicity
 _atom_site_fract_x
 _atom_site_fract_y
 _atom_site_fract_z
 _atom_site_occupancy
  Li  Li0  1  0.07277855  0.29298594  0.56871961  1
  Li  Li1  1  0.21054495  0.77140303  0.11991821  1
  Li  Li2  1  0.28945505  0.27140303  0.38008179  1
  Li  Li3  1  0.42722145  0.79298594  0.93128039  1
  Li  Li4  1  0.57277855  0.20701406  0.06871961  1
  Li  Li5  1  0.71054495  0.72859697  0.61991821  1
  Li  Li6  1  0.78945505  0.22859697  0.88008179  1
  Li  Li7  1  0.92722145  0.70701406  0.43128039  1
  O  O8  1  0.07285540  0.15894715  0.77632422  1
  O  O9  1  0.11244901  0.54078984  0.96153040  1
  O  O10  1  0.07195727  0.67890377  0.51948533  1
  O  O11  1  0.15637940  0.08692237  0.43656748  1
  O  O12  1  0.10803050  0.07024756  0.05396100  1
  O  O13  1  0.24586649  0.21539499  0.91398836  1
  O  O14  1  0.18057487  0.64248556  0.31348264  1
  O  O15  1  0.25413351  0.71539499  0.58601164  1
  O  O16  1  0.42804273  0.17890377  0.98051467  1
  O  O17  1  0.31942513  0.14248556  0.18651736  1
  O  O18  1  0.38755099  0.04078984  0.53846960  1
  O  O19  1  0.42714460  0.65894715  0.72367578  1
  O  O20  1  0.39196950  0.57024756  0.44603900  1
  O  O21  1  0.34362060  0.58692237  0.06343252  1
  O  O22  1  0.65637940  0.41307763  0.93656748  1
  O  O23  1  0.60803050  0.42975244  0.55396100  1
  O  O24  1  0.57285540  0.34105285  0.27632422  1
  O  O25  1  0.61244901  0.95921016  0.46153040  1
  O  O26  1  0.68057487  0.85751444  0.81348264  1
  O  O27  1  0.57195727  0.82109623  0.01948533  1
  O  O28  1  0.74586649  0.28460501  0.41398836  1
  O  O29  1  0.81942513  0.35751444  0.68651736  1
  O  O30  1  0.75413351  0.78460501  0.08601164  1
  O  O31  1  0.89196950  0.92975244  0.94603900  1
  O  O32  1  0.84362060  0.91307763  0.56343252  1
  O  O33  1  0.92804273  0.32109623  0.48051467  1
  O  O34  1  0.88755099  0.45921016  0.03846960  1
  O  O35  1  0.92714460  0.84105285  0.22367578  1
  P  P36  1  0.13023584  0.25231762  0.92683197  1
  P  P37  1  0.16037707  0.78524503  0.45302053  1
  P  P38  1  0.36976416  0.75231762  0.57316803  1
  P  P39  1  0.33962293  0.28524503  0.04697947  1
  P  P40  1  0.66037707  0.71475497  0.95302053  1
  P  P41  1  0.63023584  0.24768238  0.42683197  1
  P  P42  1  0.83962293  0.21475497  0.54697947  1
  P  P43  1  0.86976416  0.74768238  0.07316803  1
  Sn  Sn44  1  0.01704831  0.24685818  0.21706431  1
  Sn  Sn45  1  0.51704831  0.25314182  0.71706431  1
  Sn  Sn46  1  0.48295169  0.74685818  0.28293569  1
  Sn  Sn47  1  0.98295169  0.75314182  0.78293569  1
