# generated using pymatgen
data_Cs3Fe2Cl9
_symmetry_space_group_name_H-M   'P 1'
_cell_length_a   7.48319751
_cell_length_b   7.48319750
_cell_length_c   18.15905992
_cell_angle_alpha   90.00000000
_cell_angle_beta   90.00000000
_cell_angle_gamma   119.99999999
_symmetry_Int_Tables_number   1
_chemical_formula_structural   Cs3Fe2Cl9
_chemical_formula_sum   'Cs6 Fe4 Cl18'
_cell_volume   880.64000256
_cell_formula_units_Z   2
loop_
 _symmetry_equiv_pos_site_id
 _symmetry_equiv_pos_as_xyz
  1  'x, y, z'
loop_
 _atom_site_type_symbol
 _atom_site_label
 _atom_site_symmetry_multiplicity
 _atom_site_fract_x
 _atom_site_fract_y
 _atom_site_fract_z
 _atom_site_occupancy
  Cl  Cl0  1  0.64044456  0.82022228  0.59163672  1
  Cl  Cl1  1  0.64044456  0.82022228  0.90836328  1
  Cl  Cl2  1  0.17977772  0.35955544  0.59163672  1
  Cl  Cl3  1  0.17977772  0.82022228  0.90836328  1
  Cl  Cl4  1  0.82022228  0.17977772  0.40836328  1
  Cl  Cl5  1  0.82022228  0.64044456  0.40836328  1
  Cl  Cl6  1  0.52070912  0.04141825  0.25000000  1
  Cl  Cl7  1  0.47929088  0.52070912  0.75000000  1
  Cl  Cl8  1  0.04141825  0.52070912  0.75000000  1
  Cl  Cl9  1  0.95858175  0.47929088  0.25000000  1
  Cl  Cl10  1  0.17977772  0.35955544  0.90836328  1
  Cl  Cl11  1  0.47929088  0.95858175  0.75000000  1
  Cl  Cl12  1  0.82022228  0.64044456  0.09163672  1
  Cl  Cl13  1  0.17977772  0.82022228  0.59163672  1
  Cl  Cl14  1  0.52070912  0.47929088  0.25000000  1
  Cl  Cl15  1  0.35955544  0.17977772  0.09163672  1
  Cl  Cl16  1  0.82022228  0.17977772  0.09163672  1
  Cl  Cl17  1  0.35955544  0.17977772  0.40836328  1
  Fe  Fe18  1  0.33333333  0.66666667  0.84550842  1
  Fe  Fe19  1  0.66666667  0.33333333  0.34550842  1
  Fe  Fe20  1  0.66666667  0.33333333  0.15449158  1
  Fe  Fe21  1  0.33333333  0.66666667  0.65449158  1
  Cs  Cs22  1  0.66666667  0.33333333  0.91670743  1
  Cs  Cs23  1  0.33333333  0.66666667  0.41670743  1
  Cs  Cs24  1  0.66666667  0.33333333  0.58329257  1
  Cs  Cs25  1  0.33333333  0.66666667  0.08329257  1
  Cs  Cs26  1  0.00000000  0.00000000  0.75000000  1
  Cs  Cs27  1  0.00000000  0.00000000  0.25000000  1
