# generated using pymatgen
data_B13H19
_symmetry_space_group_name_H-M   'P 1'
_cell_length_a   6.68486882
_cell_length_b   9.35826673
_cell_length_c   20.20382037
_cell_angle_alpha   98.04004654
_cell_angle_beta   90.00000000
_cell_angle_gamma   90.00000000
_symmetry_Int_Tables_number   1
_chemical_formula_structural   B13H19
_chemical_formula_sum   'B52 H76'
_cell_volume   1251.50276545
_cell_formula_units_Z   4
loop_
 _symmetry_equiv_pos_site_id
 _symmetry_equiv_pos_as_xyz
  1  'x, y, z'
loop_
 _atom_site_type_symbol
 _atom_site_label
 _atom_site_symmetry_multiplicity
 _atom_site_fract_x
 _atom_site_fract_y
 _atom_site_fract_z
 _atom_site_occupancy
  H  H0  1  0.97335613  0.28953699  0.12488238  1
  H  H1  1  0.47335613  0.71046301  0.37511762  1
  H  H2  1  0.02664387  0.71046301  0.87511762  1
  H  H3  1  0.52664387  0.28953699  0.62488238  1
  H  H4  1  0.43039263  0.78445771  0.10523238  1
  H  H5  1  0.93039263  0.21554229  0.39476762  1
  H  H6  1  0.56960737  0.21554229  0.89476762  1
  H  H7  1  0.06960737  0.78445771  0.60523238  1
  H  H8  1  0.43460085  0.74814541  0.19602859  1
  H  H9  1  0.93460085  0.25185459  0.30397141  1
  H  H10  1  0.56539915  0.25185459  0.80397141  1
  H  H11  1  0.06539915  0.74814541  0.69602859  1
  H  H12  1  0.69974964  0.21706612  0.14018516  1
  H  H13  1  0.19974964  0.78293388  0.35981484  1
  H  H14  1  0.30025036  0.78293388  0.85981484  1
  H  H15  1  0.80025036  0.21706612  0.64018516  1
  H  H16  1  0.51657053  0.37348181  0.17244095  1
  H  H17  1  0.01657053  0.62651819  0.32755905  1
  H  H18  1  0.48342947  0.62651819  0.82755905  1
  H  H19  1  0.98342947  0.37348181  0.67244095  1
  H  H20  1  0.67330329  0.69544968  0.06459127  1
  H  H21  1  0.17330329  0.30455032  0.43540873  1
  H  H22  1  0.32669671  0.30455032  0.93540873  1
  H  H23  1  0.82669671  0.69544968  0.56459127  1
  H  H24  1  0.98569840  0.48772669  0.14923854  1
  H  H25  1  0.48569840  0.51227331  0.35076146  1
  H  H26  1  0.01430160  0.51227331  0.85076146  1
  H  H27  1  0.51430160  0.48772669  0.64923854  1
  H  H28  1  0.42723366  0.22212531  0.09238460  1
  H  H29  1  0.92723366  0.77787469  0.40761540  1
  H  H30  1  0.57276634  0.77787469  0.90761540  1
  H  H31  1  0.36082174  0.95575386  0.17626225  1
  H  H32  1  0.07276634  0.22212531  0.59238460  1
  H  H33  1  0.34400809  0.85746135  0.44877801  1
  H  H34  1  0.15599191  0.85746135  0.94877801  1
  H  H35  1  0.65599191  0.14253865  0.55122199  1
  H  H36  1  0.09306680  0.41021864  0.05645935  1
  H  H37  1  0.59306680  0.58978136  0.44354065  1
  H  H38  1  0.90693320  0.58978136  0.94354065  1
  H  H39  1  0.40693320  0.41021864  0.55645935  1
  H  H40  1  0.66472152  0.42986458  0.01417158  1
  H  H41  1  0.16472152  0.57013542  0.48582842  1
  H  H42  1  0.33527848  0.57013542  0.98582842  1
  H  H43  1  0.83527848  0.42986458  0.51417158  1
  H  H44  1  0.97040097  0.74748954  0.06647370  1
  H  H45  1  0.47040097  0.25251046  0.43352630  1
  H  H46  1  0.02959903  0.25251046  0.93352630  1
  H  H47  1  0.52959903  0.74748954  0.56647370  1
  H  H48  1  0.59013964  0.89975717  0.04427266  1
  H  H49  1  0.09013964  0.10024283  0.45572734  1
  H  H50  1  0.40986036  0.10024283  0.95572734  1
  H  H51  1  0.90986036  0.89975717  0.54427266  1
  H  H52  1  0.49555853  0.73007562  0.71613384  1
  H  H53  1  0.99555853  0.26992438  0.78386616  1
  H  H54  1  0.50444147  0.26992438  0.28386616  1
  H  H55  1  0.00444147  0.73007562  0.21613384  1
  H  H56  1  0.67481326  0.98264757  0.67898524  1
  H  H57  1  0.17481326  0.01735243  0.82101476  1
  H  H58  1  0.32518674  0.01735243  0.32101476  1
  H  H59  1  0.82518674  0.98264757  0.17898524  1
  H  H60  1  0.10344870  0.53367945  0.62174658  1
  H  H61  1  0.60344870  0.46632055  0.87825342  1
  H  H62  1  0.89655130  0.46632055  0.37825342  1
  H  H63  1  0.39655130  0.53367945  0.12174658  1
  H  H64  1  0.78253484  0.52084386  0.75525460  1
  H  H65  1  0.28253484  0.47915614  0.74474540  1
  H  H66  1  0.21746516  0.47915614  0.24474540  1
  H  H67  1  0.71746516  0.52084386  0.25525460  1
  H  H68  1  0.90987579  0.82903046  0.78046321  1
  H  H69  1  0.40987579  0.17096954  0.71953679  1
  H  H70  1  0.09012421  0.17096954  0.21953679  1
  H  H71  1  0.59012421  0.82903046  0.28046321  1
  H  H72  1  0.13917826  0.95575386  0.67626225  1
  H  H73  1  0.63917826  0.04424614  0.82373775  1
  H  H74  1  0.86082174  0.04424614  0.32373775  1
  H  H75  1  0.84400809  0.14253865  0.05122199  1
  B  B76  1  0.56295984  0.29814087  0.11268869  1
  B  B77  1  0.06295984  0.70185913  0.38731131  1
  B  B78  1  0.43704016  0.70185913  0.88731131  1
  B  B79  1  0.93704016  0.29814087  0.61268869  1
  B  B80  1  0.80664192  0.25011307  0.08782437  1
  B  B81  1  0.30664192  0.74988693  0.41217563  1
  B  B82  1  0.19335808  0.74988693  0.91217563  1
  B  B83  1  0.69335808  0.25011307  0.58782437  1
  B  B84  1  0.95677446  0.40548710  0.09385524  1
  B  B85  1  0.45677446  0.59451290  0.40614476  1
  B  B86  1  0.04322554  0.59451290  0.90614476  1
  B  B87  1  0.54322554  0.40548710  0.59385524  1
  B  B88  1  0.70519101  0.41073748  0.06974042  1
  B  B89  1  0.20519101  0.58926252  0.43025958  1
  B  B90  1  0.29480899  0.58926252  0.93025958  1
  B  B91  1  0.79480899  0.41073748  0.56974042  1
  B  B92  1  0.80598906  0.55330809  0.13393831  1
  B  B93  1  0.30598906  0.44669191  0.36606169  1
  B  B94  1  0.19401094  0.44669191  0.86606169  1
  B  B95  1  0.69401094  0.55330809  0.63393831  1
  B  B96  1  0.83248977  0.73063606  0.10210653  1
  B  B97  1  0.33248977  0.26936394  0.39789347  1
  B  B98  1  0.16751023  0.26936394  0.89789347  1
  B  B99  1  0.66751023  0.73063606  0.60210653  1
  B  B100  1  0.61301729  0.83137123  0.08916908  1
  B  B101  1  0.11301729  0.16862877  0.41083092  1
  B  B102  1  0.38698271  0.16862877  0.91083092  1
  B  B103  1  0.88698271  0.83137123  0.58916908  1
  B  B104  1  0.48027110  0.86127882  0.16441714  1
  B  B105  1  0.98027110  0.13872118  0.33558286  1
  B  B106  1  0.51972890  0.13872118  0.83558286  1
  B  B107  1  0.01972890  0.86127882  0.66441714  1
  B  B108  1  0.61187309  0.77238011  0.22406535  1
  B  B109  1  0.11187309  0.22761989  0.27593465  1
  B  B110  1  0.38812691  0.22761989  0.77593465  1
  B  B111  1  0.88812691  0.77238011  0.72406535  1
  B  B112  1  0.67867381  0.58316498  0.20886529  1
  B  B113  1  0.17867381  0.41683502  0.29113471  1
  B  B114  1  0.32132619  0.41683502  0.79113471  1
  B  B115  1  0.82132619  0.58316498  0.70886529  1
  B  B116  1  0.54909476  0.48650502  0.14146472  1
  B  B117  1  0.04909476  0.51349498  0.35853528  1
  B  B118  1  0.45090524  0.51349498  0.85853528  1
  B  B119  1  0.95090524  0.48650502  0.64146472  1
  B  B120  1  0.73928430  0.87113535  0.16405516  1
  B  B121  1  0.23928430  0.12886465  0.33594484  1
  B  B122  1  0.26071570  0.12886465  0.83594484  1
  B  B123  1  0.76071570  0.87113535  0.66405516  1
  B  B124  1  0.84602576  0.71003379  0.18839539  1
  B  B125  1  0.34602576  0.28996621  0.31160461  1
  B  B126  1  0.15397424  0.28996621  0.81160461  1
  B  B127  1  0.65397424  0.71003379  0.68839539  1
