# generated using pymatgen
data_Mo8P5
_symmetry_space_group_name_H-M   'P 1'
_cell_length_a   3.20590795
_cell_length_b   6.58427610
_cell_length_c   9.47263701
_cell_angle_alpha   109.37495726
_cell_angle_beta   90.00000000
_cell_angle_gamma   90.00000000
_symmetry_Int_Tables_number   1
_chemical_formula_structural   Mo8P5
_chemical_formula_sum   'Mo8 P5'
_cell_volume   188.63010311
_cell_formula_units_Z   1
loop_
 _symmetry_equiv_pos_site_id
 _symmetry_equiv_pos_as_xyz
  1  'x, y, z'
loop_
 _atom_site_type_symbol
 _atom_site_label
 _atom_site_symmetry_multiplicity
 _atom_site_fract_x
 _atom_site_fract_y
 _atom_site_fract_z
 _atom_site_occupancy
  Mo  Mo0  1  0.00000000  0.00428147  0.00241900  1
  Mo  Mo1  1  0.00000000  0.23647385  0.78008707  1
  Mo  Mo2  1  0.00000000  0.79081221  0.24929241  1
  Mo  Mo3  1  0.00000000  0.35800185  0.30743799  1
  Mo  Mo4  1  0.00000000  0.79865782  0.57100835  1
  Mo  Mo5  1  0.50000000  0.39781423  0.05196432  1
  Mo  Mo6  1  0.50000000  0.61012772  0.78152649  1
  Mo  Mo7  1  0.50000000  0.12898660  0.49737736  1
  P  P8  1  0.00000000  0.42423315  0.57488661  1
  P  P9  1  0.00000000  0.62486372  0.98256751  1
  P  P10  1  0.50000000  0.06243932  0.20754864  1
  P  P11  1  0.50000000  0.65240112  0.37631370  1
  P  P12  1  0.50000000  0.97820693  0.78787055  1
