# generated using pymatgen
data_TaCl4
_symmetry_space_group_name_H-M   'P 1'
_cell_length_a   6.83568111
_cell_length_b   7.39873841
_cell_length_c   7.54668852
_cell_angle_alpha   71.53809740
_cell_angle_beta   63.07056788
_cell_angle_gamma   62.48704887
_symmetry_Int_Tables_number   1
_chemical_formula_structural   TaCl4
_chemical_formula_sum   'Ta2 Cl8'
_cell_volume   299.00522736
_cell_formula_units_Z   2
loop_
 _symmetry_equiv_pos_site_id
 _symmetry_equiv_pos_as_xyz
  1  'x, y, z'
loop_
 _atom_site_type_symbol
 _atom_site_label
 _atom_site_symmetry_multiplicity
 _atom_site_fract_x
 _atom_site_fract_y
 _atom_site_fract_z
 _atom_site_occupancy
  Cl  Cl0  1  0.23524498  0.75781824  0.28287712  1
  Cl  Cl1  1  0.27594034  0.24218176  0.71712288  1
  Cl  Cl2  1  0.83421338  0.18739063  0.14418261  1
  Cl  Cl3  1  0.16578662  0.81260937  0.85581739  1
  Cl  Cl4  1  0.69162131  0.78335218  0.83340520  1
  Cl  Cl5  1  0.30837869  0.21664782  0.16659480  1
  Cl  Cl6  1  0.72405966  0.75781824  0.28287712  1
  Cl  Cl7  1  0.76475502  0.24218176  0.71712288  1
  Ta  Ta8  1  0.28081982  0.00000000  0.00000000  1
  Ta  Ta9  1  0.71918018  0.00000000  0.00000000  1
