# generated using pymatgen
data_V3Sb2
_symmetry_space_group_name_H-M   'P 1'
_cell_length_a   5.51818187
_cell_length_b   5.51818187
_cell_length_c   7.53451019
_cell_angle_alpha   68.51893001
_cell_angle_beta   68.51893001
_cell_angle_gamma   59.99999918
_symmetry_Int_Tables_number   1
_chemical_formula_structural   V3Sb2
_chemical_formula_sum   'V6 Sb4'
_cell_volume   180.05404503
_cell_formula_units_Z   2
loop_
 _symmetry_equiv_pos_site_id
 _symmetry_equiv_pos_as_xyz
  1  'x, y, z'
loop_
 _atom_site_type_symbol
 _atom_site_label
 _atom_site_symmetry_multiplicity
 _atom_site_fract_x
 _atom_site_fract_y
 _atom_site_fract_z
 _atom_site_occupancy
  V  V0  1  0.12692099  0.60232876  0.66842149  1
  V  V1  1  0.60232876  0.60232876  0.66842149  1
  V  V2  1  0.60232876  0.12692099  0.66842149  1
  V  V3  1  0.87307901  0.39767124  0.33157851  1
  V  V4  1  0.39767124  0.39767124  0.33157851  1
  V  V5  1  0.39767124  0.87307901  0.33157851  1
  Sb  Sb6  1  0.11001818  0.11001818  0.66994547  1
  Sb  Sb7  1  0.88998182  0.88998182  0.33005453  1
  Sb  Sb8  1  0.33131495  0.33131495  0.00605515  1
  Sb  Sb9  1  0.66868505  0.66868505  0.99394485  1
