# generated using pymatgen
data_Tl3AgI5
_symmetry_space_group_name_H-M   'P 1'
_cell_length_a   10.80941526
_cell_length_b   10.80941526
_cell_length_c   13.51274822
_cell_angle_alpha   90.00000000
_cell_angle_beta   90.00000000
_cell_angle_gamma   119.99999999
_symmetry_Int_Tables_number   1
_chemical_formula_structural   Tl3AgI5
_chemical_formula_sum   'Tl12 Ag4 I20'
_cell_volume   1367.34692762
_cell_formula_units_Z   4
loop_
 _symmetry_equiv_pos_site_id
 _symmetry_equiv_pos_as_xyz
  1  'x, y, z'
loop_
 _atom_site_type_symbol
 _atom_site_label
 _atom_site_symmetry_multiplicity
 _atom_site_fract_x
 _atom_site_fract_y
 _atom_site_fract_z
 _atom_site_occupancy
  Ag  Ag0  1  0.00000000  0.00000000  0.38023822  1
  Ag  Ag1  1  0.00000000  0.00000000  0.88023822  1
  Ag  Ag2  1  0.00000000  0.00000000  0.61976178  1
  Ag  Ag3  1  0.00000000  0.00000000  0.11976178  1
  I  I4  1  0.66666667  0.33333333  0.89802764  1
  I  I5  1  0.66666667  0.33333333  0.60197236  1
  I  I6  1  0.33333333  0.66666667  0.10197236  1
  I  I7  1  0.33333333  0.66666667  0.39802764  1
  I  I8  1  0.00626506  0.24368359  0.75000000  1
  I  I9  1  0.75631641  0.76258147  0.75000000  1
  I  I10  1  0.23741853  0.99373494  0.75000000  1
  I  I11  1  0.99373494  0.23741853  0.25000000  1
  I  I12  1  0.66666667  0.33333333  0.35763357  1
  I  I13  1  0.33333333  0.66666667  0.85763357  1
  I  I14  1  0.33333333  0.66666667  0.64236643  1
  I  I15  1  0.66666667  0.33333333  0.14236643  1
  I  I16  1  0.75501821  0.00000000  0.00000000  1
  I  I17  1  0.24498179  0.24498179  0.50000000  1
  I  I18  1  0.00000000  0.75501821  0.50000000  1
  I  I19  1  0.00000000  0.75501821  0.00000000  1
  I  I20  1  0.24498179  0.24498179  0.00000000  1
  I  I21  1  0.75501821  0.00000000  0.50000000  1
  I  I22  1  0.24368359  0.00626506  0.25000000  1
  I  I23  1  0.76258147  0.75631641  0.25000000  1
  Tl  Tl24  1  0.96564225  0.61485109  0.75000000  1
  Tl  Tl25  1  0.38514891  0.35079116  0.75000000  1
  Tl  Tl26  1  0.64920884  0.03435775  0.75000000  1
  Tl  Tl27  1  0.03435775  0.64920884  0.25000000  1
  Tl  Tl28  1  0.35079116  0.38514891  0.25000000  1
  Tl  Tl29  1  0.61485109  0.96564225  0.25000000  1
  Tl  Tl30  1  0.36294812  0.00000000  0.50000000  1
  Tl  Tl31  1  0.63705188  0.63705188  0.00000000  1
  Tl  Tl32  1  0.00000000  0.36294812  0.00000000  1
  Tl  Tl33  1  0.00000000  0.36294812  0.50000000  1
  Tl  Tl34  1  0.63705188  0.63705188  0.50000000  1
  Tl  Tl35  1  0.36294812  0.00000000  0.00000000  1
