# generated using pymatgen
data_Na3BP2
_symmetry_space_group_name_H-M   'P 1'
_cell_length_a   7.00918006
_cell_length_b   9.16053500
_cell_length_c   9.30551945
_cell_angle_alpha   90.00000000
_cell_angle_beta   90.00000000
_cell_angle_gamma   110.92281908
_symmetry_Int_Tables_number   1
_chemical_formula_structural   Na3BP2
_chemical_formula_sum   'Na12 B4 P8'
_cell_volume   558.09037276
_cell_formula_units_Z   4
loop_
 _symmetry_equiv_pos_site_id
 _symmetry_equiv_pos_as_xyz
  1  'x, y, z'
loop_
 _atom_site_type_symbol
 _atom_site_label
 _atom_site_symmetry_multiplicity
 _atom_site_fract_x
 _atom_site_fract_y
 _atom_site_fract_z
 _atom_site_occupancy
  B  B0  1  0.77515547  0.31776192  0.17133232  1
  B  B1  1  0.22484453  0.18223808  0.67133232  1
  B  B2  1  0.77515547  0.81776192  0.32866768  1
  B  B3  1  0.22484453  0.68223808  0.82866768  1
  Na  Na4  1  0.26378122  0.18239362  0.28659740  1
  Na  Na5  1  0.75668061  0.02202506  0.06932097  1
  Na  Na6  1  0.75668061  0.52202506  0.43067903  1
  Na  Na7  1  0.24331939  0.47797494  0.56932097  1
  Na  Na8  1  0.22174456  0.38878682  0.97290358  1
  Na  Na9  1  0.77825544  0.11121318  0.47290358  1
  Na  Na10  1  0.77825544  0.61121318  0.02709642  1
  Na  Na11  1  0.22174456  0.88878682  0.52709642  1
  Na  Na12  1  0.26378122  0.68239362  0.21340260  1
  Na  Na13  1  0.73621878  0.81760638  0.71340260  1
  Na  Na14  1  0.24331939  0.97797494  0.93067903  1
  Na  Na15  1  0.73621878  0.31760638  0.78659740  1
  P  P16  1  0.55332607  0.76834915  0.43860241  1
  P  P17  1  0.44667393  0.73165085  0.93860241  1
  P  P18  1  0.44667393  0.23165085  0.56139759  1
  P  P19  1  0.55332607  0.26834915  0.06139759  1
  P  P20  1  0.00272370  0.36466199  0.27550755  1
  P  P21  1  0.99727630  0.13533801  0.77550755  1
  P  P22  1  0.99727630  0.63533801  0.72449245  1
  P  P23  1  0.00272370  0.86466199  0.22449245  1
