# generated using pymatgen
data_Si2Cl2O3
_symmetry_space_group_name_H-M   'P 1'
_cell_length_a   8.67113772
_cell_length_b   8.67113773
_cell_length_c   8.67113773
_cell_angle_alpha   95.78418381
_cell_angle_beta   95.78418381
_cell_angle_gamma   95.78418377
_symmetry_Int_Tables_number   1
_chemical_formula_structural   Si2Cl2O3
_chemical_formula_sum   'Si8 Cl8 O12'
_cell_volume   641.28292732
_cell_formula_units_Z   4
loop_
 _symmetry_equiv_pos_site_id
 _symmetry_equiv_pos_as_xyz
  1  'x, y, z'
loop_
 _atom_site_type_symbol
 _atom_site_label
 _atom_site_symmetry_multiplicity
 _atom_site_fract_x
 _atom_site_fract_y
 _atom_site_fract_z
 _atom_site_occupancy
  O  O0  1  0.89431227  0.24110488  0.87108870  1
  O  O1  1  0.27576700  0.03728776  0.17349866  1
  O  O2  1  0.03728776  0.17349866  0.27576700  1
  O  O3  1  0.17349866  0.27576700  0.03728776  1
  O  O4  1  0.96271224  0.82650134  0.72423300  1
  O  O5  1  0.82650134  0.72423300  0.96271224  1
  O  O6  1  0.72423300  0.96271224  0.82650134  1
  O  O7  1  0.12891130  0.10568773  0.75889512  1
  O  O8  1  0.24110488  0.87108870  0.89431227  1
  O  O9  1  0.87108870  0.89431227  0.24110488  1
  O  O10  1  0.10568773  0.75889512  0.12891130  1
  O  O11  1  0.75889512  0.12891130  0.10568773  1
  Si  Si12  1  0.74197463  0.13813588  0.91813745  1
  Si  Si13  1  0.13813588  0.91813745  0.74197463  1
  Si  Si14  1  0.20232566  0.20232566  0.20232566  1
  Si  Si15  1  0.25802537  0.86186412  0.08186255  1
  Si  Si16  1  0.86186412  0.08186255  0.25802537  1
  Si  Si17  1  0.08186255  0.25802537  0.86186412  1
  Si  Si18  1  0.79767434  0.79767434  0.79767434  1
  Si  Si19  1  0.91813745  0.74197463  0.13813588  1
  Cl  Cl20  1  0.55048976  0.24248621  0.85644225  1
  Cl  Cl21  1  0.85644225  0.55048976  0.24248621  1
  Cl  Cl22  1  0.44951024  0.75751379  0.14355775  1
  Cl  Cl23  1  0.75751379  0.14355775  0.44951024  1
  Cl  Cl24  1  0.14355775  0.44951024  0.75751379  1
  Cl  Cl25  1  0.64735250  0.64735250  0.64735250  1
  Cl  Cl26  1  0.35264750  0.35264750  0.35264750  1
  Cl  Cl27  1  0.24248621  0.85644225  0.55048976  1
