# generated using pymatgen
data_Nb9As7Pd
_symmetry_space_group_name_H-M   'P 1'
_cell_length_a   16.79421764
_cell_length_b   16.79421764
_cell_length_c   3.59794146
_cell_angle_alpha   90.00000000
_cell_angle_beta   90.00000000
_cell_angle_gamma   120.00000000
_symmetry_Int_Tables_number   1
_chemical_formula_structural   Nb9As7Pd
_chemical_formula_sum   'Nb27 As21 Pd3'
_cell_volume   878.82879562
_cell_formula_units_Z   3
loop_
 _symmetry_equiv_pos_site_id
 _symmetry_equiv_pos_as_xyz
  1  'x, y, z'
loop_
 _atom_site_type_symbol
 _atom_site_label
 _atom_site_symmetry_multiplicity
 _atom_site_fract_x
 _atom_site_fract_y
 _atom_site_fract_z
 _atom_site_occupancy
  As  As0  1  0.00000000  0.00000000  0.50000000  1
  As  As1  1  0.33333333  0.66666667  0.50000000  1
  As  As2  1  0.66666667  0.33333333  0.00000000  1
  As  As3  1  0.88472652  0.37352032  0.00000000  1
  As  As4  1  0.62647968  0.51120620  0.00000000  1
  As  As5  1  0.48879380  0.11527348  0.00000000  1
  As  As6  1  0.71045211  0.15715814  0.00000000  1
  As  As7  1  0.84284186  0.55329397  0.00000000  1
  As  As8  1  0.44670603  0.28954789  0.00000000  1
  As  As9  1  0.92709145  0.19518225  0.00000000  1
  As  As10  1  0.80481775  0.73190920  0.00000000  1
  As  As11  1  0.26809080  0.07290855  0.00000000  1
  As  As12  1  0.51218246  0.88561118  0.50000000  1
  As  As13  1  0.11438882  0.62657128  0.50000000  1
  As  As14  1  0.37342872  0.48781754  0.50000000  1
  As  As15  1  0.73695413  0.93048095  0.50000000  1
  As  As16  1  0.06951905  0.80647319  0.50000000  1
  As  As17  1  0.19352681  0.26304587  0.50000000  1
  As  As18  1  0.55278750  0.70962237  0.50000000  1
  As  As19  1  0.29037763  0.84316513  0.50000000  1
  As  As20  1  0.15683487  0.44721250  0.50000000  1
  Nb  Nb21  1  0.46663263  0.75454593  0.00000000  1
  Nb  Nb22  1  0.24545407  0.71208671  0.00000000  1
  Nb  Nb23  1  0.02946001  0.67453833  0.00000000  1
  Nb  Nb24  1  0.32546167  0.35492168  0.00000000  1
  Nb  Nb25  1  0.50496391  0.57718646  0.00000000  1
  Nb  Nb26  1  0.64507832  0.97053999  0.00000000  1
  Nb  Nb27  1  0.31414045  0.20245820  0.50000000  1
  Nb  Nb28  1  0.88831775  0.68585955  0.50000000  1
  Nb  Nb29  1  0.79754180  0.11168225  0.50000000  1
  Nb  Nb30  1  0.87345811  0.00494768  0.00000000  1
  Nb  Nb31  1  0.99505232  0.86851043  0.00000000  1
  Nb  Nb32  1  0.13148957  0.12654189  0.00000000  1
  Nb  Nb33  1  0.68256979  0.79912817  0.00000000  1
  Nb  Nb34  1  0.20087183  0.88344162  0.00000000  1
  Nb  Nb35  1  0.11655838  0.31743021  0.00000000  1
  Nb  Nb36  1  0.35595532  0.02995100  0.50000000  1
  Nb  Nb37  1  0.42281354  0.92777745  0.00000000  1
  Nb  Nb38  1  0.07222255  0.49503609  0.00000000  1
  Nb  Nb39  1  0.92773129  0.50541641  0.50000000  1
  Nb  Nb40  1  0.49458359  0.42231488  0.50000000  1
  Nb  Nb41  1  0.57768512  0.07226871  0.50000000  1
  Nb  Nb42  1  0.75397159  0.28759430  0.50000000  1
  Nb  Nb43  1  0.71240570  0.46637728  0.50000000  1
  Nb  Nb44  1  0.53362272  0.24602841  0.50000000  1
  Nb  Nb45  1  0.97004900  0.32600432  0.50000000  1
  Nb  Nb46  1  0.67399568  0.64404468  0.50000000  1
  Nb  Nb47  1  0.28791329  0.53336737  0.00000000  1
  Pd  Pd48  1  0.84483055  0.85045113  0.50000000  1
  Pd  Pd49  1  0.14954887  0.99437942  0.50000000  1
  Pd  Pd50  1  0.00562058  0.15516945  0.50000000  1
