# generated using pymatgen
data_NiP3W2
_symmetry_space_group_name_H-M   'P 1'
_cell_length_a   3.25646712
_cell_length_b   6.54227171
_cell_length_c   8.53993983
_cell_angle_alpha   104.54905944
_cell_angle_beta   90.00000000
_cell_angle_gamma   104.41118275
_symmetry_Int_Tables_number   1
_chemical_formula_structural   NiP3W2
_chemical_formula_sum   'Ni2 P6 W4'
_cell_volume   170.18549448
_cell_formula_units_Z   2
loop_
 _symmetry_equiv_pos_site_id
 _symmetry_equiv_pos_as_xyz
  1  'x, y, z'
loop_
 _atom_site_type_symbol
 _atom_site_label
 _atom_site_symmetry_multiplicity
 _atom_site_fract_x
 _atom_site_fract_y
 _atom_site_fract_z
 _atom_site_occupancy
  P  P0  1  0.62598266  0.25196533  0.56518085  1
  P  P1  1  0.37401734  0.74803467  0.43481915  1
  P  P2  1  0.31947345  0.63894689  0.84533163  1
  P  P3  1  0.98124474  0.96248949  0.19317701  1
  P  P4  1  0.01875526  0.03751051  0.80682299  1
  P  P5  1  0.68052655  0.36105311  0.15466837  1
  Ni  Ni6  1  0.00000000  0.00000000  0.50000000  1
  Ni  Ni7  1  0.50000000  0.00000000  0.00000000  1
  W  W8  1  0.17449434  0.34898869  0.37493585  1
  W  W9  1  0.82550566  0.65101131  0.62506415  1
  W  W10  1  0.32326789  0.64653578  0.13190341  1
  W  W11  1  0.67673211  0.35346422  0.86809659  1
