# generated using pymatgen
data_LaSnPt
_symmetry_space_group_name_H-M   'P 1'
_cell_length_a   4.70744302
_cell_length_b   7.62718549
_cell_length_c   8.17362284
_cell_angle_alpha   90.00000000
_cell_angle_beta   90.00000000
_cell_angle_gamma   90.00000000
_symmetry_Int_Tables_number   1
_chemical_formula_structural   LaSnPt
_chemical_formula_sum   'La4 Sn4 Pt4'
_cell_volume   293.47017717
_cell_formula_units_Z   4
loop_
 _symmetry_equiv_pos_site_id
 _symmetry_equiv_pos_as_xyz
  1  'x, y, z'
loop_
 _atom_site_type_symbol
 _atom_site_label
 _atom_site_symmetry_multiplicity
 _atom_site_fract_x
 _atom_site_fract_y
 _atom_site_fract_z
 _atom_site_occupancy
  Sn  Sn0  1  0.25000000  0.67349297  0.41735781  1
  Sn  Sn1  1  0.25000000  0.17349297  0.08264219  1
  Sn  Sn2  1  0.75000000  0.32650703  0.58264219  1
  Sn  Sn3  1  0.75000000  0.82650703  0.91735781  1
  La  La4  1  0.75000000  0.48455802  0.19447673  1
  La  La5  1  0.25000000  0.01544198  0.69447673  1
  La  La6  1  0.75000000  0.98455802  0.30552327  1
  La  La7  1  0.25000000  0.51544198  0.80552327  1
  Pt  Pt8  1  0.25000000  0.78896960  0.09198794  1
  Pt  Pt9  1  0.25000000  0.28896960  0.40801206  1
  Pt  Pt10  1  0.75000000  0.71103040  0.59198794  1
  Pt  Pt11  1  0.75000000  0.21103040  0.90801206  1
