# generated using pymatgen
data_Mn4Nb7Ge8
_symmetry_space_group_name_H-M   'P 1'
_cell_length_a   5.23136674
_cell_length_b   13.85728845
_cell_length_c   16.57659274
_cell_angle_alpha   90.00000000
_cell_angle_beta   90.00000000
_cell_angle_gamma   90.00000000
_symmetry_Int_Tables_number   1
_chemical_formula_structural   Mn4Nb7Ge8
_chemical_formula_sum   'Mn16 Nb28 Ge32'
_cell_volume   1201.67960905
_cell_formula_units_Z   4
loop_
 _symmetry_equiv_pos_site_id
 _symmetry_equiv_pos_as_xyz
  1  'x, y, z'
loop_
 _atom_site_type_symbol
 _atom_site_label
 _atom_site_symmetry_multiplicity
 _atom_site_fract_x
 _atom_site_fract_y
 _atom_site_fract_z
 _atom_site_occupancy
  Mn  Mn0  1  0.99896983  0.05755571  0.61664445  1
  Mn  Mn1  1  0.49896983  0.94244429  0.38335555  1
  Mn  Mn2  1  0.50103017  0.55755571  0.88335555  1
  Mn  Mn3  1  0.00103017  0.44244429  0.11664445  1
  Mn  Mn4  1  0.00103017  0.94244429  0.38335555  1
  Mn  Mn5  1  0.50103017  0.05755571  0.61664445  1
  Mn  Mn6  1  0.49896983  0.44244429  0.11664445  1
  Mn  Mn7  1  0.99896983  0.55755571  0.88335555  1
  Mn  Mn8  1  0.75000000  0.13422334  0.34627204  1
  Mn  Mn9  1  0.25000000  0.86577666  0.65372796  1
  Mn  Mn10  1  0.75000000  0.63422334  0.15372796  1
  Mn  Mn11  1  0.25000000  0.36577666  0.84627204  1
  Mn  Mn12  1  0.75000000  0.31040711  0.25163321  1
  Mn  Mn13  1  0.25000000  0.68959289  0.74836679  1
  Mn  Mn14  1  0.75000000  0.81040711  0.24836679  1
  Mn  Mn15  1  0.25000000  0.18959289  0.75163321  1
  Ge  Ge16  1  0.99526632  0.22031195  0.87841263  1
  Ge  Ge17  1  0.49526632  0.77968805  0.12158737  1
  Ge  Ge18  1  0.50473368  0.72031195  0.62158737  1
  Ge  Ge19  1  0.00473368  0.27968805  0.37841263  1
  Ge  Ge20  1  0.00473368  0.77968805  0.12158737  1
  Ge  Ge21  1  0.50473368  0.22031195  0.87841263  1
  Ge  Ge22  1  0.49526632  0.27968805  0.37841263  1
  Ge  Ge23  1  0.99526632  0.72031195  0.62158737  1
  Ge  Ge24  1  0.75000000  0.19499350  0.68842545  1
  Ge  Ge25  1  0.25000000  0.80500650  0.31157455  1
  Ge  Ge26  1  0.75000000  0.69499350  0.81157455  1
  Ge  Ge27  1  0.25000000  0.30500650  0.18842545  1
  Ge  Ge28  1  0.75000000  0.42172249  0.81107325  1
  Ge  Ge29  1  0.25000000  0.57827751  0.18892675  1
  Ge  Ge30  1  0.75000000  0.92172249  0.68892675  1
  Ge  Ge31  1  0.25000000  0.07827751  0.31107325  1
  Ge  Ge32  1  0.75000000  0.05518683  0.48295582  1
  Ge  Ge33  1  0.25000000  0.94481317  0.51704418  1
  Ge  Ge34  1  0.75000000  0.55518683  0.01704418  1
  Ge  Ge35  1  0.25000000  0.44481317  0.98295582  1
  Ge  Ge36  1  0.75000000  0.45048023  0.55963304  1
  Ge  Ge37  1  0.25000000  0.54951977  0.44036696  1
  Ge  Ge38  1  0.75000000  0.95048023  0.94036696  1
  Ge  Ge39  1  0.25000000  0.04951977  0.05963304  1
  Ge  Ge40  1  0.75000000  0.28397213  0.10182061  1
  Ge  Ge41  1  0.25000000  0.71602787  0.89817939  1
  Ge  Ge42  1  0.75000000  0.78397213  0.39817939  1
  Ge  Ge43  1  0.25000000  0.21602787  0.60182061  1
  Ge  Ge44  1  0.75000000  0.48917888  0.24363519  1
  Ge  Ge45  1  0.25000000  0.51082112  0.75636481  1
  Ge  Ge46  1  0.75000000  0.98917888  0.25636481  1
  Ge  Ge47  1  0.25000000  0.01082112  0.74363519  1
  Nb  Nb48  1  0.00320033  0.36293937  0.67885127  1
  Nb  Nb49  1  0.50320033  0.63706063  0.32114873  1
  Nb  Nb50  1  0.49679967  0.86293937  0.82114873  1
  Nb  Nb51  1  0.99679967  0.13706063  0.17885127  1
  Nb  Nb52  1  0.99679967  0.63706063  0.32114873  1
  Nb  Nb53  1  0.49679967  0.36293937  0.67885127  1
  Nb  Nb54  1  0.50320033  0.13706063  0.17885127  1
  Nb  Nb55  1  0.00320033  0.86293937  0.82114873  1
  Nb  Nb56  1  0.75000000  0.06745151  0.80504646  1
  Nb  Nb57  1  0.25000000  0.93254849  0.19495354  1
  Nb  Nb58  1  0.75000000  0.56745151  0.69495354  1
  Nb  Nb59  1  0.25000000  0.43254849  0.30504646  1
  Nb  Nb60  1  0.75000000  0.36927045  0.96159954  1
  Nb  Nb61  1  0.25000000  0.63072955  0.03840046  1
  Nb  Nb62  1  0.75000000  0.86927045  0.53840046  1
  Nb  Nb63  1  0.25000000  0.13072955  0.46159954  1
  Nb  Nb64  1  0.75000000  0.25061541  0.52238931  1
  Nb  Nb65  1  0.25000000  0.74938459  0.47761069  1
  Nb  Nb66  1  0.75000000  0.75061541  0.97761069  1
  Nb  Nb67  1  0.25000000  0.24938459  0.02238931  1
  Nb  Nb68  1  0.75000000  0.45123541  0.40112048  1
  Nb  Nb69  1  0.25000000  0.54876459  0.59887952  1
  Nb  Nb70  1  0.75000000  0.95123541  0.09887952  1
  Nb  Nb71  1  0.25000000  0.04876459  0.90112048  1
  Nb  Nb72  1  0.75000000  0.12899118  0.00505588  1
  Nb  Nb73  1  0.25000000  0.87100882  0.99494412  1
  Nb  Nb74  1  0.75000000  0.62899118  0.49494412  1
  Nb  Nb75  1  0.25000000  0.37100882  0.50505588  1
