# generated using pymatgen
data_LiMnP2O7
_symmetry_space_group_name_H-M   'P 1'
_cell_length_a   6.92511061
_cell_length_b   8.34151860
_cell_length_c   9.45390031
_cell_angle_alpha   90.00000000
_cell_angle_beta   112.84278105
_cell_angle_gamma   90.00000000
_symmetry_Int_Tables_number   1
_chemical_formula_structural   LiMnP2O7
_chemical_formula_sum   'Li4 Mn4 P8 O28'
_cell_volume   503.28368954
_cell_formula_units_Z   4
loop_
 _symmetry_equiv_pos_site_id
 _symmetry_equiv_pos_as_xyz
  1  'x, y, z'
loop_
 _atom_site_type_symbol
 _atom_site_label
 _atom_site_symmetry_multiplicity
 _atom_site_fract_x
 _atom_site_fract_y
 _atom_site_fract_z
 _atom_site_occupancy
  Li  Li0  1  0.12300120  0.56722899  0.91782437  1
  Li  Li1  1  0.37699859  0.06722892  0.58217598  1
  Li  Li2  1  0.62300143  0.93277121  0.41782447  1
  Li  Li3  1  0.87699882  0.43277115  0.08217608  1
  O  O4  1  0.07791136  0.24268732  0.20741779  1
  O  O5  1  0.85536027  0.11539652  0.39441598  1
  O  O6  1  0.67409834  0.22551047  0.04924944  1
  O  O7  1  0.82590191  0.72551053  0.45075005  1
  O  O8  1  0.15267617  0.58270020  0.64136072  1
  O  O9  1  0.14463975  0.88460361  0.60558341  1
  O  O10  1  0.32590168  0.77448966  0.95074994  1
  O  O11  1  0.17409811  0.27448960  0.54924934  1
  O  O12  1  0.35536004  0.38460354  0.89441588  1
  O  O13  1  0.34732363  0.08270134  0.85863963  1
  O  O14  1  0.15582843  0.68519884  0.39887019  1
  O  O15  1  0.84732385  0.41729872  0.35863973  1
  O  O16  1  0.08885961  0.90547975  0.19862517  1
  O  O17  1  0.07761398  0.61193763  0.12011758  1
  O  O18  1  0.65582765  0.81480136  0.89886966  1
  O  O19  1  0.57791058  0.25731275  0.70741832  1
  O  O20  1  0.42238681  0.11193756  0.37988233  1
  O  O21  1  0.58885883  0.59452045  0.69862570  1
  O  O22  1  0.64463998  0.61539659  0.10558351  1
  O  O23  1  0.57761320  0.88806257  0.62011705  1
  O  O24  1  0.42208944  0.74268738  0.29258213  1
  O  O25  1  0.34417237  0.18519877  0.10112973  1
  O  O26  1  0.92238604  0.38806251  0.87988286  1
  O  O27  1  0.91114041  0.09452038  0.80137422  1
  O  O28  1  0.92208866  0.75731281  0.79258160  1
  O  O29  1  0.84417159  0.31480129  0.60113026  1
  O  O30  1  0.65267639  0.91729879  0.14136082  1
  O  O31  1  0.41114119  0.40547968  0.30137475  1
  P  P32  1  0.93163444  0.27609967  0.47219983  1
  P  P33  1  0.56836424  0.77609974  0.02779922  1
  P  P34  1  0.82087535  0.26412564  0.75929326  1
  P  P35  1  0.67912547  0.76412571  0.74070710  1
  P  P36  1  0.06836558  0.72390046  0.52780062  1
  P  P37  1  0.43163578  0.22390040  0.97220017  1
  P  P38  1  0.32087455  0.23587443  0.25929334  1
  P  P39  1  0.17912467  0.73587449  0.24070613  1
  Mn  Mn40  1  0.12243713  0.93335687  0.82298872  1
  Mn  Mn41  1  0.37756266  0.43335681  0.67701162  1
  Mn  Mn42  1  0.62243736  0.56664333  0.32298882  1
  Mn  Mn43  1  0.87756289  0.06664326  0.17701172  1
