# generated using pymatgen
data_Ca5(CuO2)6
_symmetry_space_group_name_H-M   'P 1'
_cell_length_a   6.46574543
_cell_length_b   10.94434757
_cell_length_c   17.03439805
_cell_angle_alpha   104.97144432
_cell_angle_beta   90.00000000
_cell_angle_gamma   90.00000000
_symmetry_Int_Tables_number   1
_chemical_formula_structural   Ca5(CuO2)6
_chemical_formula_sum   'Ca20 Cu24 O48'
_cell_volume   1164.49328149
_cell_formula_units_Z   4
loop_
 _symmetry_equiv_pos_site_id
 _symmetry_equiv_pos_as_xyz
  1  'x, y, z'
loop_
 _atom_site_type_symbol
 _atom_site_label
 _atom_site_symmetry_multiplicity
 _atom_site_fract_x
 _atom_site_fract_y
 _atom_site_fract_z
 _atom_site_occupancy
  O  O0  1  0.04164771  0.61975492  0.60669371  1
  O  O1  1  0.04164771  0.38024508  0.89330629  1
  O  O2  1  0.95835229  0.38024508  0.39330629  1
  O  O3  1  0.95835229  0.61975492  0.10669371  1
  O  O4  1  0.94491997  0.62559634  0.93539013  1
  O  O5  1  0.94491997  0.37440366  0.56460987  1
  O  O6  1  0.05508003  0.37440366  0.06460987  1
  O  O7  1  0.05508003  0.62559634  0.43539013  1
  O  O8  1  0.97749424  0.61910155  0.76860834  1
  O  O9  1  0.97749424  0.38089845  0.73139166  1
  O  O10  1  0.02250576  0.38089845  0.23139166  1
  O  O11  1  0.02250576  0.61910155  0.26860834  1
  O  O12  1  0.03916794  0.88015978  0.89319059  1
  O  O13  1  0.03916794  0.11984022  0.60680941  1
  O  O14  1  0.96083206  0.11984022  0.10680941  1
  O  O15  1  0.96083206  0.88015978  0.39319059  1
  O  O16  1  0.94463248  0.87294223  0.56438230  1
  O  O17  1  0.94463248  0.12705777  0.93561770  1
  O  O18  1  0.05536752  0.12705777  0.43561770  1
  O  O19  1  0.05536752  0.87294223  0.06438230  1
  O  O20  1  0.97369428  0.88140389  0.73173344  1
  O  O21  1  0.97369428  0.11859611  0.76826656  1
  O  O22  1  0.02630572  0.11859611  0.26826656  1
  O  O23  1  0.02630572  0.88140389  0.23173344  1
  O  O24  1  0.55669849  0.87555440  0.97718731  1
  O  O25  1  0.55669849  0.12444560  0.52281269  1
  O  O26  1  0.44330151  0.12444560  0.02281269  1
  O  O27  1  0.44330151  0.87555440  0.47718731  1
  O  O28  1  0.45374315  0.87580879  0.65051705  1
  O  O29  1  0.45374315  0.12419121  0.84948295  1
  O  O30  1  0.54625685  0.12419121  0.34948295  1
  O  O31  1  0.54625685  0.87580879  0.15051705  1
  O  O32  1  0.50470922  0.88361490  0.81268841  1
  O  O33  1  0.50470922  0.11638510  0.68731159  1
  O  O34  1  0.49529078  0.11638510  0.18731159  1
  O  O35  1  0.49529078  0.88361490  0.31268841  1
  O  O36  1  0.55795629  0.62428037  0.52235728  1
  O  O37  1  0.55795629  0.37571963  0.97764272  1
  O  O38  1  0.44204371  0.37571963  0.47764272  1
  O  O39  1  0.44204371  0.62428037  0.02235728  1
  O  O40  1  0.45618306  0.62352522  0.84957119  1
  O  O41  1  0.45618306  0.37647478  0.65042881  1
  O  O42  1  0.54381694  0.37647478  0.15042881  1
  O  O43  1  0.54381694  0.62352522  0.34957119  1
  O  O44  1  0.50902715  0.61679291  0.68756065  1
  O  O45  1  0.50902715  0.38320709  0.81243935  1
  O  O46  1  0.49097285  0.38320709  0.31243935  1
  O  O47  1  0.49097285  0.61679291  0.18756065  1
  Ca  Ca48  1  0.24977338  0.74751846  0.54712607  1
  Ca  Ca49  1  0.24977338  0.25248154  0.95287393  1
  Ca  Ca50  1  0.75022662  0.25248154  0.45287393  1
  Ca  Ca51  1  0.75022662  0.74751846  0.04712607  1
  Ca  Ca52  1  0.24870741  0.75223986  0.95107243  1
  Ca  Ca53  1  0.24870741  0.24776014  0.54892757  1
  Ca  Ca54  1  0.75129259  0.24776014  0.04892757  1
  Ca  Ca55  1  0.75129259  0.75223986  0.45107243  1
  Ca  Ca56  1  0.25392713  0.74544178  0.14423851  1
  Ca  Ca57  1  0.25392713  0.25455822  0.35576149  1
  Ca  Ca58  1  0.74607287  0.25455822  0.85576149  1
  Ca  Ca59  1  0.74607287  0.74544178  0.64423851  1
  Ca  Ca60  1  0.25466334  0.75470964  0.35370059  1
  Ca  Ca61  1  0.25466334  0.24529036  0.14629941  1
  Ca  Ca62  1  0.74533666  0.24529036  0.64629941  1
  Ca  Ca63  1  0.74533666  0.75470964  0.85370059  1
  Ca  Ca64  1  0.24385521  0.75004515  0.74856093  1
  Ca  Ca65  1  0.24385521  0.24995485  0.75143907  1
  Ca  Ca66  1  0.75614479  0.24995485  0.25143907  1
  Ca  Ca67  1  0.75614479  0.75004515  0.24856093  1
  Cu  Cu68  1  0.00000000  0.00000000  0.00000000  1
  Cu  Cu69  1  0.00000000  0.00000000  0.50000000  1
  Cu  Cu70  1  0.98547793  0.00263406  0.83470887  1
  Cu  Cu71  1  0.98547793  0.99736594  0.66529113  1
  Cu  Cu72  1  0.01452207  0.99736594  0.16529113  1
  Cu  Cu73  1  0.01452207  0.00263406  0.33470887  1
  Cu  Cu74  1  0.48843077  0.00300917  0.91810763  1
  Cu  Cu75  1  0.48843077  0.99699083  0.58189237  1
  Cu  Cu76  1  0.51156923  0.99699083  0.08189237  1
  Cu  Cu77  1  0.51156923  0.00300917  0.41810763  1
  Cu  Cu78  1  0.48537640  0.00000000  0.75000000  1
  Cu  Cu79  1  0.51462360  0.00000000  0.25000000  1
  Cu  Cu80  1  0.00000000  0.50000000  0.00000000  1
  Cu  Cu81  1  0.00000000  0.50000000  0.50000000  1
  Cu  Cu82  1  0.98745200  0.50225896  0.83429122  1
  Cu  Cu83  1  0.98745200  0.49774104  0.66570878  1
  Cu  Cu84  1  0.01254800  0.49774104  0.16570878  1
  Cu  Cu85  1  0.01254800  0.50225896  0.33429122  1
  Cu  Cu86  1  0.48995605  0.50259861  0.91798321  1
  Cu  Cu87  1  0.48995605  0.49740139  0.58201679  1
  Cu  Cu88  1  0.51004395  0.49740139  0.08201679  1
  Cu  Cu89  1  0.51004395  0.50259861  0.41798321  1
  Cu  Cu90  1  0.48769872  0.50000000  0.75000000  1
  Cu  Cu91  1  0.51230128  0.50000000  0.25000000  1
