# generated using pymatgen
data_Ti5FeSb2
_symmetry_space_group_name_H-M   'P 1'
_cell_length_a   5.14359379
_cell_length_b   7.82579840
_cell_length_c   7.82579841
_cell_angle_alpha   83.80007370
_cell_angle_beta   70.81431994
_cell_angle_gamma   70.81431994
_symmetry_Int_Tables_number   1
_chemical_formula_structural   Ti5FeSb2
_chemical_formula_sum   'Ti10 Fe2 Sb4'
_cell_volume   280.98928976
_cell_formula_units_Z   2
loop_
 _symmetry_equiv_pos_site_id
 _symmetry_equiv_pos_as_xyz
  1  'x, y, z'
loop_
 _atom_site_type_symbol
 _atom_site_label
 _atom_site_symmetry_multiplicity
 _atom_site_fract_x
 _atom_site_fract_y
 _atom_site_fract_z
 _atom_site_occupancy
  Ti  Ti0  1  0.56896712  0.73239287  0.12967289  1
  Ti  Ti1  1  0.43103288  0.26760713  0.87032711  1
  Ti  Ti2  1  0.25000000  0.50000000  0.50000000  1
  Ti  Ti3  1  0.75000000  0.50000000  0.50000000  1
  Ti  Ti4  1  0.69864001  0.87032711  0.73239287  1
  Ti  Ti5  1  0.30135999  0.12967289  0.26760713  1
  Ti  Ti6  1  0.93103288  0.87032711  0.26760713  1
  Ti  Ti7  1  0.19864001  0.73239287  0.87032711  1
  Ti  Ti8  1  0.06896712  0.12967289  0.73239287  1
  Ti  Ti9  1  0.80135999  0.26760713  0.12967289  1
  Fe  Fe10  1  0.25000000  0.00000000  0.00000000  1
  Fe  Fe11  1  0.75000000  0.00000000  0.00000000  1
  Sb  Sb12  1  0.33583702  0.82832596  0.50000000  1
  Sb  Sb13  1  0.16416298  0.50000000  0.17167404  1
  Sb  Sb14  1  0.66416298  0.17167404  0.50000000  1
  Sb  Sb15  1  0.83583702  0.50000000  0.82832596  1
