# generated using pymatgen
data_Li3Mo3(PO4)4
_symmetry_space_group_name_H-M   'P 1'
_cell_length_a   7.80363918
_cell_length_b   8.44358132
_cell_length_c   10.32481073
_cell_angle_alpha   90.00000000
_cell_angle_beta   91.84691553
_cell_angle_gamma   90.00000000
_symmetry_Int_Tables_number   1
_chemical_formula_structural   Li3Mo3(PO4)4
_chemical_formula_sum   'Li6 Mo6 P8 O32'
_cell_volume   679.95519765
_cell_formula_units_Z   2
loop_
 _symmetry_equiv_pos_site_id
 _symmetry_equiv_pos_as_xyz
  1  'x, y, z'
loop_
 _atom_site_type_symbol
 _atom_site_label
 _atom_site_symmetry_multiplicity
 _atom_site_fract_x
 _atom_site_fract_y
 _atom_site_fract_z
 _atom_site_occupancy
  Li  Li0  1  0.08378865  0.36898514  0.29169047  1
  Li  Li1  1  0.41621028  0.86898552  0.95830987  1
  Li  Li2  1  0.61069435  0.14191333  0.54956323  1
  Li  Li3  1  0.60635941  0.12833869  0.04617475  1
  Li  Li4  1  0.88930554  0.64191371  0.70043662  1
  Li  Li5  1  0.89364094  0.62833907  0.20382539  1
  O  O6  1  0.24488921  0.87248254  0.76887509  1
  O  O7  1  0.94345563  0.84718449  0.58439762  1
  O  O8  1  0.86411319  0.80644906  0.34654632  1
  O  O9  1  0.84581209  0.42146856  0.27008100  1
  O  O10  1  0.88650947  0.79560354  0.84836515  1
  O  O11  1  0.85345546  0.42064384  0.75023282  1
  O  O12  1  0.06996907  0.15144791  0.91195279  1
  O  O13  1  0.05919188  0.14838551  0.41410665  1
  O  O14  1  0.11161678  0.20182561  0.65175683  1
  O  O15  1  0.14901482  0.58977539  0.72643639  1
  O  O16  1  0.11812591  0.19788538  0.15338746  1
  O  O17  1  0.14273849  0.57203450  0.22475187  1
  O  O18  1  0.94546977  0.85329719  0.08562282  1
  O  O19  1  0.26905001  0.36018933  0.97732572  1
  O  O20  1  0.23095021  0.86018972  0.27267368  1
  O  O21  1  0.25511101  0.37248215  0.48112432  1
  O  O22  1  0.35098540  0.08977501  0.52356301  1
  O  O23  1  0.38838344  0.70182480  0.59824258  1
  O  O24  1  0.35726090  0.07203412  0.02524778  1
  O  O25  1  0.38187477  0.69788577  0.09661320  1
  O  O26  1  0.74796273  0.63385924  0.02442885  1
  O  O27  1  0.43003115  0.65144710  0.33804661  1
  O  O28  1  0.55654425  0.34718530  0.66560223  1
  O  O29  1  0.55453058  0.35329681  0.16437635  1
  O  O30  1  0.63588669  0.30644867  0.90345354  1
  O  O31  1  0.65418779  0.92146775  0.97991983  1
  O  O32  1  0.61349042  0.29560316  0.40163470  1
  O  O33  1  0.64654442  0.92064423  0.49976703  1
  O  O34  1  0.73758844  0.63224920  0.52284039  1
  O  O35  1  0.76241144  0.13224882  0.72715947  1
  O  O36  1  0.75203632  0.13385885  0.22557126  1
  O  O37  1  0.44080834  0.64838590  0.83589275  1
  P  P38  1  0.79804816  0.80065564  0.48579856  1
  P  P39  1  0.80199274  0.80550664  0.98433104  1
  P  P40  1  0.69800715  0.30550626  0.26566882  1
  P  P41  1  0.70195173  0.30065526  0.76420129  1
  P  P42  1  0.28917406  0.68588132  0.22457026  1
  P  P43  1  0.30429422  0.70392642  0.73646993  1
  P  P44  1  0.19570471  0.20392604  0.51353041  1
  P  P45  1  0.21082533  0.18588094  0.02543037  1
  Mo  Mo46  1  0.10684785  0.36733998  0.80662169  1
  Mo  Mo47  1  0.39315238  0.86734036  0.44337772  1
  Mo  Mo48  1  0.50403061  0.49070398  0.49924984  1
  Mo  Mo49  1  0.51465598  0.50196835  0.00211140  1
  Mo  Mo50  1  0.99596927  0.99070436  0.75075002  1
  Mo  Mo51  1  0.98534307  0.00196797  0.24788870  1
