# generated using pymatgen
data_Na3UF7
_symmetry_space_group_name_H-M   'P 1'
_cell_length_a   5.62744122
_cell_length_b   5.62744122
_cell_length_c   6.61814232
_cell_angle_alpha   114.35770374
_cell_angle_beta   114.35770374
_cell_angle_gamma   88.75700406
_symmetry_Int_Tables_number   1
_chemical_formula_structural   Na3UF7
_chemical_formula_sum   'Na3 U1 F7'
_cell_volume   171.13000531
_cell_formula_units_Z   1
loop_
 _symmetry_equiv_pos_site_id
 _symmetry_equiv_pos_as_xyz
  1  'x, y, z'
loop_
 _atom_site_type_symbol
 _atom_site_label
 _atom_site_symmetry_multiplicity
 _atom_site_fract_x
 _atom_site_fract_y
 _atom_site_fract_z
 _atom_site_occupancy
  F  F0  1  0.16356611  0.16356611  0.84660713  1
  F  F1  1  0.10444931  0.63163499  0.74985694  1
  F  F2  1  0.34790312  0.93581291  0.24428493  1
  F  F3  1  0.63163499  0.10444931  0.74985694  1
  F  F4  1  0.61051268  0.61051268  0.70819839  1
  F  F5  1  0.93581291  0.34790312  0.24428493  1
  F  F6  1  0.85336970  0.85336970  0.23000669  1
  Na  Na7  1  0.24023759  0.77610867  0.51649858  1
  Na  Na8  1  0.49823226  0.49823226  0.96321298  1
  Na  Na9  1  0.77610867  0.24023759  0.51649858  1
  U  U10  1  0.96317265  0.96317265  0.98069392  1
