# generated using pymatgen
data_Li3Mo(PO4)2
_symmetry_space_group_name_H-M   'P 1'
_cell_length_a   8.44615551
_cell_length_b   5.57914457
_cell_length_c   6.26583913
_cell_angle_alpha   90.00000000
_cell_angle_beta   89.83238368
_cell_angle_gamma   90.00000000
_symmetry_Int_Tables_number   1
_chemical_formula_structural   Li3Mo(PO4)2
_chemical_formula_sum   'Li6 Mo2 P4 O16'
_cell_volume   295.25962970
_cell_formula_units_Z   2
loop_
 _symmetry_equiv_pos_site_id
 _symmetry_equiv_pos_as_xyz
  1  'x, y, z'
loop_
 _atom_site_type_symbol
 _atom_site_label
 _atom_site_symmetry_multiplicity
 _atom_site_fract_x
 _atom_site_fract_y
 _atom_site_fract_z
 _atom_site_occupancy
  Li  Li0  1  0.08301085  0.74999985  0.28151276  1
  Li  Li1  1  0.25036142  0.24999935  0.49955964  1
  Li  Li2  1  0.41687210  0.74999985  0.71974137  1
  Li  Li3  1  0.58312812  0.24999935  0.28025938  1
  Li  Li4  1  0.74963880  0.74999985  0.50044111  1
  Li  Li5  1  0.91698937  0.24999935  0.71848799  1
  O  O6  1  0.21615187  0.52688128  0.75945617  1
  O  O7  1  0.99277964  0.74999985  0.57051789  1
  O  O8  1  0.00456078  0.74999985  0.97522008  1
  O  O9  1  0.00721939  0.24999935  0.42948127  1
  O  O10  1  0.99543825  0.24999935  0.02478067  1
  O  O11  1  0.21615187  0.97311843  0.75945617  1
  O  O12  1  0.28388890  0.52681776  0.24088518  1
  O  O13  1  0.28388890  0.97318195  0.24088518  1
  O  O14  1  0.78384835  0.47311793  0.24054458  1
  O  O15  1  0.49570338  0.74999985  0.02573821  1
  O  O16  1  0.50429565  0.24999935  0.97426094  1
  O  O17  1  0.50687227  0.74999985  0.43056322  1
  O  O18  1  0.71611131  0.02681725  0.75911557  1
  O  O19  1  0.71611131  0.47318145  0.75911557  1
  O  O20  1  0.78384835  0.02688077  0.24054458  1
  O  O21  1  0.49312794  0.24999935  0.56943593  1
  P  P22  1  0.89901990  0.24999935  0.23665809  1
  P  P23  1  0.60099357  0.24999935  0.76260597  1
  P  P24  1  0.10098031  0.74999985  0.76334106  1
  P  P25  1  0.39900665  0.74999985  0.23739478  1
  Mo  Mo26  1  0.24992066  0.24999935  0.00003853  1
  Mo  Mo27  1  0.75007956  0.74999985  0.99996222  1
