# generated using pymatgen
data_YSF
_symmetry_space_group_name_H-M   'P 1'
_cell_length_a   4.07808876
_cell_length_b   4.07808876
_cell_length_c   16.81841486
_cell_angle_alpha   90.00000000
_cell_angle_beta   90.00000000
_cell_angle_gamma   120.00000004
_symmetry_Int_Tables_number   1
_chemical_formula_structural   YSF
_chemical_formula_sum   'Y4 S4 F4'
_cell_volume   242.23061963
_cell_formula_units_Z   4
loop_
 _symmetry_equiv_pos_site_id
 _symmetry_equiv_pos_as_xyz
  1  'x, y, z'
loop_
 _atom_site_type_symbol
 _atom_site_label
 _atom_site_symmetry_multiplicity
 _atom_site_fract_x
 _atom_site_fract_y
 _atom_site_fract_z
 _atom_site_occupancy
  F  F0  1  0.33333333  0.66666667  0.75000000  1
  F  F1  1  0.00000000  0.00000000  0.75000000  1
  F  F2  1  0.00000000  0.00000000  0.25000000  1
  F  F3  1  0.66666667  0.33333333  0.25000000  1
  S  S4  1  0.66666667  0.33333333  0.58550261  1
  S  S5  1  0.66666667  0.33333333  0.91449739  1
  S  S6  1  0.33333333  0.66666667  0.41449739  1
  S  S7  1  0.33333333  0.66666667  0.08550261  1
  Y  Y8  1  0.66666667  0.33333333  0.75000000  1
  Y  Y9  1  0.33333333  0.66666667  0.25000000  1
  Y  Y10  1  0.00000000  0.00000000  0.50000000  1
  Y  Y11  1  0.00000000  0.00000000  0.00000000  1
