# generated using pymatgen
data_LiV(PO4)2
_symmetry_space_group_name_H-M   'P 1'
_cell_length_a   7.62119040
_cell_length_b   14.15065917
_cell_length_c   6.24143864
_cell_angle_alpha   90.00328349
_cell_angle_beta   100.83488544
_cell_angle_gamma   89.99771306
_symmetry_Int_Tables_number   1
_chemical_formula_structural   LiV(PO4)2
_chemical_formula_sum   'Li4 V4 P8 O32'
_cell_volume   661.10762828
_cell_formula_units_Z   4
loop_
 _symmetry_equiv_pos_site_id
 _symmetry_equiv_pos_as_xyz
  1  'x, y, z'
loop_
 _atom_site_type_symbol
 _atom_site_label
 _atom_site_symmetry_multiplicity
 _atom_site_fract_x
 _atom_site_fract_y
 _atom_site_fract_z
 _atom_site_occupancy
  Li  Li0  1  0.12069434  0.75216330  0.70344934  1
  Li  Li1  1  0.12073160  0.74784244  0.20344794  1
  Li  Li2  1  0.87926827  0.25215735  0.79655212  1
  Li  Li3  1  0.87930552  0.24783650  0.29655072  1
  O  O4  1  0.35014959  0.54225630  0.36656399  1
  O  O5  1  0.01520517  0.49731960  0.23389460  1
  O  O6  1  0.09488231  0.18442185  0.73349058  1
  O  O7  1  0.09491283  0.31558286  0.23346997  1
  O  O8  1  0.20354775  0.40873910  0.59721449  1
  O  O9  1  0.24224510  0.79664488  0.98070457  1
  O  O10  1  0.26177558  0.43594786  1.00028648  1
  O  O11  1  0.29039676  0.57247822  0.75401091  1
  O  O12  1  0.20353884  0.09127246  0.09721728  1
  O  O13  1  0.24223955  0.70337310  0.48073137  1
  O  O14  1  0.26176035  0.06405431  0.50028257  1
  O  O15  1  0.29042823  0.92753943  0.25400554  1
  O  O16  1  0.35015960  0.95775358  0.86654516  1
  O  O17  1  0.01519531  0.00268087  0.73389825  1
  O  O18  1  0.44584475  0.14777038  0.86138693  1
  O  O19  1  0.44585520  0.35222637  0.36134139  1
  O  O20  1  0.55414466  0.64777342  0.63865867  1
  O  O21  1  0.55415511  0.85222941  0.13861313  1
  O  O22  1  0.64985161  0.45774420  0.63343637  1
  O  O23  1  0.64984027  0.04224622  0.13345491  1
  O  O24  1  0.98480456  0.99731963  0.26610182  1
  O  O25  1  0.73823951  0.93594549  0.49971749  1
  O  O26  1  0.75776031  0.29662670  0.51926869  1
  O  O27  1  0.79646103  0.90872734  0.90278278  1
  O  O28  1  0.70960310  0.42752229  0.24598915  1
  O  O29  1  0.73822428  0.56405264  -0.00028641  1
  O  O30  1  0.75775477  0.20335492  0.01929549  1
  O  O31  1  0.79645212  0.59126140  0.40278558  1
  O  O32  1  0.90508703  0.68441693  0.76653009  1
  O  O33  1  0.90511755  0.81557865  0.26650949  1
  O  O34  1  0.98479470  0.50268019  0.76610547  1
  O  O35  1  0.70957164  0.07246107  0.74599452  1
  P  P36  1  0.18118387  0.47804273  0.77843552  1
  P  P37  1  0.18118368  0.02196196  0.27842864  1
  P  P38  1  0.35918195  0.61710672  0.54083469  1
  P  P39  1  0.35919782  0.88289930  0.04081547  1
  P  P40  1  0.64080204  0.11710050  0.95918460  1
  P  P41  1  0.64081792  0.38289308  0.45916538  1
  P  P42  1  0.81881599  0.52195707  0.22156455  1
  P  P43  1  0.81881619  0.97803784  0.72157142  1
  V  V44  1  0.21966137  0.08955269  0.78938666  1
  V  V45  1  0.21967271  0.41045588  0.28933307  1
  V  V46  1  0.78032715  0.58954462  0.71066700  1
  V  V47  1  0.78033983  0.91044710  0.21061369  1
