# generated using pymatgen
data_LiMn2(PO3)5
_symmetry_space_group_name_H-M   'P 1'
_cell_length_a   13.02477015
_cell_length_b   8.81686230
_cell_length_c   5.33638459
_cell_angle_alpha   90.00000000
_cell_angle_beta   93.20242655
_cell_angle_gamma   90.00000000
_symmetry_Int_Tables_number   1
_chemical_formula_structural   LiMn2(PO3)5
_chemical_formula_sum   'Li2 Mn4 P10 O30'
_cell_volume   611.86064835
_cell_formula_units_Z   2
loop_
 _symmetry_equiv_pos_site_id
 _symmetry_equiv_pos_as_xyz
  1  'x, y, z'
loop_
 _atom_site_type_symbol
 _atom_site_label
 _atom_site_symmetry_multiplicity
 _atom_site_fract_x
 _atom_site_fract_y
 _atom_site_fract_z
 _atom_site_occupancy
  Li  Li0  1  0.44881820  0.00485369  0.57096650  1
  Li  Li1  1  0.94881839  0.99514625  0.07096800  1
  O  O2  1  0.33235868  0.88803092  0.41613668  1
  O  O3  1  0.96408874  0.84715111  0.34116433  1
  O  O4  1  0.94020191  0.50712018  0.19608820  1
  O  O5  1  0.86247530  0.65064735  0.56775264  1
  O  O6  1  0.02784011  0.16982923  0.18191601  1
  O  O7  1  0.03854858  0.15875378  0.66694659  1
  O  O8  1  0.06539723  0.49697815  0.80197588  1
  O  O9  1  0.13925759  0.35152976  0.42532796  1
  O  O10  1  0.14687933  0.63198296  0.43218959  1
  O  O11  1  0.17341699  0.87462106  0.09078365  1
  O  O12  1  0.19211814  0.08075412  0.43000019  1
  O  O13  1  0.25259873  0.47143153  0.74450343  1
  O  O14  1  0.30624363  0.07896879  0.06023789  1
  O  O15  1  0.96547346  0.83284360  0.82821824  1
  O  O16  1  0.35723197  0.62926149  0.06498942  1
  O  O17  1  0.36247475  0.34935259  0.06775278  1
  O  O18  1  0.44020172  0.49287975  0.69608857  1
  O  O19  1  0.46408933  0.15284883  0.84116291  1
  O  O20  1  0.46547290  0.16715634  0.32821838  1
  O  O21  1  0.52784066  0.83017071  0.68191586  1
  O  O22  1  0.53854877  0.84124616  0.16694809  1
  O  O23  1  0.85723175  0.37073844  0.56498919  1
  O  O24  1  0.63925815  0.64847017  0.92532782  1
  O  O25  1  0.64687911  0.36801698  0.93218936  1
  O  O26  1  0.67341677  0.12537888  0.59078343  1
  O  O27  1  0.69211869  0.91924582  0.93000005  1
  O  O28  1  0.75259891  0.52856840  0.24450305  1
  O  O29  1  0.80624341  0.92103114  0.56023766  1
  O  O30  1  0.83235847  0.11197015  0.91613833  1
  O  O31  1  0.56539664  0.50302179  0.30197542  1
  P  P32  1  0.90856849  0.81931028  0.57619669  1
  P  P33  1  0.85977909  0.50347604  0.39177166  1
  P  P34  1  0.74978357  0.03690965  0.74931233  1
  P  P35  1  0.64446636  0.50198085  0.10227589  1
  P  P36  1  0.09006656  0.18351480  0.42761494  1
  P  P37  1  0.14446695  0.49801909  0.60227635  1
  P  P38  1  0.24978379  0.96309029  0.24931256  1
  P  P39  1  0.59006634  0.81648514  0.92761472  1
  P  P40  1  0.40856871  0.18068965  0.07619692  1
  P  P41  1  0.35977891  0.49652389  0.89177204  1
  Mn  Mn42  1  0.05821979  0.69657831  0.10270748  1
  Mn  Mn43  1  0.45056774  0.69135104  0.38991988  1
  Mn  Mn44  1  0.55821957  0.30342163  0.60270725  1
  Mn  Mn45  1  0.95056752  0.30864889  0.88991965  1
