# generated using pymatgen
data_Li3V(PO4)2
_symmetry_space_group_name_H-M   'P 1'
_cell_length_a   8.21151791
_cell_length_b   5.47593141
_cell_length_c   6.28559256
_cell_angle_alpha   90.00000000
_cell_angle_beta   90.34381288
_cell_angle_gamma   90.00000000
_symmetry_Int_Tables_number   1
_chemical_formula_structural   Li3V(PO4)2
_chemical_formula_sum   'Li6 V2 P4 O16'
_cell_volume   282.63103664
_cell_formula_units_Z   2
loop_
 _symmetry_equiv_pos_site_id
 _symmetry_equiv_pos_as_xyz
  1  'x, y, z'
loop_
 _atom_site_type_symbol
 _atom_site_label
 _atom_site_symmetry_multiplicity
 _atom_site_fract_x
 _atom_site_fract_y
 _atom_site_fract_z
 _atom_site_occupancy
  Li  Li0  1  0.07587613  0.74999957  0.27384340  1
  Li  Li1  1  0.25025531  0.25000047  0.49953904  1
  Li  Li2  1  0.42396605  0.74999957  0.72686587  1
  Li  Li3  1  0.57603339  0.25000047  0.27313402  1
  Li  Li4  1  0.74974413  0.74999957  0.50046085  1
  Li  Li5  1  0.92412331  0.25000047  0.72615808  1
  O  O6  1  0.28352144  0.52115213  0.23111741  1
  O  O7  1  0.00463621  0.25000047  0.43597699  1
  O  O8  1  0.21647153  0.52120293  0.76896908  1
  O  O9  1  0.21647153  0.97879803  0.76896908  1
  O  O10  1  0.00801490  0.25000047  0.03334907  1
  O  O11  1  0.28352144  0.97884883  0.23111741  1
  O  O12  1  0.49185876  0.25000047  0.96613953  1
  O  O13  1  0.49568973  0.25000047  0.56343065  1
  O  O14  1  0.99198576  0.74999957  0.96665083  1
  O  O15  1  0.50814068  0.74999957  0.03386036  1
  O  O16  1  0.71647800  0.02115120  0.76888407  1
  O  O17  1  0.71647800  0.47884790  0.76888407  1
  O  O18  1  0.78352791  0.02120200  0.23103081  1
  O  O19  1  0.78352791  0.47879710  0.23103081  1
  O  O20  1  0.99536445  0.74999957  0.56402291  1
  O  O21  1  0.50430971  0.74999957  0.43657083  1
  P  P22  1  0.10033134  0.74999957  0.76269671  1
  P  P23  1  0.39960986  0.74999957  0.23766470  1
  P  P24  1  0.60038958  0.25000047  0.76233519  1
  P  P25  1  0.89966932  0.25000047  0.23730319  1
  V  V26  1  0.24996007  0.25000047  0.99992883  1
  V  V27  1  0.75004060  0.74999957  0.00007107  1
