# generated using pymatgen
data_GdPO4
_symmetry_space_group_name_H-M   'P 1'
_cell_length_a   6.38797753
_cell_length_b   6.74849799
_cell_length_c   6.92068726
_cell_angle_alpha   90.00000000
_cell_angle_beta   90.00000000
_cell_angle_gamma   104.24936646
_symmetry_Int_Tables_number   1
_chemical_formula_structural   GdPO4
_chemical_formula_sum   'Gd4 P4 O16'
_cell_volume   289.16664893
_cell_formula_units_Z   4
loop_
 _symmetry_equiv_pos_site_id
 _symmetry_equiv_pos_as_xyz
  1  'x, y, z'
loop_
 _atom_site_type_symbol
 _atom_site_label
 _atom_site_symmetry_multiplicity
 _atom_site_fract_x
 _atom_site_fract_y
 _atom_site_fract_z
 _atom_site_occupancy
  O  O0  1  0.21056963  0.62073747  0.29158960  1
  O  O1  1  0.28943037  0.87926253  0.79158960  1
  O  O2  1  0.78943037  0.37926253  0.70841040  1
  O  O3  1  0.71056963  0.12073747  0.20841040  1
  O  O4  1  0.31366286  0.96992653  0.40108908  1
  O  O5  1  0.18633714  0.53007347  0.90108908  1
  O  O6  1  0.68633714  0.03007347  0.59891092  1
  O  O7  1  0.81366286  0.46992653  0.09891092  1
  O  O8  1  0.43383705  0.25154943  0.00243951  1
  O  O9  1  0.06616295  0.24845057  0.50243951  1
  O  O10  1  0.56616295  0.74845057  0.99756049  1
  O  O11  1  0.93383705  0.75154943  0.49756049  1
  O  O12  1  0.50353107  0.38350930  0.33543684  1
  O  O13  1  0.99646893  0.11649070  0.83543684  1
  O  O14  1  0.49646893  0.61649070  0.66456316  1
  O  O15  1  0.00353107  0.88350930  0.16456316  1
  P  P16  1  0.11148228  0.80198034  0.33983742  1
  P  P17  1  0.38851772  0.69801966  0.83983742  1
  P  P18  1  0.88851772  0.19801966  0.66016258  1
  P  P19  1  0.61148228  0.30198034  0.16016258  1
  Gd  Gd20  1  0.59415749  0.78414319  0.34641806  1
  Gd  Gd21  1  0.90584251  0.71585681  0.84641806  1
  Gd  Gd22  1  0.40584251  0.21585681  0.65358194  1
  Gd  Gd23  1  0.09415749  0.28414319  0.15358194  1
