# generated using pymatgen
data_FeCu2H21(O5F4)2
_symmetry_space_group_name_H-M   'P 1'
_cell_length_a   6.89101271
_cell_length_b   7.36342436
_cell_length_c   8.27303275
_cell_angle_alpha   107.10948657
_cell_angle_beta   106.18451490
_cell_angle_gamma   95.14163139
_symmetry_Int_Tables_number   1
_chemical_formula_structural   FeCu2H21(O5F4)2
_chemical_formula_sum   'Fe1 Cu2 H21 O10 F8'
_cell_volume   378.51233770
_cell_formula_units_Z   1
loop_
 _symmetry_equiv_pos_site_id
 _symmetry_equiv_pos_as_xyz
  1  'x, y, z'
loop_
 _atom_site_type_symbol
 _atom_site_label
 _atom_site_symmetry_multiplicity
 _atom_site_fract_x
 _atom_site_fract_y
 _atom_site_fract_z
 _atom_site_occupancy
  Cu  Cu0  1  0.38338042  0.44187895  0.76674777  1
  Cu  Cu1  1  0.61957906  0.55837791  0.23635205  1
  F  F2  1  0.21387223  0.97182881  0.88619811  1
  F  F3  1  0.03763773  0.75759283  0.04944199  1
  F  F4  1  0.21475486  0.13745788  0.22990613  1
  F  F5  1  0.45620217  0.58934098  0.41074958  1
  F  F6  1  0.55720282  0.41407441  0.59923506  1
  F  F7  1  0.78636374  0.86537929  0.77267477  1
  F  F8  1  0.96373073  0.24461437  0.95473984  1
  F  F9  1  0.78611166  0.02856871  0.11550799  1
  Fe  Fe10  1  0.00044243  0.00088632  0.00156163  1
  H  H11  1  0.14842437  0.38311958  0.95284355  1
  H  H12  1  0.19938550  0.60782679  0.99248505  1
  H  H13  1  0.02483522  0.75704694  0.46876984  1
  H  H14  1  0.11929623  0.27337891  0.41411642  1
  H  H15  1  0.22905194  0.92932257  0.34539937  1
  H  H16  1  0.34773675  0.80971490  0.83294368  1
  H  H17  1  0.33713151  0.12175988  0.82744719  1
  H  H18  1  0.33053028  0.78537940  0.43779320  1
  H  H19  1  0.35249118  0.07949471  0.63445882  1
  H  H20  1  0.56431587  0.77682464  0.78996791  1
  H  H21  1  0.43681534  0.22466761  0.21349543  1
  H  H22  1  0.50764227  0.50121231  0.50532400  1
  H  H23  1  0.65042863  0.92062868  0.36677555  1
  H  H24  1  0.67910913  0.21293018  0.56796853  1
  H  H25  1  0.66156793  0.87722401  0.17263032  1
  H  H26  1  0.65279338  0.19021404  0.16983020  1
  H  H27  1  0.77518313  0.06211466  0.65390148  1
  H  H28  1  0.88852965  0.72730169  0.58822122  1
  H  H29  1  0.98328533  0.24231494  0.53329578  1
  H  H30  1  0.80218290  0.39270863  0.01005204  1
  H  H31  1  0.85200580  0.61752566  0.04976198  1
  O  O32  1  0.10073201  0.32763750  0.53102607  1
  O  O33  1  0.26018102  0.48909058  0.96487328  1
  O  O34  1  0.25034156  0.89051242  0.45210649  1
  O  O35  1  0.42849957  0.71318918  0.78665007  1
  O  O36  1  0.41031395  0.17761184  0.75923563  1
  O  O37  1  0.59006506  0.82214979  0.24224193  1
  O  O38  1  0.57348886  0.28739628  0.21761166  1
  O  O39  1  0.75691356  0.10635222  0.55028543  1
  O  O40  1  0.74060386  0.51112157  0.03742175  1
  O  O41  1  0.90494035  0.67432745  0.47045117  1
