# generated using pymatgen
data_Al(MoS2)4
_symmetry_space_group_name_H-M   'P 1'
_cell_length_a   6.93850978
_cell_length_b   6.93850977
_cell_length_c   6.93850977
_cell_angle_alpha   59.99999995
_cell_angle_beta   59.99999998
_cell_angle_gamma   59.99999998
_symmetry_Int_Tables_number   1
_chemical_formula_structural   Al(MoS2)4
_chemical_formula_sum   'Al1 Mo4 S8'
_cell_volume   236.20202396
_cell_formula_units_Z   1
loop_
 _symmetry_equiv_pos_site_id
 _symmetry_equiv_pos_as_xyz
  1  'x, y, z'
loop_
 _atom_site_type_symbol
 _atom_site_label
 _atom_site_symmetry_multiplicity
 _atom_site_fract_x
 _atom_site_fract_y
 _atom_site_fract_z
 _atom_site_occupancy
  Al  Al0  1  0.00000000  0.00000000  0.00000000  1
  S  S1  1  0.13453326  0.59640021  0.13453326  1
  S  S2  1  0.59640021  0.13453326  0.13453326  1
  S  S3  1  0.13453326  0.13453326  0.59640021  1
  S  S4  1  0.63345949  0.63345949  0.63345949  1
  S  S5  1  0.63345949  0.63345949  0.09962154  1
  S  S6  1  0.09962154  0.63345949  0.63345949  1
  S  S7  1  0.63345949  0.09962154  0.63345949  1
  S  S8  1  0.13453326  0.13453326  0.13453326  1
  Mo  Mo9  1  0.39762222  0.80713334  0.39762222  1
  Mo  Mo10  1  0.80713334  0.39762222  0.39762222  1
  Mo  Mo11  1  0.39762222  0.39762222  0.80713334  1
  Mo  Mo12  1  0.39762222  0.39762222  0.39762222  1
