# generated using pymatgen
data_Mn3(CuO4)2
_symmetry_space_group_name_H-M   'P 1'
_cell_length_a   5.02954608
_cell_length_b   5.62791531
_cell_length_c   5.62791553
_cell_angle_alpha   61.52553943
_cell_angle_beta   81.53369537
_cell_angle_gamma   81.53369929
_symmetry_Int_Tables_number   1
_chemical_formula_structural   Mn3(CuO4)2
_chemical_formula_sum   'Mn3 Cu2 O8'
_cell_volume   137.96135657
_cell_formula_units_Z   1
loop_
 _symmetry_equiv_pos_site_id
 _symmetry_equiv_pos_as_xyz
  1  'x, y, z'
loop_
 _atom_site_type_symbol
 _atom_site_label
 _atom_site_symmetry_multiplicity
 _atom_site_fract_x
 _atom_site_fract_y
 _atom_site_fract_z
 _atom_site_occupancy
  O  O0  1  0.85988046  0.89939664  0.89939664  1
  O  O1  1  0.14012054  0.10060336  0.10060336  1
  O  O2  1  0.11220138  0.60701714  0.60701714  1
  O  O3  1  0.88779962  0.39298186  0.39298286  1
  O  O4  1  0.63858196  0.89121504  0.34892847  1
  O  O5  1  0.63858196  0.34892847  0.89121504  1
  O  O6  1  0.36141904  0.65107153  0.10878496  1
  O  O7  1  0.36141904  0.10878496  0.65107153  1
  Mn  Mn8  1  0.50000000  0.00000000  0.00000100  1
  Mn  Mn9  1  0.00000000  0.25620913  0.74379087  1
  Mn  Mn10  1  0.99999900  0.74379087  0.25620913  1
  Cu  Cu11  1  0.57473117  0.28928486  0.28928486  1
  Cu  Cu12  1  0.42526983  0.71071614  0.71071414  1
