# generated using pymatgen
data_Na2CaPO4F
_symmetry_space_group_name_H-M   'P 1'
_cell_length_a   14.19755021
_cell_length_b   14.29540886
_cell_length_c   14.19755061
_cell_angle_alpha   29.05932173
_cell_angle_beta   28.85437896
_cell_angle_gamma   29.05932216
_symmetry_Int_Tables_number   1
_chemical_formula_structural   Na2CaPO4F
_chemical_formula_sum   'Na10 Ca5 P5 O20 F5'
_cell_volume   598.67711821
_cell_formula_units_Z   5
loop_
 _symmetry_equiv_pos_site_id
 _symmetry_equiv_pos_as_xyz
  1  'x, y, z'
loop_
 _atom_site_type_symbol
 _atom_site_label
 _atom_site_symmetry_multiplicity
 _atom_site_fract_x
 _atom_site_fract_y
 _atom_site_fract_z
 _atom_site_occupancy
  Ca  Ca0  1  0.58188962  0.04208857  0.58188962  1
  Ca  Ca1  1  0.30853131  0.78657331  0.30853131  1
  Ca  Ca2  1  0.68556377  0.23738166  0.68556377  1
  Ca  Ca3  1  0.45011456  0.90889459  0.45011456  1
  Ca  Ca4  1  0.82553579  0.35786905  0.82553579  1
  F  F5  1  0.42752285  0.42697372  0.42752285  1
  F  F6  1  0.49686399  0.50781129  0.49686399  1
  F  F7  1  0.57208682  0.56712497  0.57208682  1
  F  F8  1  0.63655877  0.63854468  0.63655877  1
  F  F9  1  0.70291904  0.70199224  0.70291904  1
  Na  Na10  1  0.04718429  0.57608600  0.58139616  1
  Na  Na11  1  0.58139616  0.57608600  0.04718429  1
  Na  Na12  1  0.28982757  0.31478404  0.80137488  1
  Na  Na13  1  0.80137488  0.31478404  0.28982757  1
  Na  Na14  1  0.21239383  0.69405747  0.70596110  1
  Na  Na15  1  0.70596110  0.69405747  0.21239383  1
  Na  Na16  1  0.43301203  0.44766743  0.92885989  1
  Na  Na17  1  0.92885989  0.44766743  0.43301203  1
  Na  Na18  1  0.34500629  0.81885239  0.84271104  1
  Na  Na19  1  0.84271104  0.81885239  0.34500629  1
  O  O20  1  0.02772499  0.03154274  0.02772499  1
  O  O21  1  0.17300778  0.13685237  0.17300778  1
  O  O22  1  0.30507832  0.27279456  0.30507832  1
  O  O23  1  0.10994878  0.45250425  0.47082528  1
  O  O24  1  0.47020322  0.10020853  0.47020322  1
  O  O25  1  0.47082528  0.45250425  0.10994878  1
  O  O26  1  0.05285159  0.70667659  0.68821174  1
  O  O27  1  0.69261710  0.06238213  0.69261710  1
  O  O28  1  0.68821174  0.70667659  0.05285159  1
  O  O29  1  0.33353596  0.32412777  0.97421604  1
  O  O30  1  0.33528998  0.97231320  0.33528998  1
  O  O31  1  0.97421604  0.32412777  0.33353596  1
  O  O32  1  0.18149810  0.83191415  0.82127580  1
  O  O33  1  0.82127580  0.83191415  0.18149810  1
  O  O34  1  0.82737253  0.18980505  0.82737253  1
  O  O35  1  0.31723699  0.96490755  0.96211321  1
  O  O36  1  0.96211321  0.96490755  0.31723699  1
  O  O37  1  0.95938604  0.31876630  0.95938604  1
  O  O38  1  0.76423114  0.77117651  0.76423114  1
  O  O39  1  0.88084796  0.92374717  0.88084796  1
  P  P40  1  0.06513831  0.07176913  0.06513831  1
  P  P41  1  0.20424774  0.18963073  0.20424774  1
  P  P42  1  0.33864223  0.32051937  0.33864223  1
  P  P43  1  0.79950526  0.81327037  0.79950526  1
  P  P44  1  0.92768035  0.94481247  0.92768035  1
