# generated using pymatgen
data_Cs2KCo(CN)6
_symmetry_space_group_name_H-M   'P 1'
_cell_length_a   7.74269544
_cell_length_b   8.16450713
_cell_length_c   11.22145646
_cell_angle_alpha   90.00000000
_cell_angle_beta   90.21214062
_cell_angle_gamma   90.00000000
_symmetry_Int_Tables_number   1
_chemical_formula_structural   Cs2KCo(CN)6
_chemical_formula_sum   'Cs4 K2 Co2 C12 N12'
_cell_volume   709.36278544
_cell_formula_units_Z   2
loop_
 _symmetry_equiv_pos_site_id
 _symmetry_equiv_pos_as_xyz
  1  'x, y, z'
loop_
 _atom_site_type_symbol
 _atom_site_label
 _atom_site_symmetry_multiplicity
 _atom_site_fract_x
 _atom_site_fract_y
 _atom_site_fract_z
 _atom_site_occupancy
  Cs  Cs0  1  0.51908203  0.93475517  0.24972771  1
  Cs  Cs1  1  0.01908203  0.56524483  0.74972771  1
  Cs  Cs2  1  0.98091797  0.43475517  0.25027229  1
  Cs  Cs3  1  0.48091797  0.06524483  0.75027229  1
  K  K4  1  0.50000000  0.50000000  0.00000000  1
  K  K5  1  0.00000000  0.00000000  0.50000000  1
  Co  Co6  1  0.00000000  0.00000000  0.00000000  1
  Co  Co7  1  0.50000000  0.50000000  0.50000000  1
  C  C8  1  0.30024301  0.37650988  0.53015773  1
  C  C9  1  0.56732381  0.47919234  0.66001880  1
  C  C10  1  0.06732381  0.02080766  0.16001880  1
  C  C11  1  0.87927371  0.80718530  0.03785872  1
  C  C12  1  0.19975699  0.87650988  0.96984227  1
  C  C13  1  0.12072629  0.19281470  0.96214128  1
  C  C14  1  0.37927371  0.69281470  0.53785872  1
  C  C15  1  0.43267619  0.52080766  0.33998120  1
  C  C16  1  0.62072629  0.30718530  0.46214128  1
  C  C17  1  0.80024301  0.12349012  0.03015773  1
  C  C18  1  0.69975699  0.62349012  0.46984227  1
  C  C19  1  0.93267619  0.97919234  0.83998120  1
  N  N20  1  0.67476217  0.19962002  0.05057684  1
  N  N21  1  0.80346805  0.68702994  0.06246378  1
  N  N22  1  0.30346805  0.81297006  0.56246378  1
  N  N23  1  0.38948492  0.53648597  0.24003012  1
  N  N24  1  0.69653195  0.18702994  0.43753622  1
  N  N25  1  0.19653195  0.31297006  0.93753622  1
  N  N26  1  0.82523783  0.69962002  0.44942316  1
  N  N27  1  0.61051508  0.46351403  0.75996988  1
  N  N28  1  0.17476217  0.30037998  0.55057684  1
  N  N29  1  0.32523783  0.80037998  0.94942316  1
  N  N30  1  0.88948492  0.96351403  0.74003012  1
  N  N31  1  0.11051508  0.03648597  0.25996988  1
