# generated using pymatgen
data_Ca13Y6F43
_symmetry_space_group_name_H-M   'P 1'
_cell_length_a   10.38899330
_cell_length_b   10.38899359
_cell_length_c   10.38899323
_cell_angle_alpha   110.64248797
_cell_angle_beta   110.64248855
_cell_angle_gamma   110.64248486
_symmetry_Int_Tables_number   1
_chemical_formula_structural   Ca13Y6F43
_chemical_formula_sum   'Ca13 Y6 F43'
_cell_volume   823.62138688
_cell_formula_units_Z   1
loop_
 _symmetry_equiv_pos_site_id
 _symmetry_equiv_pos_as_xyz
  1  'x, y, z'
loop_
 _atom_site_type_symbol
 _atom_site_label
 _atom_site_symmetry_multiplicity
 _atom_site_fract_x
 _atom_site_fract_y
 _atom_site_fract_z
 _atom_site_occupancy
  Ca  Ca0  1  0.08293544  0.56768259  0.87375985  1
  Ca  Ca1  1  0.13688936  0.93002954  0.44446020  1
  Ca  Ca2  1  0.23811143  0.66355939  0.60742582  1
  Ca  Ca3  1  0.34165270  0.39935418  0.76460537  1
  Ca  Ca4  1  0.39935418  0.76460537  0.34165270  1
  Ca  Ca5  1  0.44446020  0.13688936  0.93002954  1
  Ca  Ca6  1  0.53628878  0.53628878  0.53628878  1
  Ca  Ca7  1  0.56768259  0.87375985  0.08293544  1
  Ca  Ca8  1  0.60742582  0.23811143  0.66355939  1
  Ca  Ca9  1  0.66355939  0.60742582  0.23811143  1
  Ca  Ca10  1  0.76460537  0.34165270  0.39935418  1
  Ca  Ca11  1  0.87375985  0.08293544  0.56768259  1
  Ca  Ca12  1  0.93002954  0.44446020  0.13688936  1
  F  F13  1  0.19263952  0.89040002  0.92323774  1
  F  F14  1  0.01602683  0.59627766  0.64284654  1
  F  F15  1  0.18719435  0.87633832  0.65932938  1
  F  F16  1  0.12665286  0.35006301  0.81440129  1
  F  F17  1  0.07796972  0.79937698  0.09461117  1
  F  F18  1  0.16566277  0.69892175  0.37737637  1
  F  F19  1  0.30664431  0.62504773  0.83122965  1
  F  F20  1  0.09461117  0.07796972  0.79937698  1
  F  F21  1  0.09261944  0.16083122  0.53157889  1
  F  F22  1  0.47801820  0.91232374  0.84882725  1
  F  F23  1  0.37217740  0.98709038  0.41110848  1
  F  F24  1  0.28369683  0.43807563  0.53969985  1
  F  F25  1  0.12767554  0.36336272  0.22341303  1
  F  F26  1  0.41110848  0.37217740  0.98709038  1
  F  F27  1  0.16083122  0.53157889  0.09261944  1
  F  F28  1  0.45069256  0.73381550  0.56366083  1
  F  F29  1  0.35006301  0.81440129  0.12665286  1
  F  F30  1  0.22341303  0.12767554  0.36336272  1
  F  F31  1  0.37737637  0.16566277  0.69892175  1
  F  F32  1  0.62021576  0.73988845  0.82042136  1
  F  F33  1  0.43807563  0.53969985  0.28369683  1
  F  F34  1  0.56366083  0.45069256  0.73381550  1
  F  F35  1  0.36336272  0.22341303  0.12767554  1
  F  F36  1  0.62504773  0.83122965  0.30664431  1
  F  F37  1  0.73988845  0.82042136  0.62021576  1
  F  F38  1  0.65932938  0.18719435  0.87633832  1
  F  F39  1  0.91750639  0.91750639  0.91750639  1
  F  F40  1  0.53969985  0.28369683  0.43807563  1
  F  F41  1  0.84882725  0.47801820  0.91232374  1
  F  F42  1  0.59627766  0.64284654  0.01602683  1
  F  F43  1  0.82042136  0.62021576  0.73988845  1
  F  F44  1  0.73381550  0.56366083  0.45069256  1
  F  F45  1  0.64284654  0.01602683  0.59627766  1
  F  F46  1  0.53157889  0.09261944  0.16083122  1
  F  F47  1  0.91232374  0.84882725  0.47801820  1
  F  F48  1  0.89040002  0.92323774  0.19263952  1
  F  F49  1  0.69892175  0.37737637  0.16566277  1
  F  F50  1  0.83122965  0.30664431  0.62504773  1
  F  F51  1  0.92323774  0.19263952  0.89040002  1
  F  F52  1  0.87633832  0.65932938  0.18719435  1
  F  F53  1  0.81440129  0.12665286  0.35006301  1
  F  F54  1  0.98709038  0.41110848  0.37217740  1
  F  F55  1  0.79937698  0.09461117  0.07796972  1
  Y  Y56  1  0.03668443  0.19766491  0.30926603  1
  Y  Y57  1  0.69876378  0.96799815  0.80922061  1
  Y  Y58  1  0.19766491  0.30926603  0.03668443  1
  Y  Y59  1  0.80922061  0.69876378  0.96799815  1
  Y  Y60  1  0.30926603  0.03668443  0.19766491  1
  Y  Y61  1  0.96799815  0.80922061  0.69876378  1
