# generated using pymatgen
data_KCa5Mg5Al(SiO3)12
_symmetry_space_group_name_H-M   'P 1'
_cell_length_a   15.95987568
_cell_length_b   6.66302072
_cell_length_c   6.66302026
_cell_angle_alpha   85.14556357
_cell_angle_beta   78.30423594
_cell_angle_gamma   78.30423652
_symmetry_Int_Tables_number   1
_chemical_formula_structural   KCa5Mg5Al(SiO3)12
_chemical_formula_sum   'K1 Ca5 Mg5 Al1 Si12 O36'
_cell_volume   678.73488173
_cell_formula_units_Z   1
loop_
 _symmetry_equiv_pos_site_id
 _symmetry_equiv_pos_as_xyz
  1  'x, y, z'
loop_
 _atom_site_type_symbol
 _atom_site_label
 _atom_site_symmetry_multiplicity
 _atom_site_fract_x
 _atom_site_fract_y
 _atom_site_fract_z
 _atom_site_occupancy
  Al  Al0  1  0.08333300  0.09434764  0.90565236  1
  Ca  Ca1  1  0.25097192  0.30529664  0.70088575  1
  Ca  Ca2  1  0.41549399  0.70093745  0.30313524  1
  Ca  Ca3  1  0.58333300  0.30037555  0.69962445  1
  Ca  Ca4  1  0.75117301  0.69686476  0.29906255  1
  Ca  Ca5  1  0.91569508  0.29911425  0.69470336  1
  K  K6  1  0.08333300  0.69439132  0.30560868  1
  Mg  Mg7  1  0.24921447  0.90381011  0.09440781  1
  Mg  Mg8  1  0.41725350  0.09086569  0.90770032  1
  Mg  Mg9  1  0.58333300  0.90629503  0.09370497  1
  Mg  Mg10  1  0.74941350  0.09229968  0.90913431  1
  Mg  Mg11  1  0.91745253  0.90559219  0.09618989  1
  O  O12  1  0.99936195  0.35666797  0.34636879  1
  O  O13  1  0.06546905  0.11556506  0.61706441  1
  O  O14  1  0.11801218  0.05312258  0.17835875  1
  O  O15  1  0.04865482  0.82164125  0.94687742  1
  O  O16  1  0.10119795  0.38293559  0.88443493  1
  O  O17  1  0.17395024  0.32245762  0.36895361  1
  O  O18  1  0.16730505  0.65363121  0.64333203  1
  O  O19  1  0.23614249  0.60262692  0.09115691  1
  O  O20  1  0.28726873  0.19494447  0.02617668  1
  O  O21  1  0.20451815  0.97876974  0.80030210  1
  O  O22  1  0.26773238  0.88582185  0.39152587  1
  O  O23  1  0.33675943  0.36883598  0.33107989  1
  O  O24  1  0.33133280  0.64296842  0.66816712  1
  O  O25  1  0.39145814  0.11237712  0.61242248  1
  O  O26  1  0.45297442  0.02592196  0.20475962  1
  O  O27  1  0.38117957  0.79850022  0.97510901  1
  O  O28  1  0.43961017  0.38808111  0.88427680  1
  O  O29  1  0.50225327  0.32961713  0.37194603  1
  O  O30  1  0.49809409  0.66824479  0.63291415  1
  O  O31  1  0.55843138  0.61120267  0.11637974  1
  O  O32  1  0.61898092  0.20312735  0.02762761  1
  O  O33  1  0.54768608  0.97237239  0.79687265  1
  O  O34  1  0.60823562  0.88362026  0.38879733  1
  O  O35  1  0.66857191  0.36708585  0.33175521  1
  O  O36  1  0.66441373  0.62805397  0.67038287  1
  O  O37  1  0.72705683  0.11572320  0.61191889  1
  O  O38  1  0.78548743  0.02489099  0.20149978  1
  O  O39  1  0.71369158  0.79524038  0.97407803  1
  O  O40  1  0.77520786  0.38757752  0.88762288  1
  O  O41  1  0.83533420  0.33183288  0.35703158  1
  O  O42  1  0.82990757  0.66892011  0.63116402  1
  O  O43  1  0.89893362  0.60847413  0.11417816  1
  O  O44  1  0.96214785  0.19969790  0.02123027  1
  O  O45  1  0.87939827  0.97382332  0.80505553  1
  O  O46  1  0.93052451  0.90884309  0.39737308  1
  O  O47  1  0.99271576  0.63104639  0.67754238  1
  Si  Si48  1  0.09282831  0.19571391  0.37809908  1
  Si  Si49  1  0.07383769  0.62190092  0.80428609  1
  Si  Si50  1  0.25966895  0.37609568  0.18855853  1
  Si  Si51  1  0.23999299  0.80626224  0.62420201  1
  Si  Si52  1  0.42374788  0.19240016  0.38102843  1
  Si  Si53  1  0.40963528  0.62172673  0.80924876  1
  Si  Si54  1  0.58972150  0.37916366  0.19467926  1
  Si  Si55  1  0.57694450  0.80532074  0.62083634  1
  Si  Si56  1  0.75703172  0.19075124  0.37827327  1
  Si  Si57  1  0.74291912  0.61897157  0.80759984  1
  Si  Si58  1  0.92667401  0.37579799  0.19373776  1
  Si  Si59  1  0.90699805  0.81144147  0.62390432  1
