# generated using pymatgen
data_Sr25Cl52
_symmetry_space_group_name_H-M   'P 1'
_cell_length_a   25.02087074
_cell_length_b   27.82750539
_cell_length_c   8.65363687
_cell_angle_alpha   28.22138263
_cell_angle_beta   54.82461864
_cell_angle_gamma   51.11532280
_symmetry_Int_Tables_number   1
_chemical_formula_structural   Sr25Cl52
_chemical_formula_sum   'Sr25 Cl52'
_cell_volume   2213.54960658
_cell_formula_units_Z   1
loop_
 _symmetry_equiv_pos_site_id
 _symmetry_equiv_pos_as_xyz
  1  'x, y, z'
loop_
 _atom_site_type_symbol
 _atom_site_label
 _atom_site_symmetry_multiplicity
 _atom_site_fract_x
 _atom_site_fract_y
 _atom_site_fract_z
 _atom_site_occupancy
  Cl  Cl0  1  0.01044030  0.19876578  0.25194608  1
  Cl  Cl1  1  0.10986814  0.19995418  0.75089690  1
  Cl  Cl2  1  0.20967909  0.19299107  0.27582258  1
  Cl  Cl3  1  0.06424193  0.39996990  0.75818895  1
  Cl  Cl4  1  0.16816383  0.40008068  0.24208126  1
  Cl  Cl5  1  0.02995972  0.59957126  0.75202069  1
  Cl  Cl6  1  0.12700831  0.60699134  0.24063914  1
  Cl  Cl7  1  0.31314095  0.19281378  0.75967812  1
  Cl  Cl8  1  0.40998622  0.20014065  0.24938138  1
  Cl  Cl9  1  0.22013997  0.39988161  0.49988808  1
  Cl  Cl10  1  0.37596870  0.39987178  0.24174775  1
  Cl  Cl11  1  0.27184198  0.39993441  0.75794248  1
  Cl  Cl12  1  0.08996829  0.80027410  0.24971078  1
  Cl  Cl13  1  0.60990079  0.20016142  0.24982901  1
  Cl  Cl14  1  0.33011621  0.60004609  0.24923161  1
  Cl  Cl15  1  0.50999558  0.19966637  0.75083777  1
  Cl  Cl16  1  0.23031819  0.60707803  0.72393892  1
  Cl  Cl17  1  0.04999768  0.00031331  0.24927310  1
  Cl  Cl18  1  0.28948239  0.79981274  0.25201574  1
  Cl  Cl19  1  0.46967637  0.40082182  0.74834043  1
  Cl  Cl20  1  0.57007459  0.40010865  0.24995111  1
  Cl  Cl21  1  0.19072503  0.79945862  0.75060867  1
  Cl  Cl22  1  0.53023194  0.59963550  0.25027844  1
  Cl  Cl23  1  0.42976806  0.60036450  0.74972156  1
  Cl  Cl24  1  0.81015645  0.19974348  0.25102204  1
  Cl  Cl25  1  0.71015036  0.19945602  0.75164193  1
  Cl  Cl26  1  0.24984964  0.00054398  0.24835807  1
  Cl  Cl27  1  0.14984355  0.00025652  0.74897796  1
  Cl  Cl28  1  0.76927497  0.40054138  0.24939133  1
  Cl  Cl29  1  0.67051761  0.40018726  0.74798426  1
  Cl  Cl30  1  0.49032363  0.79917818  0.25165957  1
  Cl  Cl31  1  0.38992541  0.79989135  0.75004889  1
  Cl  Cl32  1  0.62988379  0.59995391  0.75076839  1
  Cl  Cl33  1  0.45000442  0.00033363  0.24916223  1
  Cl  Cl34  1  0.72968181  0.59292197  0.27606108  1
  Cl  Cl35  1  0.35009921  -0.00016142  0.75017099  1
  Cl  Cl36  1  0.91000232  0.19968669  0.75072690  1
  Cl  Cl37  1  0.68815802  0.80006559  0.24205752  1
  Cl  Cl38  1  0.58403130  0.80012822  0.75825225  1
  Cl  Cl39  1  0.97003621  0.39989886  0.25114336  1
  Cl  Cl40  1  0.87003171  0.39972590  0.75028922  1
  Cl  Cl41  1  0.73986003  0.80011839  0.50011192  1
  Cl  Cl42  1  0.64685905  0.00718622  0.24032188  1
  Cl  Cl43  1  0.55001378  0.99985935  0.75061862  1
  Cl  Cl44  1  0.93004028  0.60042874  0.24797931  1
  Cl  Cl45  1  0.83299169  0.59300866  0.75936086  1
  Cl  Cl46  1  0.89575807  0.80003010  0.24181105  1
  Cl  Cl47  1  0.79183617  0.79991932  0.75791874  1
  Cl  Cl48  1  0.85013186  1.00004582  0.24910310  1
  Cl  Cl49  1  0.75032091  0.00700893  0.72417742  1
  Cl  Cl50  1  0.98996379  0.80010114  0.74885664  1
  Cl  Cl51  1  0.94955970  0.00123422  0.74805392  1
  Sr  Sr52  1  0.99994009  0.99948948  0.00162832  1
  Sr  Sr53  1  0.16019681  0.20099750  0.99737301  1
  Sr  Sr54  1  0.11937181  0.40002641  0.99326156  1
  Sr  Sr55  1  0.35976543  0.20057127  0.99806916  1
  Sr  Sr56  1  0.08017334  0.59942607  0.00159066  1
  Sr  Sr57  1  0.32023722  0.40012856  0.00728058  1
  Sr  Sr58  1  0.04087313  0.80364854  0.99166347  1
  Sr  Sr59  1  0.55797520  0.20344368  0.99654882  1
  Sr  Sr60  1  0.28018549  0.59818182  0.00429047  1
  Sr  Sr61  1  0.52269729  0.40001405  0.99576087  1
  Sr  Sr62  1  0.24021190  0.80353714  0.98707772  1
  Sr  Sr63  1  0.76032746  0.20282767  0.98884540  1
  Sr  Sr64  1  0.48000000  0.60000000  0.00000000  1
  Sr  Sr65  1  0.19967254  0.99717233  0.01115460  1
  Sr  Sr66  1  0.71978810  0.39646286  0.01292228  1
  Sr  Sr67  1  0.43730271  0.79998595  0.00423913  1
  Sr  Sr68  1  0.67981451  0.60181818  0.99570953  1
  Sr  Sr69  1  0.96005991  0.20051052  0.99837168  1
  Sr  Sr70  1  0.40202480  0.99655632  0.00345118  1
  Sr  Sr71  1  0.63976278  0.79987144  0.99271942  1
  Sr  Sr72  1  0.91912687  0.39635146  0.00833653  1
  Sr  Sr73  1  0.60023457  0.99942873  0.00193084  1
  Sr  Sr74  1  0.87982666  0.60057393  0.99840934  1
  Sr  Sr75  1  0.84062819  0.79997359  0.00673844  1
  Sr  Sr76  1  0.79980319  0.99900250  0.00262699  1
