# generated using pymatgen
data_YAl3(Si5N8)3
_symmetry_space_group_name_H-M   'P 1'
_cell_length_a   7.91128173
_cell_length_b   7.90463455
_cell_length_c   17.19440129
_cell_angle_alpha   89.80207683
_cell_angle_beta   90.30632529
_cell_angle_gamma   120.26249096
_symmetry_Int_Tables_number   1
_chemical_formula_structural   YAl3(Si5N8)3
_chemical_formula_sum   'Y2 Al6 Si30 N48'
_cell_volume   928.72075468
_cell_formula_units_Z   2
loop_
 _symmetry_equiv_pos_site_id
 _symmetry_equiv_pos_as_xyz
  1  'x, y, z'
loop_
 _atom_site_type_symbol
 _atom_site_label
 _atom_site_symmetry_multiplicity
 _atom_site_fract_x
 _atom_site_fract_y
 _atom_site_fract_z
 _atom_site_occupancy
  Al  Al0  1  0.48877921  0.58416300  0.56584585  1
  Al  Al1  1  0.48677458  0.58463206  0.90182570  1
  Al  Al2  1  0.92926362  0.43130851  0.73672404  1
  Al  Al3  1  0.83468752  0.08571568  0.16916129  1
  Al  Al4  1  0.83421901  0.07872767  0.49866614  1
  Al  Al5  1  0.82996309  0.07840473  0.83536933  1
  N  N6  1  0.00670554  0.68621463  0.24937305  1
  N  N7  1  0.98781499  0.67018309  0.58321071  1
  N  N8  1  0.98672806  0.67323138  0.91876328  1
  N  N9  1  0.04759743  0.39046555  0.32778959  1
  N  N10  1  0.05171053  0.38583241  0.65288173  1
  N  N11  1  0.04903073  0.39476878  0.99564646  1
  N  N12  1  0.34210494  0.95960832  0.32657725  1
  N  N13  1  0.33827944  0.95640285  0.65745415  1
  N  N14  1  0.33722177  0.95995821  0.99293656  1
  N  N15  1  0.99371641  0.00241001  1.00005551  1
  N  N16  1  0.00975321  0.99530969  0.16677471  1
  N  N17  1  0.99701542  0.99970102  0.33366949  1
  N  N18  1  0.01255744  0.99368032  0.49984013  1
  N  N19  1  0.99595404  0.00078063  0.66501559  1
  N  N20  1  0.33449136  0.66766927  0.22091775  1
  N  N21  1  0.00752720  0.99382895  0.83404441  1
  N  N22  1  0.32544732  0.67392722  0.54234256  1
  N  N23  1  0.32069213  0.67232238  0.87885172  1
  N  N24  1  0.31289890  0.31919986  0.24849158  1
  N  N25  1  0.32954062  0.31011908  0.58186750  1
  N  N26  1  0.31949846  0.31170712  0.91690036  1
  N  N27  1  0.32075942  0.31246164  0.08253559  1
  N  N28  1  0.31958939  0.31367976  0.41436386  1
  N  N29  1  0.31385277  0.31628690  0.74852047  1
  N  N30  1  0.67439178  0.99102121  0.25314077  1
  N  N31  1  0.67232743  0.00299412  0.58650863  1
  N  N32  1  0.66626501  0.99654905  0.92157861  1
  N  N33  1  0.61227491  0.65133899  0.32708208  1
  N  N34  1  0.61808822  0.65756373  0.66243019  1
  N  N35  1  0.61888119  0.65444924  0.99716959  1
  N  N36  1  0.65689131  0.60728408  0.16329476  1
  N  N37  1  0.66758008  0.59645597  0.49162114  1
  N  N38  1  0.66537465  0.59171742  0.82735605  1
  N  N39  1  0.39590426  0.04892973  0.16222932  1
  N  N40  1  0.41151617  0.06350255  0.49513073  1
  N  N41  1  0.40894466  0.06649340  0.83000490  1
  N  N42  1  0.66785409  0.33362961  0.05061166  1
  N  N43  1  0.66863415  0.33113458  0.38383534  1
  N  N44  1  0.65502219  0.32810504  0.71134334  1
  N  N45  1  0.99367453  0.68296272  0.08188198  1
  N  N46  1  0.00417759  0.68402331  0.41263604  1
  N  N47  1  0.00979666  0.69399406  0.74811658  1
  N  N48  1  0.67409659  -0.00250808  0.08131354  1
  N  N49  1  0.67448717  0.99085673  0.41326316  1
  N  N50  1  0.67482566  0.99773863  0.74697614  1
  N  N51  1  0.96064171  0.35768622  0.16193190  1
  N  N52  1  0.94149011  0.35430690  0.49504952  1
  N  N53  1  0.93301394  0.34867262  0.83781331  1
  Si  Si54  1  0.08664079  0.83711690  0.33144152  1
  Si  Si55  1  0.07865663  0.83284133  0.66591097  1
  Si  Si56  1  0.07623048  0.83487021  0.00128532  1
  Si  Si57  1  0.08457868  0.51542257  0.23731367  1
  Si  Si58  1  0.09124797  0.51765061  0.56687427  1
  Si  Si59  1  0.08668308  0.51746396  0.90505839  1
  Si  Si60  1  0.43290963  0.91826066  0.23840523  1
  Si  Si61  1  0.42412760  0.91009913  0.56881577  1
  Si  Si62  1  0.41986226  0.90954197  0.90493510  1
  Si  Si63  1  0.16533570  0.25170791  0.33218183  1
  Si  Si64  1  0.17016894  0.25066436  0.66257050  1
  Si  Si65  1  0.16860149  0.25243611  0.00089706  1
  Si  Si66  1  0.25392914  0.16392084  0.16793579  1
  Si  Si67  1  0.25477023  0.16553493  0.49756602  1
  Si  Si68  1  0.24854679  0.16799732  0.83260844  1
  Si  Si69  1  0.48736746  0.57065754  0.23757365  1
  Si  Si70  1  0.74175735  0.91054584  0.33324251  1
  Si  Si71  1  0.74261324  0.91445539  0.66801392  1
  Si  Si72  1  0.73918448  0.91174261  0.00375233  1
  Si  Si73  1  0.56938569  0.49220916  0.07386969  1
  Si  Si74  1  0.57128165  0.48318055  0.39992227  1
  Si  Si75  1  0.56653146  0.48813794  0.73580918  1
  Si  Si76  1  0.50826380  0.07411430  0.07286771  1
  Si  Si77  1  0.51766668  0.07872597  0.39934961  1
  Si  Si78  1  0.50916988  0.07552124  0.73501760  1
  Si  Si79  1  0.91752328  0.74820279  0.16799390  1
  Si  Si80  1  0.92386757  0.74894802  0.82962984  1
  Si  Si81  1  0.92358819  0.74805990  0.49522525  1
  Si  Si82  1  0.92774724  0.43647037  0.07439422  1
  Si  Si83  1  0.92054452  0.43325734  0.40060241  1
  Y  Y84  1  0.66783215  0.33704741  0.57761087  1
  Y  Y85  1  0.66639136  0.33825829  0.91538948  1
