# generated using pymatgen
data_Eu2Si2O7
_symmetry_space_group_name_H-M   'P 1'
_cell_length_a   6.72051462
_cell_length_b   6.83196280
_cell_length_c   12.52464167
_cell_angle_alpha   90.00000000
_cell_angle_beta   101.96861404
_cell_angle_gamma   90.00000000
_symmetry_Int_Tables_number   1
_chemical_formula_structural   Eu2Si2O7
_chemical_formula_sum   'Eu8 Si8 O28'
_cell_volume   562.55919354
_cell_formula_units_Z   4
loop_
 _symmetry_equiv_pos_site_id
 _symmetry_equiv_pos_as_xyz
  1  'x, y, z'
loop_
 _atom_site_type_symbol
 _atom_site_label
 _atom_site_symmetry_multiplicity
 _atom_site_fract_x
 _atom_site_fract_y
 _atom_site_fract_z
 _atom_site_occupancy
  Eu  Eu0  1  0.16911470  0.89510206  0.63727536  1
  Eu  Eu1  1  0.33088530  0.39510206  0.86272464  1
  Eu  Eu2  1  0.83088530  0.10489794  0.36272464  1
  Eu  Eu3  1  0.66911470  0.60489794  0.13727536  1
  Eu  Eu4  1  0.19087521  0.66990830  0.34728928  1
  Eu  Eu5  1  0.30912479  0.16990830  0.15271072  1
  Eu  Eu6  1  0.80912479  0.33009170  0.65271072  1
  Eu  Eu7  1  0.69087521  0.83009170  0.84728928  1
  Si  Si8  1  0.69050993  0.82934217  0.58598233  1
  Si  Si9  1  0.80949007  0.32934217  0.91401767  1
  Si  Si10  1  0.30949007  0.17065783  0.41401767  1
  Si  Si11  1  0.19050993  0.67065783  0.08598233  1
  Si  Si12  1  0.68185096  0.58237116  0.39126888  1
  Si  Si13  1  0.81814904  0.08237116  0.10873112  1
  Si  Si14  1  0.31814904  0.41762884  0.60873112  1
  Si  Si15  1  0.18185096  0.91762884  0.89126888  1
  O  O16  1  0.56922103  0.71853889  0.47225925  1
  O  O17  1  0.93077897  0.21853889  0.02774075  1
  O  O18  1  0.43077897  0.28146111  0.52774075  1
  O  O19  1  0.06922103  0.78146111  0.97225925  1
  O  O20  1  0.82431201  0.01231314  0.55109914  1
  O  O21  1  0.67568799  0.51231314  0.94890086  1
  O  O22  1  0.17568799  0.98768686  0.44890086  1
  O  O23  1  0.32431201  0.48768686  0.05109914  1
  O  O24  1  0.82976721  0.72167709  0.33386008  1
  O  O25  1  0.67023279  0.22167709  0.16613992  1
  O  O26  1  0.17023279  0.27832291  0.66613992  1
  O  O27  1  0.32976721  0.77832291  0.83386008  1
  O  O28  1  0.49387535  0.51508698  0.29251340  1
  O  O29  1  0.00612465  0.01508698  0.20748660  1
  O  O30  1  0.50612465  0.48491302  0.70748660  1
  O  O31  1  0.99387535  0.98491302  0.79251340  1
  O  O32  1  0.53296398  0.90656164  0.65889003  1
  O  O33  1  0.96703602  0.40656164  0.84110997  1
  O  O34  1  0.46703602  0.09343836  0.34110997  1
  O  O35  1  0.03296398  0.59343836  0.15889003  1
  O  O36  1  0.85895013  0.67594010  0.65291540  1
  O  O37  1  0.64104987  0.17594010  0.84708460  1
  O  O38  1  0.14104987  0.32405990  0.34708460  1
  O  O39  1  0.35895013  0.82405990  0.15291540  1
  O  O40  1  0.79822084  0.39707102  0.45797755  1
  O  O41  1  0.70177916  0.89707102  0.04202245  1
  O  O42  1  0.20177916  0.60292898  0.54202245  1
  O  O43  1  0.29822084  0.10292898  0.95797755  1
