# generated using pymatgen
data_Ta24Cu13O72
_symmetry_space_group_name_H-M   'P 1'
_cell_length_a   7.59553704
_cell_length_b   22.74376369
_cell_length_c   10.75290296
_cell_angle_alpha   45.14973180
_cell_angle_beta   90.00000000
_cell_angle_gamma   90.00000000
_symmetry_Int_Tables_number   1
_chemical_formula_structural   Ta24Cu13O72
_chemical_formula_sum   'Ta24 Cu13 O72'
_cell_volume   1316.93256057
_cell_formula_units_Z   1
loop_
 _symmetry_equiv_pos_site_id
 _symmetry_equiv_pos_as_xyz
  1  'x, y, z'
loop_
 _atom_site_type_symbol
 _atom_site_label
 _atom_site_symmetry_multiplicity
 _atom_site_fract_x
 _atom_site_fract_y
 _atom_site_fract_z
 _atom_site_occupancy
  Cu  Cu0  1  0.00000000  0.16543111  0.00216402  1
  Cu  Cu1  1  0.00000000  0.50000000  0.00000000  1
  Cu  Cu2  1  0.00000000  0.16674205  0.49918263  1
  Cu  Cu3  1  0.00000000  0.83456889  0.99783598  1
  Cu  Cu4  1  0.00000000  0.50000000  0.50000000  1
  Cu  Cu5  1  0.00000000  0.83325795  0.50081737  1
  Cu  Cu6  1  0.50000000  0.00000000  0.00000000  1
  Cu  Cu7  1  0.50000000  0.33310755  0.00099504  1
  Cu  Cu8  1  0.50000000  0.66689245  0.99900496  1
  Cu  Cu9  1  0.50000000  0.50000000  0.50000000  1
  Cu  Cu10  1  0.00000000  0.00000000  0.50000000  1
  Cu  Cu11  1  0.00000000  0.33308535  0.50033373  1
  Cu  Cu12  1  0.00000000  0.66691465  0.49966627  1
  O  O13  1  0.00000000  0.04170745  0.18041691  1
  O  O14  1  0.00000000  0.17183035  0.17829446  1
  O  O15  1  0.00000000  0.50546576  0.18052372  1
  O  O16  1  0.00000000  0.70849074  0.17948313  1
  O  O17  1  0.00000000  0.83688298  0.17964284  1
  O  O18  1  0.00000000  0.95829255  0.81958309  1
  O  O19  1  0.18222732  0.23022645  0.30988481  1
  O  O20  1  0.18197948  0.10422230  0.68826204  1
  O  O21  1  0.18249301  0.56266456  0.31223402  1
  O  O22  1  0.18249301  0.43733544  0.68776598  1
  O  O23  1  0.18197948  0.89577770  0.31173796  1
  O  O24  1  0.18222732  0.76977355  0.69011519  1
  O  O25  1  0.18685665  0.06288268  0.49956046  1
  O  O26  1  0.18700981  0.27093259  0.49954926  1
  O  O27  1  0.18634577  0.39615087  0.50000052  1
  O  O28  1  0.18634577  0.60384913  0.49999948  1
  O  O29  1  0.18700981  0.72906741  0.50045074  1
  O  O30  1  0.18685665  0.93711732  0.50043954  1
  O  O31  1  0.29940551  0.09764439  0.20675281  1
  O  O32  1  0.30139105  0.43130707  0.20782334  1
  O  O33  1  0.30181142  0.76341304  0.20827717  1
  O  O34  1  0.30181142  0.23658696  0.79172283  1
  O  O35  1  0.30139105  0.56869293  0.79217666  1
  O  O36  1  0.29940551  0.90235561  0.79324719  1
  O  O37  1  0.30576238  0.06064505  -0.00025769  1
  O  O38  1  0.30782001  0.27299370  0.99824408  1
  O  O39  1  0.30751786  0.39485883  0.99872165  1
  O  O40  1  0.30751786  0.60514117  0.00127835  1
  O  O41  1  0.30782001  0.72700630  0.00175592  1
  O  O42  1  0.30576238  0.93935495  1.00025769  1
  O  O43  1  0.50000000  0.03353163  0.69538126  1
  O  O44  1  0.50000000  0.30123354  0.30313408  1
  O  O45  1  0.50000000  0.37561048  0.68249443  1
  O  O46  1  0.50000000  0.16420817  0.30312551  1
  O  O47  1  0.50000000  0.17044732  0.69578987  1
  O  O48  1  0.50000000  0.49745482  0.31732950  1
  O  O49  1  0.50000000  0.50254518  0.68267050  1
  O  O50  1  0.50000000  0.62438952  0.31750557  1
  O  O51  1  0.50000000  0.69876646  0.69686592  1
  O  O52  1  0.50000000  0.82955268  0.30421013  1
  O  O53  1  0.50000000  0.96646837  0.30461874  1
  O  O54  1  0.50000000  0.83579183  0.69687449  1
  O  O55  1  0.69423762  0.06064505  -0.00025769  1
  O  O56  1  0.69217999  0.27299370  0.99824408  1
  O  O57  1  0.69248214  0.39485883  0.99872165  1
  O  O58  1  0.69248214  0.60514117  0.00127835  1
  O  O59  1  0.69217999  0.72700630  0.00175592  1
  O  O60  1  0.69423762  0.93935495  1.00025769  1
  O  O61  1  0.70059449  0.09764439  0.20675281  1
  O  O62  1  0.69860895  0.43130707  0.20782334  1
  O  O63  1  0.69818858  0.23658696  0.79172283  1
  O  O64  1  0.69818858  0.76341304  0.20827717  1
  O  O65  1  0.69860895  0.56869293  0.79217666  1
  O  O66  1  0.70059449  0.90235561  0.79324719  1
  O  O67  1  0.81314335  0.06288268  0.49956046  1
  O  O68  1  0.81299019  0.27093259  0.49954926  1
  O  O69  1  0.81365423  0.39615087  0.50000052  1
  O  O70  1  0.81365423  0.60384913  0.49999948  1
  O  O71  1  0.81299019  0.72906741  0.50045074  1
  O  O72  1  0.81314335  0.93711732  0.50043954  1
  O  O73  1  0.81777268  0.23022645  0.30988481  1
  O  O74  1  0.81802052  0.10422230  0.68826204  1
  O  O75  1  0.81750699  0.56266456  0.31223402  1
  O  O76  1  0.81802052  0.89577770  0.31173796  1
  O  O77  1  0.81750699  0.43733544  0.68776598  1
  O  O78  1  0.81777268  0.76977355  0.69011519  1
  O  O79  1  0.00000000  0.37657948  0.17892981  1
  O  O80  1  0.00000000  0.16311702  0.82035716  1
  O  O81  1  0.00000000  0.29150926  0.82051687  1
  O  O82  1  0.00000000  0.49453424  0.81947628  1
  O  O83  1  0.00000000  0.62342052  0.82107019  1
  O  O84  1  0.00000000  0.82816965  0.82170554  1
  Ta  Ta85  1  0.25149436  0.33088495  0.75293342  1
  Ta  Ta86  1  0.25401805  0.66707766  0.74887345  1
  Ta  Ta87  1  0.25520992  0.99946223  0.75023104  1
  Ta  Ta88  1  0.25494549  0.16560984  0.25042194  1
  Ta  Ta89  1  0.25436576  0.16645658  0.75006903  1
  Ta  Ta90  1  0.25144233  0.49941655  0.24761360  1
  Ta  Ta91  1  0.25144233  0.50058345  0.75238640  1
  Ta  Ta92  1  0.25436576  0.83354342  0.24993097  1
  Ta  Ta93  1  0.25494549  0.83439016  0.74957806  1
  Ta  Ta94  1  0.25520992  0.00053777  0.24976896  1
  Ta  Ta95  1  0.25401805  0.33292234  0.25112655  1
  Ta  Ta96  1  0.25149436  0.66911505  0.24706658  1
  Ta  Ta97  1  0.74850564  0.33088495  0.75293342  1
  Ta  Ta98  1  0.74598195  0.66707766  0.74887345  1
  Ta  Ta99  1  0.74479008  0.99946223  0.75023104  1
  Ta  Ta100  1  0.74505451  0.16560984  0.25042194  1
  Ta  Ta101  1  0.74563424  0.16645658  0.75006903  1
  Ta  Ta102  1  0.74855767  0.49941655  0.24761360  1
  Ta  Ta103  1  0.74563424  0.83354342  0.24993097  1
  Ta  Ta104  1  0.74855767  0.50058345  0.75238640  1
  Ta  Ta105  1  0.74505451  0.83439016  0.74957806  1
  Ta  Ta106  1  0.74479008  0.00053777  0.24976896  1
  Ta  Ta107  1  0.74598195  0.33292234  0.25112655  1
  Ta  Ta108  1  0.74850564  0.66911505  0.24706658  1
