# generated using pymatgen
data_TlBi25O39
_symmetry_space_group_name_H-M   'P 1'
_cell_length_a   9.01872155
_cell_length_b   9.01738900
_cell_length_c   17.95458979
_cell_angle_alpha   109.39943854
_cell_angle_beta   109.34355442
_cell_angle_gamma   109.62967098
_symmetry_Int_Tables_number   1
_chemical_formula_structural   TlBi25O39
_chemical_formula_sum   'Tl1 Bi25 O39'
_cell_volume   1124.59627804
_cell_formula_units_Z   1
loop_
 _symmetry_equiv_pos_site_id
 _symmetry_equiv_pos_as_xyz
  1  'x, y, z'
loop_
 _atom_site_type_symbol
 _atom_site_label
 _atom_site_symmetry_multiplicity
 _atom_site_fract_x
 _atom_site_fract_y
 _atom_site_fract_z
 _atom_site_occupancy
  Bi  Bi0  1  0.15786598  0.85677724  0.83265237  1
  Bi  Bi1  1  0.13686792  0.29712951  0.90295033  1
  Bi  Bi2  1  0.18998058  0.49874856  0.66586605  1
  Bi  Bi3  1  0.31324570  0.81316593  0.57192438  1
  Bi  Bi4  1  0.16972667  0.86716332  0.33696039  1
  Bi  Bi5  1  0.49558834  0.68946507  0.91686664  1
  Bi  Bi6  1  0.13747113  0.30754895  0.40363608  1
  Bi  Bi7  1  0.32901629  0.19137586  0.74669705  1
  Bi  Bi8  1  0.69804906  0.83667605  0.75286270  1
  Bi  Bi9  1  0.19252117  0.50023378  0.16859177  1
  Bi  Bi10  1  0.30325534  0.80350742  0.07111064  1
  Bi  Bi11  1  0.49739253  0.33005931  0.59401115  1
  Bi  Bi12  1  0.65732004  0.14977672  0.92360164  1
  Bi  Bi13  1  0.50647976  0.69499147  0.41819771  1
  Bi  Bi14  1  0.83375586  0.49932567  0.84561162  1
  Bi  Bi15  1  0.35386354  0.19765190  0.25980412  1
  Bi  Bi16  1  0.69853321  0.83306575  0.25165930  1
  Bi  Bi17  1  0.85966198  0.67297216  0.58475348  1
  Bi  Bi18  1  0.47573241  0.32306023  0.09079249  1
  Bi  Bi19  1  0.81331751  0.14143510  0.65418609  1
  Bi  Bi20  1  0.68714925  0.16798633  0.43401421  1
  Bi  Bi21  1  0.84482708  0.52552230  0.35254429  1
  Bi  Bi22  1  0.84626952  0.64024156  0.07916885  1
  Bi  Bi23  1  0.79584470  0.15351050  0.15764574  1
  Bi  Bi24  1  0.99380104  -0.00235596  0.01360900  1
  O  O25  1  0.11385822  0.75193517  0.68897520  1
  O  O26  1  0.26406182  0.64220225  0.94282817  1
  O  O27  1  1.00064890  0.63362365  0.49992918  1
  O  O28  1  0.24982944  0.36429859  0.81351033  1
  O  O29  1  0.00278618  0.00325091  0.62327116  1
  O  O30  1  0.99449022  0.24013105  0.49776989  1
  O  O31  1  0.37637781  0.73770617  0.81137540  1
  O  O32  1  0.35941855  0.62580887  0.62282045  1
  O  O33  1  0.10978656  0.75029839  0.18632422  1
  O  O34  1  0.37721726  0.11194997  0.87917278  1
  O  O35  1  0.26585858  0.64017308  0.44288560  1
  O  O36  1  0.37010034  0.37044930  0.68408643  1
  O  O37  1  0.00047096  0.62740146  -0.00020228  1
  O  O38  1  0.00031349  0.99954300  0.31079812  1
  O  O39  1  0.24696285  1.00537872  0.49732944  1
  O  O40  1  0.24586145  0.35486170  0.30982268  1
  O  O41  1  0.62370964  0.37650280  0.86968213  1
  O  O42  1  0.78195572  0.77807188  0.88295014  1
  O  O43  1  0.63588825  0.88642309  0.63037104  1
  O  O44  1  0.37731179  0.73362247  0.31007626  1
  O  O45  1  0.35695631  0.62036097  0.12110354  1
  O  O46  1  0.73905430  0.62427094  0.68814490  1
  O  O47  1  0.62463240  0.24619475  0.67973490  1
  O  O48  1  0.38181279  0.11685901  0.37374638  1
  O  O49  1  0.36690190  0.36776493  0.18419509  1
  O  O50  1  0.22071370  0.00651733  0.99833206  1
  O  O51  1  0.62650603  0.38576242  0.36924199  1
  O  O52  1  0.88510536  0.26155566  0.81924513  1
  O  O53  1  0.76491047  0.75681034  0.37931367  1
  O  O54  1  0.75764721  0.37964820  0.55781726  1
  O  O55  1  0.64556529  0.88975922  0.13301794  1
  O  O56  1  0.63361897  0.99983342  0.49924584  1
  O  O57  1  0.72938698  0.61419728  0.18241803  1
  O  O58  1  0.60870043  0.23775250  0.17581969  1
  O  O59  1  0.99985011  0.99965357  0.80480058  1
  O  O60  1  0.88463815  0.26775561  0.31711474  1
  O  O61  1  0.75755097  0.36871872  0.05528453  1
  O  O62  1  0.62902333  -0.00061849  0.00044650  1
  O  O63  1  -0.00406971  0.21593019  0.99271741  1
  Tl  Tl64  1  0.00705040  1.00360621  0.50276536  1
