# generated using pymatgen
data_W2Se17Cl12
_symmetry_space_group_name_H-M   'P 1'
_cell_length_a   11.93354906
_cell_length_b   13.77832030
_cell_length_c   13.92835752
_cell_angle_alpha   111.49136774
_cell_angle_beta   99.83102318
_cell_angle_gamma   99.53169565
_symmetry_Int_Tables_number   1
_chemical_formula_structural   W2Se17Cl12
_chemical_formula_sum   'W4 Se34 Cl24'
_cell_volume   2033.59029118
_cell_formula_units_Z   2
loop_
 _symmetry_equiv_pos_site_id
 _symmetry_equiv_pos_as_xyz
  1  'x, y, z'
loop_
 _atom_site_type_symbol
 _atom_site_label
 _atom_site_symmetry_multiplicity
 _atom_site_fract_x
 _atom_site_fract_y
 _atom_site_fract_z
 _atom_site_occupancy
  W  W0  1  0.68557535  0.27078123  0.47910966  1
  W  W1  1  0.31442465  0.72921877  0.52089034  1
  W  W2  1  0.83381539  0.71641018  0.99990562  1
  W  W3  1  0.16618461  0.28358982  0.00009438  1
  Se  Se4  1  0.47779553  0.83220062  0.98538767  1
  Se  Se5  1  0.52220447  0.16779938  0.01461233  1
  Se  Se6  1  0.31945717  0.90682189  0.96510443  1
  Se  Se7  1  0.68054283  0.09317811  0.03489557  1
  Se  Se8  1  0.32546383  0.02049297  0.14404165  1
  Se  Se9  1  0.67453617  0.97950703  0.85595835  1
  Se  Se10  1  0.26344017  0.90020936  0.21749205  1
  Se  Se11  1  0.73655983  0.09979064  0.78250795  1
  Se  Se12  1  0.44336940  0.84623730  0.25170761  1
  Se  Se13  1  0.55663060  0.15376270  0.74829239  1
  Se  Se14  1  0.38456845  0.66521620  0.15287762  1
  Se  Se15  1  0.61543155  0.33478380  0.84712238  1
  Se  Se16  1  0.38981853  0.64860935  0.96442467  1
  Se  Se17  1  0.61018147  0.35139065  0.03557533  1
  Se  Se18  1  0.18186279  0.62750609  0.91965479  1
  Se  Se19  1  0.81813721  0.37249391  0.08034521  1
  Se  Se20  1  0.15065767  0.58704802  0.73583950  1
  Se  Se21  1  0.84934233  0.41295198  0.26416050  1
  Se  Se22  1  0.11741349  0.39861464  0.65678706  1
  Se  Se23  1  0.88258651  0.60138536  0.34321294  1
  Se  Se24  1  0.31041348  0.37608646  0.64955716  1
  Se  Se25  1  0.68958652  0.62391354  0.35044284  1
  Se  Se26  1  0.25397839  0.19243927  0.65774887  1
  Se  Se27  1  0.74602161  0.80756073  0.34225113  1
  Se  Se28  1  0.23530271  0.07114043  0.48841785  1
  Se  Se29  1  0.76469729  0.92885957  0.51158215  1
  Se  Se30  1  0.03550972  0.04843663  0.39963664  1
  Se  Se31  1  0.96449028  0.95156337  0.60036336  1
  Se  Se32  1  0.06810835  0.11965273  0.27512197  1
  Se  Se33  1  0.93189165  0.88034727  0.72487803  1
  Se  Se34  1  0.12640293  0.30973438  0.37572569  1
  Se  Se35  1  0.87359707  0.69026562  0.62427431  1
  Se  Se36  1  0.31976607  0.33933139  0.46496447  1
  Se  Se37  1  0.68023393  0.66066861  0.53503553  1
  Cl  Cl38  1  0.84082387  0.41728404  0.50595902  1
  Cl  Cl39  1  0.15917613  0.58271596  0.49404098  1
  Cl  Cl40  1  0.61114957  0.38649330  0.61122028  1
  Cl  Cl41  1  0.38885043  0.61350670  0.38877972  1
  Cl  Cl42  1  0.53577154  0.12418872  0.45383041  1
  Cl  Cl43  1  0.46422846  0.87581128  0.54616959  1
  Cl  Cl44  1  0.75731215  0.15743781  0.34616258  1
  Cl  Cl45  1  0.24268785  0.84256219  0.65383742  1
  Cl  Cl46  1  0.56929087  0.31015077  0.35223634  1
  Cl  Cl47  1  0.43070913  0.68984923  0.64776366  1
  Cl  Cl48  1  0.80594668  0.23968599  0.61052067  1
  Cl  Cl49  1  0.19405332  0.76031401  0.38947933  1
  Cl  Cl50  1  0.78587353  0.87232466  0.10909666  1
  Cl  Cl51  1  0.21412647  0.12767534  0.89090334  1
  Cl  Cl52  1  0.96676847  0.72570841  0.14721562  1
  Cl  Cl53  1  0.03323153  0.27429159  0.85278438  1
  Cl  Cl54  1  0.88275527  0.56157555  0.89386734  1
  Cl  Cl55  1  0.11724473  0.43842445  0.10613266  1
  Cl  Cl56  1  0.69212208  0.70157005  0.85393526  1
  Cl  Cl57  1  0.30787792  0.29842995  0.14606474  1
  Cl  Cl58  1  0.68273550  0.61045037  0.04011666  1
  Cl  Cl59  1  0.31726450  0.38954963  0.95988334  1
  Cl  Cl60  1  0.97573160  0.82394754  0.96062384  1
  Cl  Cl61  1  0.02426840  0.17605246  0.03937616  1
