# generated using pymatgen
data_V2(PO4)3
_symmetry_space_group_name_H-M   'P 1'
_cell_length_a   8.51173719
_cell_length_b   8.51173718
_cell_length_c   8.51173678
_cell_angle_alpha   60.62351783
_cell_angle_beta   60.62351786
_cell_angle_gamma   60.62351475
_symmetry_Int_Tables_number   1
_chemical_formula_structural   V2(PO4)3
_chemical_formula_sum   'V4 P6 O24'
_cell_volume   442.19295103
_cell_formula_units_Z   2
loop_
 _symmetry_equiv_pos_site_id
 _symmetry_equiv_pos_as_xyz
  1  'x, y, z'
loop_
 _atom_site_type_symbol
 _atom_site_label
 _atom_site_symmetry_multiplicity
 _atom_site_fract_x
 _atom_site_fract_y
 _atom_site_fract_z
 _atom_site_occupancy
  V  V0  1  0.36362467  0.36362467  0.36362467  1
  V  V1  1  0.13637533  0.13637533  0.13637533  1
  V  V2  1  0.86362467  0.86362467  0.86362467  1
  V  V3  1  0.63637533  0.63637533  0.63637533  1
  P  P4  1  0.46428239  0.03571761  0.75000000  1
  P  P5  1  0.53571761  0.96428239  0.25000000  1
  P  P6  1  0.96428239  0.25000000  0.53571761  1
  P  P7  1  0.25000000  0.53571761  0.96428239  1
  P  P8  1  0.75000000  0.46428239  0.03571761  1
  P  P9  1  0.03571761  0.75000000  0.46428239  1
  O  O10  1  0.86926689  0.69787069  0.50042326  1
  O  O11  1  0.72577971  0.94047359  0.08333886  1
  O  O12  1  0.58333886  0.44047359  0.22577971  1
  O  O13  1  0.41666114  0.55952641  0.77422029  1
  O  O14  1  0.44047359  0.22577971  0.58333886  1
  O  O15  1  0.91666114  0.27422029  0.05952641  1
  O  O16  1  0.55952641  0.77422029  0.41666114  1
  O  O17  1  0.00042326  0.19787069  0.36926689  1
  O  O18  1  0.99957674  0.80212931  0.63073311  1
  O  O19  1  0.36926689  0.00042326  0.19787069  1
  O  O20  1  0.19787069  0.36926689  0.00042326  1
  O  O21  1  0.13073311  0.30212931  0.49957674  1
  O  O22  1  0.50042326  0.86926689  0.69787069  1
  O  O23  1  0.08333886  0.72577971  0.94047359  1
  O  O24  1  0.49957674  0.13073311  0.30212931  1
  O  O25  1  0.69787069  0.50042326  0.86926689  1
  O  O26  1  0.77422029  0.41666114  0.55952641  1
  O  O27  1  0.22577971  0.58333886  0.44047359  1
  O  O28  1  0.63073311  0.99957674  0.80212931  1
  O  O29  1  0.27422029  0.05952641  0.91666114  1
  O  O30  1  0.30212931  0.49957674  0.13073311  1
  O  O31  1  0.94047359  0.08333886  0.72577971  1
  O  O32  1  0.05952641  0.91666114  0.27422029  1
  O  O33  1  0.80212931  0.63073311  0.99957674  1
