# generated using pymatgen
data_Ti(AlBr4)2
_symmetry_space_group_name_H-M   'P 1'
_cell_length_a   8.68841698
_cell_length_b   10.47470167
_cell_length_c   10.89631040
_cell_angle_alpha   72.07843251
_cell_angle_beta   66.50392658
_cell_angle_gamma   65.49747067
_symmetry_Int_Tables_number   1
_chemical_formula_structural   Ti(AlBr4)2
_chemical_formula_sum   'Ti2 Al4 Br16'
_cell_volume   815.40404044
_cell_formula_units_Z   2
loop_
 _symmetry_equiv_pos_site_id
 _symmetry_equiv_pos_as_xyz
  1  'x, y, z'
loop_
 _atom_site_type_symbol
 _atom_site_label
 _atom_site_symmetry_multiplicity
 _atom_site_fract_x
 _atom_site_fract_y
 _atom_site_fract_z
 _atom_site_occupancy
  Ti  Ti0  1  -0.00265178  0.75000000  0.25000000  1
  Ti  Ti1  1  1.00265178  0.25000000  0.75000000  1
  Al  Al2  1  0.32567598  0.36136892  0.47152233  1
  Al  Al3  1  0.15856724  0.13863108  0.02847767  1
  Al  Al4  1  0.67432402  0.63863108  0.52847767  1
  Al  Al5  1  0.84143276  0.86136892  0.97152233  1
  Br  Br6  1  0.61827740  0.23839755  0.44935378  1
  Br  Br7  1  0.30602874  0.26160245  0.05064622  1
  Br  Br8  1  0.38172260  0.76160245  0.55064622  1
  Br  Br9  1  0.69397126  0.73839755  0.94935378  1
  Br  Br10  1  0.16487269  0.22002411  0.48502459  1
  Br  Br11  1  0.86992138  0.27997589  0.01497541  1
  Br  Br12  1  0.83512731  0.77997589  0.51497541  1
  Br  Br13  1  0.13007862  0.72002411  0.98502459  1
  Br  Br14  1  0.30826705  0.55089244  0.28397494  1
  Br  Br15  1  0.14313442  0.94910756  0.21602506  1
  Br  Br16  1  0.69173295  0.44910756  0.71602506  1
  Br  Br17  1  0.85686558  0.05089244  0.78397494  1
  Br  Br18  1  0.16475888  0.44649162  0.67937456  1
  Br  Br19  1  0.29062506  0.05350838  0.82062544  1
  Br  Br20  1  0.83524112  0.55350838  0.32062544  1
  Br  Br21  1  0.70937494  0.94649162  0.17937456  1
