# generated using pymatgen
data_Sr2ErGaCu2O7
_symmetry_space_group_name_H-M   'P 1'
_cell_length_a   5.40059009
_cell_length_b   5.50378618
_cell_length_c   12.20798158
_cell_angle_alpha   103.03727275
_cell_angle_beta   102.79147863
_cell_angle_gamma   89.99986005
_symmetry_Int_Tables_number   1
_chemical_formula_structural   Sr2ErGaCu2O7
_chemical_formula_sum   'Sr4 Er2 Ga2 Cu4 O14'
_cell_volume   344.26283248
_cell_formula_units_Z   2
loop_
 _symmetry_equiv_pos_site_id
 _symmetry_equiv_pos_as_xyz
  1  'x, y, z'
loop_
 _atom_site_type_symbol
 _atom_site_label
 _atom_site_symmetry_multiplicity
 _atom_site_fract_x
 _atom_site_fract_y
 _atom_site_fract_z
 _atom_site_occupancy
  Er  Er0  1  0.50070349  0.50006639  -0.00004416  1
  Er  Er1  1  0.00060777  0.00000127  -0.00004545  1
  Sr  Sr2  1  0.34797814  0.36500989  0.69802284  1
  Sr  Sr3  1  0.64991775  0.63506146  0.30201379  1
  Sr  Sr4  1  0.84799583  0.83312335  0.69802881  1
  Sr  Sr5  1  0.14995378  0.16705414  0.30200913  1
  Cu  Cu6  1  0.92998450  0.42850456  0.85869733  1
  Cu  Cu7  1  0.07127989  0.57152236  0.14129208  1
  Cu  Cu8  1  0.43018709  0.92970884  0.85870383  1
  Cu  Cu9  1  0.57167230  0.06974769  0.14134557  1
  Ga  Ga10  1  0.71224669  0.18153975  0.49998987  1
  Ga  Ga11  1  0.21230982  0.81865751  0.49996567  1
  O  O12  1  0.85943672  0.86510622  0.50002766  1
  O  O13  1  0.35936847  0.13510866  0.50000018  1
  O  O14  1  0.18775337  0.18668562  0.87372815  1
  O  O15  1  0.31379363  0.81316522  0.12625150  1
  O  O16  1  0.68750677  0.18681214  0.87373439  1
  O  O17  1  0.81404717  0.81288893  0.12624286  1
  O  O18  1  0.68983468  0.68877890  0.87982862  1
  O  O19  1  0.80992207  0.31119186  0.12016160  1
  O  O20  1  0.18967305  0.69092402  0.87981801  1
  O  O21  1  0.31001755  0.30894664  0.12017292  1
  O  O22  1  0.35167460  0.77913178  0.64732976  1
  O  O23  1  0.70424229  0.22104220  0.35270074  1
  O  O24  1  0.85162383  0.36835845  0.64737535  1
  O  O25  1  0.20426875  0.63186216  0.35264895  1
