# generated using pymatgen
data_Mn4(PO4)3
_symmetry_space_group_name_H-M   'P 1'
_cell_length_a   7.75369105
_cell_length_b   8.20899684
_cell_length_c   9.73172453
_cell_angle_alpha   109.97468633
_cell_angle_beta   112.96149941
_cell_angle_gamma   93.59995154
_symmetry_Int_Tables_number   1
_chemical_formula_structural   Mn4(PO4)3
_chemical_formula_sum   'Mn8 P6 O24'
_cell_volume   522.09825935
_cell_formula_units_Z   2
loop_
 _symmetry_equiv_pos_site_id
 _symmetry_equiv_pos_as_xyz
  1  'x, y, z'
loop_
 _atom_site_type_symbol
 _atom_site_label
 _atom_site_symmetry_multiplicity
 _atom_site_fract_x
 _atom_site_fract_y
 _atom_site_fract_z
 _atom_site_occupancy
  Mn  Mn0  1  0.02658040  0.79802970  0.45651575  1
  Mn  Mn1  1  0.27048637  0.92058919  0.93167247  1
  Mn  Mn2  1  0.27956763  0.53349699  0.93114344  1
  Mn  Mn3  1  0.31547196  0.61734837  0.30472251  1
  Mn  Mn4  1  0.68452804  0.38265163  0.69527749  1
  Mn  Mn5  1  0.72043237  0.46650301  0.06885656  1
  Mn  Mn6  1  0.72951363  0.07941081  0.06832753  1
  Mn  Mn7  1  0.97341960  0.20197030  0.54348425  1
  O  O8  1  0.07827719  0.07787194  0.90475798  1
  O  O9  1  0.27000268  0.65322193  0.77012341  1
  O  O10  1  0.06109838  0.71180075  0.22871484  1
  O  O11  1  0.18558716  0.05883099  0.62627397  1
  O  O12  1  0.15774507  0.36474192  0.52111339  1
  O  O13  1  0.24785821  0.65921288  0.50400253  1
  O  O14  1  0.42459288  0.33670033  0.87042629  1
  O  O15  1  0.46195577  0.02956037  0.85578843  1
  O  O16  1  0.14080349  0.74439204  0.00379817  1
  O  O17  1  0.18575294  0.41822412  0.05859613  1
  O  O18  1  0.50523522  0.53615519  0.65557474  1
  O  O19  1  0.52951476  0.15364216  0.66660592  1
  O  O20  1  0.47048524  0.84635784  0.33339408  1
  O  O21  1  0.49476478  0.46384481  0.34442526  1
  O  O22  1  0.81424706  0.58177588  0.94140387  1
  O  O23  1  0.85919651  0.25560796  0.99620183  1
  O  O24  1  0.53804423  0.97043963  0.14421157  1
  O  O25  1  0.57540712  0.66329967  0.12957371  1
  O  O26  1  0.75214179  0.34078712  0.49599747  1
  O  O27  1  0.84225493  0.63525808  0.47888661  1
  O  O28  1  0.81441284  0.94116901  0.37372603  1
  O  O29  1  0.93890162  0.28819925  0.77128516  1
  O  O30  1  0.72999732  0.34677807  0.22987659  1
  O  O31  1  0.92172281  0.92212806  0.09524102  1
  P  P32  1  0.01628446  0.25247795  0.93407066  1
  P  P33  1  0.29505016  0.54801010  0.61281306  1
  P  P34  1  0.40200993  0.14252813  0.75103507  1
  P  P35  1  0.59799007  0.85747187  0.24896493  1
  P  P36  1  0.70494984  0.45198990  0.38718694  1
  P  P37  1  0.98371554  0.74752205  0.06592934  1
