# generated using pymatgen
data_UFeO4
_symmetry_space_group_name_H-M   'P 1'
_cell_length_a   4.91505743
_cell_length_b   5.17717354
_cell_length_c   12.07030085
_cell_angle_alpha   90.00000000
_cell_angle_beta   90.00000000
_cell_angle_gamma   90.00000000
_symmetry_Int_Tables_number   1
_chemical_formula_structural   UFeO4
_chemical_formula_sum   'U4 Fe4 O16'
_cell_volume   307.14214612
_cell_formula_units_Z   4
loop_
 _symmetry_equiv_pos_site_id
 _symmetry_equiv_pos_as_xyz
  1  'x, y, z'
loop_
 _atom_site_type_symbol
 _atom_site_label
 _atom_site_symmetry_multiplicity
 _atom_site_fract_x
 _atom_site_fract_y
 _atom_site_fract_z
 _atom_site_occupancy
  U  U0  1  0.00000000  0.75000000  0.82980898  1
  U  U1  1  0.50000000  0.25000000  0.67019102  1
  U  U2  1  0.00000000  0.25000000  0.17019102  1
  U  U3  1  0.50000000  0.75000000  0.32980898  1
  Fe  Fe4  1  0.00000000  0.75000000  0.56205748  1
  Fe  Fe5  1  0.50000000  0.25000000  0.93794252  1
  Fe  Fe6  1  0.00000000  0.25000000  0.43794252  1
  Fe  Fe7  1  0.50000000  0.75000000  0.06205748  1
  O  O8  1  0.23126043  0.42574703  0.55470086  1
  O  O9  1  0.73126043  0.57425297  0.94529914  1
  O  O10  1  0.26873957  0.92574703  0.94529914  1
  O  O11  1  0.76873957  0.07425297  0.55470086  1
  O  O12  1  0.76873957  0.57425297  0.44529914  1
  O  O13  1  0.26873957  0.42574703  0.05470086  1
  O  O14  1  0.73126043  0.07425297  0.05470086  1
  O  O15  1  0.23126043  0.92574703  0.44529914  1
  O  O16  1  0.22149889  0.90721298  0.69042116  1
  O  O17  1  0.72149889  0.09278702  0.80957884  1
  O  O18  1  0.27850111  0.40721298  0.80957884  1
  O  O19  1  0.77850111  0.59278702  0.69042116  1
  O  O20  1  0.77850111  0.09278702  0.30957884  1
  O  O21  1  0.27850111  0.90721298  0.19042116  1
  O  O22  1  0.72149889  0.59278702  0.19042116  1
  O  O23  1  0.22149889  0.40721298  0.30957884  1
