# generated using pymatgen
data_MgBi2
_symmetry_space_group_name_H-M   'P 1'
_cell_length_a   3.43230687
_cell_length_b   17.92690164
_cell_length_c   5.67929957
_cell_angle_alpha   90.00000000
_cell_angle_beta   90.00000000
_cell_angle_gamma   90.00000000
_symmetry_Int_Tables_number   1
_chemical_formula_structural   MgBi2
_chemical_formula_sum   'Mg4 Bi8'
_cell_volume   349.45086719
_cell_formula_units_Z   4
loop_
 _symmetry_equiv_pos_site_id
 _symmetry_equiv_pos_as_xyz
  1  'x, y, z'
loop_
 _atom_site_type_symbol
 _atom_site_label
 _atom_site_symmetry_multiplicity
 _atom_site_fract_x
 _atom_site_fract_y
 _atom_site_fract_z
 _atom_site_occupancy
  Mg  Mg0  1  0.50000000  0.28240112  0.25000000  1
  Mg  Mg1  1  0.00000000  0.21759888  0.75000000  1
  Mg  Mg2  1  0.00000000  0.78240112  0.25000000  1
  Mg  Mg3  1  0.50000000  0.71759888  0.75000000  1
  Bi  Bi4  1  -0.00000000  0.44115629  0.25000000  1
  Bi  Bi5  1  -0.00000000  0.13417129  0.25000000  1
  Bi  Bi6  1  0.50000000  0.36582871  0.75000000  1
  Bi  Bi7  1  0.50000000  0.05884371  0.75000000  1
  Bi  Bi8  1  0.50000000  0.94115629  0.25000000  1
  Bi  Bi9  1  0.50000000  0.63417129  0.25000000  1
  Bi  Bi10  1  -0.00000000  0.86582871  0.75000000  1
  Bi  Bi11  1  -0.00000000  0.55884371  0.75000000  1
