# generated using pymatgen
data_ReSbOF9
_symmetry_space_group_name_H-M   'P 1'
_cell_length_a   5.78463994
_cell_length_b   10.47959787
_cell_length_c   12.97801331
_cell_angle_alpha   90.00000000
_cell_angle_beta   99.29174453
_cell_angle_gamma   90.00000000
_symmetry_Int_Tables_number   1
_chemical_formula_structural   ReSbOF9
_chemical_formula_sum   'Re4 Sb4 O4 F36'
_cell_volume   776.41348259
_cell_formula_units_Z   4
loop_
 _symmetry_equiv_pos_site_id
 _symmetry_equiv_pos_as_xyz
  1  'x, y, z'
loop_
 _atom_site_type_symbol
 _atom_site_label
 _atom_site_symmetry_multiplicity
 _atom_site_fract_x
 _atom_site_fract_y
 _atom_site_fract_z
 _atom_site_occupancy
  Re  Re0  1  0.32369216  0.02375259  0.20340731  1
  Re  Re1  1  0.67630784  0.52375259  0.29659269  1
  Re  Re2  1  0.67630784  0.97624741  0.79659269  1
  Re  Re3  1  0.32369216  0.47624741  0.70340731  1
  Sb  Sb4  1  0.98304352  0.25508154  0.00171491  1
  Sb  Sb5  1  0.01695648  0.75508154  0.49828509  1
  Sb  Sb6  1  0.01695648  0.74491846  0.99828509  1
  Sb  Sb7  1  0.98304352  0.24491846  0.50171491  1
  O  O8  1  0.48229305  0.15189484  0.24749321  1
  O  O9  1  0.51770695  0.65189484  0.25250679  1
  O  O10  1  0.51770695  0.84810516  0.75250679  1
  O  O11  1  0.48229305  0.34810516  0.74749321  1
  F  F12  1  0.19287226  0.09560251  0.05932762  1
  F  F13  1  0.80712774  0.59560251  0.44067238  1
  F  F14  1  0.80712774  0.90439749  0.94067238  1
  F  F15  1  0.19287226  0.40439749  0.55932762  1
  F  F16  1  0.02511605  0.05367477  0.23741156  1
  F  F17  1  0.97488395  0.55367477  0.26258844  1
  F  F18  1  0.97488395  0.94632523  0.76258844  1
  F  F19  1  0.02511605  0.44632523  0.73741156  1
  F  F20  1  0.90648165  0.14598018  0.87672193  1
  F  F21  1  0.09351835  0.64598018  0.62327807  1
  F  F22  1  0.09351835  0.85401982  0.12327807  1
  F  F23  1  0.90648165  0.35401982  0.37672193  1
  F  F24  1  0.53255529  0.92893331  0.13706735  1
  F  F25  1  0.46744471  0.42893331  0.36293265  1
  F  F26  1  0.46744471  0.07106669  0.86293265  1
  F  F27  1  0.53255529  0.57106669  0.63706735  1
  F  F28  1  0.73989183  0.16964469  0.05488618  1
  F  F29  1  0.26010817  0.66964469  0.44511382  1
  F  F30  1  0.26010817  0.83035531  0.94511382  1
  F  F31  1  0.73989183  0.33035531  0.55488618  1
  F  F32  1  0.79600071  0.39280504  0.94460665  1
  F  F33  1  0.20399929  0.89280504  0.55539335  1
  F  F34  1  0.20399929  0.60719496  0.05539335  1
  F  F35  1  0.79600071  0.10719496  0.44460665  1
  F  F36  1  0.38345233  0.91306556  0.31658011  1
  F  F37  1  0.61654767  0.41306556  0.18341989  1
  F  F38  1  0.61654767  0.08693444  0.68341989  1
  F  F39  1  0.38345233  0.58693444  0.81658011  1
  F  F40  1  0.09732926  0.32720897  0.13368506  1
  F  F41  1  0.90267074  0.82720897  0.36631494  1
  F  F42  1  0.90267074  0.67279103  0.86631494  1
  F  F43  1  0.09732926  0.17279103  0.63368506  1
  F  F44  1  0.25032514  0.30605072  0.94605523  1
  F  F45  1  0.74967486  0.80605072  0.55394477  1
  F  F46  1  0.74967486  0.69394928  0.05394477  1
  F  F47  1  0.25032514  0.19394928  0.44605523  1
