# generated using pymatgen
data_LiCoP2O7
_symmetry_space_group_name_H-M   'P 1'
_cell_length_a   6.97672230
_cell_length_b   8.33271314
_cell_length_c   9.27604380
_cell_angle_alpha   90.00000000
_cell_angle_beta   112.78628662
_cell_angle_gamma   90.00000000
_symmetry_Int_Tables_number   1
_chemical_formula_structural   LiCoP2O7
_chemical_formula_sum   'Li4 Co4 P8 O28'
_cell_volume   497.17673146
_cell_formula_units_Z   4
loop_
 _symmetry_equiv_pos_site_id
 _symmetry_equiv_pos_as_xyz
  1  'x, y, z'
loop_
 _atom_site_type_symbol
 _atom_site_label
 _atom_site_symmetry_multiplicity
 _atom_site_fract_x
 _atom_site_fract_y
 _atom_site_fract_z
 _atom_site_occupancy
  Li  Li0  1  0.39045853  0.07482224  0.59705882  1
  Li  Li1  1  0.10954147  0.57482224  0.90294118  1
  Li  Li2  1  0.60954147  0.92517776  0.40294118  1
  Li  Li3  1  0.89045853  0.42517776  0.09705882  1
  Co  Co4  1  0.88185028  0.06513885  0.18851030  1
  Co  Co5  1  0.61814972  0.56513885  0.31148970  1
  Co  Co6  1  0.11814972  0.93486115  0.81148970  1
  Co  Co7  1  0.38185028  0.43486115  0.68851030  1
  P  P8  1  0.17413567  0.73810176  0.24326312  1
  P  P9  1  0.82586433  0.26189824  0.75673688  1
  P  P10  1  0.94545560  0.28233867  0.46717388  1
  P  P11  1  0.44545560  0.21766133  0.96717388  1
  P  P12  1  0.32586433  0.23810176  0.25673688  1
  P  P13  1  0.55454440  0.78233867  0.03282612  1
  P  P14  1  0.67413567  0.76189824  0.74326312  1
  P  P15  1  0.05454440  0.71766133  0.53282612  1
  O  O16  1  0.81439825  0.71760832  0.44954043  1
  O  O17  1  0.56901655  0.88688820  0.62198025  1
  O  O18  1  0.59069747  0.25192847  0.70933903  1
  O  O19  1  0.14257481  0.58270888  0.65182052  1
  O  O20  1  0.90930253  0.75192847  0.79066097  1
  O  O21  1  0.65153546  0.80889567  0.90580351  1
  O  O22  1  0.42770427  0.40739082  0.30226055  1
  O  O23  1  0.64257481  0.91729112  0.15182052  1
  O  O24  1  0.62723022  0.61610946  0.10982809  1
  O  O25  1  0.07229573  0.90739082  0.19773945  1
  O  O26  1  0.43098345  0.11311180  0.37801975  1
  O  O27  1  0.57229573  0.59260918  0.69773945  1
  O  O28  1  0.93098345  0.38688820  0.87801975  1
  O  O29  1  0.15153546  0.69110433  0.40580351  1
  O  O30  1  0.40930253  0.74807153  0.29066097  1
  O  O31  1  0.84846454  0.30889567  0.59419649  1
  O  O32  1  0.34846454  0.19110433  0.09419649  1
  O  O33  1  0.09069747  0.24807153  0.20933903  1
  O  O34  1  0.92770427  0.09260918  0.80226055  1
  O  O35  1  0.35742519  0.08270888  0.84817948  1
  O  O36  1  0.37276978  0.38389054  0.89017191  1
  O  O37  1  0.06901655  0.61311180  0.12198025  1
  O  O38  1  0.18560175  0.28239168  0.55045957  1
  O  O39  1  0.87276978  0.11610946  0.39017191  1
  O  O40  1  0.85742519  0.41729212  0.34817948  1
  O  O41  1  0.68560175  0.21760832  0.05045957  1
  O  O42  1  0.12723022  0.88389054  0.60982809  1
  O  O43  1  0.31439825  0.78239168  0.94954043  1
