# generated using pymatgen
data_Li5Mn9(P2O7)8
_symmetry_space_group_name_H-M   'P 1'
_cell_length_a   11.01132135
_cell_length_b   9.68571836
_cell_length_c   12.96153025
_cell_angle_alpha   82.53863383
_cell_angle_beta   64.51513095
_cell_angle_gamma   108.28361821
_symmetry_Int_Tables_number   1
_chemical_formula_structural   Li5Mn9(P2O7)8
_chemical_formula_sum   'Li5 Mn9 P16 O56'
_cell_volume   1126.89327807
_cell_formula_units_Z   1
loop_
 _symmetry_equiv_pos_site_id
 _symmetry_equiv_pos_as_xyz
  1  'x, y, z'
loop_
 _atom_site_type_symbol
 _atom_site_label
 _atom_site_symmetry_multiplicity
 _atom_site_fract_x
 _atom_site_fract_y
 _atom_site_fract_z
 _atom_site_occupancy
  Li  Li0  1  0.22007859  0.85883296  0.30168480  1
  Li  Li1  1  0.26385737  0.62886756  0.21608207  1
  Li  Li2  1  0.97312352  0.96660541  0.00960036  1
  Li  Li3  1  0.72326130  0.36185278  0.79572351  1
  Li  Li4  1  0.79057612  0.15144923  0.68894456  1
  Mn  Mn5  1  0.05576757  0.05495140  0.19727473  1
  Mn  Mn6  1  0.20741514  0.81549396  0.58320134  1
  Mn  Mn7  1  0.43520521  0.43803813  0.29654908  1
  Mn  Mn8  1  0.28897201  0.68800534  0.92713662  1
  Mn  Mn9  1  0.49768476  0.49785665  0.50165573  1
  Mn  Mn10  1  0.70992180  0.31183526  0.07688512  1
  Mn  Mn11  1  0.56293460  0.55819377  0.70494695  1
  Mn  Mn12  1  0.78748225  0.17861483  0.42197023  1
  Mn  Mn13  1  0.94003967  0.94498895  0.80140467  1
  O  O14  1  0.06640416  0.90090450  0.11493980  1
  O  O15  1  0.09548285  0.66741537  0.05925768  1
  O  O16  1  0.12455631  0.72401050  0.23579745  1
  O  O17  1  0.03938102  0.20969490  0.28153657  1
  O  O18  1  0.05497802  0.71718054  0.53535399  1
  O  O19  1  0.18351299  0.21096460  0.03467463  1
  O  O20  1  0.26807934  0.49781803  0.01769046  1
  O  O21  1  0.10919131  0.94494899  0.84989620  1
  O  O22  1  0.22208057  0.42221808  0.31003975  1
  O  O23  1  0.11975063  0.14595565  0.42875219  1
  O  O24  1  0.36829409  0.76109871  0.27904989  1
  O  O25  1  0.15660449  0.60960184  0.66668632  1
  O  O26  1  0.38721312  0.35083218  0.07184901  1
  O  O27  1  0.26961732  0.06978788  0.19657610  1
  O  O28  1  0.07483087  0.10895674  0.64263860  1
  O  O29  1  0.29950029  0.91013707  0.66628350  1
  O  O30  1  0.12415550  0.35340009  0.76210809  1
  O  O31  1  0.40081340  0.81746922  0.45521643  1
  O  O32  1  0.22101390  0.57800567  0.83226024  1
  O  O33  1  0.44151321  0.59292089  0.38821755  1
  O  O34  1  0.32015189  0.29784391  0.46601332  1
  O  O35  1  0.24432992  0.01225675  0.48956670  1
  O  O36  1  0.56897746  0.59978219  0.14468228  1
  O  O37  1  0.32441533  0.88727410  0.85005063  1
  O  O38  1  0.45756665  0.27993875  0.22202923  1
  O  O39  1  0.55036942  0.20680088  0.03670748  1
  O  O40  1  0.62488796  0.85593073  0.26383847  1
  O  O41  1  0.38114077  0.54806587  0.64026038  1
  O  O42  1  0.61555097  0.44837829  0.36288778  1
  O  O43  1  0.36867430  0.13999892  0.73963127  1
  O  O44  1  0.45494966  0.79833051  0.95859247  1
  O  O45  1  0.66824677  0.10975624  0.15482504  1
  O  O46  1  0.54759436  0.71901143  0.77628435  1
  O  O47  1  0.42769430  0.39931740  0.85876941  1
  O  O48  1  0.75157412  0.98132048  0.51318031  1
  O  O49  1  0.55347601  0.40205206  0.61498001  1
  O  O50  1  0.67873303  0.69688371  0.53326672  1
  O  O51  1  0.77909132  0.41593661  0.17304896  1
  O  O52  1  0.59382093  0.17589939  0.54979592  1
  O  O53  1  0.87260787  0.64218597  0.24280396  1
  O  O54  1  0.69944935  0.08664762  0.33538609  1
  O  O55  1  0.92215672  0.89084753  0.35542803  1
  O  O56  1  0.73522817  0.93111216  0.79994364  1
  O  O57  1  0.61658563  0.65213973  0.92920668  1
  O  O58  1  0.83803879  0.38624612  0.34185650  1
  O  O59  1  0.62595811  0.23477294  0.72522036  1
  O  O60  1  0.88106359  0.84841496  0.56834700  1
  O  O61  1  0.88360306  0.04734633  0.15014233  1
  O  O62  1  0.77335113  0.57288661  0.69348753  1
  O  O63  1  0.73500953  0.50566749  0.98689559  1
  O  O64  1  0.81478003  0.79154137  0.97195684  1
  O  O65  1  0.94146170  0.27358763  0.47077473  1
  O  O66  1  0.95545019  0.78789831  0.72079342  1
  O  O67  1  0.87353445  0.27777670  0.76663449  1
  O  O68  1  0.90070775  0.32684961  0.94550914  1
  O  O69  1  0.92738915  0.09455949  0.88581069  1
  P  P70  1  0.05260809  0.73676451  0.16063953  1
  P  P71  1  0.08307438  0.27351907  0.37049672  1
  P  P72  1  0.26567662  0.95897977  0.77928748  1
  P  P73  1  0.19116903  0.13810540  0.51387886  1
  P  P74  1  0.44889218  0.76160244  0.34820300  1
  P  P75  1  0.41147003  0.21416640  0.13336978  1
  P  P76  1  0.22143036  0.53177126  0.72554997  1
  P  P77  1  0.68817059  0.63570413  0.01336043  1
  P  P78  1  0.31160485  0.36594590  0.99070420  1
  P  P79  1  0.77550320  0.46368973  0.28007488  1
  P  P80  1  0.54513395  0.23307375  0.65616177  1
  P  P81  1  0.59249800  0.78695690  0.86442495  1
  P  P82  1  0.80673819  0.85724962  0.48567464  1
  P  P83  1  0.72875035  0.03680377  0.22335669  1
  P  P84  1  0.91325815  0.72073191  0.63202764  1
  P  P85  1  0.94406934  0.26052398  0.84229753  1
