# generated using pymatgen
data_SiI2
_symmetry_space_group_name_H-M   'P 1'
_cell_length_a   11.58492207
_cell_length_b   15.28707089
_cell_length_c   17.00817106
_cell_angle_alpha   90.00000000
_cell_angle_beta   90.00000000
_cell_angle_gamma   101.28192106
_symmetry_Int_Tables_number   1
_chemical_formula_structural   SiI2
_chemical_formula_sum   'Si20 I40'
_cell_volume   2953.93376111
_cell_formula_units_Z   20
loop_
 _symmetry_equiv_pos_site_id
 _symmetry_equiv_pos_as_xyz
  1  'x, y, z'
loop_
 _atom_site_type_symbol
 _atom_site_label
 _atom_site_symmetry_multiplicity
 _atom_site_fract_x
 _atom_site_fract_y
 _atom_site_fract_z
 _atom_site_occupancy
  Si  Si0  1  0.10118615  0.03935335  0.17340229  1
  Si  Si1  1  0.39881385  0.46064665  0.67340229  1
  Si  Si2  1  0.89881385  0.96064665  0.82659771  1
  Si  Si3  1  0.60118615  0.53935335  0.32659771  1
  Si  Si4  1  0.09552820  0.03473402  0.31526969  1
  Si  Si5  1  0.40447180  0.46526598  0.81526969  1
  Si  Si6  1  0.90447180  0.96526598  0.68473031  1
  Si  Si7  1  0.59552820  0.53473402  0.18473031  1
  Si  Si8  1  0.28838382  0.01936880  0.35459260  1
  Si  Si9  1  0.21161618  0.48063120  0.85459260  1
  Si  Si10  1  0.71161618  0.98063120  0.64540740  1
  Si  Si11  1  0.78838382  0.51936880  0.14540740  1
  Si  Si12  1  0.35129289  0.93126816  0.25383719  1
  Si  Si13  1  0.14870711  0.56873184  0.75383719  1
  Si  Si14  1  0.64870711  0.06873184  0.74616281  1
  Si  Si15  1  0.85129289  0.43126816  0.24616281  1
  Si  Si16  1  0.27145431  0.97931938  0.13474659  1
  Si  Si17  1  0.22854569  0.52068062  0.63474659  1
  Si  Si18  1  0.72854569  0.02068062  0.86525341  1
  Si  Si19  1  0.77145431  0.47931938  0.36525341  1
  I  I20  1  0.12033863  0.19464677  0.12864066  1
  I  I21  1  0.37966137  0.30535323  0.62864066  1
  I  I22  1  0.87966137  0.80535323  0.87135934  1
  I  I23  1  0.62033863  0.69464677  0.37135934  1
  I  I24  1  0.91923143  0.94839976  0.11971113  1
  I  I25  1  0.58076857  0.55160024  0.61971113  1
  I  I26  1  0.08076857  0.05160024  0.88028887  1
  I  I27  1  0.41923143  0.44839976  0.38028887  1
  I  I28  1  0.95636797  0.90052746  0.35874094  1
  I  I29  1  0.54363203  0.59947254  0.85874094  1
  I  I30  1  0.04363203  0.09947254  0.64125906  1
  I  I31  1  0.45636797  0.40052746  0.14125906  1
  I  I32  1  0.04290245  0.16938229  0.37249709  1
  I  I33  1  0.45709755  0.33061771  0.87249709  1
  I  I34  1  0.95709755  0.83061771  0.62750291  1
  I  I35  1  0.54290245  0.66938229  0.12750291  1
  I  I36  1  0.41411362  0.16883457  0.34510748  1
  I  I37  1  0.08588638  0.33116543  0.84510748  1
  I  I38  1  0.58588638  0.83116543  0.65489252  1
  I  I39  1  0.91411362  0.66883457  0.15489252  1
  I  I40  1  0.29495629  0.95573290  0.48675844  1
  I  I41  1  0.20504371  0.54426710  0.98675844  1
  I  I42  1  0.70504371  0.04426710  0.51324156  1
  I  I43  1  0.79495629  0.45573290  0.01324156  1
  I  I44  1  0.25710244  0.77490694  0.27958775  1
  I  I45  1  0.24289756  0.72509306  0.77958775  1
  I  I46  1  0.74289756  0.22509306  0.72041225  1
  I  I47  1  0.75710244  0.27490694  0.22041225  1
  I  I48  1  0.56698611  0.94808854  0.24891896  1
  I  I49  1  0.93301389  0.55191146  0.74891896  1
  I  I50  1  0.43301389  0.05191146  0.75108104  1
  I  I51  1  0.06698611  0.44808854  0.25108104  1
  I  I52  1  0.42088840  0.09712827  0.07469181  1
  I  I53  1  0.07911160  0.40287173  0.57469181  1
  I  I54  1  0.57911160  0.90287173  0.92530819  1
  I  I55  1  0.92088840  0.59712827  0.42530819  1
  I  I56  1  0.22061968  0.85317336  0.04256903  1
  I  I57  1  0.27938032  0.64682664  0.54256903  1
  I  I58  1  0.77938032  0.14682664  0.95743097  1
  I  I59  1  0.72061968  0.35317336  0.45743097  1
