# generated using pymatgen
data_Ba4Fe2S4I5
_symmetry_space_group_name_H-M   'P 1'
_cell_length_a   5.17167830
_cell_length_b   10.23098520
_cell_length_c   10.23098490
_cell_angle_alpha   86.33742368
_cell_angle_beta   75.35993762
_cell_angle_gamma   75.35993942
_symmetry_Int_Tables_number   1
_chemical_formula_structural   Ba4Fe2S4I5
_chemical_formula_sum   'Ba4 Fe2 S4 I5'
_cell_volume   506.75459287
_cell_formula_units_Z   1
loop_
 _symmetry_equiv_pos_site_id
 _symmetry_equiv_pos_as_xyz
  1  'x, y, z'
loop_
 _atom_site_type_symbol
 _atom_site_label
 _atom_site_symmetry_multiplicity
 _atom_site_fract_x
 _atom_site_fract_y
 _atom_site_fract_z
 _atom_site_occupancy
  Ba  Ba0  1  0.06062139  0.68898717  0.18977005  1
  Ba  Ba1  1  0.25039144  0.81022995  0.68898717  1
  Ba  Ba2  1  0.74960856  0.18977005  0.31101283  1
  Ba  Ba3  1  0.93937861  0.31101283  0.81022995  1
  Fe  Fe4  1  0.25000000  0.50000000  0.50000000  1
  Fe  Fe5  1  0.75000000  0.50000000  0.50000000  1
  S  S6  1  0.89964220  0.68582061  0.51489498  1
  S  S7  1  0.41453718  0.48510502  0.68582061  1
  S  S8  1  0.10035780  0.31417939  0.48510502  1
  S  S9  1  0.58546282  0.51489498  0.31417939  1
  I  I10  1  0.29669666  0.33399321  0.07261346  1
  I  I11  1  0.36931013  0.92738654  0.33399321  1
  I  I12  1  0.70330334  0.66600679  0.92738654  1
  I  I13  1  0.00000000  0.00000000  0.00000000  1
  I  I14  1  0.63068987  0.07261346  0.66600679  1
