# generated using pymatgen
data_Zn3(PO4)2
_symmetry_space_group_name_H-M   'P 1'
_cell_length_a   8.42632765
_cell_length_b   8.88100502
_cell_length_c   9.24296819
_cell_angle_alpha   90.00000000
_cell_angle_beta   90.00000000
_cell_angle_gamma   113.00266732
_symmetry_Int_Tables_number   1
_chemical_formula_structural   Zn3(PO4)2
_chemical_formula_sum   'Zn12 P8 O32'
_cell_volume   636.69203427
_cell_formula_units_Z   4
loop_
 _symmetry_equiv_pos_site_id
 _symmetry_equiv_pos_as_xyz
  1  'x, y, z'
loop_
 _atom_site_type_symbol
 _atom_site_label
 _atom_site_symmetry_multiplicity
 _atom_site_fract_x
 _atom_site_fract_y
 _atom_site_fract_z
 _atom_site_occupancy
  Zn  Zn0  1  0.98498504  0.12900889  0.89178065  1
  Zn  Zn1  1  0.98498504  0.62900889  0.60821935  1
  Zn  Zn2  1  0.01501496  0.37099111  0.39178065  1
  Zn  Zn3  1  0.58366946  0.96688086  0.23265236  1
  Zn  Zn4  1  0.70834434  0.94799578  0.61155478  1
  Zn  Zn5  1  0.29165566  0.05200422  0.38844522  1
  Zn  Zn6  1  0.41633054  0.53311914  0.73265236  1
  Zn  Zn7  1  0.58366946  0.46688086  0.26734764  1
  Zn  Zn8  1  0.29165566  0.55200422  0.11155478  1
  Zn  Zn9  1  0.70834434  0.44799578  0.88844522  1
  Zn  Zn10  1  0.41633054  0.03311914  0.76734764  1
  Zn  Zn11  1  0.01501496  0.87099111  0.10821935  1
  P  P12  1  0.14293879  0.68129973  0.88563312  1
  P  P13  1  0.85706121  0.31870027  0.11436688  1
  P  P14  1  0.35523495  0.69128295  0.43841036  1
  P  P15  1  0.35523495  0.19128295  0.06158964  1
  P  P16  1  0.14293879  0.18129973  0.61436688  1
  P  P17  1  0.64476505  0.80871705  0.93841036  1
  P  P18  1  0.85706121  0.81870027  0.38563312  1
  P  P19  1  0.64476505  0.30871705  0.56158964  1
  O  O20  1  0.74886132  0.92621124  0.39951428  1
  O  O21  1  0.46767898  0.19825442  0.92653920  1
  O  O22  1  0.39354001  0.36887339  0.11599684  1
  O  O23  1  0.77506022  0.67924704  0.27647583  1
  O  O24  1  0.25113868  0.57378876  0.89951428  1
  O  O25  1  0.12725680  0.23422653  0.45837380  1
  O  O26  1  0.96028676  0.08081609  0.68276929  1
  O  O27  1  0.16046658  0.60459493  0.47790423  1
  O  O28  1  0.87274320  0.26577347  0.95837380  1
  O  O29  1  0.53232102  0.80174558  0.07346080  1
  O  O30  1  0.60851497  0.40916281  0.68528986  1
  O  O31  1  0.16046658  0.10459493  0.02209577  1
  O  O32  1  0.53232102  0.30174558  0.42653920  1
  O  O33  1  0.12725680  0.73422653  0.04162620  1
  O  O34  1  0.74886132  0.42621124  0.10048572  1
  O  O35  1  0.83953342  0.39540507  0.52209577  1
  O  O36  1  0.22493978  0.32075296  0.72352417  1
  O  O37  1  0.77506022  0.17924704  0.22352417  1
  O  O38  1  0.03971324  0.91918391  0.31723071  1
  O  O39  1  0.39354001  0.86887339  0.38400316  1
  O  O40  1  0.22493978  0.82075296  0.77647583  1
  O  O41  1  0.96028676  0.58081609  0.81723071  1
  O  O42  1  0.60645999  0.13112661  0.61599684  1
  O  O43  1  0.83953342  0.89540507  0.97790423  1
  O  O44  1  0.25113868  0.07378876  0.60048572  1
  O  O45  1  0.39148503  0.09083719  0.18528986  1
  O  O46  1  0.03971324  0.41918391  0.18276929  1
  O  O47  1  0.87274320  0.76577347  0.54162620  1
  O  O48  1  0.60645999  0.63112661  0.88400316  1
  O  O49  1  0.46767898  0.69825442  0.57346080  1
  O  O50  1  0.39148503  0.59083719  0.31471014  1
  O  O51  1  0.60851497  0.90916281  0.81471014  1
