# generated using pymatgen
data_RbLaNb2O7
_symmetry_space_group_name_H-M   'P 1'
_cell_length_a   5.58484680
_cell_length_b   5.54944186
_cell_length_c   11.92995060
_cell_angle_alpha   103.45570423
_cell_angle_beta   103.54577389
_cell_angle_gamma   90.00038909
_symmetry_Int_Tables_number   1
_chemical_formula_structural   RbLaNb2O7
_chemical_formula_sum   'Rb2 La2 Nb4 O14'
_cell_volume   349.00878085
_cell_formula_units_Z   2
loop_
 _symmetry_equiv_pos_site_id
 _symmetry_equiv_pos_as_xyz
  1  'x, y, z'
loop_
 _atom_site_type_symbol
 _atom_site_label
 _atom_site_symmetry_multiplicity
 _atom_site_fract_x
 _atom_site_fract_y
 _atom_site_fract_z
 _atom_site_occupancy
  Rb  Rb0  1  0.50000000  0.50000000  0.00000000  1
  Rb  Rb1  1  0.00000000  0.00000000  0.00000000  1
  La  La2  1  0.23549488  0.24998809  0.49999520  1
  La  La3  1  0.76450512  0.75001191  0.50000480  1
  Nb  Nb4  1  0.84829053  0.35283162  0.70562767  1
  Nb  Nb5  1  0.35739633  0.85280662  0.70562442  1
  Nb  Nb6  1  0.15170947  0.64716838  0.29437233  1
  Nb  Nb7  1  0.64260367  0.14719338  0.29437558  1
  O  O8  1  0.42577306  0.42579340  0.35164438  1
  O  O9  1  0.81761319  0.24999944  0.49997295  1
  O  O10  1  0.51828932  0.06787088  0.13599805  1
  O  O11  1  0.57422694  0.57420660  0.64835562  1
  O  O12  1  0.88260846  0.43214217  0.86402306  1
  O  O13  1  0.09437411  0.59430864  0.68865046  1
  O  O14  1  0.18238681  0.75000056  0.50002705  1
  O  O15  1  0.09429259  0.09429517  0.68864502  1
  O  O16  1  0.11739154  0.56785783  0.13597694  1
  O  O17  1  0.90570741  0.90570483  0.31135498  1
  O  O18  1  0.42582810  0.92577293  0.35164581  1
  O  O19  1  0.48171068  0.93212912  0.86400195  1
  O  O20  1  0.90562589  0.40569136  0.31134954  1
  O  O21  1  0.57417190  0.07422707  0.64835419  1
