# generated using pymatgen
data_ZrPbO3
_symmetry_space_group_name_H-M   'P 1'
_cell_length_a   5.97892445
_cell_length_b   8.31703519
_cell_length_c   11.94582347
_cell_angle_alpha   90.00000000
_cell_angle_beta   90.00000000
_cell_angle_gamma   90.00000000
_symmetry_Int_Tables_number   1
_chemical_formula_structural   ZrPbO3
_chemical_formula_sum   'Zr8 Pb8 O24'
_cell_volume   594.02906834
_cell_formula_units_Z   8
loop_
 _symmetry_equiv_pos_site_id
 _symmetry_equiv_pos_as_xyz
  1  'x, y, z'
loop_
 _atom_site_type_symbol
 _atom_site_label
 _atom_site_symmetry_multiplicity
 _atom_site_fract_x
 _atom_site_fract_y
 _atom_site_fract_z
 _atom_site_occupancy
  Pb  Pb0  1  0.30439508  0.00000000  0.87641807  1
  Pb  Pb1  1  0.80439508  0.00000000  0.62358193  1
  Pb  Pb2  1  0.69560492  0.00000000  0.12358193  1
  Pb  Pb3  1  0.19560492  0.00000000  0.37641807  1
  Pb  Pb4  1  0.29245959  0.50000000  0.87180793  1
  Pb  Pb5  1  0.79245959  0.50000000  0.62819207  1
  Pb  Pb6  1  0.70754041  0.50000000  0.12819207  1
  Pb  Pb7  1  0.20754041  0.50000000  0.37180793  1
  Zr  Zr8  1  0.75817793  0.75018855  0.87578612  1
  Zr  Zr9  1  0.25817793  0.24981145  0.62421388  1
  Zr  Zr10  1  0.24182207  0.75018855  0.12421388  1
  Zr  Zr11  1  0.74182207  0.24981145  0.37578612  1
  Zr  Zr12  1  0.24182207  0.24981145  0.12421388  1
  Zr  Zr13  1  0.74182207  0.75018855  0.37578612  1
  Zr  Zr14  1  0.75817793  0.24981145  0.87578612  1
  Zr  Zr15  1  0.25817793  0.75018855  0.62421388  1
  O  O16  1  0.72439636  0.00000000  0.84274311  1
  O  O17  1  0.22439636  0.00000000  0.65725689  1
  O  O18  1  0.27560364  0.00000000  0.15725689  1
  O  O19  1  0.77560364  0.00000000  0.34274311  1
  O  O20  1  0.69725146  0.50000000  0.90574837  1
  O  O21  1  0.19725146  0.50000000  0.59425163  1
  O  O22  1  0.30274854  0.50000000  0.09425163  1
  O  O23  1  0.80274854  0.50000000  0.40574837  1
  O  O24  1  0.96418505  0.71862633  0.73760049  1
  O  O25  1  0.46418505  0.28137367  0.76239951  1
  O  O26  1  0.03581495  0.71862633  0.26239951  1
  O  O27  1  0.53581495  0.28137367  0.23760049  1
  O  O28  1  0.03581495  0.28137367  0.26239951  1
  O  O29  1  0.53581495  0.71862633  0.23760049  1
  O  O30  1  0.96418505  0.28137367  0.73760049  1
  O  O31  1  0.46418505  0.71862633  0.76239951  1
  O  O32  1  0.00000000  0.79914744  0.50000000  1
  O  O33  1  0.50000000  0.20085256  0.00000000  1
  O  O34  1  0.00000000  0.20085256  0.50000000  1
  O  O35  1  0.50000000  0.79914744  0.00000000  1
  O  O36  1  0.00000000  0.76799719  0.00000000  1
  O  O37  1  0.50000000  0.23200281  0.50000000  1
  O  O38  1  0.00000000  0.23200281  0.00000000  1
  O  O39  1  0.50000000  0.76799719  0.50000000  1
