# generated using pymatgen
data_AsS
_symmetry_space_group_name_H-M   'P 1'
_cell_length_a   7.68063129
_cell_length_b   10.70803534
_cell_length_c   11.83797317
_cell_angle_alpha   90.00000000
_cell_angle_beta   93.44445794
_cell_angle_gamma   90.00000000
_symmetry_Int_Tables_number   1
_chemical_formula_structural   AsS
_chemical_formula_sum   'As16 S16'
_cell_volume   971.84903127
_cell_formula_units_Z   16
loop_
 _symmetry_equiv_pos_site_id
 _symmetry_equiv_pos_as_xyz
  1  'x, y, z'
loop_
 _atom_site_type_symbol
 _atom_site_label
 _atom_site_symmetry_multiplicity
 _atom_site_fract_x
 _atom_site_fract_y
 _atom_site_fract_z
 _atom_site_occupancy
  As  As0  1  0.19901398  0.84052210  0.49459358  1
  As  As1  1  0.30098602  0.34052210  0.00540642  1
  As  As2  1  0.80098602  0.15947790  0.50540642  1
  As  As3  1  0.69901398  0.65947790  0.99459358  1
  As  As4  1  0.49206777  0.65198687  0.32448873  1
  As  As5  1  0.00793223  0.15198687  0.17551127  1
  As  As6  1  0.50793223  0.34801313  0.67551127  1
  As  As7  1  0.99206777  0.84801313  0.82448873  1
  As  As8  1  0.05623218  0.62617958  0.26022275  1
  As  As9  1  0.44376782  0.12617958  0.23977725  1
  As  As10  1  0.94376782  0.37382042  0.73977725  1
  As  As11  1  0.55623218  0.87382042  0.76022275  1
  As  As12  1  0.25704752  0.52303317  0.41392513  1
  As  As13  1  0.24295248  0.02303317  0.08607487  1
  As  As14  1  0.74295248  0.47696683  0.58607487  1
  As  As15  1  0.75704752  0.97696683  0.91392513  1
  S  S16  1  0.46174810  0.83674651  0.41532972  1
  S  S17  1  0.03825190  0.33674651  0.08467028  1
  S  S18  1  0.53825190  0.16325349  0.58467028  1
  S  S19  1  0.96174810  0.66325349  0.91532972  1
  S  S20  1  0.30478573  0.66161123  0.16657844  1
  S  S21  1  0.19521427  0.16161123  0.33342156  1
  S  S22  1  0.69521427  0.33838877  0.83342156  1
  S  S23  1  0.80478573  0.83838877  0.66657844  1
  S  S24  1  0.99885831  0.80772541  0.34832969  1
  S  S25  1  0.50114169  0.30772541  0.15167031  1
  S  S26  1  0.00114169  0.19227459  0.65167031  1
  S  S27  1  0.49885831  0.69227459  0.84832969  1
  S  S28  1  0.20713265  0.63987845  0.56290127  1
  S  S29  1  0.29286735  0.13987845  0.93709873  1
  S  S30  1  0.79286735  0.36012155  0.43709873  1
  S  S31  1  0.70713265  0.86012155  0.06290127  1
