# generated using pymatgen
data_Ce2SiTeO4
_symmetry_space_group_name_H-M   'P 1'
_cell_length_a   6.41112892
_cell_length_b   7.29058401
_cell_length_c   11.31500415
_cell_angle_alpha   90.00000000
_cell_angle_beta   90.00000000
_cell_angle_gamma   90.00000000
_symmetry_Int_Tables_number   1
_chemical_formula_structural   Ce2SiTeO4
_chemical_formula_sum   'Ce8 Si4 Te4 O16'
_cell_volume   528.87318317
_cell_formula_units_Z   4
loop_
 _symmetry_equiv_pos_site_id
 _symmetry_equiv_pos_as_xyz
  1  'x, y, z'
loop_
 _atom_site_type_symbol
 _atom_site_label
 _atom_site_symmetry_multiplicity
 _atom_site_fract_x
 _atom_site_fract_y
 _atom_site_fract_z
 _atom_site_occupancy
  Ce  Ce0  1  0.11216035  0.03924689  0.25000000  1
  Ce  Ce1  1  0.11216035  0.46075311  0.75000000  1
  Ce  Ce2  1  0.88783965  0.53924689  0.25000000  1
  Ce  Ce3  1  0.88783965  0.96075311  0.75000000  1
  Ce  Ce4  1  0.61008946  0.25000000  0.00000000  1
  Ce  Ce5  1  0.38991054  0.75000000  0.50000000  1
  Ce  Ce6  1  0.38991054  0.75000000  0.00000000  1
  Ce  Ce7  1  0.61008946  0.25000000  0.50000000  1
  Te  Te8  1  0.40200064  0.42887252  0.25000000  1
  Te  Te9  1  0.40200064  0.07112748  0.75000000  1
  Te  Te10  1  0.59799936  0.92887252  0.25000000  1
  Te  Te11  1  0.59799936  0.57112748  0.75000000  1
  Si  Si12  1  0.11365915  0.25000000  0.00000000  1
  Si  Si13  1  0.88634085  0.75000000  0.50000000  1
  Si  Si14  1  0.88634085  0.75000000  0.00000000  1
  Si  Si15  1  0.11365915  0.25000000  0.50000000  1
  O  O16  1  0.04665415  0.77040752  0.11497587  1
  O  O17  1  0.04665415  0.72959248  0.88502413  1
  O  O18  1  0.95334585  0.27040752  0.38502413  1
  O  O19  1  0.95334585  0.22959248  0.61497587  1
  O  O20  1  0.95334585  0.22959248  0.88502413  1
  O  O21  1  0.95334585  0.27040752  0.11497587  1
  O  O22  1  0.04665415  0.72959248  0.61497587  1
  O  O23  1  0.04665415  0.77040752  0.38502413  1
  O  O24  1  0.26761815  0.07810321  0.03589604  1
  O  O25  1  0.26761815  0.42189679  0.96410396  1
  O  O26  1  0.73238185  0.57810321  0.46410396  1
  O  O27  1  0.73238185  0.92189679  0.53589604  1
  O  O28  1  0.73238185  0.92189679  0.96410396  1
  O  O29  1  0.73238185  0.57810321  0.03589604  1
  O  O30  1  0.26761815  0.42189679  0.53589604  1
  O  O31  1  0.26761815  0.07810321  0.46410396  1
