# generated using pymatgen
data_Pr2O3
_symmetry_space_group_name_H-M   'P 1'
_cell_length_a   3.74268186
_cell_length_b   7.56823714
_cell_length_c   9.13814520
_cell_angle_alpha   99.85081114
_cell_angle_beta   90.00000000
_cell_angle_gamma   104.31557758
_symmetry_Int_Tables_number   1
_chemical_formula_structural   Pr2O3
_chemical_formula_sum   'Pr6 O9'
_cell_volume   246.86468149
_cell_formula_units_Z   3
loop_
 _symmetry_equiv_pos_site_id
 _symmetry_equiv_pos_as_xyz
  1  'x, y, z'
loop_
 _atom_site_type_symbol
 _atom_site_label
 _atom_site_symmetry_multiplicity
 _atom_site_fract_x
 _atom_site_fract_y
 _atom_site_fract_z
 _atom_site_occupancy
  Pr  Pr0  1  0.96672785  0.93345570  0.18822873  1
  Pr  Pr1  1  0.03327215  0.06654430  0.81177127  1
  Pr  Pr2  1  0.30920310  0.61840620  0.86193065  1
  Pr  Pr3  1  0.63444158  0.26888316  0.48999136  1
  Pr  Pr4  1  0.36555842  0.73111684  0.51000864  1
  Pr  Pr5  1  0.69079690  0.38159380  0.13806935  1
  O  O6  1  0.12918454  0.25836909  0.28582535  1
  O  O7  1  0.17546871  0.35093742  0.97365118  1
  O  O8  1  0.47390943  0.94781886  0.34407071  1
  O  O9  1  0.79825786  0.59651572  0.37302614  1
  O  O10  1  0.87081546  0.74163091  0.71417465  1
  O  O11  1  0.50000000  0.00000000  0.00000000  1
  O  O12  1  0.52609057  0.05218114  0.65592929  1
  O  O13  1  0.82453129  0.64906258  0.02634882  1
  O  O14  1  0.20174214  0.40348428  0.62697386  1
