# generated using pymatgen
data_SiO2
_symmetry_space_group_name_H-M   'P 1'
_cell_length_a   9.04988595
_cell_length_b   9.05888458
_cell_length_c   16.23303011
_cell_angle_alpha   90.00000000
_cell_angle_beta   90.00000000
_cell_angle_gamma   90.00000000
_symmetry_Int_Tables_number   1
_chemical_formula_structural   SiO2
_chemical_formula_sum   'Si32 O64'
_cell_volume   1330.81420125
_cell_formula_units_Z   32
loop_
 _symmetry_equiv_pos_site_id
 _symmetry_equiv_pos_as_xyz
  1  'x, y, z'
loop_
 _atom_site_type_symbol
 _atom_site_label
 _atom_site_symmetry_multiplicity
 _atom_site_fract_x
 _atom_site_fract_y
 _atom_site_fract_z
 _atom_site_occupancy
  Si  Si0  1  0.55339707  0.96958504  0.65635072  1
  Si  Si1  1  0.21990676  0.19693054  0.09366294  1
  Si  Si2  1  0.44660293  0.03041496  0.34364928  1
  Si  Si3  1  0.28009324  0.69693054  0.09366294  1
  Si  Si4  1  0.05339707  0.53041496  0.34364928  1
  Si  Si5  1  0.94660293  0.03041496  0.15635072  1
  Si  Si6  1  0.05339880  0.46971661  0.15629636  1
  Si  Si7  1  0.21992226  0.69683067  0.90630110  1
  Si  Si8  1  0.44660293  0.46958504  0.84364928  1
  Si  Si9  1  0.71992226  0.69683067  0.59369890  1
  Si  Si10  1  0.44660120  0.53028339  0.65629636  1
  Si  Si11  1  0.78007774  0.19683067  0.59369890  1
  Si  Si12  1  0.28009324  0.80306946  0.59366294  1
  Si  Si13  1  0.55339880  0.03028339  0.84370364  1
  Si  Si14  1  0.71990676  0.30306946  0.90633706  1
  Si  Si15  1  0.94660120  0.96971661  0.34370364  1
  Si  Si16  1  0.55339880  0.46971661  0.34370364  1
  Si  Si17  1  0.21990676  0.30306946  0.59366294  1
  Si  Si18  1  0.55339707  0.53041496  0.15635072  1
  Si  Si19  1  0.05339707  0.96958504  0.84364928  1
  Si  Si20  1  0.78007774  0.30316933  0.09369890  1
  Si  Si21  1  0.78009324  0.80306946  0.90633706  1
  Si  Si22  1  0.94660120  0.53028339  0.84370364  1
  Si  Si23  1  0.28007774  0.19683067  0.90630110  1
  Si  Si24  1  0.71992226  0.80316933  0.09369890  1
  Si  Si25  1  0.21992226  0.80316933  0.40630110  1
  Si  Si26  1  0.94660293  0.46958504  0.65635072  1
  Si  Si27  1  0.44660120  0.96971661  0.15629636  1
  Si  Si28  1  0.78009324  0.69693054  0.40633706  1
  Si  Si29  1  0.71990676  0.19693054  0.40633706  1
  Si  Si30  1  0.28007774  0.30316933  0.40630110  1
  Si  Si31  1  0.05339880  0.03028339  0.65629636  1
  O  O32  1  0.67584216  0.66372753  0.15267724  1
  O  O33  1  0.32415784  0.16372753  0.34732276  1
  O  O34  1  0.62727617  0.87752366  0.87519604  1
  O  O35  1  0.12727617  0.62247634  0.12480396  1
  O  O36  1  0.41388019  0.57504729  0.09752949  1
  O  O37  1  0.82415784  0.33627247  0.65267724  1
  O  O38  1  0.82413224  0.83643006  0.34738901  1
  O  O39  1  0.12729747  0.37766090  0.37513832  1
  O  O40  1  0.62729747  0.37766090  0.12486168  1
  O  O41  1  0.37270253  0.62233910  0.87513832  1
  O  O42  1  0.99630019  0.99994008  0.74997177  1
  O  O43  1  0.87272383  0.37752366  0.87519604  1
  O  O44  1  0.17586776  0.33643006  0.15261099  1
  O  O45  1  0.74995092  0.24593493  0.00002964  1
  O  O46  1  0.58612403  0.57494096  0.59748849  1
  O  O47  1  0.32415784  0.33627247  0.84732276  1
  O  O48  1  0.08612403  0.57494096  0.90251151  1
  O  O49  1  0.62729747  0.12233910  0.62486168  1
  O  O50  1  0.49630019  0.50005992  0.25002823  1
  O  O51  1  0.75004908  0.75406507  0.50002964  1
  O  O52  1  0.67584216  0.83627247  0.65267724  1
  O  O53  1  0.25004908  0.75406507  0.99997036  1
  O  O54  1  0.24995092  0.24593493  0.49997036  1
  O  O55  1  0.32413224  0.66356994  0.65261099  1
  O  O56  1  0.91388019  0.57504729  0.40247051  1
  O  O57  1  0.87272383  0.12247634  0.37519604  1
  O  O58  1  0.91388019  0.92495271  0.90247051  1
  O  O59  1  0.12727617  0.87752366  0.62480396  1
  O  O60  1  0.41388019  0.92495271  0.59752949  1
  O  O61  1  0.82413224  0.66356994  0.84738901  1
  O  O62  1  0.37272383  0.37752366  0.62480396  1
  O  O63  1  0.67586776  0.33643006  0.34738901  1
  O  O64  1  0.91387597  0.42505904  0.09748849  1
  O  O65  1  0.25004908  0.74593493  0.49997036  1
  O  O66  1  0.67586776  0.16356994  0.84738901  1
  O  O67  1  0.17586776  0.16356994  0.65261099  1
  O  O68  1  0.41387597  0.42505904  0.40251151  1
  O  O69  1  0.12729747  0.12233910  0.87513832  1
  O  O70  1  0.37270253  0.87766090  0.37513832  1
  O  O71  1  0.58611981  0.42495271  0.90247051  1
  O  O72  1  0.75004908  0.74593493  0.00002964  1
  O  O73  1  0.08611981  0.42495271  0.59752949  1
  O  O74  1  0.00369981  0.00005992  0.25002823  1
  O  O75  1  0.62727617  0.62247634  0.37519604  1
  O  O76  1  0.00369981  0.49994008  0.75002823  1
  O  O77  1  0.50369981  0.49994008  0.74997177  1
  O  O78  1  0.87270253  0.87766090  0.12486168  1
  O  O79  1  0.08611981  0.07504729  0.09752949  1
  O  O80  1  0.91387597  0.07494096  0.59748849  1
  O  O81  1  0.58612403  0.92505904  0.09748849  1
  O  O82  1  0.17584216  0.66372753  0.34732276  1
  O  O83  1  0.50369981  0.00005992  0.24997177  1
  O  O84  1  0.17584216  0.83627247  0.84732276  1
  O  O85  1  0.99630019  0.50005992  0.24997177  1
  O  O86  1  0.87270253  0.62233910  0.62486168  1
  O  O87  1  0.74995092  0.25406507  0.50002964  1
  O  O88  1  0.37272383  0.12247634  0.12480396  1
  O  O89  1  0.08612403  0.92505904  0.40251151  1
  O  O90  1  0.82415784  0.16372753  0.15267724  1
  O  O91  1  0.32413224  0.83643006  0.15261099  1
  O  O92  1  0.41387597  0.07494096  0.90251151  1
  O  O93  1  0.58611981  0.07504729  0.40247051  1
  O  O94  1  0.49630019  0.99994008  0.75002823  1
  O  O95  1  0.24995092  0.25406507  0.99997036  1
