# generated using pymatgen
data_BaCu(SiO3)2
_symmetry_space_group_name_H-M   'P 1'
_cell_length_a   7.18437965
_cell_length_b   7.18437972
_cell_length_c   7.58875529
_cell_angle_alpha   118.25242079
_cell_angle_beta   118.25242108
_cell_angle_gamma   90.00000151
_symmetry_Int_Tables_number   1
_chemical_formula_structural   BaCu(SiO3)2
_chemical_formula_sum   'Ba2 Cu2 Si4 O12'
_cell_volume   290.98199536
_cell_formula_units_Z   2
loop_
 _symmetry_equiv_pos_site_id
 _symmetry_equiv_pos_as_xyz
  1  'x, y, z'
loop_
 _atom_site_type_symbol
 _atom_site_label
 _atom_site_symmetry_multiplicity
 _atom_site_fract_x
 _atom_site_fract_y
 _atom_site_fract_z
 _atom_site_occupancy
  Ba  Ba0  1  0.25000000  0.75000000  0.50000000  1
  Ba  Ba1  1  0.75000000  0.25000000  0.50000000  1
  Cu  Cu2  1  0.61982529  0.61982529  0.23965059  1
  Cu  Cu3  1  0.38017471  0.38017471  0.76034941  1
  Si  Si4  1  0.77396227  0.77396227  1.00000000  1
  Si  Si5  1  0.77396227  0.22603773  0.00000000  1
  Si  Si6  1  0.22603773  0.22603773  0.00000000  1
  Si  Si7  1  0.22603773  0.77396227  1.00000000  1
  O  O8  1  0.43189145  0.43189145  0.24873804  1
  O  O9  1  1.00000000  0.73526351  1.00000000  1
  O  O10  1  0.81684659  0.43189145  0.24873804  1
  O  O11  1  0.56810855  0.18315341  0.75126196  1
  O  O12  1  0.73526351  1.00000000  1.00000000  1
  O  O13  1  0.56810855  0.56810855  0.75126196  1
  O  O14  1  0.81684659  0.81684659  0.24873804  1
  O  O15  1  0.26473649  0.00000000  0.00000000  1
  O  O16  1  0.43189145  0.81684659  0.24873804  1
  O  O17  1  0.18315341  0.56810855  0.75126196  1
  O  O18  1  0.18315341  0.18315341  0.75126196  1
  O  O19  1  0.00000000  0.26473649  0.00000000  1
