# generated using pymatgen
data_SrLiAlF6
_symmetry_space_group_name_H-M   'P 1'
_cell_length_a   5.15717097
_cell_length_b   8.50670864
_cell_length_c   10.26708446
_cell_angle_alpha   90.00000000
_cell_angle_beta   90.00000000
_cell_angle_gamma   88.93717522
_symmetry_Int_Tables_number   1
_chemical_formula_structural   SrLiAlF6
_chemical_formula_sum   'Sr4 Li4 Al4 F24'
_cell_volume   450.34515874
_cell_formula_units_Z   4
loop_
 _symmetry_equiv_pos_site_id
 _symmetry_equiv_pos_as_xyz
  1  'x, y, z'
loop_
 _atom_site_type_symbol
 _atom_site_label
 _atom_site_symmetry_multiplicity
 _atom_site_fract_x
 _atom_site_fract_y
 _atom_site_fract_z
 _atom_site_occupancy
  Sr  Sr0  1  0.66960087  0.47464009  0.68564871  1
  Sr  Sr1  1  0.66960087  0.97464009  0.81435129  1
  Sr  Sr2  1  0.33039913  0.02535991  0.18564871  1
  Sr  Sr3  1  0.33039913  0.52535991  0.31435129  1
  Li  Li4  1  0.25539986  0.66782291  0.93135711  1
  Li  Li5  1  0.25539986  0.16782291  0.56864289  1
  Li  Li6  1  0.74460014  0.83217709  0.43135711  1
  Li  Li7  1  0.74460014  0.33217709  0.06864289  1
  Al  Al8  1  0.22562200  0.26079626  0.90295066  1
  Al  Al9  1  0.77437800  0.73920374  0.09704934  1
  Al  Al10  1  0.77437800  0.23920374  0.40295066  1
  Al  Al11  1  0.22562200  0.76079626  0.59704934  1
  F  F12  1  0.08245621  0.66690060  0.15401922  1
  F  F13  1  0.47530092  0.82389014  0.01747294  1
  F  F14  1  0.52469908  0.67610986  0.51747294  1
  F  F15  1  0.89459921  0.22382082  0.57100792  1
  F  F16  1  0.35911379  0.45507292  0.89821890  1
  F  F17  1  0.64088621  0.04492708  0.39821890  1
  F  F18  1  0.88034097  0.44054128  0.38289699  1
  F  F19  1  0.39406728  0.73234405  0.75751063  1
  F  F20  1  0.11965903  0.55945872  0.61710301  1
  F  F21  1  0.64088621  0.54492708  0.10178110  1
  F  F22  1  0.10540079  0.27617918  0.07100792  1
  F  F23  1  0.39406728  0.23234405  0.74248937  1
  F  F24  1  0.91754379  0.33309940  0.84598078  1
  F  F25  1  0.91754379  0.83309940  0.65401922  1
  F  F26  1  0.11965903  0.05945872  0.88289699  1
  F  F27  1  0.60593272  0.76765595  0.25751063  1
  F  F28  1  0.89459921  0.72382082  0.92899208  1
  F  F29  1  0.10540079  0.77617918  0.42899208  1
  F  F30  1  0.08245621  0.16690060  0.34598078  1
  F  F31  1  0.47530092  0.32389014  0.48252706  1
  F  F32  1  0.60593272  0.26765595  0.24248937  1
  F  F33  1  0.88034097  0.94054128  0.11710301  1
  F  F34  1  0.35911379  0.95507292  0.60178110  1
  F  F35  1  0.52469908  0.17610986  0.98252706  1
