# generated using pymatgen
data_CaIrO3
_symmetry_space_group_name_H-M   'P 1'
_cell_length_a   5.35601610
_cell_length_b   5.69150036
_cell_length_c   7.73688128
_cell_angle_alpha   90.00000000
_cell_angle_beta   90.00000000
_cell_angle_gamma   90.00000000
_symmetry_Int_Tables_number   1
_chemical_formula_structural   CaIrO3
_chemical_formula_sum   'Ca4 Ir4 O12'
_cell_volume   235.84929059
_cell_formula_units_Z   4
loop_
 _symmetry_equiv_pos_site_id
 _symmetry_equiv_pos_as_xyz
  1  'x, y, z'
loop_
 _atom_site_type_symbol
 _atom_site_label
 _atom_site_symmetry_multiplicity
 _atom_site_fract_x
 _atom_site_fract_y
 _atom_site_fract_z
 _atom_site_occupancy
  Ca  Ca0  1  0.51978593  0.06558507  0.25000000  1
  Ca  Ca1  1  0.48021407  0.93441493  0.75000000  1
  Ca  Ca2  1  0.98021407  0.56558507  0.25000000  1
  Ca  Ca3  1  0.01978593  0.43441493  0.75000000  1
  Ir  Ir4  1  0.00000000  0.00000000  0.50000000  1
  Ir  Ir5  1  0.00000000  0.00000000  0.00000000  1
  Ir  Ir6  1  0.50000000  0.50000000  0.50000000  1
  Ir  Ir7  1  0.50000000  0.50000000  0.00000000  1
  O  O8  1  0.31143064  0.19537398  0.94636080  1
  O  O9  1  0.60922940  0.54274914  0.75000000  1
  O  O10  1  0.39077060  0.45725086  0.25000000  1
  O  O11  1  0.81143064  0.30462602  0.44636080  1
  O  O12  1  0.81143064  0.30462602  0.05363920  1
  O  O13  1  0.68856936  0.80462602  0.05363920  1
  O  O14  1  0.18856936  0.69537398  0.55363920  1
  O  O15  1  0.10922940  0.95725086  0.25000000  1
  O  O16  1  0.68856936  0.80462602  0.44636080  1
  O  O17  1  0.18856936  0.69537398  0.94636080  1
  O  O18  1  0.31143064  0.19537398  0.55363920  1
  O  O19  1  0.89077060  0.04274914  0.75000000  1
