# generated using pymatgen
data_Ba3Tl2Cl2O5
_symmetry_space_group_name_H-M   'P 1'
_cell_length_a   4.41510513
_cell_length_b   4.41510431
_cell_length_c   13.32112860
_cell_angle_alpha   99.53895653
_cell_angle_beta   99.53895461
_cell_angle_gamma   89.99999555
_symmetry_Int_Tables_number   1
_chemical_formula_structural   Ba3Tl2Cl2O5
_chemical_formula_sum   'Ba3 Tl2 Cl2 O5'
_cell_volume   252.43884005
_cell_formula_units_Z   1
loop_
 _symmetry_equiv_pos_site_id
 _symmetry_equiv_pos_as_xyz
  1  'x, y, z'
loop_
 _atom_site_type_symbol
 _atom_site_label
 _atom_site_symmetry_multiplicity
 _atom_site_fract_x
 _atom_site_fract_y
 _atom_site_fract_z
 _atom_site_occupancy
  Ba  Ba0  1  0.16198062  0.16198062  0.32396125  1
  Ba  Ba1  1  0.83801938  0.83801938  0.67603875  1
  Ba  Ba2  1  0.00000000  0.00000000  0.00000000  1
  Tl  Tl3  1  0.41544575  0.41544575  0.83089151  1
  Tl  Tl4  1  0.58455425  0.58455425  0.16910849  1
  Cl  Cl5  1  0.70553647  0.70553647  0.41107294  1
  Cl  Cl6  1  0.29446353  0.29446353  0.58892706  1
  O  O7  1  0.09685545  0.59685545  0.19371090  1
  O  O8  1  0.90314455  0.40314455  0.80628910  1
  O  O9  1  0.59685545  0.09685545  0.19371090  1
  O  O10  1  0.40314455  0.90314455  0.80628910  1
  O  O11  1  0.50000000  0.50000000  0.00000000  1
