# generated using pymatgen
data_MgBi
_symmetry_space_group_name_H-M   'P 1'
_cell_length_a   12.70077254
_cell_length_b   3.45802091
_cell_length_c   8.05356715
_cell_angle_alpha   90.00000000
_cell_angle_beta   106.41261608
_cell_angle_gamma   90.00000000
_symmetry_Int_Tables_number   1
_chemical_formula_structural   MgBi
_chemical_formula_sum   'Mg6 Bi6'
_cell_volume   339.29593134
_cell_formula_units_Z   6
loop_
 _symmetry_equiv_pos_site_id
 _symmetry_equiv_pos_as_xyz
  1  'x, y, z'
loop_
 _atom_site_type_symbol
 _atom_site_label
 _atom_site_symmetry_multiplicity
 _atom_site_fract_x
 _atom_site_fract_y
 _atom_site_fract_z
 _atom_site_occupancy
  Mg  Mg0  1  0.38789142  -0.00000000  0.27215602  1
  Mg  Mg1  1  0.16478067  0.50000000  0.32950428  1
  Mg  Mg2  1  0.06190402  -0.00000000  0.61855742  1
  Mg  Mg3  1  0.88789142  0.50000000  0.27215602  1
  Mg  Mg4  1  0.66478067  -0.00000000  0.32950428  1
  Mg  Mg5  1  0.56190402  0.50000000  0.61855742  1
  Bi  Bi6  1  0.99332969  0.00000000  0.03544721  1
  Bi  Bi7  1  0.33212855  0.00000000  0.60345915  1
  Bi  Bi8  1  0.22663265  0.50000000  0.97420892  1
  Bi  Bi9  1  0.49332969  0.50000000  0.03544721  1
  Bi  Bi10  1  0.83212855  0.50000000  0.60345915  1
  Bi  Bi11  1  0.72663265  -0.00000000  0.97420892  1
