# generated using pymatgen
data_Ta2S
_symmetry_space_group_name_H-M   'P 1'
_cell_length_a   5.63522743
_cell_length_b   7.40328353
_cell_length_c   15.31457970
_cell_angle_alpha   90.00000000
_cell_angle_beta   90.00000000
_cell_angle_gamma   90.00000000
_symmetry_Int_Tables_number   1
_chemical_formula_structural   Ta2S
_chemical_formula_sum   'Ta24 S12'
_cell_volume   638.91180545
_cell_formula_units_Z   12
loop_
 _symmetry_equiv_pos_site_id
 _symmetry_equiv_pos_as_xyz
  1  'x, y, z'
loop_
 _atom_site_type_symbol
 _atom_site_label
 _atom_site_symmetry_multiplicity
 _atom_site_fract_x
 _atom_site_fract_y
 _atom_site_fract_z
 _atom_site_occupancy
  Ta  Ta0  1  0.13139096  0.00985233  0.25000000  1
  Ta  Ta1  1  0.10239130  0.90579923  0.58915942  1
  Ta  Ta2  1  0.89653292  0.71538364  0.15497330  1
  Ta  Ta3  1  0.60239130  0.09420077  0.91084058  1
  Ta  Ta4  1  0.60346708  0.71538364  0.84502670  1
  Ta  Ta5  1  0.86860904  0.99014767  0.75000000  1
  Ta  Ta6  1  0.10346708  0.28461636  0.65497330  1
  Ta  Ta7  1  0.89760870  0.09420077  0.41084058  1
  Ta  Ta8  1  0.89760870  0.09420077  0.08915942  1
  Ta  Ta9  1  0.62814541  0.35025527  0.75000000  1
  Ta  Ta10  1  0.39653292  0.28461636  0.34502670  1
  Ta  Ta11  1  0.87185459  0.35025527  0.25000000  1
  Ta  Ta12  1  0.63139096  0.99014767  0.25000000  1
  Ta  Ta13  1  0.39760870  0.90579923  0.08915942  1
  Ta  Ta14  1  0.39760870  0.90579923  0.41084058  1
  Ta  Ta15  1  0.36860904  0.00985233  0.75000000  1
  Ta  Ta16  1  0.39653292  0.28461636  0.15497330  1
  Ta  Ta17  1  0.10346708  0.28461636  0.84502670  1
  Ta  Ta18  1  0.89653292  0.71538364  0.34502670  1
  Ta  Ta19  1  0.60346708  0.71538364  0.65497330  1
  Ta  Ta20  1  0.60239130  0.09420077  0.58915942  1
  Ta  Ta21  1  0.12814541  0.64974473  0.75000000  1
  Ta  Ta22  1  0.10239130  0.90579923  0.91084058  1
  Ta  Ta23  1  0.37185459  0.64974473  0.25000000  1
  S  S24  1  0.26834339  0.58846382  0.09709048  1
  S  S25  1  0.73165661  0.41153618  0.90290952  1
  S  S26  1  0.25000000  0.18026537  0.50000000  1
  S  S27  1  0.75000000  0.81973463  0.00000000  1
  S  S28  1  0.26834339  0.58846382  0.40290952  1
  S  S29  1  0.25000000  0.18026537  0.00000000  1
  S  S30  1  0.76834339  0.41153618  0.09709048  1
  S  S31  1  0.23165661  0.58846382  0.59709048  1
  S  S32  1  0.73165661  0.41153618  0.59709048  1
  S  S33  1  0.23165661  0.58846382  0.90290952  1
  S  S34  1  0.75000000  0.81973463  0.50000000  1
  S  S35  1  0.76834339  0.41153618  0.40290952  1
