# generated using pymatgen
data_Zn2SiO4
_symmetry_space_group_name_H-M   'P 1'
_cell_length_a   5.99243799
_cell_length_b   5.99243868
_cell_length_c   5.99243814
_cell_angle_alpha   107.39011212
_cell_angle_beta   107.39011415
_cell_angle_gamma   113.71877338
_symmetry_Int_Tables_number   1
_chemical_formula_structural   Zn2SiO4
_chemical_formula_sum   'Zn4 Si2 O8'
_cell_volume   164.96091627
_cell_formula_units_Z   2
loop_
 _symmetry_equiv_pos_site_id
 _symmetry_equiv_pos_as_xyz
  1  'x, y, z'
loop_
 _atom_site_type_symbol
 _atom_site_label
 _atom_site_symmetry_multiplicity
 _atom_site_fract_x
 _atom_site_fract_y
 _atom_site_fract_z
 _atom_site_occupancy
  Zn  Zn0  1  0.37500000  0.28274251  0.40774251  1
  Zn  Zn1  1  0.87500000  0.96725749  0.59225749  1
  Zn  Zn2  1  0.71725749  0.12500000  0.09225749  1
  Zn  Zn3  1  0.03274251  0.62500000  0.90774251  1
  Si  Si4  1  0.50000000  0.50000000  0.00000000  1
  Si  Si5  1  0.25000000  0.75000000  0.50000000  1
  O  O6  1  0.09708041  0.80290501  0.68102740  1
  O  O7  1  0.58394699  0.90291959  0.70582460  1
  O  O8  1  0.65291959  0.83394699  0.20582460  1
  O  O9  1  0.55290501  0.34708041  0.18102740  1
  O  O10  1  0.16605301  0.37187761  0.81897260  1
  O  O11  1  0.19709499  0.87812239  0.29417540  1
  O  O12  1  0.12187761  0.41605301  0.31897260  1
  O  O13  1  0.62812239  0.44709499  0.79417540  1
