# generated using pymatgen
data_TeAs(BrF2)3
_symmetry_space_group_name_H-M   'P 1'
_cell_length_a   8.17681789
_cell_length_b   10.40747203
_cell_length_c   12.64716654
_cell_angle_alpha   90.00000000
_cell_angle_beta   99.90462326
_cell_angle_gamma   90.00000000
_symmetry_Int_Tables_number   1
_chemical_formula_structural   TeAs(BrF2)3
_chemical_formula_sum   'Te4 As4 Br12 F24'
_cell_volume   1060.23253816
_cell_formula_units_Z   4
loop_
 _symmetry_equiv_pos_site_id
 _symmetry_equiv_pos_as_xyz
  1  'x, y, z'
loop_
 _atom_site_type_symbol
 _atom_site_label
 _atom_site_symmetry_multiplicity
 _atom_site_fract_x
 _atom_site_fract_y
 _atom_site_fract_z
 _atom_site_occupancy
  Te  Te0  1  0.18562863  0.33260511  0.69043407  1
  Te  Te1  1  0.81437137  0.83260511  0.80956593  1
  Te  Te2  1  0.18562863  0.16739489  0.19043407  1
  Te  Te3  1  0.81437137  0.66739489  0.30956593  1
  As  As4  1  0.83593443  0.23177513  0.92155647  1
  As  As5  1  0.16406557  0.76822487  0.07844353  1
  As  As6  1  0.83593443  0.26822487  0.42155647  1
  As  As7  1  0.16406557  0.73177513  0.57844353  1
  Br  Br8  1  0.76384652  0.89241327  0.24912560  1
  Br  Br9  1  0.30496132  0.44718940  0.85728035  1
  Br  Br10  1  0.30496132  0.05281060  0.35728035  1
  Br  Br11  1  0.42728017  0.15043025  0.09646466  1
  Br  Br12  1  0.42728017  0.34956975  0.59646466  1
  Br  Br13  1  0.69503868  0.55281060  0.14271965  1
  Br  Br14  1  0.57271983  0.84956975  0.90353534  1
  Br  Br15  1  0.57271983  0.65043025  0.40353534  1
  Br  Br16  1  0.69503868  0.94718940  0.64271965  1
  Br  Br17  1  0.23615348  0.39241327  0.25087440  1
  Br  Br18  1  0.76384652  0.60758673  0.74912560  1
  Br  Br19  1  0.23615348  0.10758673  0.75087440  1
  F  F20  1  0.21280659  0.83015696  0.95701389  1
  F  F21  1  0.23011882  0.88624317  0.54862722  1
  F  F22  1  0.90864189  0.42512550  0.39118373  1
  F  F23  1  0.95809318  0.76588060  0.50766340  1
  F  F24  1  0.09135811  0.57487450  0.60881627  1
  F  F25  1  0.04190682  0.23411940  0.49233660  1
  F  F26  1  0.36244710  0.80685114  0.14871346  1
  F  F27  1  0.21280659  0.66984304  0.45701389  1
  F  F28  1  0.76988118  0.11375683  0.45137278  1
  F  F29  1  0.63755290  0.30685114  0.35128654  1
  F  F30  1  0.78719341  0.33015696  0.54298611  1
  F  F31  1  0.10229549  0.79138314  0.69815782  1
  F  F32  1  0.04190682  0.26588060  0.99233660  1
  F  F33  1  0.89770451  0.20861686  0.30184218  1
  F  F34  1  0.10229549  0.70861686  0.19815782  1
  F  F35  1  0.36244710  0.69314886  0.64871346  1
  F  F36  1  0.90864189  0.07487450  0.89118373  1
  F  F37  1  0.89770451  0.29138314  0.80184218  1
  F  F38  1  0.78719341  0.16984304  0.04298611  1
  F  F39  1  0.23011882  0.61375683  0.04862722  1
  F  F40  1  0.76988118  0.38624317  0.95137278  1
  F  F41  1  0.09135811  0.92512550  0.10881627  1
  F  F42  1  0.95809318  0.73411940  0.00766340  1
  F  F43  1  0.63755290  0.19314886  0.85128654  1
