# generated using pymatgen
data_Na2Pr4Cl9O2
_symmetry_space_group_name_H-M   'P 1'
_cell_length_a   8.30739506
_cell_length_b   9.39062126
_cell_length_c   11.57029909
_cell_angle_alpha   90.00000000
_cell_angle_beta   90.00000000
_cell_angle_gamma   106.89761065
_symmetry_Int_Tables_number   1
_chemical_formula_structural   Na2Pr4Cl9O2
_chemical_formula_sum   'Na4 Pr8 Cl18 O4'
_cell_volume   863.64767643
_cell_formula_units_Z   2
loop_
 _symmetry_equiv_pos_site_id
 _symmetry_equiv_pos_as_xyz
  1  'x, y, z'
loop_
 _atom_site_type_symbol
 _atom_site_label
 _atom_site_symmetry_multiplicity
 _atom_site_fract_x
 _atom_site_fract_y
 _atom_site_fract_z
 _atom_site_occupancy
  Na  Na0  1  0.22902155  0.43301832  0.98472789  1
  Na  Na1  1  0.77097845  0.56698168  0.48472789  1
  Na  Na2  1  0.77097845  0.56698168  0.01527211  1
  Na  Na3  1  0.22902155  0.43301832  0.51527211  1
  Pr  Pr4  1  0.38927999  0.16461651  0.75000000  1
  Pr  Pr5  1  0.27868583  0.95228870  0.04633384  1
  Pr  Pr6  1  0.27868583  0.95228870  0.45366616  1
  Pr  Pr7  1  0.72131417  0.04771130  0.54633384  1
  Pr  Pr8  1  0.61072001  0.83538349  0.25000000  1
  Pr  Pr9  1  0.72131417  0.04771130  0.95366616  1
  Pr  Pr10  1  0.37132540  0.78095495  0.75000000  1
  Pr  Pr11  1  0.62867460  0.21904505  0.25000000  1
  Cl  Cl12  1  0.90012452  0.31530942  0.08095741  1
  Cl  Cl13  1  0.10725200  0.12335385  0.90650316  1
  Cl  Cl14  1  0.73917329  0.86283539  0.75000000  1
  Cl  Cl15  1  0.50070975  0.29887263  0.99703465  1
  Cl  Cl16  1  0.89274800  0.87664615  0.09349684  1
  Cl  Cl17  1  0.09987548  0.68469058  0.91904259  1
  Cl  Cl18  1  0.49929025  0.70112737  0.49703465  1
  Cl  Cl19  1  0.33096854  0.46114732  0.75000000  1
  Cl  Cl20  1  0.89274800  0.87664615  0.40650316  1
  Cl  Cl21  1  0.24080043  0.75319096  0.25000000  1
  Cl  Cl22  1  0.49929025  0.70112737  0.00296535  1
  Cl  Cl23  1  0.26082671  0.13716461  0.25000000  1
  Cl  Cl24  1  0.09987548  0.68469058  0.58095741  1
  Cl  Cl25  1  0.75919957  0.24680904  0.75000000  1
  Cl  Cl26  1  0.66903146  0.53885268  0.25000000  1
  Cl  Cl27  1  0.50070975  0.29887263  0.50296535  1
  Cl  Cl28  1  0.10725200  0.12335385  0.59349684  1
  Cl  Cl29  1  0.90012452  0.31530942  0.41904259  1
  O  O30  1  0.44794200  0.98635518  0.61948012  1
  O  O31  1  0.55205800  0.01364482  0.38051988  1
  O  O32  1  0.44794200  0.98635518  0.88051988  1
  O  O33  1  0.55205800  0.01364482  0.11948012  1
