# generated using pymatgen
data_Co2SiO4
_symmetry_space_group_name_H-M   'P 1'
_cell_length_a   4.81870812
_cell_length_b   6.04262709
_cell_length_c   10.41287979
_cell_angle_alpha   90.20148344
_cell_angle_beta   90.20349355
_cell_angle_gamma   90.39187648
_symmetry_Int_Tables_number   1
_chemical_formula_structural   Co2SiO4
_chemical_formula_sum   'Co8 Si4 O16'
_cell_volume   303.18774973
_cell_formula_units_Z   4
loop_
 _symmetry_equiv_pos_site_id
 _symmetry_equiv_pos_as_xyz
  1  'x, y, z'
loop_
 _atom_site_type_symbol
 _atom_site_label
 _atom_site_symmetry_multiplicity
 _atom_site_fract_x
 _atom_site_fract_y
 _atom_site_fract_z
 _atom_site_occupancy
  Co  Co0  1  0.99299997  0.24876421  0.27494291  1
  Co  Co1  1  0.50030726  0.00016662  0.50015239  1
  Co  Co2  1  0.49469348  0.75255344  0.22180115  1
  Co  Co3  1  0.50570309  0.24757956  0.77818705  1
  Co  Co4  1  0.00042474  0.49996897  0.99954644  1
  Co  Co5  1  0.00905538  0.75004511  0.72211806  1
  Co  Co6  1  0.49976117  0.49944498  0.49967945  1
  Co  Co7  1  0.00023203  0.00001483  0.99954560  1
  Si  Si8  1  0.07157342  0.25051751  0.59410789  1
  Si  Si9  1  0.92730603  0.74934358  0.40617876  1
  Si  Si10  1  0.57394091  0.75176029  0.90507159  1
  Si  Si11  1  0.42605715  0.24856314  0.09495466  1
  O  O12  1  0.76601289  0.25108108  0.09199628  1
  O  O13  1  0.72175226  0.96701428  0.83443275  1
  O  O14  1  0.72483398  0.76000456  0.05129404  1
  O  O15  1  0.27582199  0.24071661  0.94888044  1
  O  O16  1  0.27722661  0.03292585  0.16515091  1
  O  O17  1  0.21360621  0.25128469  0.44761653  1
  O  O18  1  0.28475840  0.46922855  0.16249734  1
  O  O19  1  0.71732441  0.53110805  0.83849777  1
  O  O20  1  0.73180845  0.25014168  0.59241239  1
  O  O21  1  0.22032077  0.03378215  0.66273499  1
  O  O22  1  0.77907463  0.96715163  0.33857108  1
  O  O23  1  0.78455971  0.74858412  0.55245397  1
  O  O24  1  0.21934469  0.46722951  0.66498088  1
  O  O25  1  0.23466684  0.74851411  0.90841573  1
  O  O26  1  0.26714889  0.75014270  0.40823298  1
  O  O27  1  0.77968465  0.53236920  0.33554495  1
