# generated using pymatgen
data_K2Hg2SCl4O3
_symmetry_space_group_name_H-M   'P 1'
_cell_length_a   6.11676146
_cell_length_b   9.79884932
_cell_length_c   10.42896758
_cell_angle_alpha   110.47861813
_cell_angle_beta   90.00000000
_cell_angle_gamma   90.00000000
_symmetry_Int_Tables_number   1
_chemical_formula_structural   K2Hg2SCl4O3
_chemical_formula_sum   'K4 Hg4 S2 Cl8 O6'
_cell_volume   585.57985626
_cell_formula_units_Z   2
loop_
 _symmetry_equiv_pos_site_id
 _symmetry_equiv_pos_as_xyz
  1  'x, y, z'
loop_
 _atom_site_type_symbol
 _atom_site_label
 _atom_site_symmetry_multiplicity
 _atom_site_fract_x
 _atom_site_fract_y
 _atom_site_fract_z
 _atom_site_occupancy
  K  K0  1  0.75000000  0.59991576  0.17706861  1
  K  K1  1  0.75000000  0.12780466  0.94357206  1
  K  K2  1  0.25000000  0.40008424  0.82293139  1
  K  K3  1  0.25000000  0.87219534  0.05642794  1
  Hg  Hg4  1  0.25000000  0.40736062  0.36822691  1
  Hg  Hg5  1  0.75000000  0.11594585  0.47241104  1
  Hg  Hg6  1  0.25000000  0.88405415  0.52758896  1
  Hg  Hg7  1  0.75000000  0.59263938  0.63177309  1
  S  S8  1  0.75000000  0.69257021  0.88189044  1
  S  S9  1  0.25000000  0.30742979  0.11810956  1
  Cl  Cl10  1  0.75000000  0.41988110  0.39237554  1
  Cl  Cl11  1  0.75000000  0.83765661  0.53260064  1
  Cl  Cl12  1  0.25000000  0.01893584  0.76614526  1
  Cl  Cl13  1  0.25000000  0.16234339  0.46739936  1
  Cl  Cl14  1  0.75000000  0.98106416  0.23385474  1
  Cl  Cl15  1  0.25000000  0.58011890  0.60762446  1
  Cl  Cl16  1  0.25000000  0.72319782  0.29316708  1
  Cl  Cl17  1  0.75000000  0.27680218  0.70683292  1
  O  O18  1  0.25000000  0.14752413  0.08060845  1
  O  O19  1  0.45054475  0.35982504  0.06859698  1
  O  O20  1  0.75000000  0.85247587  0.91939155  1
  O  O21  1  0.54945525  0.64017496  0.93140302  1
  O  O22  1  0.95054475  0.64017496  0.93140302  1
  O  O23  1  0.04945525  0.35982504  0.06859698  1
