# generated using pymatgen
data_SiO2
_symmetry_space_group_name_H-M   'P 1'
_cell_length_a   9.21803110
_cell_length_b   9.21803076
_cell_length_c   5.25841618
_cell_angle_alpha   90.00000000
_cell_angle_beta   90.00000000
_cell_angle_gamma   120.00000123
_symmetry_Int_Tables_number   1
_chemical_formula_structural   SiO2
_chemical_formula_sum   'Si6 O12'
_cell_volume   386.95628401
_cell_formula_units_Z   6
loop_
 _symmetry_equiv_pos_site_id
 _symmetry_equiv_pos_as_xyz
  1  'x, y, z'
loop_
 _atom_site_type_symbol
 _atom_site_label
 _atom_site_symmetry_multiplicity
 _atom_site_fract_x
 _atom_site_fract_y
 _atom_site_fract_z
 _atom_site_occupancy
  Si  Si0  1  0.88305832  0.44152916  0.25000000  1
  Si  Si1  1  0.44152916  0.88305832  0.75000000  1
  Si  Si2  1  0.44152916  0.55847084  0.75000000  1
  Si  Si3  1  0.11694168  0.55847084  0.75000000  1
  Si  Si4  1  0.55847084  0.44152916  0.25000000  1
  Si  Si5  1  0.55847084  0.11694168  0.25000000  1
  O  O6  1  0.76263194  0.23736806  0.25000000  1
  O  O7  1  0.23736806  0.76263194  0.75000000  1
  O  O8  1  0.50000000  0.00000000  0.00000000  1
  O  O9  1  0.00000000  0.50000000  0.50000000  1
  O  O10  1  0.52526389  0.76263194  0.75000000  1
  O  O11  1  0.47473611  0.23736806  0.25000000  1
  O  O12  1  0.76263194  0.52526389  0.25000000  1
  O  O13  1  0.50000000  0.00000000  0.50000000  1
  O  O14  1  0.50000000  0.50000000  0.50000000  1
  O  O15  1  0.23736806  0.47473611  0.75000000  1
  O  O16  1  0.00000000  0.50000000  0.00000000  1
  O  O17  1  0.50000000  0.50000000  0.00000000  1
