# generated using pymatgen
data_Ca2MgSi2O7
_symmetry_space_group_name_H-M   'P 1'
_cell_length_a   7.81410969
_cell_length_b   9.22347018
_cell_length_c   9.37605812
_cell_angle_alpha   115.13826437
_cell_angle_beta   90.00000000
_cell_angle_gamma   90.00000000
_symmetry_Int_Tables_number   1
_chemical_formula_structural   Ca2MgSi2O7
_chemical_formula_sum   'Ca8 Mg4 Si8 O28'
_cell_volume   611.75793388
_cell_formula_units_Z   4
loop_
 _symmetry_equiv_pos_site_id
 _symmetry_equiv_pos_as_xyz
  1  'x, y, z'
loop_
 _atom_site_type_symbol
 _atom_site_label
 _atom_site_symmetry_multiplicity
 _atom_site_fract_x
 _atom_site_fract_y
 _atom_site_fract_z
 _atom_site_occupancy
  Ca  Ca0  1  0.44383463  0.72031869  0.80116603  1
  Ca  Ca1  1  0.28199510  0.45696340  0.02616859  1
  Ca  Ca2  1  0.21800490  0.95696340  0.52616859  1
  Ca  Ca3  1  0.94383463  0.77968131  0.69883397  1
  Ca  Ca4  1  0.55616537  0.27968131  0.19883397  1
  Ca  Ca5  1  0.05616537  0.22031869  0.30116603  1
  Ca  Ca6  1  0.78199510  0.04303660  0.47383141  1
  Ca  Ca7  1  0.71800490  0.54303660  0.97383141  1
  Mg  Mg8  1  0.10343747  0.82872634  0.11266521  1
  Mg  Mg9  1  0.39656253  0.32872634  0.61266521  1
  Mg  Mg10  1  0.89656253  0.17127366  0.88733479  1
  Mg  Mg11  1  0.60343747  0.67127366  0.38733479  1
  Si  Si12  1  0.72872980  0.46972287  0.58300413  1
  Si  Si13  1  0.03995296  0.37179032  0.71151421  1
  Si  Si14  1  0.27127020  0.53027713  0.41699587  1
  Si  Si15  1  0.53995296  0.12820968  0.78848579  1
  Si  Si16  1  0.22872980  0.03027713  0.91699587  1
  Si  Si17  1  0.96004704  0.62820968  0.28848579  1
  Si  Si18  1  0.77127020  0.96972287  0.08300413  1
  Si  Si19  1  0.46004704  0.87179032  0.21151421  1
  O  O20  1  0.27253322  0.95209390  0.27453533  1
  O  O21  1  0.43755776  0.13633806  0.64033879  1
  O  O22  1  0.92851196  0.49942776  0.65937616  1
  O  O23  1  0.57148804  -0.00057224  0.15937616  1
  O  O24  1  0.42851196  1.00057224  0.84062384  1
  O  O25  1  0.95153060  0.80179655  0.44434499  1
  O  O26  1  0.93755776  0.36366194  0.85966121  1
  O  O27  1  0.90602963  0.97026908  0.21834378  1
  O  O28  1  0.54846940  0.30179655  0.94434499  1
  O  O29  1  0.68749096  0.63661954  0.56745358  1
  O  O30  1  0.40602963  0.52973092  0.28165622  1
  O  O31  1  0.45153060  0.69820345  0.05565501  1
  O  O32  1  0.09397037  0.02973092  0.78165622  1
  O  O33  1  0.22746678  0.45209390  0.77453533  1
  O  O34  1  0.06244224  0.63633806  0.14033879  1
  O  O35  1  0.72202703  0.30061885  0.42676909  1
  O  O36  1  0.04846940  0.19820345  0.55565501  1
  O  O37  1  0.22202703  0.19938115  0.07323091  1
  O  O38  1  0.72746678  0.04790610  0.72546467  1
  O  O39  1  0.07148804  0.50057224  0.34062384  1
  O  O40  1  0.77797297  0.80061885  0.92676909  1
  O  O41  1  0.31250904  0.36338046  0.43254642  1
  O  O42  1  0.77253322  0.54790610  0.22546467  1
  O  O43  1  0.56244224  0.86366194  0.35966121  1
  O  O44  1  0.18749096  0.86338046  0.93254642  1
  O  O45  1  0.81250904  0.13661954  0.06745358  1
  O  O46  1  0.27797297  0.69938115  0.57323091  1
  O  O47  1  0.59397037  0.47026908  0.71834378  1
