# generated using pymatgen
data_SiO2
_symmetry_space_group_name_H-M   'P 1'
_cell_length_a   13.60433153
_cell_length_b   13.60433146
_cell_length_c   13.60433099
_cell_angle_alpha   60.00000117
_cell_angle_beta   60.00000133
_cell_angle_gamma   60.00000223
_symmetry_Int_Tables_number   1
_chemical_formula_structural   SiO2
_chemical_formula_sum   'Si24 O48'
_cell_volume   1780.39603679
_cell_formula_units_Z   24
loop_
 _symmetry_equiv_pos_site_id
 _symmetry_equiv_pos_as_xyz
  1  'x, y, z'
loop_
 _atom_site_type_symbol
 _atom_site_label
 _atom_site_symmetry_multiplicity
 _atom_site_fract_x
 _atom_site_fract_y
 _atom_site_fract_z
 _atom_site_occupancy
  Si  Si0  1  0.53761083  0.08096495  0.08096495  1
  Si  Si1  1  0.69954074  0.46238917  0.91903505  1
  Si  Si2  1  0.08096495  0.53761083  0.30045926  1
  Si  Si3  1  0.30045926  0.53761083  0.08096495  1
  Si  Si4  1  0.08096495  0.08096495  0.53761083  1
  Si  Si5  1  0.69954074  0.91903505  0.91903505  1
  Si  Si6  1  0.91903505  0.91903505  0.69954074  1
  Si  Si7  1  0.91903505  0.46238917  0.91903505  1
  Si  Si8  1  0.08096495  0.08096495  0.30045926  1
  Si  Si9  1  0.46238917  0.91903505  0.91903505  1
  Si  Si10  1  0.53761083  0.08096495  0.30045926  1
  Si  Si11  1  0.91903505  0.69954074  0.91903505  1
  Si  Si12  1  0.30045926  0.08096495  0.08096495  1
  Si  Si13  1  0.08096495  0.30045926  0.08096495  1
  Si  Si14  1  0.91903505  0.91903505  0.46238917  1
  Si  Si15  1  0.46238917  0.91903505  0.69954074  1
  Si  Si16  1  0.91903505  0.46238917  0.69954074  1
  Si  Si17  1  0.46238917  0.69954074  0.91903505  1
  Si  Si18  1  0.30045926  0.08096495  0.53761083  1
  Si  Si19  1  0.69954074  0.91903505  0.46238917  1
  Si  Si20  1  0.91903505  0.69954074  0.46238917  1
  Si  Si21  1  0.08096495  0.30045926  0.53761083  1
  Si  Si22  1  0.08096495  0.53761083  0.08096495  1
  Si  Si23  1  0.53761083  0.30045926  0.08096495  1
  O  O24  1  0.91306899  0.58693101  0.91306899  1
  O  O25  1  0.21713954  0.02224678  0.21713954  1
  O  O26  1  0.65152206  1.00000000  0.34847794  1
  O  O27  1  0.65152206  1.00000000  1.00000000  1
  O  O28  1  0.21713954  0.02224678  0.54347413  1
  O  O29  1  0.34847794  0.00000000  0.00000000  1
  O  O30  1  0.78286046  0.78286046  0.97775322  1
  O  O31  1  0.21713954  0.21713954  0.02224678  1
  O  O32  1  0.78286046  0.97775322  0.78286046  1
  O  O33  1  1.00000000  0.65152206  0.34847794  1
  O  O34  1  1.00000000  0.65152206  1.00000000  1
  O  O35  1  0.97775322  0.45652587  0.78286046  1
  O  O36  1  0.58693101  0.91306899  0.58693101  1
  O  O37  1  0.97775322  0.78286046  0.45652587  1
  O  O38  1  0.58693101  0.58693101  0.91306899  1
  O  O39  1  0.08693101  0.41306899  0.41306899  1
  O  O40  1  0.58693101  0.91306899  0.91306899  1
  O  O41  1  0.00000000  0.34847794  0.65152206  1
  O  O42  1  0.00000000  0.00000000  0.65152206  1
  O  O43  1  0.08693101  0.41306899  0.08693101  1
  O  O44  1  0.34847794  0.00000000  0.65152206  1
  O  O45  1  0.02224678  0.21713954  0.21713954  1
  O  O46  1  0.78286046  0.78286046  0.45652587  1
  O  O47  1  0.00000000  0.00000000  0.34847794  1
  O  O48  1  0.54347413  0.21713954  0.02224678  1
  O  O49  1  0.91306899  0.58693101  0.58693101  1
  O  O50  1  0.91306899  0.91306899  0.58693101  1
  O  O51  1  0.21713954  0.54347413  0.02224678  1
  O  O52  1  0.97775322  0.78286046  0.78286046  1
  O  O53  1  0.00000000  0.34847794  0.00000000  1
  O  O54  1  0.41306899  0.08693101  0.41306899  1
  O  O55  1  0.78286046  0.97775322  0.45652587  1
  O  O56  1  0.65152206  0.34847794  1.00000000  1
  O  O57  1  0.02224678  0.54347413  0.21713954  1
  O  O58  1  0.78286046  0.45652587  0.78286046  1
  O  O59  1  0.45652587  0.78286046  0.78286046  1
  O  O60  1  0.41306899  0.41306899  0.08693101  1
  O  O61  1  0.78286046  0.45652587  0.97775322  1
  O  O62  1  0.41306899  0.08693101  0.08693101  1
  O  O63  1  0.34847794  0.65152206  0.00000000  1
  O  O64  1  0.21713954  0.54347413  0.21713954  1
  O  O65  1  0.21713954  0.21713954  0.54347413  1
  O  O66  1  0.54347413  0.02224678  0.21713954  1
  O  O67  1  0.45652587  0.97775322  0.78286046  1
  O  O68  1  0.45652587  0.78286046  0.97775322  1
  O  O69  1  0.08693101  0.08693101  0.41306899  1
  O  O70  1  0.02224678  0.21713954  0.54347413  1
  O  O71  1  0.54347413  0.21713954  0.21713954  1
