# generated using pymatgen
data_ScH24C3S3(N3O5)3
_symmetry_space_group_name_H-M   'P 1'
_cell_length_a   11.76330653
_cell_length_b   11.76330565
_cell_length_c   11.76330568
_cell_angle_alpha   112.72751406
_cell_angle_beta   112.72751220
_cell_angle_gamma   112.72750952
_symmetry_Int_Tables_number   1
_chemical_formula_structural   ScH24C3S3(N3O5)3
_chemical_formula_sum   'Sc2 H48 C6 S6 N18 O30'
_cell_volume   1075.87649232
_cell_formula_units_Z   2
loop_
 _symmetry_equiv_pos_site_id
 _symmetry_equiv_pos_as_xyz
  1  'x, y, z'
loop_
 _atom_site_type_symbol
 _atom_site_label
 _atom_site_symmetry_multiplicity
 _atom_site_fract_x
 _atom_site_fract_y
 _atom_site_fract_z
 _atom_site_occupancy
  Sc  Sc0  1  0.50000000  0.50000000  0.50000000  1
  Sc  Sc1  1  0.00000000  0.00000000  0.00000000  1
  H  H2  1  0.77041623  1.00063562  0.40467663  1
  H  H3  1  0.20570006  0.34564077  0.56454566  1
  H  H4  1  0.66948238  0.01619112  0.05205578  1
  H  H5  1  0.65435923  0.43545434  0.79429994  1
  H  H6  1  0.17223773  0.25347394  0.64827489  1
  H  H7  1  0.84052913  0.18579791  0.18770670  1
  H  H8  1  0.46375739  0.33570565  0.95100418  1
  H  H9  1  0.74652606  0.35172511  0.82776227  1
  H  H10  1  0.53624261  0.66429435  0.04899582  1
  H  H11  1  0.01619112  0.05205578  0.66948238  1
  H  H12  1  0.33051762  0.98380888  0.94794422  1
  H  H13  1  0.56342438  0.12324961  0.49475771  1
  H  H14  1  0.56454566  0.20570006  0.34564077  1
  H  H15  1  0.22958377  -0.00063562  0.59532337  1
  H  H16  1  0.25347394  0.64827489  0.17223773  1
  H  H17  1  0.18770670  0.84052912  0.18579790  1
  H  H18  1  0.23213865  0.93396324  0.70750087  1
  H  H19  1  0.95100418  0.46375739  0.33570565  1
  H  H20  1  0.43545434  0.79429994  0.65435923  1
  H  H21  1  0.66429435  0.04899582  0.53624261  1
  H  H22  1  0.70750087  0.23213865  0.93396324  1
  H  H23  1  0.98380888  0.94794422  0.33051762  1
  H  H24  1  0.05205578  0.66948238  0.01619112  1
  H  H25  1  0.49475771  0.56342438  0.12324961  1
  H  H26  1  0.06603676  0.29249913  0.76786135  1
  H  H27  1  0.29249913  0.76786135  0.06603676  1
  H  H28  1  0.81420210  0.81229330  0.15947088  1
  H  H29  1  0.76786135  0.06603676  0.29249913  1
  H  H30  1  0.87675039  0.50524229  0.43657562  1
  H  H31  1  0.43657562  0.87675039  0.50524229  1
  H  H32  1  0.81229330  0.15947088  0.81420210  1
  H  H33  1  0.94794422  0.33051762  0.98380888  1
  H  H34  1  0.50524229  0.43657562  0.87675039  1
  H  H35  1  0.18579790  0.18770670  0.84052912  1
  H  H36  1  0.33570565  0.95100418  0.46375739  1
  H  H37  1  0.34564077  0.56454566  0.20570006  1
  H  H38  1  0.40467663  0.77041623  1.00063562  1
  H  H39  1  0.64827489  0.17223773  0.25347394  1
  H  H40  1  0.82776227  0.74652606  0.35172511  1
  H  H41  1  0.35172511  0.82776227  0.74652606  1
  H  H42  1  0.79429994  0.65435923  0.43545434  1
  H  H43  1  0.59532337  0.22958377  -0.00063562  1
  H  H44  1  0.93396324  0.70750087  0.23213865  1
  H  H45  1  0.04899582  0.53624261  0.66429435  1
  H  H46  1  0.12324961  0.49475771  0.56342438  1
  H  H47  1  0.15947087  0.81420209  0.81229330  1
  H  H48  1  -0.00063562  0.59532337  0.22958377  1
  H  H49  1  1.00063562  0.40467663  0.77041623  1
  C  C50  1  0.11095221  0.39632181  0.67148735  1
  C  C51  1  0.32851265  0.88904779  0.60367819  1
  C  C52  1  0.88904779  0.60367819  0.32851265  1
  C  C53  1  0.60367819  0.32851265  0.88904779  1
  C  C54  1  0.39632181  0.67148735  0.11095221  1
  C  C55  1  0.67148735  0.11095221  0.39632181  1
  S  S56  1  0.25472693  0.12335468  0.37999187  1
  S  S57  1  0.62000813  0.74527307  0.87664532  1
  S  S58  1  0.37999187  0.25472693  0.12335468  1
  S  S59  1  0.74527307  0.87664532  0.62000813  1
  S  S60  1  0.87664532  0.62000813  0.74527307  1
  S  S61  1  0.12335468  0.37999187  0.25472693  1
  N  N62  1  0.82347250  0.66572855  0.36763956  1
  N  N63  1  0.33427145  0.63236044  0.17652750  1
  N  N64  1  0.37030260  0.75124621  0.06288463  1
  N  N65  1  0.66572855  0.36763956  0.82347250  1
  N  N66  1  0.75124621  0.06288463  0.37030260  1
  N  N67  1  0.09869789  0.48812724  0.63569145  1
  N  N68  1  0.17652750  0.33427145  0.63236044  1
  N  N69  1  0.63236044  0.17652750  0.33427145  1
  N  N70  1  0.90130211  0.51187276  0.36430855  1
  N  N71  1  0.48812724  0.63569145  0.09869789  1
  N  N72  1  0.63569145  0.09869789  0.48812724  1
  N  N73  1  0.93711537  0.62969740  0.24875379  1
  N  N74  1  0.36430855  0.90130211  0.51187276  1
  N  N75  1  0.51187276  0.36430855  0.90130211  1
  N  N76  1  0.36763956  0.82347250  0.66572855  1
  N  N77  1  0.06288463  0.37030260  0.75124621  1
  N  N78  1  0.62969740  0.24875379  0.93711537  1
  N  N79  1  0.24875379  0.93711537  0.62969740  1
  O  O80  1  0.88683538  0.95552944  0.78195273  1
  O  O81  1  0.04447056  0.21804727  0.11316462  1
  O  O82  1  0.21804727  0.11316462  0.04447056  1
  O  O83  1  0.80206851  0.91984380  0.54017947  1
  O  O84  1  0.12829232  0.14012635  0.72812639  1
  O  O85  1  0.30032805  0.47326438  0.35345602  1
  O  O86  1  0.54017947  0.80206851  0.91984380  1
  O  O87  1  0.63504276  0.65176931  0.92827400  1
  O  O88  1  0.85987366  0.27187361  0.87170768  1
  O  O89  1  0.07172600  0.36495724  0.34823069  1
  O  O90  1  0.72812639  0.12829232  0.14012634  1
  O  O91  1  0.95552944  0.78195273  0.88683538  1
  O  O92  1  0.34823069  0.07172600  0.36495724  1
  O  O93  1  0.87170768  0.85987365  0.27187361  1
  O  O94  1  0.69967195  0.52673562  0.64654398  1
  O  O95  1  0.91984380  0.54017947  0.80206851  1
  O  O96  1  0.52673562  0.64654398  0.69967195  1
  O  O97  1  0.36495724  0.34823069  0.07172600  1
  O  O98  1  0.92827400  0.63504276  0.65176931  1
  O  O99  1  0.11316462  0.04447056  0.21804727  1
  O  O100  1  0.78195273  0.88683538  0.95552944  1
  O  O101  1  0.27187361  0.87170768  0.85987366  1
  O  O102  1  0.35345602  0.30032805  0.47326438  1
  O  O103  1  0.19793149  0.08015620  0.45982053  1
  O  O104  1  0.14012634  0.72812639  0.12829232  1
  O  O105  1  0.47326438  0.35345602  0.30032805  1
  O  O106  1  0.64654398  0.69967195  0.52673562  1
  O  O107  1  0.08015620  0.45982053  0.19793149  1
  O  O108  1  0.65176931  0.92827400  0.63504276  1
  O  O109  1  0.45982053  0.19793149  0.08015620  1
