# generated using pymatgen
data_La2Si(IO2)2
_symmetry_space_group_name_H-M   'P 1'
_cell_length_a   8.59712861
_cell_length_b   8.58255369
_cell_length_c   12.28480243
_cell_angle_alpha   99.33594596
_cell_angle_beta   107.62483112
_cell_angle_gamma   90.09019341
_symmetry_Int_Tables_number   1
_chemical_formula_structural   La2Si(IO2)2
_chemical_formula_sum   'La8 Si4 I8 O16'
_cell_volume   851.20715040
_cell_formula_units_Z   4
loop_
 _symmetry_equiv_pos_site_id
 _symmetry_equiv_pos_as_xyz
  1  'x, y, z'
loop_
 _atom_site_type_symbol
 _atom_site_label
 _atom_site_symmetry_multiplicity
 _atom_site_fract_x
 _atom_site_fract_y
 _atom_site_fract_z
 _atom_site_occupancy
  La  La0  1  0.78395237  0.77730818  0.81335182  1
  La  La1  1  0.28424876  0.63657552  0.81319420  1
  La  La2  1  0.56694158  0.84061949  0.12491578  1
  La  La3  1  0.06565871  0.71734577  0.12308581  1
  La  La4  1  0.93434129  0.28265423  0.87691419  1
  La  La5  1  0.43305842  0.15938051  0.87508422  1
  La  La6  1  0.71575124  0.36342448  0.18680580  1
  La  La7  1  0.21604763  0.22269182  0.18664818  1
  Si  Si8  1  0.80028750  0.06088085  0.02543251  1
  Si  Si9  1  0.69869148  0.54856684  0.97413200  1
  Si  Si10  1  0.30130852  0.45143316  0.02586800  1
  Si  Si11  1  0.19971250  0.93911915  0.97456749  1
  I  I12  1  0.94383486  0.99773200  0.66508701  1
  I  I13  1  0.56241269  0.65495342  0.33801794  1
  I  I14  1  0.90964044  0.48629474  0.65003484  1
  I  I15  1  0.43758731  0.34504658  0.66198206  1
  I  I16  1  0.58898010  0.14966586  0.35055454  1
  I  I17  1  0.05616514  0.00226800  0.33491299  1
  I  I18  1  0.09035956  0.51370526  0.34996516  1
  I  I19  1  0.41101990  0.85033414  0.64944546  1
  O  O20  1  0.07391196  0.78671165  0.90642297  1
  O  O21  1  0.75404769  0.61639244  0.11558080  1
  O  O22  1  0.25556598  0.93709245  0.11606185  1
  O  O23  1  0.74443402  0.06290755  0.88393815  1
  O  O24  1  0.42654986  0.33155179  0.09494596  1
  O  O25  1  0.14237979  0.11796405  0.96340123  1
  O  O26  1  0.85762021  0.88203595  0.03659877  1
  O  O27  1  0.63891394  0.08923699  0.07037435  1
  O  O28  1  0.13899852  0.44324421  0.06989987  1
  O  O29  1  0.92608804  0.21328835  0.09357703  1
  O  O30  1  0.24595231  0.38360756  0.88441920  1
  O  O31  1  0.35891013  0.63569468  0.03782616  1
  O  O32  1  0.57345014  0.66844821  0.90505404  1
  O  O33  1  0.64108987  0.36430532  0.96217384  1
  O  O34  1  0.36108606  0.91076301  0.92962565  1
  O  O35  1  0.86100148  0.55675579  0.93010013  1
