# generated using pymatgen
data_Li2CaTa2O7
_symmetry_space_group_name_H-M   'P 1'
_cell_length_a   3.95509870
_cell_length_b   3.95509983
_cell_length_c   9.71968860
_cell_angle_alpha   101.71734258
_cell_angle_beta   101.71733559
_cell_angle_gamma   90.11193416
_symmetry_Int_Tables_number   1
_chemical_formula_structural   Li2CaTa2O7
_chemical_formula_sum   'Li2 Ca1 Ta2 O7'
_cell_volume   145.62450154
_cell_formula_units_Z   1
loop_
 _symmetry_equiv_pos_site_id
 _symmetry_equiv_pos_as_xyz
  1  'x, y, z'
loop_
 _atom_site_type_symbol
 _atom_site_label
 _atom_site_symmetry_multiplicity
 _atom_site_fract_x
 _atom_site_fract_y
 _atom_site_fract_z
 _atom_site_occupancy
  Li  Li0  1  0.25003837  0.74996161  0.50000001  1
  Li  Li1  1  0.74996163  0.25003839  0.49999999  1
  Ca  Ca2  1  0.00000000  0.00000000  0.00000000  1
  Ta  Ta3  1  0.61149329  0.61149334  0.22293908  1
  Ta  Ta4  1  0.38850671  0.38850666  0.77706092  1
  O  O5  1  0.09965019  0.59963926  0.19929250  1
  O  O6  1  0.28617032  0.28617022  0.57237567  1
  O  O7  1  0.40036068  0.90034978  0.80070751  1
  O  O8  1  0.90034981  0.40036074  0.80070750  1
  O  O9  1  0.71382968  0.71382978  0.42762433  1
  O  O10  1  0.59963932  0.09965022  0.19929249  1
  O  O11  1  0.50000000  0.50000000  0.00000000  1
