# generated using pymatgen
data_Ag2CO3
_symmetry_space_group_name_H-M   'P 1'
_cell_length_a   9.38178521
_cell_length_b   9.38178558
_cell_length_c   6.54250273
_cell_angle_alpha   90.00000000
_cell_angle_beta   90.00000000
_cell_angle_gamma   119.99999864
_symmetry_Int_Tables_number   1
_chemical_formula_structural   Ag2CO3
_chemical_formula_sum   'Ag12 C6 O18'
_cell_volume   498.70708613
_cell_formula_units_Z   6
loop_
 _symmetry_equiv_pos_site_id
 _symmetry_equiv_pos_as_xyz
  1  'x, y, z'
loop_
 _atom_site_type_symbol
 _atom_site_label
 _atom_site_symmetry_multiplicity
 _atom_site_fract_x
 _atom_site_fract_y
 _atom_site_fract_z
 _atom_site_occupancy
  Ag  Ag0  1  0.02504783  0.67767957  0.49833622  1
  Ag  Ag1  1  0.97495217  0.65263173  0.99833622  1
  Ag  Ag2  1  0.32232043  0.34736827  0.49833622  1
  Ag  Ag3  1  0.30882259  0.97279985  0.27840308  1
  Ag  Ag4  1  0.02720015  0.33602274  0.27840308  1
  Ag  Ag5  1  0.66397726  0.69117741  0.27840308  1
  Ag  Ag6  1  0.69117741  0.66397726  0.77840308  1
  Ag  Ag7  1  0.65263173  0.97495217  0.49833622  1
  Ag  Ag8  1  0.97279985  0.30882259  0.77840308  1
  Ag  Ag9  1  0.33602274  0.02720015  0.77840308  1
  Ag  Ag10  1  0.34736827  0.32232043  0.99833622  1
  Ag  Ag11  1  0.67767957  0.02504783  0.99833622  1
  C  C12  1  0.00000000  0.00000000  0.88374748  1
  C  C13  1  0.33333300  0.66666700  0.71997393  1
  C  C14  1  0.66666700  0.33333300  0.21997393  1
  C  C15  1  0.00000000  0.00000000  0.38374748  1
  C  C16  1  0.66666700  0.33333300  0.71357064  1
  C  C17  1  0.33333300  0.66666700  0.21357064  1
  O  O18  1  0.92004903  0.84025106  0.38357797  1
  O  O19  1  0.42399415  0.82618901  0.21410440  1
  O  O20  1  0.40219486  0.57600585  0.21410440  1
  O  O21  1  0.73037027  0.23767897  0.22218099  1
  O  O22  1  0.57600585  0.40219486  0.71410440  1
  O  O23  1  0.84025106  0.92004903  0.88357797  1
  O  O24  1  0.76232103  0.49269130  0.22218099  1
  O  O25  1  0.92020203  0.07995097  0.38357797  1
  O  O26  1  0.07979797  0.15974894  0.88357797  1
  O  O27  1  0.59780514  0.17381099  0.71410440  1
  O  O28  1  0.17381099  0.59780514  0.21410440  1
  O  O29  1  0.82618901  0.42399415  0.71410440  1
  O  O30  1  0.07995097  0.92020203  0.88357797  1
  O  O31  1  0.50730870  0.26962973  0.22218099  1
  O  O32  1  0.26962973  0.50730870  0.72218099  1
  O  O33  1  0.15974894  0.07979797  0.38357797  1
  O  O34  1  0.23767897  0.73037027  0.72218099  1
  O  O35  1  0.49269130  0.76232103  0.72218099  1
