# generated using pymatgen
data_SrMnV2(AgO4)2
_symmetry_space_group_name_H-M   'P 1'
_cell_length_a   5.69078647
_cell_length_b   5.75936602
_cell_length_c   13.93252046
_cell_angle_alpha   90.69661994
_cell_angle_beta   90.00000000
_cell_angle_gamma   119.60687924
_symmetry_Int_Tables_number   1
_chemical_formula_structural   SrMnV2(AgO4)2
_chemical_formula_sum   'Sr2 Mn2 V4 Ag4 O16'
_cell_volume   396.98273665
_cell_formula_units_Z   2
loop_
 _symmetry_equiv_pos_site_id
 _symmetry_equiv_pos_as_xyz
  1  'x, y, z'
loop_
 _atom_site_type_symbol
 _atom_site_label
 _atom_site_symmetry_multiplicity
 _atom_site_fract_x
 _atom_site_fract_y
 _atom_site_fract_z
 _atom_site_occupancy
  Sr  Sr0  1  0.91716930  0.00000000  0.25000000  1
  Sr  Sr1  1  0.08283070  0.00000000  0.75000000  1
  Mn  Mn2  1  0.00000000  0.00000000  0.50000000  1
  Mn  Mn3  1  0.00000000  0.00000000  0.00000000  1
  V  V4  1  0.28753982  0.65299143  0.13008558  1
  V  V5  1  0.63454838  0.34700857  0.36991442  1
  V  V6  1  0.71246018  0.34700857  0.86991442  1
  V  V7  1  0.36545162  0.65299143  0.63008558  1
  Ag  Ag8  1  0.29005546  0.67826040  0.40407860  1
  Ag  Ag9  1  0.61179506  0.32173960  0.09592140  1
  Ag  Ag10  1  0.70994454  0.32173960  0.59592140  1
  Ag  Ag11  1  0.38820494  0.67826040  0.90407860  1
  O  O12  1  0.80314170  0.22336814  0.44163401  1
  O  O13  1  0.57977356  0.77663186  0.05836599  1
  O  O14  1  0.19685830  0.77663186  0.55836599  1
  O  O15  1  0.42022644  0.22336814  0.94163401  1
  O  O16  1  0.39766832  0.67301756  0.24683037  1
  O  O17  1  0.72465076  0.32698244  0.25316963  1
  O  O18  1  0.60233168  0.32698244  0.75316963  1
  O  O19  1  0.27534924  0.67301756  0.74683037  1
  O  O20  1  0.06596032  0.31650294  0.09920706  1
  O  O21  1  0.74945739  0.68349706  0.40079294  1
  O  O22  1  0.93403968  0.68349706  0.90079294  1
  O  O23  1  0.25054261  0.31650294  0.59920706  1
  O  O24  1  0.13144272  0.85071706  0.11887167  1
  O  O25  1  0.28072566  0.14928294  0.38112833  1
  O  O26  1  0.86855728  0.14928294  0.88112833  1
  O  O27  1  0.71927434  0.85071706  0.61887167  1
