# generated using pymatgen
data_CsMg30CrO32
_symmetry_space_group_name_H-M   'P 1'
_cell_length_a   8.66643449
_cell_length_b   8.66535654
_cell_length_c   8.66535654
_cell_angle_alpha   90.00000000
_cell_angle_beta   90.00000000
_cell_angle_gamma   90.00000000
_symmetry_Int_Tables_number   1
_chemical_formula_structural   CsMg30CrO32
_chemical_formula_sum   'Cs1 Mg30 Cr1 O32'
_cell_volume   650.74873392
_cell_formula_units_Z   1
loop_
 _symmetry_equiv_pos_site_id
 _symmetry_equiv_pos_as_xyz
  1  'x, y, z'
loop_
 _atom_site_type_symbol
 _atom_site_label
 _atom_site_symmetry_multiplicity
 _atom_site_fract_x
 _atom_site_fract_y
 _atom_site_fract_z
 _atom_site_occupancy
  Cs  Cs0  1  0.00000000  0.00000000  0.00000000  1
  Mg  Mg1  1  0.00000000  0.00000000  0.50000000  1
  Mg  Mg2  1  0.00000000  0.50000000  0.00000000  1
  Mg  Mg3  1  0.50000000  0.00000000  0.00000000  1
  Mg  Mg4  1  0.50000000  0.00000000  0.50000000  1
  Mg  Mg5  1  0.50000000  0.50000000  0.00000000  1
  Mg  Mg6  1  0.50000000  0.50000000  0.50000000  1
  Mg  Mg7  1  0.00000000  0.25233110  0.25233110  1
  Mg  Mg8  1  0.00000000  0.25233110  0.74766890  1
  Mg  Mg9  1  0.00000000  0.74766890  0.25233110  1
  Mg  Mg10  1  0.00000000  0.74766890  0.74766890  1
  Mg  Mg11  1  0.50000000  0.24935832  0.24935832  1
  Mg  Mg12  1  0.50000000  0.24935832  0.75064168  1
  Mg  Mg13  1  0.50000000  0.75064168  0.24935832  1
  Mg  Mg14  1  0.50000000  0.75064168  0.75064168  1
  Mg  Mg15  1  0.25496670  0.00000000  0.25359107  1
  Mg  Mg16  1  0.25496670  0.00000000  0.74640893  1
  Mg  Mg17  1  0.25145319  0.50000000  0.24813916  1
  Mg  Mg18  1  0.25145319  0.50000000  0.75186084  1
  Mg  Mg19  1  0.74503330  0.00000000  0.25359107  1
  Mg  Mg20  1  0.74503330  0.00000000  0.74640893  1
  Mg  Mg21  1  0.74854681  0.50000000  0.24813916  1
  Mg  Mg22  1  0.74854681  0.50000000  0.75186084  1
  Mg  Mg23  1  0.25496670  0.25359107  0.00000000  1
  Mg  Mg24  1  0.25145319  0.24813916  0.50000000  1
  Mg  Mg25  1  0.25496670  0.74640893  0.00000000  1
  Mg  Mg26  1  0.25145319  0.75186084  0.50000000  1
  Mg  Mg27  1  0.74503330  0.25359107  0.00000000  1
  Mg  Mg28  1  0.74854681  0.24813916  0.50000000  1
  Mg  Mg29  1  0.74503330  0.74640893  0.00000000  1
  Mg  Mg30  1  0.74854681  0.75186084  0.50000000  1
  Cr  Cr31  1  0.00000000  0.50000000  0.50000000  1
  O  O32  1  0.28507074  0.00000000  0.00000000  1
  O  O33  1  0.25588240  0.00000000  0.50000000  1
  O  O34  1  0.25588240  0.50000000  0.00000000  1
  O  O35  1  0.24223816  0.50000000  0.50000000  1
  O  O36  1  0.71492926  0.00000000  0.00000000  1
  O  O37  1  0.74411760  0.00000000  0.50000000  1
  O  O38  1  0.74411760  0.50000000  0.00000000  1
  O  O39  1  0.75776184  0.50000000  0.50000000  1
  O  O40  1  0.24891689  0.25044870  0.25044870  1
  O  O41  1  0.24891689  0.25044870  0.74955130  1
  O  O42  1  0.24891689  0.74955130  0.25044870  1
  O  O43  1  0.24891689  0.74955130  0.74955130  1
  O  O44  1  0.75108311  0.25044870  0.25044870  1
  O  O45  1  0.75108311  0.25044870  0.74955130  1
  O  O46  1  0.75108311  0.74955130  0.25044870  1
  O  O47  1  0.75108311  0.74955130  0.74955130  1
  O  O48  1  0.00000000  0.00000000  0.28582857  1
  O  O49  1  0.00000000  0.00000000  0.71417143  1
  O  O50  1  0.00000000  0.50000000  0.26389851  1
  O  O51  1  0.00000000  0.50000000  0.73610149  1
  O  O52  1  0.50000000  0.00000000  0.25792386  1
  O  O53  1  0.50000000  0.00000000  0.74207614  1
  O  O54  1  0.50000000  0.50000000  0.25460126  1
  O  O55  1  0.50000000  0.50000000  0.74539874  1
  O  O56  1  0.00000000  0.28582857  0.00000000  1
  O  O57  1  0.00000000  0.26389851  0.50000000  1
  O  O58  1  0.00000000  0.71417143  0.00000000  1
  O  O59  1  0.00000000  0.73610149  0.50000000  1
  O  O60  1  0.50000000  0.25792386  0.00000000  1
  O  O61  1  0.50000000  0.25460126  0.50000000  1
  O  O62  1  0.50000000  0.74207614  0.00000000  1
  O  O63  1  0.50000000  0.74539874  0.50000000  1
