# generated using pymatgen
data_LiLa5Ti8O24
_symmetry_space_group_name_H-M   'P 1'
_cell_length_a   7.85238165
_cell_length_b   7.82106567
_cell_length_c   7.76909983
_cell_angle_alpha   90.00000000
_cell_angle_beta   90.00000000
_cell_angle_gamma   89.99956477
_symmetry_Int_Tables_number   1
_chemical_formula_structural   LiLa5Ti8O24
_chemical_formula_sum   'Li1 La5 Ti8 O24'
_cell_volume   477.13143908
_cell_formula_units_Z   1
loop_
 _symmetry_equiv_pos_site_id
 _symmetry_equiv_pos_as_xyz
  1  'x, y, z'
loop_
 _atom_site_type_symbol
 _atom_site_label
 _atom_site_symmetry_multiplicity
 _atom_site_fract_x
 _atom_site_fract_y
 _atom_site_fract_z
 _atom_site_occupancy
  Li  Li0  1  0.74979272  0.84297485  0.00000000  1
  La  La1  1  0.75027296  0.02119847  0.50000000  1
  La  La2  1  0.24996523  0.50326826  0.00000000  1
  La  La3  1  0.24972678  0.49465152  0.50000000  1
  La  La4  1  0.24999523  0.01253471  0.50000000  1
  La  La5  1  0.25023945  0.99463159  0.00000000  1
  Ti  Ti6  1  0.98828755  0.25603959  0.75490153  1
  Ti  Ti7  1  0.51166215  0.25589759  0.75489226  1
  Ti  Ti8  1  0.98828755  0.25603959  0.24509847  1
  Ti  Ti9  1  0.50839551  0.74666817  0.25029932  1
  Ti  Ti10  1  0.99155010  0.74677861  0.74976954  1
  Ti  Ti11  1  0.99155010  0.74677861  0.25023046  1
  Ti  Ti12  1  0.51166215  0.25589759  0.24510774  1
  Ti  Ti13  1  0.50839551  0.74666817  0.74970068  1
  O  O14  1  0.47864185  0.50248261  0.24844728  1
  O  O15  1  0.51699666  0.24273933  0.50000000  1
  O  O16  1  0.24985089  0.75195851  0.78859447  1
  O  O17  1  0.24985089  0.75195851  0.21140553  1
  O  O18  1  0.51702619  0.75997132  0.00000000  1
  O  O19  1  0.45204348  0.24903591  0.00000000  1
  O  O20  1  0.02104420  0.50252997  0.75254852  1
  O  O21  1  0.47902005  0.00249088  0.73955159  1
  O  O22  1  0.04208020  0.75138333  0.50000000  1
  O  O23  1  0.74990065  0.22883017  0.76087576  1
  O  O24  1  0.45784608  0.75243795  0.50000000  1
  O  O25  1  0.74987825  0.77929089  0.72636135  1
  O  O26  1  0.02039195  0.00249708  0.73810288  1
  O  O27  1  0.24985425  0.25677880  0.71411145  1
  O  O28  1  0.24985425  0.25677880  0.28588855  1
  O  O29  1  0.04787114  0.24814128  0.00000000  1
  O  O30  1  0.74987825  0.77929089  0.27363865  1
  O  O31  1  0.47864185  0.50248261  0.75155272  1
  O  O32  1  0.02039195  0.00249708  0.26189712  1
  O  O33  1  0.02104420  0.50252997  0.24745148  1
  O  O34  1  0.47902005  0.00249088  0.26044841  1
  O  O35  1  0.74990065  0.22883017  0.23912424  1
  O  O36  1  0.98280751  0.76116956  0.00000000  1
  O  O37  1  0.98281156  0.24414623  0.50000000  1
