# generated using pymatgen
data_Zr3(VGa2)2
_symmetry_space_group_name_H-M   'P 1'
_cell_length_a   5.42632743
_cell_length_b   13.72857368
_cell_length_c   16.93101908
_cell_angle_alpha   90.00000000
_cell_angle_beta   90.00000000
_cell_angle_gamma   90.00000000
_symmetry_Int_Tables_number   1
_chemical_formula_structural   Zr3(VGa2)2
_chemical_formula_sum   'Zr24 V16 Ga32'
_cell_volume   1261.28872649
_cell_formula_units_Z   8
loop_
 _symmetry_equiv_pos_site_id
 _symmetry_equiv_pos_as_xyz
  1  'x, y, z'
loop_
 _atom_site_type_symbol
 _atom_site_label
 _atom_site_symmetry_multiplicity
 _atom_site_fract_x
 _atom_site_fract_y
 _atom_site_fract_z
 _atom_site_occupancy
  Zr  Zr0  1  0.75000000  0.81308063  0.71010827  1
  Zr  Zr1  1  0.75000000  0.46972951  0.06603981  1
  Zr  Zr2  1  0.75000000  0.23072462  0.05915047  1
  Zr  Zr3  1  0.25000000  0.96972951  0.43396019  1
  Zr  Zr4  1  0.25000000  0.14596853  0.96546775  1
  Zr  Zr5  1  0.25000000  0.35403147  0.46546775  1
  Zr  Zr6  1  0.25000000  0.53027049  0.93396019  1
  Zr  Zr7  1  0.75000000  0.64596853  0.53453225  1
  Zr  Zr8  1  0.25000000  0.97256438  0.67346091  1
  Zr  Zr9  1  0.25000000  0.76927538  0.94084953  1
  Zr  Zr10  1  0.75000000  0.02743562  0.32653909  1
  Zr  Zr11  1  0.75000000  0.47256438  0.82653909  1
  Zr  Zr12  1  0.25000000  0.52743562  0.17346091  1
  Zr  Zr13  1  0.75000000  0.32007953  0.34898354  1
  Zr  Zr14  1  0.25000000  0.73072462  0.44084953  1
  Zr  Zr15  1  0.25000000  0.67992047  0.65101646  1
  Zr  Zr16  1  0.75000000  0.85403147  0.03453225  1
  Zr  Zr17  1  0.75000000  0.26927538  0.55915047  1
  Zr  Zr18  1  0.75000000  0.17992047  0.84898354  1
  Zr  Zr19  1  0.25000000  0.82007953  0.15101646  1
  Zr  Zr20  1  0.25000000  0.18691937  0.28989173  1
  Zr  Zr21  1  0.25000000  0.31308063  0.78989173  1
  Zr  Zr22  1  0.75000000  0.03027049  0.56603981  1
  Zr  Zr23  1  0.75000000  0.68691937  0.21010827  1
  V  V24  1  0.99082955  0.04070351  0.12985538  1
  V  V25  1  0.98332300  0.16166906  0.68772512  1
  V  V26  1  0.48332300  0.66166906  0.81227488  1
  V  V27  1  0.98332300  0.33833094  0.18772512  1
  V  V28  1  0.99082955  0.45929649  0.62985538  1
  V  V29  1  0.01667700  0.83833094  0.31227488  1
  V  V30  1  0.51667700  0.33833094  0.18772512  1
  V  V31  1  0.00917045  0.95929649  0.87014462  1
  V  V32  1  0.49082955  0.54070351  0.37014462  1
  V  V33  1  0.01667700  0.66166906  0.81227488  1
  V  V34  1  0.00917045  0.54070351  0.37014462  1
  V  V35  1  0.51667700  0.16166906  0.68772512  1
  V  V36  1  0.50917045  0.04070351  0.12985538  1
  V  V37  1  0.48332300  0.83833094  0.31227488  1
  V  V38  1  0.50917045  0.45929649  0.62985538  1
  V  V39  1  0.49082955  0.95929649  0.87014462  1
  Ga  Ga40  1  0.25000000  0.55112055  0.51556426  1
  Ga  Ga41  1  0.75000000  0.17594996  0.21924186  1
  Ga  Ga42  1  0.00687652  0.65994667  0.06648614  1
  Ga  Ga43  1  0.75000000  0.32405004  0.71924186  1
  Ga  Ga44  1  0.25000000  0.39248073  0.30722510  1
  Ga  Ga45  1  0.25000000  0.10751927  0.80722510  1
  Ga  Ga46  1  0.75000000  0.48894845  0.24144168  1
  Ga  Ga47  1  0.25000000  0.98894845  0.25855832  1
  Ga  Ga48  1  0.99312348  0.15994667  0.43351386  1
  Ga  Ga49  1  0.25000000  0.37519472  0.06046316  1
  Ga  Ga50  1  0.49312348  0.84005333  0.56648614  1
  Ga  Ga51  1  0.25000000  0.30118257  0.62344124  1
  Ga  Ga52  1  0.25000000  0.19881743  0.12344124  1
  Ga  Ga53  1  0.75000000  0.62480528  0.93953684  1
  Ga  Ga54  1  0.50687652  0.15994667  0.43351386  1
  Ga  Ga55  1  0.25000000  0.51105155  0.75855832  1
  Ga  Ga56  1  0.75000000  0.87519472  0.43953684  1
  Ga  Ga57  1  0.25000000  0.67594996  0.28075814  1
  Ga  Ga58  1  0.50687652  0.34005333  0.93351386  1
  Ga  Ga59  1  0.75000000  0.80118257  0.87655876  1
  Ga  Ga60  1  0.49312348  0.65994667  0.06648614  1
  Ga  Ga61  1  0.25000000  0.82405004  0.78075814  1
  Ga  Ga62  1  0.75000000  0.44887945  0.48443574  1
  Ga  Ga63  1  0.75000000  0.01105155  0.74144168  1
  Ga  Ga64  1  0.00687652  0.84005333  0.56648614  1
  Ga  Ga65  1  0.25000000  0.94887945  0.01556426  1
  Ga  Ga66  1  0.75000000  0.05112055  0.98443574  1
  Ga  Ga67  1  0.75000000  0.69881743  0.37655876  1
  Ga  Ga68  1  0.75000000  0.89248073  0.19277490  1
  Ga  Ga69  1  0.99312348  0.34005333  0.93351386  1
  Ga  Ga70  1  0.75000000  0.60751927  0.69277490  1
  Ga  Ga71  1  0.25000000  0.12480528  0.56046316  1
