# generated using pymatgen
data_NaClO4
_symmetry_space_group_name_H-M   'P 1'
_cell_length_a   5.55639575
_cell_length_b   7.03503534
_cell_length_c   8.22487416
_cell_angle_alpha   90.00000000
_cell_angle_beta   90.00000000
_cell_angle_gamma   90.00000000
_symmetry_Int_Tables_number   1
_chemical_formula_structural   NaClO4
_chemical_formula_sum   'Na4 Cl4 O16'
_cell_volume   321.50572880
_cell_formula_units_Z   4
loop_
 _symmetry_equiv_pos_site_id
 _symmetry_equiv_pos_as_xyz
  1  'x, y, z'
loop_
 _atom_site_type_symbol
 _atom_site_label
 _atom_site_symmetry_multiplicity
 _atom_site_fract_x
 _atom_site_fract_y
 _atom_site_fract_z
 _atom_site_occupancy
  Na  Na0  1  0.75000000  0.17088986  0.81690639  1
  Na  Na1  1  0.75000000  0.32911014  0.31690639  1
  Na  Na2  1  0.25000000  0.82911014  0.18309361  1
  Na  Na3  1  0.25000000  0.67088986  0.68309361  1
  Cl  Cl4  1  0.75000000  0.81800738  0.43729643  1
  Cl  Cl5  1  0.75000000  0.68199262  0.93729643  1
  Cl  Cl6  1  0.25000000  0.18199262  0.56270357  1
  Cl  Cl7  1  0.25000000  0.31800738  0.06270357  1
  O  O8  1  0.75000000  0.58353590  0.09213887  1
  O  O9  1  0.03486560  0.19693391  0.07439055  1
  O  O10  1  0.53486560  0.80306609  0.92560945  1
  O  O11  1  0.25000000  0.41646410  0.90786113  1
  O  O12  1  0.46513440  0.19693391  0.07439055  1
  O  O13  1  0.03486560  0.30306609  0.57439055  1
  O  O14  1  0.75000000  0.54637659  0.80303426  1
  O  O15  1  0.25000000  0.04637659  0.69696574  1
  O  O16  1  0.96513440  0.69693391  0.42560945  1
  O  O17  1  0.25000000  0.08353590  0.40786113  1
  O  O18  1  0.75000000  0.91646410  0.59213887  1
  O  O19  1  0.46513440  0.30306609  0.57439055  1
  O  O20  1  0.75000000  0.95362341  0.30303426  1
  O  O21  1  0.25000000  0.45362341  0.19696574  1
  O  O22  1  0.96513440  0.80306609  0.92560945  1
  O  O23  1  0.53486560  0.69693391  0.42560945  1
