# generated using pymatgen
data_RbVH6SO9
_symmetry_space_group_name_H-M   'P 1'
_cell_length_a   6.30048487
_cell_length_b   6.77649225
_cell_length_c   10.12859152
_cell_angle_alpha   90.00000000
_cell_angle_beta   90.00000000
_cell_angle_gamma   108.05059187
_symmetry_Int_Tables_number   1
_chemical_formula_structural   RbVH6SO9
_chemical_formula_sum   'Rb2 V2 H12 S2 O18'
_cell_volume   411.15872834
_cell_formula_units_Z   2
loop_
 _symmetry_equiv_pos_site_id
 _symmetry_equiv_pos_as_xyz
  1  'x, y, z'
loop_
 _atom_site_type_symbol
 _atom_site_label
 _atom_site_symmetry_multiplicity
 _atom_site_fract_x
 _atom_site_fract_y
 _atom_site_fract_z
 _atom_site_occupancy
  Rb  Rb0  1  0.30353752  0.81463533  0.65149486  1
  Rb  Rb1  1  0.69646248  0.18536467  0.15149486  1
  V  V2  1  0.61669626  0.38311815  0.49870910  1
  V  V3  1  0.38330374  0.61688185  0.99870910  1
  H  H4  1  0.80977797  0.82053066  0.57839856  1
  H  H5  1  0.22784046  0.30846010  0.20938360  1
  H  H6  1  0.02976321  0.30439734  0.85381858  1
  H  H7  1  0.77215954  0.69153990  0.70938360  1
  H  H8  1  0.97023679  0.69560266  0.35381858  1
  H  H9  1  0.19022203  0.17946934  0.07839856  1
  H  H10  1  0.12080720  0.92715545  0.35058550  1
  H  H11  1  0.68932693  0.26291569  0.76129501  1
  H  H12  1  0.52871284  0.65701590  0.26126846  1
  H  H13  1  0.87919280  0.07284455  0.85058550  1
  H  H14  1  0.47128716  0.34298410  0.76126846  1
  H  H15  1  0.31067307  0.73708431  0.26129501  1
  S  S16  1  0.92223053  0.73275479  0.99782301  1
  S  S17  1  0.07776947  0.26724521  0.49782301  1
  O  O18  1  0.06566847  0.60088096  0.04096023  1
  O  O19  1  0.31051474  0.40853644  0.53136741  1
  O  O20  1  0.46143951  0.85473649  0.93946273  1
  O  O21  1  0.53856049  0.14526351  0.43946273  1
  O  O22  1  0.02328324  0.07591763  0.57524413  1
  O  O23  1  0.93433153  0.39911904  0.54096023  1
  O  O24  1  0.32254727  0.46328192  0.86390202  1
  O  O25  1  0.94129270  0.77314057  0.85467102  1
  O  O26  1  0.71509438  0.68975955  0.61829034  1
  O  O27  1  0.05870730  0.22685943  0.35467102  1
  O  O28  1  0.67745273  0.53671808  0.36390202  1
  O  O29  1  0.12729849  0.78540414  0.36048469  1
  O  O30  1  0.68948526  0.59146356  0.03136741  1
  O  O31  1  0.56337062  0.28040010  0.70514074  1
  O  O32  1  0.97671676  0.92408237  0.07524413  1
  O  O33  1  0.28490562  0.31024045  0.11829034  1
  O  O34  1  0.87270151  0.21459586  0.86048469  1
  O  O35  1  0.43662938  0.71959990  0.20514074  1
