# generated using pymatgen
data_TlS
_symmetry_space_group_name_H-M   'P 1'
_cell_length_a   8.02724353
_cell_length_b   8.02724353
_cell_length_c   29.99186892
_cell_angle_alpha   90.00000000
_cell_angle_beta   90.00000000
_cell_angle_gamma   90.00000000
_symmetry_Int_Tables_number   1
_chemical_formula_structural   TlS
_chemical_formula_sum   'Tl32 S32'
_cell_volume   1932.57522123
_cell_formula_units_Z   32
loop_
 _symmetry_equiv_pos_site_id
 _symmetry_equiv_pos_as_xyz
  1  'x, y, z'
loop_
 _atom_site_type_symbol
 _atom_site_label
 _atom_site_symmetry_multiplicity
 _atom_site_fract_x
 _atom_site_fract_y
 _atom_site_fract_z
 _atom_site_occupancy
  Tl  Tl0  1  0.41881870  0.62809173  0.81744295  1
  Tl  Tl1  1  0.87815486  0.87074518  0.20279854  1
  Tl  Tl2  1  0.12925482  0.12184514  0.29720146  1
  Tl  Tl3  1  0.91017342  0.37394587  0.93624531  1
  Tl  Tl4  1  0.62674481  0.12543872  0.69740334  1
  Tl  Tl5  1  0.12674481  0.37456128  0.05259666  1
  Tl  Tl6  1  0.62925482  0.37815486  0.45279854  1
  Tl  Tl7  1  0.62184514  0.37074518  0.04720146  1
  Tl  Tl8  1  0.41017342  0.12605413  0.81375469  1
  Tl  Tl9  1  0.37815486  0.62925482  0.54720146  1
  Tl  Tl10  1  0.87074518  0.87815486  0.79720146  1
  Tl  Tl11  1  0.12543872  0.62674481  0.30259666  1
  Tl  Tl12  1  0.62605413  0.08982658  0.56375469  1
  Tl  Tl13  1  0.91881870  0.87190827  0.93255705  1
  Tl  Tl14  1  0.12809173  0.08118130  0.56744295  1
  Tl  Tl15  1  0.08982658  0.62605413  0.43624531  1
  Tl  Tl16  1  0.87394587  0.58982658  0.68624531  1
  Tl  Tl17  1  0.58982658  0.87394587  0.31375469  1
  Tl  Tl18  1  0.62543872  0.87325519  0.44740334  1
  Tl  Tl19  1  0.62809173  0.41881870  0.18255705  1
  Tl  Tl20  1  0.12605413  0.41017342  0.18624531  1
  Tl  Tl21  1  0.87456128  0.37325519  0.80259666  1
  Tl  Tl22  1  0.37456128  0.12674481  0.94740334  1
  Tl  Tl23  1  0.37190827  0.58118130  0.68255705  1
  Tl  Tl24  1  0.37394587  0.91017342  0.06375469  1
  Tl  Tl25  1  0.08118130  0.12809173  0.43255705  1
  Tl  Tl26  1  0.37074518  0.62184514  0.95279854  1
  Tl  Tl27  1  0.37325519  0.87456128  0.19740334  1
  Tl  Tl28  1  0.87190827  0.91881870  0.06744295  1
  Tl  Tl29  1  0.58118130  0.37190827  0.31744295  1
  Tl  Tl30  1  0.12184514  0.12925482  0.70279854  1
  Tl  Tl31  1  0.87325519  0.62543872  0.55259666  1
  S  S32  1  0.88487429  0.88487429  0.50000000  1
  S  S33  1  0.68706791  0.13183705  0.39964098  1
  S  S34  1  0.61617642  0.85796851  0.74250578  1
  S  S35  1  0.86454489  0.13545511  0.25000000  1
  S  S36  1  0.31293209  0.86816295  0.89964098  1
  S  S37  1  0.64203149  0.11617642  0.99250578  1
  S  S38  1  0.13183705  0.68706791  0.60035902  1
  S  S39  1  0.61926542  0.68383986  0.60187892  1
  S  S40  1  0.88382358  0.35796851  0.50749422  1
  S  S41  1  0.85796851  0.61617642  0.25749422  1
  S  S42  1  0.38382358  0.14203149  0.24250578  1
  S  S43  1  0.35796851  0.88382358  0.49250578  1
  S  S44  1  0.13545511  0.86454489  0.75000000  1
  S  S45  1  0.38487429  0.61512571  0.25000000  1
  S  S46  1  0.63183705  0.81293209  0.14964098  1
  S  S47  1  0.61512571  0.38487429  0.75000000  1
  S  S48  1  0.31616014  0.38073458  0.89812108  1
  S  S49  1  0.11512571  0.11512571  0.00000000  1
  S  S50  1  0.81293209  0.63183705  0.85035902  1
  S  S51  1  0.81616014  0.11926542  0.85187892  1
  S  S52  1  0.18706791  0.36816295  0.35035902  1
  S  S53  1  0.36816295  0.18706791  0.64964098  1
  S  S54  1  0.38073458  0.31616014  0.10187892  1
  S  S55  1  0.36454489  0.36454489  0.50000000  1
  S  S56  1  0.63545511  0.63545511  0.00000000  1
  S  S57  1  0.88073458  0.18383986  0.64812108  1
  S  S58  1  0.11617642  0.64203149  0.00749422  1
  S  S59  1  0.18383986  0.88073458  0.35187892  1
  S  S60  1  0.14203149  0.38382358  0.75749422  1
  S  S61  1  0.86816295  0.31293209  0.10035902  1
  S  S62  1  0.11926542  0.81616014  0.14812108  1
  S  S63  1  0.68383986  0.61926542  0.39812108  1
