# generated using pymatgen
data_V4HgO10
_symmetry_space_group_name_H-M   'P 1'
_cell_length_a   3.68135519
_cell_length_b   9.82037957
_cell_length_c   11.63435539
_cell_angle_alpha   92.22986194
_cell_angle_beta   99.10304079
_cell_angle_gamma   90.00000151
_symmetry_Int_Tables_number   1
_chemical_formula_structural   V4HgO10
_chemical_formula_sum   'V8 Hg2 O20'
_cell_volume   414.98881187
_cell_formula_units_Z   2
loop_
 _symmetry_equiv_pos_site_id
 _symmetry_equiv_pos_as_xyz
  1  'x, y, z'
loop_
 _atom_site_type_symbol
 _atom_site_label
 _atom_site_symmetry_multiplicity
 _atom_site_fract_x
 _atom_site_fract_y
 _atom_site_fract_z
 _atom_site_occupancy
  V  V0  1  0.81190629  0.46565867  0.62381257  1
  V  V1  1  0.39474554  0.05831732  0.78949007  1
  V  V2  1  0.74185454  0.76659681  0.48370908  1
  V  V3  1  0.60525446  0.94168268  0.21050993  1
  V  V4  1  0.18809371  0.53434133  0.37618743  1
  V  V5  1  0.25814546  0.23340319  0.51629092  1
  V  V6  1  0.87714551  0.80259053  0.75429003  1
  V  V7  1  0.12285449  0.19740947  0.24570997  1
  Hg  Hg8  1  0.51750203  0.62690939  0.03500507  1
  Hg  Hg9  1  0.48249797  0.37309061  0.96499493  1
  O  O10  1  0.18073894  0.33317474  0.36147787  1
  O  O11  1  0.77115647  0.28317355  0.54231294  1
  O  O12  1  0.71043103  0.54002290  0.42086307  1
  O  O13  1  0.66200209  0.83903045  0.32400417  1
  O  O14  1  0.33799791  0.16096955  0.67599583  1
  O  O15  1  0.81926106  0.66682526  0.63852213  1
  O  O16  1  0.54342101  0.84097553  0.08684101  1
  O  O17  1  0.89965188  1.00080963  0.79930476  1
  O  O18  1  0.62639941  0.14457794  0.25279982  1
  O  O19  1  0.11935083  0.57037361  0.23870166  1
  O  O20  1  0.78158164  0.90854329  0.56316327  1
  O  O21  1  0.21841836  0.09145671  0.43683673  1
  O  O22  1  0.06342957  0.28376723  0.12685913  1
  O  O23  1  0.93657043  0.71623277  0.87314087  1
  O  O24  1  0.37360059  0.85542206  0.74720018  1
  O  O25  1  0.22884353  0.71682645  0.45768706  1
  O  O26  1  0.28956897  0.45997710  0.57913693  1
  O  O27  1  0.88064917  0.42962639  0.76129834  1
  O  O28  1  0.45657899  0.15902447  0.91315899  1
  O  O29  1  0.10034812  -0.00080963  0.20069524  1
