# generated using pymatgen
data_Rb2FeI4
_symmetry_space_group_name_H-M   'P 1'
_cell_length_a   7.67189515
_cell_length_b   8.51655335
_cell_length_c   10.73912172
_cell_angle_alpha   90.00000000
_cell_angle_beta   110.72379629
_cell_angle_gamma   90.00000000
_symmetry_Int_Tables_number   1
_chemical_formula_structural   Rb2FeI4
_chemical_formula_sum   'Rb4 Fe2 I8'
_cell_volume   656.27355294
_cell_formula_units_Z   2
loop_
 _symmetry_equiv_pos_site_id
 _symmetry_equiv_pos_as_xyz
  1  'x, y, z'
loop_
 _atom_site_type_symbol
 _atom_site_label
 _atom_site_symmetry_multiplicity
 _atom_site_fract_x
 _atom_site_fract_y
 _atom_site_fract_z
 _atom_site_occupancy
  Rb  Rb0  1  0.20093127  0.73989673  0.03916383  1
  Rb  Rb1  1  0.28655434  0.73888752  0.58133970  1
  Rb  Rb2  1  0.71344566  0.23888752  0.41866030  1
  Rb  Rb3  1  0.79906873  0.23989673  0.96083617  1
  Fe  Fe4  1  0.79584299  0.74535149  0.21071282  1
  Fe  Fe5  1  0.20415701  0.24535149  0.78928718  1
  I  I6  1  0.62878606  0.75039534  0.94907967  1
  I  I7  1  0.58431531  0.74790572  0.35730790  1
  I  I8  1  0.00876429  0.49394324  0.27052080  1
  I  I9  1  0.37121394  0.25039534  0.05092033  1
  I  I10  1  0.98424055  0.49231996  0.72537410  1
  I  I11  1  0.41568469  0.24790572  0.64269210  1
  I  I12  1  0.99123571  0.99394324  0.72947920  1
  I  I13  1  0.01575945  0.99231996  0.27462590  1
