# generated using pymatgen
data_Sr8Fe3N8
_symmetry_space_group_name_H-M   'P 1'
_cell_length_a   5.35799329
_cell_length_b   7.49106349
_cell_length_c   9.79639147
_cell_angle_alpha   105.30027127
_cell_angle_beta   105.87055845
_cell_angle_gamma   89.99961980
_symmetry_Int_Tables_number   1
_chemical_formula_structural   Sr8Fe3N8
_chemical_formula_sum   'Sr8 Fe3 N8'
_cell_volume   363.70035622
_cell_formula_units_Z   1
loop_
 _symmetry_equiv_pos_site_id
 _symmetry_equiv_pos_as_xyz
  1  'x, y, z'
loop_
 _atom_site_type_symbol
 _atom_site_label
 _atom_site_symmetry_multiplicity
 _atom_site_fract_x
 _atom_site_fract_y
 _atom_site_fract_z
 _atom_site_occupancy
  Sr  Sr0  1  0.03078783  0.26389685  0.06157986  1
  Sr  Sr1  1  0.80033409  0.19298654  0.60065953  1
  Sr  Sr2  1  0.40505844  0.03618412  0.81012557  1
  Sr  Sr3  1  0.66721761  0.46795427  0.33446038  1
  Sr  Sr4  1  0.33278239  0.53204573  0.66553962  1
  Sr  Sr5  1  0.59494156  0.96381588  0.18987443  1
  Sr  Sr6  1  0.96921217  0.73610315  0.93842014  1
  Sr  Sr7  1  0.19966591  0.80701346  0.39934047  1
  Fe  Fe8  1  0.81163499  0.79322504  0.62332179  1
  Fe  Fe9  1  0.50000000  0.50000000  0.00000000  1
  Fe  Fe10  1  0.18836501  0.20677496  0.37667821  1
  N  N11  1  0.27651121  0.17117409  0.55299507  1
  N  N12  1  0.47350710  0.71944199  0.94700019  1
  N  N13  1  0.52649290  0.28055801  0.05299981  1
  N  N14  1  0.10872596  0.01673037  0.21742313  1
  N  N15  1  0.89127404  0.98326963  0.78257687  1
  N  N16  1  0.72348879  0.82882591  0.44700493  1
  N  N17  1  0.82150024  0.56939985  0.64300514  1
  N  N18  1  0.17849976  0.43060015  0.35699486  1
