# generated using pymatgen
data_TiCl3
_symmetry_space_group_name_H-M   'P 1'
_cell_length_a   6.14712292
_cell_length_b   6.13145367
_cell_length_c   12.70144998
_cell_angle_alpha   89.44233093
_cell_angle_beta   88.88745256
_cell_angle_gamma   59.91542691
_symmetry_Int_Tables_number   1
_chemical_formula_structural   TiCl3
_chemical_formula_sum   'Ti4 Cl12'
_cell_volume   414.15857743
_cell_formula_units_Z   4
loop_
 _symmetry_equiv_pos_site_id
 _symmetry_equiv_pos_as_xyz
  1  'x, y, z'
loop_
 _atom_site_type_symbol
 _atom_site_label
 _atom_site_symmetry_multiplicity
 _atom_site_fract_x
 _atom_site_fract_y
 _atom_site_fract_z
 _atom_site_occupancy
  Ti  Ti0  1  0.51627780  0.96744439  0.75000000  1
  Ti  Ti1  1  0.83467899  0.33064201  0.75000000  1
  Ti  Ti2  1  0.48372220  0.03255561  0.25000000  1
  Ti  Ti3  1  0.16532101  0.66935799  0.25000000  1
  Cl  Cl4  1  0.17142277  0.00639108  0.85900283  1
  Cl  Cl5  1  0.53180172  0.64896895  0.63636359  1
  Cl  Cl6  1  0.18077067  0.35103105  0.13636359  1
  Cl  Cl7  1  0.81922933  0.64896895  0.86363641  1
  Cl  Cl8  1  0.17935529  0.29105221  0.64075430  1
  Cl  Cl9  1  0.82064471  0.70894779  0.35924570  1
  Cl  Cl10  1  0.46819828  0.35103105  0.36363641  1
  Cl  Cl11  1  0.47040751  0.70894779  0.14075430  1
  Cl  Cl12  1  0.17781385  0.99360892  0.35900283  1
  Cl  Cl13  1  0.52959249  0.29105221  0.85924570  1
  Cl  Cl14  1  0.82857723  0.99360892  0.14099717  1
  Cl  Cl15  1  0.82218615  0.00639108  0.64099717  1
