# generated using pymatgen
data_TiCl3
_symmetry_space_group_name_H-M   'P 1'
_cell_length_a   6.12199468
_cell_length_b   6.12199480
_cell_length_c   19.63506162
_cell_angle_alpha   90.00000000
_cell_angle_beta   90.00000000
_cell_angle_gamma   119.99999937
_symmetry_Int_Tables_number   1
_chemical_formula_structural   TiCl3
_chemical_formula_sum   'Ti6 Cl18'
_cell_volume   637.30717369
_cell_formula_units_Z   6
loop_
 _symmetry_equiv_pos_site_id
 _symmetry_equiv_pos_as_xyz
  1  'x, y, z'
loop_
 _atom_site_type_symbol
 _atom_site_label
 _atom_site_symmetry_multiplicity
 _atom_site_fract_x
 _atom_site_fract_y
 _atom_site_fract_z
 _atom_site_occupancy
  Ti  Ti0  1  0.11323190  0.88676810  0.33333300  1
  Ti  Ti1  1  0.77556913  0.22443087  0.33333300  1
  Ti  Ti2  1  0.77556913  0.55113826  0.66666700  1
  Ti  Ti3  1  0.11323190  0.22646379  0.66666700  1
  Ti  Ti4  1  0.77353621  0.88676810  -0.00000000  1
  Ti  Ti5  1  0.44886174  0.22443087  -0.00000000  1
  Cl  Cl6  1  0.80206315  0.91309606  0.26210806  1
  Cl  Cl7  1  0.11103291  0.19793685  0.92877406  1
  Cl  Cl8  1  0.44382082  0.53172209  0.59435496  1
  Cl  Cl9  1  0.08790127  0.53172209  0.73897804  1
  Cl  Cl10  1  0.80206315  0.88896709  0.73789194  1
  Cl  Cl11  1  0.08690394  0.19793685  0.40455894  1
  Cl  Cl12  1  0.44382082  0.91209873  0.40564504  1
  Cl  Cl13  1  0.46827791  0.55617918  0.07231204  1
  Cl  Cl14  1  0.11103291  0.91309606  0.07122594  1
  Cl  Cl15  1  0.44510344  0.24585981  0.73876527  1
  Cl  Cl16  1  0.75414019  0.19924363  0.07209927  1
  Cl  Cl17  1  0.80075637  0.55489656  0.40543227  1
  Cl  Cl18  1  0.08690394  0.88896709  0.59544106  1
  Cl  Cl19  1  0.46827791  0.91209873  0.92768796  1
  Cl  Cl20  1  0.80075637  0.24585981  0.59456773  1
  Cl  Cl21  1  0.08790127  0.55617918  0.26102196  1
  Cl  Cl22  1  0.75414019  0.55489656  0.92790073  1
  Cl  Cl23  1  0.44510344  0.19924363  0.26123473  1
