# generated using pymatgen
data_RbMg30BiO32
_symmetry_space_group_name_H-M   'P 1'
_cell_length_a   8.68521237
_cell_length_b   8.70011740
_cell_length_c   8.70011740
_cell_angle_alpha   90.00000000
_cell_angle_beta   90.00000000
_cell_angle_gamma   90.00000000
_symmetry_Int_Tables_number   1
_chemical_formula_structural   RbMg30BiO32
_chemical_formula_sum   'Rb1 Mg30 Bi1 O32'
_cell_volume   657.40146621
_cell_formula_units_Z   1
loop_
 _symmetry_equiv_pos_site_id
 _symmetry_equiv_pos_as_xyz
  1  'x, y, z'
loop_
 _atom_site_type_symbol
 _atom_site_label
 _atom_site_symmetry_multiplicity
 _atom_site_fract_x
 _atom_site_fract_y
 _atom_site_fract_z
 _atom_site_occupancy
  Rb  Rb0  1  0.00000000  0.00000000  -0.00000000  1
  Mg  Mg1  1  0.00000000  0.00000000  0.50000000  1
  Mg  Mg2  1  0.00000000  0.50000000  -0.00000000  1
  Mg  Mg3  1  0.50000000  0.00000000  -0.00000000  1
  Mg  Mg4  1  0.50000000  0.00000000  0.50000000  1
  Mg  Mg5  1  0.50000000  0.50000000  -0.00000000  1
  Mg  Mg6  1  0.50000000  0.50000000  0.50000000  1
  Mg  Mg7  1  0.00000000  0.24453059  0.24453059  1
  Mg  Mg8  1  0.00000000  0.24453059  0.75546941  1
  Mg  Mg9  1  0.00000000  0.75546941  0.24453059  1
  Mg  Mg10  1  0.00000000  0.75546941  0.75546941  1
  Mg  Mg11  1  0.50000000  0.24862465  0.24862465  1
  Mg  Mg12  1  0.50000000  0.24862465  0.75137535  1
  Mg  Mg13  1  0.50000000  0.75137535  0.24862465  1
  Mg  Mg14  1  0.50000000  0.75137535  0.75137535  1
  Mg  Mg15  1  0.25360201  0.00000000  0.25175984  1
  Mg  Mg16  1  0.25360201  0.00000000  0.74824016  1
  Mg  Mg17  1  0.25715616  0.50000000  0.24174584  1
  Mg  Mg18  1  0.25715616  0.50000000  0.75825416  1
  Mg  Mg19  1  0.74639799  0.00000000  0.25175984  1
  Mg  Mg20  1  0.74639799  0.00000000  0.74824016  1
  Mg  Mg21  1  0.74284384  0.50000000  0.24174584  1
  Mg  Mg22  1  0.74284384  0.50000000  0.75825416  1
  Mg  Mg23  1  0.25360201  0.25175984  -0.00000000  1
  Mg  Mg24  1  0.25715616  0.24174584  0.50000000  1
  Mg  Mg25  1  0.25360201  0.74824016  -0.00000000  1
  Mg  Mg26  1  0.25715616  0.75825416  0.50000000  1
  Mg  Mg27  1  0.74639799  0.25175984  -0.00000000  1
  Mg  Mg28  1  0.74284384  0.24174584  0.50000000  1
  Mg  Mg29  1  0.74639799  0.74824016  -0.00000000  1
  Mg  Mg30  1  0.74284384  0.75825416  0.50000000  1
  Bi  Bi31  1  0.00000000  0.50000000  0.50000000  1
  O  O32  1  0.27897664  0.00000000  -0.00000000  1
  O  O33  1  0.25808923  0.00000000  0.50000000  1
  O  O34  1  0.25808923  0.50000000  -0.00000000  1
  O  O35  1  0.26668299  0.50000000  0.50000000  1
  O  O36  1  0.72102336  0.00000000  -0.00000000  1
  O  O37  1  0.74191077  0.00000000  0.50000000  1
  O  O38  1  0.74191077  0.50000000  -0.00000000  1
  O  O39  1  0.73331701  0.50000000  0.50000000  1
  O  O40  1  0.24891283  0.25078743  0.25078743  1
  O  O41  1  0.24891283  0.25078743  0.74921257  1
  O  O42  1  0.24891283  0.74921257  0.25078743  1
  O  O43  1  0.24891283  0.74921257  0.74921257  1
  O  O44  1  0.75108717  0.25078743  0.25078743  1
  O  O45  1  0.75108717  0.25078743  0.74921257  1
  O  O46  1  0.75108717  0.74921257  0.25078743  1
  O  O47  1  0.75108717  0.74921257  0.74921257  1
  O  O48  1  0.00000000  0.00000000  0.27764471  1
  O  O49  1  0.00000000  0.00000000  0.72235529  1
  O  O50  1  0.00000000  0.50000000  0.23717785  1
  O  O51  1  0.00000000  0.50000000  0.76282215  1
  O  O52  1  0.50000000  0.00000000  0.25570634  1
  O  O53  1  0.50000000  0.00000000  0.74429366  1
  O  O54  1  0.50000000  0.50000000  0.24954055  1
  O  O55  1  0.50000000  0.50000000  0.75045945  1
  O  O56  1  0.00000000  0.27764471  -0.00000000  1
  O  O57  1  0.00000000  0.23717785  0.50000000  1
  O  O58  1  0.00000000  0.72235529  -0.00000000  1
  O  O59  1  0.00000000  0.76282215  0.50000000  1
  O  O60  1  0.50000000  0.25570634  -0.00000000  1
  O  O61  1  0.50000000  0.24954055  0.50000000  1
  O  O62  1  0.50000000  0.74429366  -0.00000000  1
  O  O63  1  0.50000000  0.75045945  0.50000000  1
