# generated using pymatgen
data_Ba2ScCl7
_symmetry_space_group_name_H-M   'P 1'
_cell_length_a   7.02761951
_cell_length_b   12.36932980
_cell_length_c   13.60670138
_cell_angle_alpha   90.00000000
_cell_angle_beta   90.00000000
_cell_angle_gamma   96.27033859
_symmetry_Int_Tables_number   1
_chemical_formula_structural   Ba2ScCl7
_chemical_formula_sum   'Ba8 Sc4 Cl28'
_cell_volume   1175.71308159
_cell_formula_units_Z   4
loop_
 _symmetry_equiv_pos_site_id
 _symmetry_equiv_pos_as_xyz
  1  'x, y, z'
loop_
 _atom_site_type_symbol
 _atom_site_label
 _atom_site_symmetry_multiplicity
 _atom_site_fract_x
 _atom_site_fract_y
 _atom_site_fract_z
 _atom_site_occupancy
  Ba  Ba0  1  0.76218042  0.25597312  0.54657629  1
  Ba  Ba1  1  0.26196323  0.62190859  0.63679948  1
  Ba  Ba2  1  0.29392608  0.23343770  0.86812371  1
  Ba  Ba3  1  0.70607392  0.76656230  0.36812371  1
  Ba  Ba4  1  0.74937446  0.87722727  0.78455374  1
  Ba  Ba5  1  0.25062554  0.12277273  0.28455374  1
  Ba  Ba6  1  0.23781958  0.74402688  0.04657629  1
  Ba  Ba7  1  0.73803677  0.37809141  0.13679948  1
  Sc  Sc8  1  0.18818907  0.54671450  0.34439772  1
  Sc  Sc9  1  0.81181093  0.45328550  0.84439772  1
  Sc  Sc10  1  0.79423314  0.95580474  0.07708060  1
  Sc  Sc11  1  0.20576686  0.04419526  0.57708060  1
  Cl  Cl12  1  0.88197692  0.63710262  0.77597224  1
  Cl  Cl13  1  0.02701451  0.89283411  0.20275281  1
  Cl  Cl14  1  0.53377029  0.47725334  0.94888569  1
  Cl  Cl15  1  0.76362563  0.76320117  0.01695480  1
  Cl  Cl16  1  0.37688854  0.73248387  0.83538368  1
  Cl  Cl17  1  0.96080917  0.49912049  0.48546997  1
  Cl  Cl18  1  0.62920007  0.77007589  0.58666599  1
  Cl  Cl19  1  0.54773776  0.99361395  0.95854475  1
  Cl  Cl20  1  0.12535084  0.86193472  0.64496087  1
  Cl  Cl21  1  0.92630393  0.60396258  0.23364299  1
  Cl  Cl22  1  0.42753830  0.60242249  0.20881339  1
  Cl  Cl23  1  0.45226224  0.00638605  0.45854475  1
  Cl  Cl24  1  0.47232542  0.09115583  0.70114016  1
  Cl  Cl25  1  0.52767458  0.90884417  0.20114016  1
  Cl  Cl26  1  0.46622971  0.52274666  0.44888569  1
  Cl  Cl27  1  0.07369607  0.39603742  0.73364299  1
  Cl  Cl28  1  0.62311146  0.26751613  0.33538368  1
  Cl  Cl29  1  0.03919083  0.50087951  0.98546997  1
  Cl  Cl30  1  0.97298549  0.10716589  0.70275281  1
  Cl  Cl31  1  0.11802308  0.36289738  0.27597224  1
  Cl  Cl32  1  0.20995897  0.73694079  0.40851550  1
  Cl  Cl33  1  0.87464916  0.13806528  0.14496087  1
  Cl  Cl34  1  0.57246170  0.39757751  0.70881339  1
  Cl  Cl35  1  0.05420973  0.98354789  0.94811561  1
  Cl  Cl36  1  0.94579027  0.01645211  0.44811561  1
  Cl  Cl37  1  0.79004103  0.26305921  0.90851550  1
  Cl  Cl38  1  0.37079993  0.22992411  0.08666599  1
  Cl  Cl39  1  0.23637437  0.23679883  0.51695480  1
