# generated using pymatgen
data_BaYCu4O7
_symmetry_space_group_name_H-M   'P 1'
_cell_length_a   6.31076254
_cell_length_b   6.31076220
_cell_length_c   10.45635602
_cell_angle_alpha   90.00000000
_cell_angle_beta   90.00000000
_cell_angle_gamma   120.00000180
_symmetry_Int_Tables_number   1
_chemical_formula_structural   BaYCu4O7
_chemical_formula_sum   'Ba2 Y2 Cu8 O14'
_cell_volume   360.64061902
_cell_formula_units_Z   2
loop_
 _symmetry_equiv_pos_site_id
 _symmetry_equiv_pos_as_xyz
  1  'x, y, z'
loop_
 _atom_site_type_symbol
 _atom_site_label
 _atom_site_symmetry_multiplicity
 _atom_site_fract_x
 _atom_site_fract_y
 _atom_site_fract_z
 _atom_site_occupancy
  Ba  Ba0  1  0.66666700  0.33333300  0.48314204  1
  Ba  Ba1  1  0.33333300  0.66666700  0.98314204  1
  Y  Y2  1  0.66666700  0.33333300  0.87826156  1
  Y  Y3  1  0.33333300  0.66666700  0.37826156  1
  Cu  Cu4  1  0.83210071  0.16790029  0.18864502  1
  Cu  Cu5  1  0.66419841  0.83209971  0.68864602  1
  Cu  Cu6  1  0.16790029  0.33580159  0.68864602  1
  Cu  Cu7  1  0.83210071  0.66419841  0.18864502  1
  Cu  Cu8  1  0.33580059  0.16790029  0.18864502  1
  Cu  Cu9  1  0.16790029  0.83209971  0.68864602  1
  Cu  Cu10  1  0.00000000  0.00000000  0.43938584  1
  Cu  Cu11  1  0.00000000  0.00000000  0.93938584  1
  O  O12  1  0.83619583  0.16380517  0.00619079  1
  O  O13  1  0.67239067  0.83619483  0.50618979  1
  O  O14  1  0.16380417  0.32760833  0.50618979  1
  O  O15  1  0.83619683  0.67239167  0.00619079  1
  O  O16  1  0.32760833  0.16380517  0.00619079  1
  O  O17  1  0.16380417  0.83619483  0.50618979  1
  O  O18  1  0.00000000  0.00000000  0.75455495  1
  O  O19  1  0.00000000  0.00000000  0.25455595  1
  O  O20  1  0.50862904  0.49137296  0.26471473  1
  O  O21  1  0.01725708  0.50862904  0.76471473  1
  O  O22  1  0.49137196  0.98274292  0.76471473  1
  O  O23  1  0.50862904  0.01725708  0.26471473  1
  O  O24  1  0.49137296  0.50862904  0.76471473  1
  O  O25  1  0.98274292  0.49137296  0.26471473  1
