# generated using pymatgen
data_K3P(W3O10)4
_symmetry_space_group_name_H-M   'P 1'
_cell_length_a   11.99618690
_cell_length_b   11.99618690
_cell_length_c   11.99618690
_cell_angle_alpha   90.00000000
_cell_angle_beta   90.00000000
_cell_angle_gamma   90.00000000
_symmetry_Int_Tables_number   1
_chemical_formula_structural   K3P(W3O10)4
_chemical_formula_sum   'K6 P2 W24 O80'
_cell_volume   1726.35326417
_cell_formula_units_Z   2
loop_
 _symmetry_equiv_pos_site_id
 _symmetry_equiv_pos_as_xyz
  1  'x, y, z'
loop_
 _atom_site_type_symbol
 _atom_site_label
 _atom_site_symmetry_multiplicity
 _atom_site_fract_x
 _atom_site_fract_y
 _atom_site_fract_z
 _atom_site_occupancy
  K  K0  1  0.75000000  0.75000000  0.25000000  1
  K  K1  1  0.75000000  0.25000000  0.25000000  1
  K  K2  1  0.75000000  0.25000000  0.75000000  1
  K  K3  1  0.25000000  0.75000000  0.75000000  1
  K  K4  1  0.25000000  0.75000000  0.25000000  1
  K  K5  1  0.25000000  0.25000000  0.75000000  1
  P  P6  1  0.75000000  0.75000000  0.75000000  1
  P  P7  1  0.25000000  0.25000000  0.25000000  1
  W  W8  1  0.46408099  0.46408099  0.25768131  1
  W  W9  1  0.75768131  0.96408099  0.53591901  1
  W  W10  1  0.46408099  0.03591901  0.24231869  1
  W  W11  1  0.46408099  0.24231869  0.03591901  1
  W  W12  1  0.24231869  0.46408099  0.03591901  1
  W  W13  1  0.74231869  0.96408099  0.96408099  1
  W  W14  1  0.03591901  0.24231869  0.46408099  1
  W  W15  1  0.96408099  0.53591901  0.75768131  1
  W  W16  1  0.25768131  0.46408099  0.46408099  1
  W  W17  1  0.96408099  0.74231869  0.96408099  1
  W  W18  1  0.24231869  0.03591901  0.46408099  1
  W  W19  1  0.46408099  0.25768131  0.46408099  1
  W  W20  1  0.25768131  0.03591901  0.03591901  1
  W  W21  1  0.03591901  0.46408099  0.24231869  1
  W  W22  1  0.74231869  0.53591901  0.53591901  1
  W  W23  1  0.53591901  0.75768131  0.96408099  1
  W  W24  1  0.03591901  0.25768131  0.03591901  1
  W  W25  1  0.53591901  0.53591901  0.74231869  1
  W  W26  1  0.75768131  0.53591901  0.96408099  1
  W  W27  1  0.96408099  0.75768131  0.53591901  1
  W  W28  1  0.03591901  0.03591901  0.25768131  1
  W  W29  1  0.53591901  0.96408099  0.75768131  1
  W  W30  1  0.96408099  0.96408099  0.74231869  1
  W  W31  1  0.53591901  0.74231869  0.53591901  1
  O  O32  1  0.56526427  0.26563334  0.93473573  1
  O  O33  1  0.37361922  0.96653840  0.12638078  1
  O  O34  1  0.65212580  0.49567349  0.84787420  1
  O  O35  1  0.99567349  0.15212580  0.15212580  1
  O  O36  1  0.34787420  0.99567349  0.34787420  1
  O  O37  1  0.37361922  0.53346160  0.37361922  1
  O  O38  1  0.50432651  0.15212580  0.34787420  1
  O  O39  1  0.15212580  0.15212580  0.99567349  1
  O  O40  1  0.46653840  0.62638078  0.62638078  1
  O  O41  1  0.06526427  0.73436666  0.43473573  1
  O  O42  1  0.56526427  0.56526427  0.23436666  1
  O  O43  1  0.67553314  0.82446686  0.82446686  1
  O  O44  1  0.12638078  0.96653840  0.37361922  1
  O  O45  1  0.87361922  0.46653840  0.87361922  1
  O  O46  1  0.43473573  0.43473573  0.76563334  1
  O  O47  1  0.23436666  0.93473573  0.93473573  1
  O  O48  1  0.96653840  0.37361922  0.12638078  1
  O  O49  1  0.87361922  0.62638078  0.03346160  1
  O  O50  1  0.34787420  0.50432651  0.15212580  1
  O  O51  1  0.32446686  0.17553314  0.17553314  1
  O  O52  1  0.65212580  0.84787420  0.49567349  1
  O  O53  1  0.93473573  0.23436666  0.93473573  1
  O  O54  1  0.34787420  0.34787420  0.99567349  1
  O  O55  1  0.00432651  0.84787420  0.84787420  1
  O  O56  1  0.37361922  0.37361922  0.53346160  1
  O  O57  1  0.53346160  0.12638078  0.12638078  1
  O  O58  1  0.82446686  0.67553314  0.82446686  1
  O  O59  1  0.65212580  0.65212580  0.00432651  1
  O  O60  1  0.15212580  0.34787420  0.50432651  1
  O  O61  1  0.06526427  0.06526427  0.76563334  1
  O  O62  1  0.76563334  0.43473573  0.43473573  1
  O  O63  1  0.53346160  0.37361922  0.37361922  1
  O  O64  1  0.73436666  0.43473573  0.06526427  1
  O  O65  1  0.06526427  0.76563334  0.06526427  1
  O  O66  1  0.46653840  0.87361922  0.87361922  1
  O  O67  1  0.62638078  0.87361922  0.03346160  1
  O  O68  1  0.43473573  0.76563334  0.43473573  1
  O  O69  1  0.73436666  0.06526427  0.43473573  1
  O  O70  1  0.84787420  0.65212580  0.49567349  1
  O  O71  1  0.82446686  0.82446686  0.67553314  1
  O  O72  1  0.17553314  0.32446686  0.17553314  1
  O  O73  1  0.84787420  0.84787420  0.00432651  1
  O  O74  1  0.65212580  0.00432651  0.65212580  1
  O  O75  1  0.00432651  0.65212580  0.65212580  1
  O  O76  1  0.15212580  0.99567349  0.15212580  1
  O  O77  1  0.12638078  0.53346160  0.12638078  1
  O  O78  1  0.49567349  0.65212580  0.84787420  1
  O  O79  1  0.50432651  0.34787420  0.15212580  1
  O  O80  1  0.84787420  0.00432651  0.84787420  1
  O  O81  1  0.93473573  0.56526427  0.26563334  1
  O  O82  1  0.26563334  0.56526427  0.93473573  1
  O  O83  1  0.32446686  0.32446686  0.32446686  1
  O  O84  1  0.12638078  0.37361922  0.96653840  1
  O  O85  1  0.87361922  0.87361922  0.46653840  1
  O  O86  1  0.43473573  0.06526427  0.73436666  1
  O  O87  1  0.12638078  0.12638078  0.53346160  1
  O  O88  1  0.17553314  0.17553314  0.32446686  1
  O  O89  1  0.62638078  0.62638078  0.46653840  1
  O  O90  1  0.37361922  0.12638078  0.96653840  1
  O  O91  1  0.62638078  0.46653840  0.62638078  1
  O  O92  1  0.96653840  0.12638078  0.37361922  1
  O  O93  1  0.23436666  0.56526427  0.56526427  1
  O  O94  1  0.84787420  0.49567349  0.65212580  1
  O  O95  1  0.03346160  0.87361922  0.62638078  1
  O  O96  1  0.49567349  0.84787420  0.65212580  1
  O  O97  1  0.76563334  0.06526427  0.06526427  1
  O  O98  1  0.43473573  0.73436666  0.06526427  1
  O  O99  1  0.34787420  0.15212580  0.50432651  1
  O  O100  1  0.15212580  0.50432651  0.34787420  1
  O  O101  1  0.67553314  0.67553314  0.67553314  1
  O  O102  1  0.56526427  0.93473573  0.26563334  1
  O  O103  1  0.93473573  0.26563334  0.56526427  1
  O  O104  1  0.56526427  0.23436666  0.56526427  1
  O  O105  1  0.03346160  0.62638078  0.87361922  1
  O  O106  1  0.26563334  0.93473573  0.56526427  1
  O  O107  1  0.06526427  0.43473573  0.73436666  1
  O  O108  1  0.93473573  0.93473573  0.23436666  1
  O  O109  1  0.99567349  0.34787420  0.34787420  1
  O  O110  1  0.87361922  0.03346160  0.62638078  1
  O  O111  1  0.62638078  0.03346160  0.87361922  1
