# generated using pymatgen
data_Yb8Cl17
_symmetry_space_group_name_H-M   'P 1'
_cell_length_a   6.56764279
_cell_length_b   6.88010420
_cell_length_c   27.41237593
_cell_angle_alpha   96.17275565
_cell_angle_beta   96.88032999
_cell_angle_gamma   89.99831321
_symmetry_Int_Tables_number   1
_chemical_formula_structural   Yb8Cl17
_chemical_formula_sum   'Yb16 Cl34'
_cell_volume   1222.50388424
_cell_formula_units_Z   2
loop_
 _symmetry_equiv_pos_site_id
 _symmetry_equiv_pos_as_xyz
  1  'x, y, z'
loop_
 _atom_site_type_symbol
 _atom_site_label
 _atom_site_symmetry_multiplicity
 _atom_site_fract_x
 _atom_site_fract_y
 _atom_site_fract_z
 _atom_site_occupancy
  Yb  Yb0  1  0.00890060  0.36251335  0.06928260  1
  Yb  Yb1  1  0.74705986  0.42886150  0.43888378  1
  Yb  Yb2  1  0.31524273  0.03861045  0.68371589  1
  Yb  Yb3  1  0.37664794  0.68736162  0.80632062  1
  Yb  Yb4  1  0.25294014  0.57113850  0.56111622  1
  Yb  Yb5  1  0.19183701  0.92887624  0.43888889  1
  Yb  Yb6  1  0.43962692  0.13750592  0.93071533  1
  Yb  Yb7  1  0.99109940  0.63748665  0.93071740  1
  Yb  Yb8  1  0.07033086  0.81264737  0.19367732  1
  Yb  Yb9  1  0.68475727  0.96138955  0.31628411  1
  Yb  Yb10  1  0.62335206  0.31263838  0.19367938  1
  Yb  Yb11  1  0.80816299  0.07112376  0.56111111  1
  Yb  Yb12  1  0.92966914  0.18735263  0.80632268  1
  Yb  Yb13  1  0.56037308  0.86249408  0.06928467  1
  Yb  Yb14  1  0.13152776  0.46138400  0.31627743  1
  Yb  Yb15  1  0.86847224  0.53861600  0.68372257  1
  Cl  Cl16  1  0.32655358  0.81754174  0.34017491  1
  Cl  Cl17  1  0.42083776  0.92310753  0.55150176  1
  Cl  Cl18  1  0.06627072  0.86017795  0.74360855  1
  Cl  Cl19  1  0.00387056  0.80420873  0.62144698  1
  Cl  Cl20  1  0.11755830  0.30420737  0.62144503  1
  Cl  Cl21  1  0.23426119  0.42665530  0.86709859  1
  Cl  Cl22  1  0.77389548  0.61095522  0.01024207  1
  Cl  Cl23  1  0.13283879  0.92663760  0.86710666  1
  Cl  Cl24  1  0.57916224  0.07689247  0.44849824  1
  Cl  Cl25  1  0.28051643  0.49119370  0.22474145  1
  Cl  Cl26  1  0.75736752  0.30737031  0.89198214  1
  Cl  Cl27  1  0.67344642  0.18245826  0.65982509  1
  Cl  Cl28  1  0.24263248  0.69262969  0.10801786  1
  Cl  Cl29  1  0.99612944  0.19579127  0.37855302  1
  Cl  Cl30  1  0.73631814  0.11097296  0.01024166  1
  Cl  Cl31  1  0.36934245  0.57691773  0.44851177  1
  Cl  Cl32  1  0.88244170  0.69579263  0.37855497  1
  Cl  Cl33  1  0.44423224  0.99120684  0.22474150  1
  Cl  Cl34  1  0.63461126  0.80735876  0.89197263  1
  Cl  Cl35  1  0.94170271  0.74998871  0.49999832  1
  Cl  Cl36  1  0.36538874  0.19264124  0.10802737  1
  Cl  Cl37  1  0.51364630  0.31756357  0.34016392  1
  Cl  Cl38  1  0.55576776  0.00879316  0.77525850  1
  Cl  Cl39  1  0.86716121  0.07336240  0.13289334  1
  Cl  Cl40  1  0.48635370  0.68243643  0.65983608  1
  Cl  Cl41  1  0.22610452  0.38904478  0.98975793  1
  Cl  Cl42  1  0.63065755  0.42308227  0.55148823  1
  Cl  Cl43  1  0.26368186  0.88902704  0.98975834  1
  Cl  Cl44  1  0.17733283  0.36014649  0.74361445  1
  Cl  Cl45  1  0.76573881  0.57334470  0.13290141  1
  Cl  Cl46  1  0.05829729  0.25001129  0.50000168  1
  Cl  Cl47  1  0.71948357  0.50880630  0.77525855  1
  Cl  Cl48  1  0.93372928  0.13982205  0.25639145  1
  Cl  Cl49  1  0.82266717  0.63985351  0.25638555  1
