# generated using pymatgen
data_RuOF4
_symmetry_space_group_name_H-M   'P 1'
_cell_length_a   6.26700064
_cell_length_b   6.47823883
_cell_length_c   8.84944860
_cell_angle_alpha   90.00000000
_cell_angle_beta   90.00000000
_cell_angle_gamma   91.32849294
_symmetry_Int_Tables_number   1
_chemical_formula_structural   RuOF4
_chemical_formula_sum   'Ru4 O4 F16'
_cell_volume   359.18331332
_cell_formula_units_Z   4
loop_
 _symmetry_equiv_pos_site_id
 _symmetry_equiv_pos_as_xyz
  1  'x, y, z'
loop_
 _atom_site_type_symbol
 _atom_site_label
 _atom_site_symmetry_multiplicity
 _atom_site_fract_x
 _atom_site_fract_y
 _atom_site_fract_z
 _atom_site_occupancy
  Ru  Ru0  1  0.04561162  0.85092792  0.17780579  1
  Ru  Ru1  1  0.54561162  0.35092792  0.32219421  1
  Ru  Ru2  1  0.45438838  0.64907208  0.67780579  1
  Ru  Ru3  1  0.95438838  0.14907208  0.82219421  1
  O  O4  1  0.96267116  0.13926213  0.63680038  1
  O  O5  1  0.53732884  0.36073787  0.13680038  1
  O  O6  1  0.46267116  0.63926213  0.86319962  1
  O  O7  1  0.03732884  0.86073787  0.36319962  1
  F  F8  1  0.04240789  0.88067809  0.88844265  1
  F  F9  1  0.86390290  0.41161886  0.87680568  1
  F  F10  1  0.32237477  0.93740830  0.12081685  1
  F  F11  1  0.63609710  0.08838114  0.37680568  1
  F  F12  1  0.82237477  0.43740830  0.37918315  1
  F  F13  1  0.13609710  0.58838114  0.12319432  1
  F  F14  1  0.27441590  0.25557631  0.38529476  1
  F  F15  1  0.54240789  0.38067809  0.61155735  1
  F  F16  1  0.36390290  0.91161886  0.62319432  1
  F  F17  1  0.95759211  0.11932191  0.11155735  1
  F  F18  1  0.72558410  0.74442369  0.61470524  1
  F  F19  1  0.45759211  0.61932191  0.38844265  1
  F  F20  1  0.67762523  0.06259170  0.87918315  1
  F  F21  1  0.17762523  0.56259170  0.62081685  1
  F  F22  1  0.77441590  0.75557631  0.11470524  1
  F  F23  1  0.22558410  0.24442369  0.88529476  1
