# generated using pymatgen
data_Ca4Al6WO16
_symmetry_space_group_name_H-M   'P 1'
_cell_length_a   8.12001284
_cell_length_b   8.12001311
_cell_length_c   26.38657503
_cell_angle_alpha   90.00000000
_cell_angle_beta   90.00000000
_cell_angle_gamma   109.03108429
_symmetry_Int_Tables_number   1
_chemical_formula_structural   Ca4Al6WO16
_chemical_formula_sum   'Ca16 Al24 W4 O64'
_cell_volume   1644.69485557
_cell_formula_units_Z   4
loop_
 _symmetry_equiv_pos_site_id
 _symmetry_equiv_pos_as_xyz
  1  'x, y, z'
loop_
 _atom_site_type_symbol
 _atom_site_label
 _atom_site_symmetry_multiplicity
 _atom_site_fract_x
 _atom_site_fract_y
 _atom_site_fract_z
 _atom_site_occupancy
  Ca  Ca0  1  0.73268610  0.75994647  0.87985712  1
  Ca  Ca1  1  0.98661976  0.50993429  0.75003373  1
  Ca  Ca2  1  0.80606639  0.75439026  0.63836725  1
  Ca  Ca3  1  0.23268610  0.25994647  0.62014288  1
  Ca  Ca4  1  0.75994647  0.73268610  0.12014288  1
  Ca  Ca5  1  0.97168728  0.43663214  0.48321459  1
  Ca  Ca6  1  0.48661976  0.00993429  0.74996627  1
  Ca  Ca7  1  0.47168728  0.93663214  0.01678541  1
  Ca  Ca8  1  0.25994647  0.23268610  0.37985712  1
  Ca  Ca9  1  0.30606639  0.25439026  0.86163275  1
  Ca  Ca10  1  0.93663214  0.47168728  0.98321459  1
  Ca  Ca11  1  0.43663214  0.97168728  0.51678541  1
  Ca  Ca12  1  0.25439026  0.30606639  0.13836725  1
  Ca  Ca13  1  0.75439026  0.80606639  0.36163275  1
  Ca  Ca14  1  0.00993429  0.48661976  0.25003373  1
  Ca  Ca15  1  0.50993429  0.98661976  0.24996627  1
  Al  Al16  1  0.59052230  0.36293223  0.06284275  1
  Al  Al17  1  0.36293223  0.59052230  0.93715725  1
  Al  Al18  1  0.86293223  0.09052230  0.56284275  1
  Al  Al19  1  0.12361186  0.87431179  0.81465546  1
  Al  Al20  1  0.62880883  0.36010237  0.55950273  1
  Al  Al21  1  0.75917029  0.75366370  0.24338620  1
  Al  Al22  1  0.24314536  0.24314536  0.50000000  1
  Al  Al23  1  0.63731323  0.38593553  0.18996506  1
  Al  Al24  1  0.22840886  0.22840886  0.00000000  1
  Al  Al25  1  0.75366370  0.75917029  0.75661380  1
  Al  Al26  1  0.88593553  0.13731323  0.68996506  1
  Al  Al27  1  0.25366370  0.25917029  0.74338620  1
  Al  Al28  1  0.38593553  0.63731323  0.81003494  1
  Al  Al29  1  0.87431179  0.12361186  0.18534454  1
  Al  Al30  1  0.62361186  0.37431179  0.68534454  1
  Al  Al31  1  0.25917029  0.25366370  0.25661380  1
  Al  Al32  1  0.74314536  0.74314536  0.00000000  1
  Al  Al33  1  0.13731323  0.88593553  0.31003494  1
  Al  Al34  1  0.37431179  0.62361186  0.31465546  1
  Al  Al35  1  0.09052230  0.86293223  0.43715725  1
  Al  Al36  1  0.36010237  0.62880883  0.44049727  1
  Al  Al37  1  0.12880883  0.86010237  0.94049727  1
  Al  Al38  1  0.72840886  0.72840886  0.50000000  1
  Al  Al39  1  0.86010237  0.12880883  0.05950273  1
  W  W40  1  0.76157792  0.24098108  0.86358860  1
  W  W41  1  0.74098108  0.26157792  0.36358860  1
  W  W42  1  0.26157792  0.74098108  0.63641140  1
  W  W43  1  0.24098108  0.76157792  0.13641140  1
  O  O44  1  0.26646560  0.40278579  0.45315928  1
  O  O45  1  0.82889671  0.92465775  0.71235364  1
  O  O46  1  0.42465775  0.32889671  0.21235364  1
  O  O47  1  0.02234876  0.24664123  0.01663842  1
  O  O48  1  0.79324613  0.86276767  0.55431506  1
  O  O49  1  0.56877407  0.71934072  0.28001250  1
  O  O50  1  0.52234876  0.74664123  0.48336158  1
  O  O51  1  0.08380261  0.29478931  0.70887741  1
  O  O52  1  0.36276767  0.29324613  0.05431506  1
  O  O53  1  0.65738024  0.44603698  0.62177078  1
  O  O54  1  0.23112367  0.72925760  0.29121628  1
  O  O55  1  0.40486225  0.76612018  0.08895124  1
  O  O56  1  0.43155000  0.60285775  0.87360707  1
  O  O57  1  0.67557655  0.19614079  0.04637077  1
  O  O58  1  0.04830587  0.77653184  0.10569405  1
  O  O59  1  0.79478931  0.58380261  0.20887741  1
  O  O60  1  0.71934072  0.56877407  0.71998750  1
  O  O61  1  0.69614079  0.17557655  0.54637077  1
  O  O62  1  0.82586375  0.44372965  0.32089178  1
  O  O63  1  0.32586375  0.94372965  0.17910822  1
  O  O64  1  0.06877407  0.21934072  0.21998750  1
  O  O65  1  0.90174818  0.74884518  0.80519110  1
  O  O66  1  0.90486225  0.26612018  0.41104876  1
  O  O67  1  0.05099832  0.23266428  0.53266006  1
  O  O68  1  0.17557655  0.69614079  0.45362923  1
  O  O69  1  0.73266428  0.55099832  0.03266006  1
  O  O70  1  0.93155000  0.10285775  0.62639293  1
  O  O71  1  0.72925760  0.23112367  0.70878372  1
  O  O72  1  0.40278579  0.26646560  0.54684072  1
  O  O73  1  0.77653184  0.04830587  0.89430595  1
  O  O74  1  0.22925760  0.73112367  0.79121628  1
  O  O75  1  0.44372965  0.82586375  0.67910822  1
  O  O76  1  0.90278579  0.76646560  0.95315928  1
  O  O77  1  0.10285775  0.93155000  0.37360707  1
  O  O78  1  0.24884518  0.40174818  0.30519110  1
  O  O79  1  0.32889671  0.42465775  0.78764636  1
  O  O80  1  0.74664123  0.52234876  0.51663842  1
  O  O81  1  0.55568056  0.18916499  0.82913670  1
  O  O82  1  0.74884518  0.90174818  0.19480890  1
  O  O83  1  0.94603698  0.15738024  0.12177078  1
  O  O84  1  0.76612018  0.40486225  0.91104876  1
  O  O85  1  0.58380261  0.79478931  0.79112259  1
  O  O86  1  0.44603698  0.65738024  0.37822922  1
  O  O87  1  0.86276767  0.79324613  0.44568494  1
  O  O88  1  0.29478931  0.08380261  0.29112259  1
  O  O89  1  0.73112367  0.22925760  0.20878372  1
  O  O90  1  0.55099832  0.73266428  0.96733994  1
  O  O91  1  0.24664123  0.02234876  0.98336158  1
  O  O92  1  0.92465775  0.82889671  0.28764636  1
  O  O93  1  0.26612018  0.90486225  0.58895124  1
  O  O94  1  0.27653184  0.54830587  0.60569405  1
  O  O95  1  0.60285775  0.43155000  0.12639293  1
  O  O96  1  0.15738024  0.94603698  0.87822922  1
  O  O97  1  0.94372965  0.32586375  0.82089178  1
  O  O98  1  0.29324613  0.36276767  0.94568494  1
  O  O99  1  0.19614079  0.67557655  0.95362923  1
  O  O100  1  0.76646560  0.90278579  0.04684072  1
  O  O101  1  0.23266428  0.05099832  0.46733994  1
  O  O102  1  0.54830587  0.27653184  0.39430595  1
  O  O103  1  0.21934072  0.06877407  0.78001250  1
  O  O104  1  0.68916499  0.05568056  0.32913670  1
  O  O105  1  0.05568056  0.68916499  0.67086330  1
  O  O106  1  0.40174818  0.24884518  0.69480890  1
  O  O107  1  0.18916499  0.55568056  0.17086330  1
