# generated using pymatgen
data_SbPb2S2I3
_symmetry_space_group_name_H-M   'P 1'
_cell_length_a   7.80417816
_cell_length_b   8.75846273
_cell_length_c   16.74820206
_cell_angle_alpha   90.00000000
_cell_angle_beta   90.00000000
_cell_angle_gamma   106.65660785
_symmetry_Int_Tables_number   1
_chemical_formula_structural   SbPb2S2I3
_chemical_formula_sum   'Sb4 Pb8 S8 I12'
_cell_volume   1096.74793855
_cell_formula_units_Z   4
loop_
 _symmetry_equiv_pos_site_id
 _symmetry_equiv_pos_as_xyz
  1  'x, y, z'
loop_
 _atom_site_type_symbol
 _atom_site_label
 _atom_site_symmetry_multiplicity
 _atom_site_fract_x
 _atom_site_fract_y
 _atom_site_fract_z
 _atom_site_occupancy
  Sb  Sb0  1  0.69636425  0.67772786  0.98100995  1
  Sb  Sb1  1  0.30363575  0.82227214  0.48100995  1
  Sb  Sb2  1  0.69636425  0.17772786  0.51899005  1
  Sb  Sb3  1  0.30363575  0.32227214  0.01899005  1
  Pb  Pb4  1  0.24403235  0.30813572  0.47278140  1
  Pb  Pb5  1  0.38829182  0.33606006  0.73368004  1
  Pb  Pb6  1  0.75596765  0.69186428  0.52721860  1
  Pb  Pb7  1  0.24403235  0.80813572  0.02721860  1
  Pb  Pb8  1  0.61170818  0.16393994  0.23368004  1
  Pb  Pb9  1  0.61170818  0.66393994  0.26631996  1
  Pb  Pb10  1  0.75596765  0.19186428  0.97278140  1
  Pb  Pb11  1  0.38829182  0.83606006  0.76631996  1
  S  S12  1  0.46138731  0.63298406  0.42419496  1
  S  S13  1  0.53834329  0.40595180  0.91463177  1
  S  S14  1  0.53861269  0.86701594  0.92419496  1
  S  S15  1  0.46165671  0.59404820  0.08536823  1
  S  S16  1  0.46165671  0.09404820  0.41463177  1
  S  S17  1  0.53861269  0.36701594  0.57580504  1
  S  S18  1  0.53834329  0.90595180  0.58536823  1
  S  S19  1  0.46138731  0.13298406  0.07580504  1
  I  I20  1  0.13301872  0.03280446  0.88291903  1
  I  I21  1  0.89773237  0.96778208  0.38025776  1
  I  I22  1  0.89773237  0.46778208  0.11974224  1
  I  I23  1  0.68974781  0.66921830  0.74131617  1
  I  I24  1  0.86698128  0.96719554  0.11708097  1
  I  I25  1  0.10226763  0.03221792  0.61974224  1
  I  I26  1  0.31025219  0.83078170  0.24131617  1
  I  I27  1  0.10226763  0.53221792  0.88025776  1
  I  I28  1  0.13301872  0.53280446  0.61708097  1
  I  I29  1  0.86698128  0.46719554  0.38291903  1
  I  I30  1  0.68974781  0.16921830  0.75868383  1
  I  I31  1  0.31025219  0.33078170  0.25868383  1
