# generated using pymatgen
data_LiCrPO4
_symmetry_space_group_name_H-M   'P 1'
_cell_length_a   5.21133231
_cell_length_b   9.72318166
_cell_length_c   7.06202686
_cell_angle_alpha   90.00000000
_cell_angle_beta   88.15913082
_cell_angle_gamma   90.00000000
_symmetry_Int_Tables_number   1
_chemical_formula_structural   LiCrPO4
_chemical_formula_sum   'Li4 Cr4 P4 O16'
_cell_volume   357.65338110
_cell_formula_units_Z   4
loop_
 _symmetry_equiv_pos_site_id
 _symmetry_equiv_pos_as_xyz
  1  'x, y, z'
loop_
 _atom_site_type_symbol
 _atom_site_label
 _atom_site_symmetry_multiplicity
 _atom_site_fract_x
 _atom_site_fract_y
 _atom_site_fract_z
 _atom_site_occupancy
  Li  Li0  1  0.20283949  0.18000866  0.52613911  1
  Li  Li1  1  0.79716051  0.81999134  0.47386089  1
  Li  Li2  1  0.70283949  0.31999134  0.02613911  1
  Li  Li3  1  0.29716051  0.68000866  0.97386089  1
  Cr  Cr4  1  0.75772923  0.88631023  0.97733627  1
  Cr  Cr5  1  0.74227077  0.38631023  0.52266373  1
  Cr  Cr6  1  0.25772923  0.61368977  0.47733627  1
  Cr  Cr7  1  0.24227077  0.11368977  0.02266373  1
  P  P8  1  0.19039376  0.40576230  0.23284665  1
  P  P9  1  0.30960624  0.90576230  0.26715335  1
  P  P10  1  0.69039376  0.09423770  0.73284665  1
  P  P11  1  0.80960624  0.59423770  0.76715335  1
  O  O12  1  0.33052782  0.31351289  0.08556862  1
  O  O13  1  0.74214148  0.93984718  0.69145259  1
  O  O14  1  0.79363626  0.11228918  0.94115767  1
  O  O15  1  0.83052782  0.18648711  0.58556862  1
  O  O16  1  0.10046056  0.62995969  0.75547029  1
  O  O17  1  0.16947218  0.81351289  0.41443138  1
  O  O18  1  0.20636374  0.88771082  0.05884233  1
  O  O19  1  0.75785852  0.43984718  0.80854741  1
  O  O20  1  0.24214148  0.56015282  0.19145259  1
  O  O21  1  0.29363626  0.38771082  0.44115767  1
  O  O22  1  0.25785852  0.06015282  0.30854741  1
  O  O23  1  0.39953944  0.12995969  0.74452971  1
  O  O24  1  0.60046056  0.87004031  0.25547029  1
  O  O25  1  0.66947218  0.68648711  0.91443138  1
  O  O26  1  0.70636374  0.61228918  0.55884233  1
  O  O27  1  0.89953944  0.37004031  0.24452971  1
