# generated using pymatgen
data_SiO2
_symmetry_space_group_name_H-M   'P 1'
_cell_length_a   6.97548107
_cell_length_b   6.97548107
_cell_length_c   6.47533910
_cell_angle_alpha   90.00000000
_cell_angle_beta   90.00000000
_cell_angle_gamma   90.00000000
_symmetry_Int_Tables_number   1
_chemical_formula_structural   SiO2
_chemical_formula_sum   'Si5 O10'
_cell_volume   315.07275133
_cell_formula_units_Z   5
loop_
 _symmetry_equiv_pos_site_id
 _symmetry_equiv_pos_as_xyz
  1  'x, y, z'
loop_
 _atom_site_type_symbol
 _atom_site_label
 _atom_site_symmetry_multiplicity
 _atom_site_fract_x
 _atom_site_fract_y
 _atom_site_fract_z
 _atom_site_occupancy
  Si  Si0  1  0.26951000  0.00000000  0.11877686  1
  Si  Si1  1  0.00000000  0.73049000  0.88122314  1
  Si  Si2  1  0.00000000  0.26951000  0.88122314  1
  Si  Si3  1  0.73049000  0.00000000  0.11877686  1
  Si  Si4  1  0.00000000  0.00000000  0.50000000  1
  O  O5  1  0.19165342  0.00000000  0.35632789  1
  O  O6  1  0.00000000  0.80834658  0.64367211  1
  O  O7  1  0.00000000  0.19165342  0.64367211  1
  O  O8  1  0.80834658  0.00000000  0.35632789  1
  O  O9  1  0.19146803  0.19146803  0.00000000  1
  O  O10  1  0.19146803  0.80853197  0.00000000  1
  O  O11  1  0.80853197  0.19146803  0.00000000  1
  O  O12  1  0.80853197  0.80853197  0.00000000  1
  O  O13  1  0.50000000  0.00000000  0.11882698  1
  O  O14  1  0.00000000  0.50000000  0.88117302  1
