# generated using pymatgen
data_BaTm2ZnO5
_symmetry_space_group_name_H-M   'P 1'
_cell_length_a   5.70234756
_cell_length_b   7.06470566
_cell_length_c   12.30351913
_cell_angle_alpha   90.00000000
_cell_angle_beta   90.00000000
_cell_angle_gamma   90.00000000
_symmetry_Int_Tables_number   1
_chemical_formula_structural   BaTm2ZnO5
_chemical_formula_sum   'Ba4 Tm8 Zn4 O20'
_cell_volume   495.65227670
_cell_formula_units_Z   4
loop_
 _symmetry_equiv_pos_site_id
 _symmetry_equiv_pos_as_xyz
  1  'x, y, z'
loop_
 _atom_site_type_symbol
 _atom_site_label
 _atom_site_symmetry_multiplicity
 _atom_site_fract_x
 _atom_site_fract_y
 _atom_site_fract_z
 _atom_site_occupancy
  O  O0  1  0.25000000  0.42076247  0.60168163  1
  O  O1  1  0.75000000  0.57923753  0.39831837  1
  O  O2  1  0.75000000  0.92076247  0.89831837  1
  O  O3  1  0.25000000  0.07923753  0.10168163  1
  O  O4  1  0.99878069  0.86117598  0.27547368  1
  O  O5  1  0.49878069  0.13882402  0.72452632  1
  O  O6  1  0.00121931  0.36117598  0.22452632  1
  O  O7  1  0.50121931  0.63882402  0.77547368  1
  O  O8  1  0.00121931  0.13882402  0.72452632  1
  O  O9  1  0.50121931  0.86117598  0.27547368  1
  O  O10  1  0.99878069  0.63882402  0.77547368  1
  O  O11  1  0.49878069  0.36117598  0.22452632  1
  O  O12  1  0.50044388  0.66132298  0.06625098  1
  O  O13  1  0.00044388  0.33867702  0.93374902  1
  O  O14  1  0.49955612  0.16132298  0.43374902  1
  O  O15  1  0.99955612  0.83867702  0.56625098  1
  O  O16  1  0.00044388  0.16132298  0.43374902  1
  O  O17  1  0.50044388  0.83867702  0.56625098  1
  O  O18  1  0.99955612  0.66132298  0.06625098  1
  O  O19  1  0.49955612  0.33867702  0.93374902  1
  Zn  Zn20  1  0.25000000  0.80852140  0.15025713  1
  Zn  Zn21  1  0.75000000  0.19147860  0.84974287  1
  Zn  Zn22  1  0.75000000  0.30852140  0.34974287  1
  Zn  Zn23  1  0.25000000  0.69147860  0.65025713  1
  Ba  Ba24  1  0.75000000  0.07818074  0.10189748  1
  Ba  Ba25  1  0.75000000  0.42181926  0.60189748  1
  Ba  Ba26  1  0.25000000  0.57818074  0.39810252  1
  Ba  Ba27  1  0.25000000  0.92181926  0.89810252  1
  Tm  Tm28  1  0.25000000  0.40054244  0.07432609  1
  Tm  Tm29  1  0.75000000  0.61943896  0.20818704  1
  Tm  Tm30  1  0.75000000  0.88056104  0.70818704  1
  Tm  Tm31  1  0.25000000  0.11943896  0.29181296  1
  Tm  Tm32  1  0.75000000  0.59945756  0.92567391  1
  Tm  Tm33  1  0.75000000  0.90054244  0.42567391  1
  Tm  Tm34  1  0.25000000  0.09945756  0.57432609  1
  Tm  Tm35  1  0.25000000  0.38056104  0.79181296  1
