# generated using pymatgen
data_H22RhC3(N3O4)2
_symmetry_space_group_name_H-M   'P 1'
_cell_length_a   9.78481027
_cell_length_b   10.37610363
_cell_length_c   13.37428063
_cell_angle_alpha   90.00000000
_cell_angle_beta   90.00000000
_cell_angle_gamma   90.00000000
_symmetry_Int_Tables_number   1
_chemical_formula_structural   H22RhC3(N3O4)2
_chemical_formula_sum   'H88 Rh4 C12 N24 O32'
_cell_volume   1357.86671036
_cell_formula_units_Z   4
loop_
 _symmetry_equiv_pos_site_id
 _symmetry_equiv_pos_as_xyz
  1  'x, y, z'
loop_
 _atom_site_type_symbol
 _atom_site_label
 _atom_site_symmetry_multiplicity
 _atom_site_fract_x
 _atom_site_fract_y
 _atom_site_fract_z
 _atom_site_occupancy
  H  H0  1  0.23380902  0.85481808  0.27936831  1
  H  H1  1  0.06867148  0.26573022  0.56209004  1
  H  H2  1  0.47836023  0.85621258  0.66266097  1
  H  H3  1  0.15019109  0.48886996  0.33416922  1
  H  H4  1  0.91673333  0.28236120  0.91856578  1
  H  H5  1  0.66652535  0.24026311  0.77796521  1
  H  H6  1  0.25180320  0.42965721  0.93791903  1
  H  H7  1  0.75180320  0.07034279  0.56208097  1
  H  H8  1  0.76619098  0.14518192  0.72063169  1
  H  H9  1  0.14307360  0.59798375  0.84899564  1
  H  H10  1  0.66652535  0.24026311  0.22203479  1
  H  H11  1  0.52163977  0.14378742  0.66266097  1
  H  H12  1  0.60936221  0.85563506  0.85667117  1
  H  H13  1  0.73380902  0.64518192  0.22063169  1
  H  H14  1  0.73488008  0.92655692  0.07973118  1
  H  H15  1  0.02163977  0.35621258  0.83733903  1
  H  H16  1  0.26619098  0.35481808  0.22063169  1
  H  H17  1  0.23380902  0.85481808  0.72063169  1
  H  H18  1  0.25180320  0.42965721  0.06208097  1
  H  H19  1  0.58326667  0.78236120  0.58143422  1
  H  H20  1  0.14307360  0.59798375  0.15100436  1
  H  H21  1  0.39063779  0.14436494  0.85667117  1
  H  H22  1  0.08326667  0.71763880  0.91856578  1
  H  H23  1  0.32413529  0.81060993  0.50000000  1
  H  H24  1  0.76619098  0.14518192  0.27936831  1
  H  H25  1  0.47836023  0.85621258  0.33733903  1
  H  H26  1  0.16652535  0.25973689  0.72203479  1
  H  H27  1  0.16652535  0.25973689  0.27796521  1
  H  H28  1  0.30108931  0.83154473  0.00000000  1
  H  H29  1  0.41673333  0.21763880  0.58143422  1
  H  H30  1  0.80108931  0.66845527  0.50000000  1
  H  H31  1  0.91673333  0.28236120  0.08143422  1
  H  H32  1  0.60936221  0.85563506  0.14332883  1
  H  H33  1  0.06867148  0.26573022  0.43790996  1
  H  H34  1  0.43132852  0.76573022  0.06209004  1
  H  H35  1  0.26511992  0.07344308  0.07973118  1
  H  H36  1  0.82413529  0.68939007  0.00000000  1
  H  H37  1  0.89063779  0.35563506  0.35667117  1
  H  H38  1  0.74819680  0.57034279  0.93791903  1
  H  H39  1  0.52163977  0.14378742  0.33733903  1
  H  H40  1  0.75180320  0.07034279  0.43791903  1
  H  H41  1  0.24819680  0.92965721  0.43791903  1
  H  H42  1  0.10936221  0.64436494  0.64332883  1
  H  H43  1  0.43132852  0.76573022  0.93790996  1
  H  H44  1  0.76511992  0.42655692  0.42026882  1
  H  H45  1  0.65019109  0.01113004  0.83416922  1
  H  H46  1  0.76511992  0.42655692  0.57973118  1
  H  H47  1  0.73488008  0.92655692  0.92026882  1
  H  H48  1  0.64307360  0.90201625  0.34899564  1
  H  H49  1  0.67586471  0.18939007  0.50000000  1
  H  H50  1  0.83347465  0.74026311  0.27796521  1
  H  H51  1  0.34980891  0.98886996  0.83416922  1
  H  H52  1  0.23488008  0.57344308  0.57973118  1
  H  H53  1  0.85692640  0.40201625  0.84899564  1
  H  H54  1  0.84980891  0.51113004  0.33416922  1
  H  H55  1  0.64307360  0.90201625  0.65100436  1
  H  H56  1  0.33347465  0.75973689  0.77796521  1
  H  H57  1  0.73380902  0.64518192  0.77936831  1
  H  H58  1  0.10936221  0.64436494  0.35667117  1
  H  H59  1  0.02163977  0.35621258  0.16266097  1
  H  H60  1  0.35692640  0.09798375  0.34899564  1
  H  H61  1  0.24819680  0.92965721  0.56208097  1
  H  H62  1  0.34980891  0.98886996  0.16583078  1
  H  H63  1  0.93132852  0.73426978  0.56209004  1
  H  H64  1  0.17586471  0.31060993  0.00000000  1
  H  H65  1  0.97836023  0.64378742  0.16266097  1
  H  H66  1  0.56867148  0.23426978  0.93790996  1
  H  H67  1  0.85692640  0.40201625  0.15100436  1
  H  H68  1  0.74819680  0.57034279  0.06208097  1
  H  H69  1  0.26619098  0.35481808  0.77936831  1
  H  H70  1  0.23488008  0.57344308  0.42026882  1
  H  H71  1  0.84980891  0.51113004  0.66583078  1
  H  H72  1  0.56867148  0.23426978  0.06209004  1
  H  H73  1  0.26511992  0.07344308  0.92026882  1
  H  H74  1  0.58326667  0.78236120  0.41856578  1
  H  H75  1  0.89063779  0.35563506  0.64332883  1
  H  H76  1  0.83347465  0.74026311  0.72203479  1
  H  H77  1  0.97836023  0.64378742  0.83733903  1
  H  H78  1  0.65019109  0.01113004  0.16583078  1
  H  H79  1  0.41673333  0.21763880  0.41856578  1
  H  H80  1  0.33347465  0.75973689  0.22203479  1
  H  H81  1  0.15019109  0.48886996  0.66583078  1
  H  H82  1  0.19891069  0.33154473  0.50000000  1
  H  H83  1  0.39063779  0.14436494  0.14332883  1
  H  H84  1  0.35692640  0.09798375  0.65100436  1
  H  H85  1  0.93132852  0.73426978  0.43790996  1
  H  H86  1  0.08326667  0.71763880  0.08143422  1
  H  H87  1  0.69891069  0.16845527  0.00000000  1
  Rh  Rh88  1  0.50000000  0.00000000  0.50000000  1
  Rh  Rh89  1  0.00000000  0.50000000  0.00000000  1
  Rh  Rh90  1  0.50000000  0.00000000  0.00000000  1
  Rh  Rh91  1  0.00000000  0.50000000  0.50000000  1
  C  C92  1  0.97889670  0.92632148  0.67390711  1
  C  C93  1  0.47889670  0.57367852  0.17390711  1
  C  C94  1  0.49805901  0.42439504  0.50000000  1
  C  C95  1  0.52110330  0.42632148  0.82609289  1
  C  C96  1  0.47889670  0.57367852  0.82609289  1
  C  C97  1  0.02110330  0.07367852  0.67390711  1
  C  C98  1  0.02110330  0.07367852  0.32609289  1
  C  C99  1  0.50194099  0.57560496  0.50000000  1
  C  C100  1  0.52110330  0.42632148  0.17390711  1
  C  C101  1  0.00194099  0.92439504  0.00000000  1
  C  C102  1  0.97889670  0.92632148  0.32609289  1
  C  C103  1  0.99805901  0.07560496  0.00000000  1
  N  N104  1  0.36049437  0.05904101  0.11101151  1
  N  N105  1  0.19367045  0.40898926  0.00000000  1
  N  N106  1  0.36049437  0.05904101  0.88898849  1
  N  N107  1  0.86049437  0.44095899  0.38898849  1
  N  N108  1  0.59440908  0.18132554  0.00000000  1
  N  N109  1  0.94142037  0.37020790  0.88710869  1
  N  N110  1  0.86049437  0.44095899  0.61101151  1
  N  N111  1  0.55857963  0.87020790  0.38710869  1
  N  N112  1  0.05857963  0.62979210  0.88710869  1
  N  N113  1  0.30632955  0.90898926  0.50000000  1
  N  N114  1  0.44142037  0.12979210  0.61289131  1
  N  N115  1  0.09440908  0.31867446  0.50000000  1
  N  N116  1  0.94142037  0.37020790  0.11289131  1
  N  N117  1  0.90559092  0.68132554  0.50000000  1
  N  N118  1  0.55857963  0.87020790  0.61289131  1
  N  N119  1  0.13950563  0.55904101  0.61101151  1
  N  N120  1  0.63950563  0.94095899  0.11101151  1
  N  N121  1  0.40559092  0.81867446  0.00000000  1
  N  N122  1  0.63950563  0.94095899  0.88898849  1
  N  N123  1  0.69367045  0.09101074  0.50000000  1
  N  N124  1  0.05857963  0.62979210  0.11289131  1
  N  N125  1  0.80632955  0.59101074  0.00000000  1
  N  N126  1  0.13950563  0.55904101  0.38898849  1
  N  N127  1  0.44142037  0.12979210  0.38710869  1
  O  O128  1  0.17217266  0.34800984  0.75092947  1
  O  O129  1  0.92610235  0.15653831  0.66831404  1
  O  O130  1  0.85238300  0.89992533  0.67693443  1
  O  O131  1  0.64761700  0.39992533  0.17693443  1
  O  O132  1  0.07389765  0.84346169  0.33168596  1
  O  O133  1  0.32782734  0.84800984  0.74907053  1
  O  O134  1  0.42610235  0.34346169  0.16831404  1
  O  O135  1  0.38141481  0.37115962  0.50000000  1
  O  O136  1  0.67217266  0.15199016  0.25092947  1
  O  O137  1  0.57389765  0.65653831  0.83168596  1
  O  O138  1  0.88141481  0.12884038  0.00000000  1
  O  O139  1  0.42610235  0.34346169  0.83168596  1
  O  O140  1  0.57389765  0.65653831  0.16831404  1
  O  O141  1  0.92610235  0.15653831  0.33168596  1
  O  O142  1  0.35238300  0.60007467  0.82306557  1
  O  O143  1  0.17217266  0.34800984  0.24907053  1
  O  O144  1  0.82782734  0.65199016  0.24907053  1
  O  O145  1  0.38840059  0.63458183  0.50000000  1
  O  O146  1  0.11159941  0.13458183  0.00000000  1
  O  O147  1  0.07389765  0.84346169  0.66831404  1
  O  O148  1  0.67217266  0.15199016  0.74907053  1
  O  O149  1  0.14761700  0.10007467  0.67693443  1
  O  O150  1  0.61858519  0.62884038  0.50000000  1
  O  O151  1  0.14761700  0.10007467  0.32306557  1
  O  O152  1  0.88840059  0.86541817  0.00000000  1
  O  O153  1  0.61159941  0.36541817  0.50000000  1
  O  O154  1  0.11858519  0.87115962  0.00000000  1
  O  O155  1  0.85238300  0.89992533  0.32306557  1
  O  O156  1  0.35238300  0.60007467  0.17693443  1
  O  O157  1  0.82782734  0.65199016  0.75092947  1
  O  O158  1  0.32782734  0.84800984  0.25092947  1
  O  O159  1  0.64761700  0.39992533  0.82306557  1
