# generated using pymatgen
data_K2FePH5(CO5)2
_symmetry_space_group_name_H-M   'P 1'
_cell_length_a   10.48541345
_cell_length_b   11.91550797
_cell_length_c   15.76827158
_cell_angle_alpha   90.00008435
_cell_angle_beta   90.00000000
_cell_angle_gamma   90.00000000
_symmetry_Int_Tables_number   1
_chemical_formula_structural   K2FePH5(CO5)2
_chemical_formula_sum   'K16 Fe8 P8 H40 C16 O80'
_cell_volume   1970.07251707
_cell_formula_units_Z   8
loop_
 _symmetry_equiv_pos_site_id
 _symmetry_equiv_pos_as_xyz
  1  'x, y, z'
loop_
 _atom_site_type_symbol
 _atom_site_label
 _atom_site_symmetry_multiplicity
 _atom_site_fract_x
 _atom_site_fract_y
 _atom_site_fract_z
 _atom_site_occupancy
  K  K0  1  0.30038762  0.16753509  0.36884059  1
  K  K1  1  0.67200900  0.33268723  0.61544720  1
  K  K2  1  0.80038762  0.83246491  0.13115941  1
  K  K3  1  0.32799100  0.66731277  0.38455280  1
  K  K4  1  0.17200784  0.16731416  0.61544774  1
  K  K5  1  0.82799216  0.83268584  0.38455226  1
  K  K6  1  0.82799100  0.33268723  0.11544720  1
  K  K7  1  0.30038618  0.66753455  0.13116067  1
  K  K8  1  0.19961382  0.66753455  0.63116067  1
  K  K9  1  0.80038618  0.33246545  0.36883933  1
  K  K10  1  0.32799216  0.16731416  0.11544774  1
  K  K11  1  0.67200784  0.83268584  0.88455226  1
  K  K12  1  0.17200900  0.66731277  0.88455280  1
  K  K13  1  0.19961238  0.16753509  0.86884059  1
  K  K14  1  0.69961238  0.83246491  0.63115941  1
  K  K15  1  0.69961382  0.33246545  0.86883933  1
  Fe  Fe16  1  0.89582919  0.08281815  0.76132483  1
  Fe  Fe17  1  0.10417081  0.91718185  0.23867517  1
  Fe  Fe18  1  0.89583385  0.58280856  0.73867532  1
  Fe  Fe19  1  0.60417081  0.08281815  0.26132483  1
  Fe  Fe20  1  0.60416615  0.58280856  0.23867532  1
  Fe  Fe21  1  0.10416615  0.41719144  0.26132468  1
  Fe  Fe22  1  0.39583385  0.41719144  0.76132468  1
  Fe  Fe23  1  0.39582919  0.91718185  0.73867517  1
  P  P24  1  0.65546167  0.09410368  0.47680193  1
  P  P25  1  0.34453833  0.90589632  0.52319807  1
  P  P26  1  0.15546208  0.40589653  0.47680238  1
  P  P27  1  0.34453792  0.40589653  0.97680238  1
  P  P28  1  0.84453792  0.59410347  0.52319762  1
  P  P29  1  0.84453833  0.09410368  0.97680193  1
  P  P30  1  0.65546208  0.59410347  0.02319762  1
  P  P31  1  0.15546167  0.90589632  0.02319807  1
  H  H32  1  0.93358366  0.64617087  0.04203322  1
  H  H33  1  0.03276509  0.59831903  0.45970100  1
  H  H34  1  0.46723491  0.09831891  0.54029905  1
  H  H35  1  0.95578490  0.27707522  0.91757260  1
  H  H36  1  0.06641645  0.85382906  0.54203326  1
  H  H37  1  0.53276509  0.40168097  0.04029900  1
  H  H38  1  0.96723491  0.40168097  0.54029900  1
  H  H39  1  0.43317361  0.01809109  0.89619684  1
  H  H40  1  0.14385240  0.90399816  0.41795873  1
  H  H41  1  0.64385240  0.09600184  0.08204127  1
  H  H42  1  0.46723491  0.59831903  0.95970100  1
  H  H43  1  0.93317375  0.48190900  0.89619701  1
  H  H44  1  0.93358355  0.14617094  0.45796674  1
  H  H45  1  0.04421499  0.22292472  0.41757259  1
  H  H46  1  0.64385249  0.59600184  0.41795861  1
  H  H47  1  0.54421499  0.77707528  0.08242741  1
  H  H48  1  0.53276509  0.90168109  0.45970095  1
  H  H49  1  0.93317361  0.98190891  0.60380316  1
  H  H50  1  0.56641645  0.14617094  0.95796674  1
  H  H51  1  0.45578490  0.72292478  0.58242740  1
  H  H52  1  0.43317375  0.51809100  0.60380299  1
  H  H53  1  0.06682625  0.51809100  0.10380299  1
  H  H54  1  0.45578501  0.22292472  0.91757259  1
  H  H55  1  0.06682639  0.01809109  0.39619684  1
  H  H56  1  0.54421510  0.27707522  0.41757260  1
  H  H57  1  0.04421510  0.72292478  0.08242740  1
  H  H58  1  0.85614751  0.59600184  0.91795861  1
  H  H59  1  0.35614751  0.40399816  0.58204139  1
  H  H60  1  0.85614760  0.09600184  0.58204127  1
  H  H61  1  0.95578501  0.77707528  0.58242741  1
  H  H62  1  0.35614760  0.90399816  0.91795873  1
  H  H63  1  0.56682639  0.98190891  0.10380316  1
  H  H64  1  0.43358355  0.85382906  0.04203326  1
  H  H65  1  0.06641634  0.35382913  0.95796678  1
  H  H66  1  0.43358366  0.35382913  0.45796678  1
  H  H67  1  0.14385249  0.40399816  0.08204139  1
  H  H68  1  0.56682625  0.48190900  0.39619701  1
  H  H69  1  0.56641634  0.64617087  0.54203322  1
  H  H70  1  0.03276509  0.09831891  0.04029905  1
  H  H71  1  0.96723491  0.90168109  0.95970095  1
  C  C72  1  0.60272425  0.08648050  0.74051766  1
  C  C73  1  0.39727550  0.41351889  0.24051744  1
  C  C74  1  0.47739634  0.15579687  0.73473680  1
  C  C75  1  0.60272450  0.58648111  0.75948256  1
  C  C76  1  0.10272450  0.41351889  0.74051744  1
  C  C77  1  0.10272425  0.91351950  0.75948234  1
  C  C78  1  0.52260317  0.34420304  0.23473657  1
  C  C79  1  0.89727575  0.08648050  0.24051766  1
  C  C80  1  0.02260366  0.15579687  0.23473680  1
  C  C81  1  0.02260317  0.65579696  0.26526343  1
  C  C82  1  0.97739634  0.84420313  0.76526320  1
  C  C83  1  0.47739683  0.65579696  0.76526343  1
  C  C84  1  0.52260366  0.84420313  0.26526320  1
  C  C85  1  0.97739683  0.34420304  0.73473657  1
  C  C86  1  0.39727575  0.91351950  0.25948234  1
  C  C87  1  0.89727550  0.58648111  0.25948256  1
  O  O88  1  0.48911628  0.26117539  0.73705498  1
  O  O89  1  0.44529611  0.36575086  0.04863926  1
  O  O90  1  0.51088372  0.73882461  0.26294502  1
  O  O91  1  0.37348904  0.10076792  0.72969872  1
  O  O92  1  0.08942349  0.94222879  0.37409869  1
  O  O93  1  0.27948155  0.34282997  0.50015133  1
  O  O94  1  0.47854251  0.64456150  0.56634264  1
  O  O95  1  0.66813987  0.96579272  0.47961853  1
  O  O96  1  0.05470376  0.86575077  0.95136104  1
  O  O97  1  0.48911644  0.76117506  0.76294573  1
  O  O98  1  0.29379159  0.35910749  0.24856502  1
  O  O99  1  0.55470389  0.63424914  0.95136074  1
  O  O100  1  0.70620841  0.64089251  0.75143498  1
  O  O101  1  0.01088356  0.76117506  0.26294573  1
  O  O102  1  0.41057621  0.44222918  0.62590147  1
  O  O103  1  0.47854311  0.14456153  0.93365731  1
  O  O104  1  0.94529624  0.13424923  0.04863896  1
  O  O105  1  0.51088356  0.23882494  0.23705427  1
  O  O106  1  0.83186040  0.46579268  0.52038068  1
  O  O107  1  0.08942379  0.44222918  0.12590147  1
  O  O108  1  0.37348809  0.60076892  0.77030133  1
  O  O109  1  0.33186013  0.03420728  0.52038147  1
  O  O110  1  0.98911628  0.73882461  0.76294502  1
  O  O111  1  0.60070909  0.13848831  0.39114241  1
  O  O112  1  0.12651096  0.10076792  0.22969872  1
  O  O113  1  0.87348904  0.89923208  0.77030128  1
  O  O114  1  0.97854251  0.35543850  0.93365736  1
  O  O115  1  0.27948119  0.84282967  0.99984872  1
  O  O116  1  0.16813960  0.53420732  0.47961932  1
  O  O117  1  0.97854311  0.85543847  0.56634269  1
  O  O118  1  0.41057651  0.94222879  0.87409869  1
  O  O119  1  0.39929074  0.36151245  0.89114299  1
  O  O120  1  0.33186040  0.53420732  0.97961932  1
  O  O121  1  0.22051845  0.34282997  0.00015133  1
  O  O122  1  0.20620841  0.35910749  0.74856502  1
  O  O123  1  0.79379159  0.64089251  0.25143498  1
  O  O124  1  0.72051881  0.15717033  0.00015128  1
  O  O125  1  0.10070909  0.86151169  0.10885759  1
  O  O126  1  0.58942349  0.05777121  0.12590131  1
  O  O127  1  0.02145689  0.14456153  0.43365731  1
  O  O128  1  0.09211377  0.51961815  0.73881525  1
  O  O129  1  0.39929091  0.86151169  0.60885759  1
  O  O130  1  0.79379172  0.14089263  0.24856490  1
  O  O131  1  0.98911644  0.23882494  0.73705427  1
  O  O132  1  0.40788587  0.01961856  0.26118472  1
  O  O133  1  0.91057621  0.55777082  0.87409853  1
  O  O134  1  0.52145749  0.35543850  0.43365736  1
  O  O135  1  0.77948155  0.65717003  0.99984867  1
  O  O136  1  0.72051845  0.65717003  0.49984867  1
  O  O137  1  0.12651191  0.60076892  0.27030133  1
  O  O138  1  0.22051881  0.84282967  0.49984872  1
  O  O139  1  0.40788623  0.51961815  0.23881525  1
  O  O140  1  0.59211377  0.48038185  0.76118475  1
  O  O141  1  0.05470389  0.36575086  0.54863926  1
  O  O142  1  0.60070926  0.63848755  0.10885701  1
  O  O143  1  0.09211413  0.01961856  0.76118472  1
  O  O144  1  0.52145689  0.85543847  0.06634269  1
  O  O145  1  0.16813987  0.03420728  0.02038147  1
  O  O146  1  0.59211413  0.98038144  0.73881528  1
  O  O147  1  0.90788587  0.98038144  0.23881528  1
  O  O148  1  0.66813960  0.46579268  0.02038068  1
  O  O149  1  0.55470376  0.13424923  0.54863896  1
  O  O150  1  0.70620828  0.14089263  0.74856490  1
  O  O151  1  0.02145749  0.64456150  0.06634264  1
  O  O152  1  0.01088372  0.26117539  0.23705498  1
  O  O153  1  0.58942379  0.55777082  0.37409853  1
  O  O154  1  0.44529624  0.86575077  0.45136104  1
  O  O155  1  0.83186013  0.96579272  0.97961853  1
  O  O156  1  0.62651191  0.39923108  0.22969867  1
  O  O157  1  0.89929091  0.13848831  0.89114241  1
  O  O158  1  0.62651096  0.89923208  0.27030128  1
  O  O159  1  0.89929074  0.63848755  0.60885701  1
  O  O160  1  0.91057651  0.05777121  0.62590131  1
  O  O161  1  0.20620828  0.85910737  0.75143510  1
  O  O162  1  0.77948119  0.15717033  0.50015128  1
  O  O163  1  0.90788623  0.48038185  0.26118475  1
  O  O164  1  0.10070926  0.36151245  0.39114299  1
  O  O165  1  0.87348809  0.39923108  0.72969867  1
  O  O166  1  0.29379172  0.85910737  0.25143510  1
  O  O167  1  0.94529611  0.63424914  0.45136074  1
