# generated using pymatgen
data_Ba2Eu2Ti2Cu2O11
_symmetry_space_group_name_H-M   'P 1'
_cell_length_a   3.92492588
_cell_length_b   3.92433109
_cell_length_c   15.95445028
_cell_angle_alpha   89.99997804
_cell_angle_beta   89.99947563
_cell_angle_gamma   89.98776469
_symmetry_Int_Tables_number   1
_chemical_formula_structural   Ba2Eu2Ti2Cu2O11
_chemical_formula_sum   'Ba2 Eu2 Ti2 Cu2 O11'
_cell_volume   245.74174413
_cell_formula_units_Z   1
loop_
 _symmetry_equiv_pos_site_id
 _symmetry_equiv_pos_as_xyz
  1  'x, y, z'
loop_
 _atom_site_type_symbol
 _atom_site_label
 _atom_site_symmetry_multiplicity
 _atom_site_fract_x
 _atom_site_fract_y
 _atom_site_fract_z
 _atom_site_occupancy
  Eu  Eu0  1  0.49999976  0.50000009  0.99994656  1
  Eu  Eu1  1  0.50000029  0.50000169  0.49999721  1
  Ba  Ba2  1  0.50000187  0.49999729  0.76239688  1
  Ba  Ba3  1  0.49999782  0.50000192  0.23769666  1
  Ti  Ti4  1  0.00000125  0.99999824  0.62463564  1
  Ti  Ti5  1  0.99999885  0.00000174  0.37535338  1
  Cu  Cu6  1  0.99999888  0.00000023  0.10959323  1
  Cu  Cu7  1  0.00000117  0.00000044  0.89038011  1
  O  O8  1  0.00000624  0.99999890  0.74310496  1
  O  O9  1  0.00000545  0.50000138  0.61452100  1
  O  O10  1  0.50000529  0.00000238  0.61453033  1
  O  O11  1  0.49999528  -0.00000128  0.38546528  1
  O  O12  1  0.00000236  0.00000000  0.49999362  1
  O  O13  1  0.99999435  0.00000116  0.25690962  1
  O  O14  1  0.50000038  0.99999582  0.09574942  1
  O  O15  1  0.49999953  -0.00000017  0.90425090  1
  O  O16  1  0.99999769  0.50000198  0.90423254  1
  O  O17  1  0.99999156  0.49999940  0.38547434  1
  O  O18  1  0.00000197  0.49999880  0.09576831  1
