# generated using pymatgen
data_CeBiS2O
_symmetry_space_group_name_H-M   'P 1'
_cell_length_a   4.01552823
_cell_length_b   4.01555307
_cell_length_c   13.61461531
_cell_angle_alpha   89.99952244
_cell_angle_beta   90.00007078
_cell_angle_gamma   90.00149919
_symmetry_Int_Tables_number   1
_chemical_formula_structural   CeBiS2O
_chemical_formula_sum   'Ce2 Bi2 S4 O2'
_cell_volume   219.52977278
_cell_formula_units_Z   2
loop_
 _symmetry_equiv_pos_site_id
 _symmetry_equiv_pos_as_xyz
  1  'x, y, z'
loop_
 _atom_site_type_symbol
 _atom_site_label
 _atom_site_symmetry_multiplicity
 _atom_site_fract_x
 _atom_site_fract_y
 _atom_site_fract_z
 _atom_site_occupancy
  Ce  Ce0  1  0.24999931  0.25000121  0.59074890  1
  Ce  Ce1  1  0.75000154  0.74999770  0.40912978  1
  Bi  Bi2  1  0.25000199  0.24999799  0.12433787  1
  Bi  Bi3  1  0.75000029  0.75000001  0.87568717  1
  S  S4  1  0.24999708  0.25000222  0.31487016  1
  S  S5  1  0.25000458  0.24999746  0.88097996  1
  S  S6  1  0.74999832  0.75000184  0.68519550  1
  S  S7  1  0.74999806  0.75000095  0.11907577  1
  O  O8  1  0.74999999  0.24999999  0.49998784  1
  O  O9  1  0.24999884  0.75000064  0.49998705  1
