# generated using pymatgen
data_CuAgPO4
_symmetry_space_group_name_H-M   'P 1'
_cell_length_a   5.77081731
_cell_length_b   7.62298805
_cell_length_c   15.95047619
_cell_angle_alpha   90.03131675
_cell_angle_beta   89.99903645
_cell_angle_gamma   89.99954539
_symmetry_Int_Tables_number   1
_chemical_formula_structural   CuAgPO4
_chemical_formula_sum   'Cu8 Ag8 P8 O32'
_cell_volume   701.67524210
_cell_formula_units_Z   8
loop_
 _symmetry_equiv_pos_site_id
 _symmetry_equiv_pos_as_xyz
  1  'x, y, z'
loop_
 _atom_site_type_symbol
 _atom_site_label
 _atom_site_symmetry_multiplicity
 _atom_site_fract_x
 _atom_site_fract_y
 _atom_site_fract_z
 _atom_site_occupancy
  Cu  Cu0  1  0.88490473  0.32041076  0.47155203  1
  Cu  Cu1  1  0.38454777  0.32055690  0.02863136  1
  Cu  Cu2  1  0.61512073  0.67930341  0.97131112  1
  Cu  Cu3  1  0.38484593  0.17962906  0.52847639  1
  Cu  Cu4  1  0.11524898  0.82051605  0.02861206  1
  Cu  Cu5  1  0.88460209  0.17939457  0.97138790  1
  Cu  Cu6  1  0.11521208  0.67960387  0.52845614  1
  Cu  Cu7  1  0.61514668  0.82030223  0.47155292  1
  Ag  Ag8  1  0.12455677  0.33496073  0.71465025  1
  Ag  Ag9  1  0.87559651  0.83503464  0.78548656  1
  Ag  Ag10  1  0.62445208  0.33504195  0.78548785  1
  Ag  Ag11  1  0.37556248  0.66498992  0.21453958  1
  Ag  Ag12  1  0.12443065  0.16499658  0.21454245  1
  Ag  Ag13  1  0.87544408  0.66503585  0.28537943  1
  Ag  Ag14  1  0.62459698  0.16499013  0.28537056  1
  Ag  Ag15  1  0.37542534  0.83498555  0.71464087  1
  P  P16  1  0.39957849  0.47401804  0.38956243  1
  P  P17  1  0.39971897  0.02612579  0.88960368  1
  P  P18  1  0.10045589  0.97402795  0.38958375  1
  P  P19  1  0.89951269  0.02598908  0.61042254  1
  P  P20  1  0.89966400  0.47388234  0.11035825  1
  P  P21  1  0.60032905  0.97402808  0.11037261  1
  P  P22  1  0.60045376  0.52601538  0.61043191  1
  P  P23  1  0.10034905  0.52596515  0.88964205  1
  O  O24  1  0.44798290  0.82495056  0.06889237  1
  O  O25  1  0.17572514  0.49679134  0.44412198  1
  O  O26  1  0.96163709  0.35030416  0.88461669  1
  O  O27  1  0.33751863  0.08420079  0.79948369  1
  O  O28  1  0.32433177  0.99684904  0.44414183  1
  O  O29  1  0.94816079  0.82515373  0.43122705  1
  O  O30  1  0.94798596  0.67510270  0.93111238  1
  O  O31  1  0.53842685  0.64966371  0.38460289  1
  O  O32  1  0.66259076  0.58404957  0.70051543  1
  O  O33  1  0.55217414  0.17510376  0.93114553  1
  O  O34  1  0.46150732  0.35034312  0.61538098  1
  O  O35  1  0.83740693  0.08404798  0.70049251  1
  O  O36  1  0.82436555  0.50321908  0.55589341  1
  O  O37  1  0.16257001  0.91600521  0.29950221  1
  O  O38  1  0.05190942  0.17483284  0.56875593  1
  O  O39  1  0.67565606  0.00319958  0.55585005  1
  O  O40  1  0.82409658  0.99656201  0.05577345  1
  O  O41  1  0.16243400  0.58407251  0.79954157  1
  O  O42  1  0.05214125  0.32485996  0.06884928  1
  O  O43  1  0.96149635  0.14966823  0.38461598  1
  O  O44  1  0.55187969  0.32518804  0.43124584  1
  O  O45  1  0.03848846  0.85034494  0.61538486  1
  O  O46  1  0.53830678  0.85039187  0.88453431  1
  O  O47  1  0.17587508  0.00366792  0.94416933  1
  O  O48  1  0.33741333  0.41597556  0.29947280  1
  O  O49  1  0.46161284  0.14971051  0.11540771  1
  O  O50  1  0.83760050  0.41584587  0.20048510  1
  O  O51  1  0.66246999  0.91586972  0.20049067  1
  O  O52  1  0.44816748  0.67484396  0.56874992  1
  O  O53  1  0.03831833  0.64957037  0.11546266  1
  O  O54  1  0.32414764  0.50342920  0.94424957  1
  O  O55  1  0.67584657  0.49637818  0.05577731  1
