# generated using pymatgen
data_TiP4H8N2O13
_symmetry_space_group_name_H-M   'P 1'
_cell_length_a   5.15890878
_cell_length_b   8.04694164
_cell_length_c   15.16298653
_cell_angle_alpha   83.76725491
_cell_angle_beta   83.06798593
_cell_angle_gamma   81.20089941
_symmetry_Int_Tables_number   1
_chemical_formula_structural   TiP4H8N2O13
_chemical_formula_sum   'Ti2 P8 H16 N4 O26'
_cell_volume   614.90183870
_cell_formula_units_Z   2
loop_
 _symmetry_equiv_pos_site_id
 _symmetry_equiv_pos_as_xyz
  1  'x, y, z'
loop_
 _atom_site_type_symbol
 _atom_site_label
 _atom_site_symmetry_multiplicity
 _atom_site_fract_x
 _atom_site_fract_y
 _atom_site_fract_z
 _atom_site_occupancy
  Ti  Ti0  1  0.96101460  0.05581694  0.76069056  1
  Ti  Ti1  1  0.03898540  0.94418306  0.23930944  1
  P  P2  1  0.53724296  0.89908925  0.65747714  1
  P  P3  1  0.17759136  0.32930414  0.21126466  1
  P  P4  1  0.82240864  0.67069586  0.78873534  1
  P  P5  1  0.61504407  0.77826600  0.14283036  1
  P  P6  1  0.81161704  0.59080987  0.30907210  1
  P  P7  1  0.38495593  0.22173400  0.85716964  1
  P  P8  1  0.18838296  0.40919013  0.69092790  1
  P  P9  1  0.46275704  0.10091075  0.34252286  1
  H  H10  1  0.26402108  0.65402283  0.03323716  1
  H  H11  1  0.58565099  0.28877019  0.06686799  1
  H  H12  1  0.74592670  0.45737169  0.05288413  1
  H  H13  1  0.73597892  0.34597717  0.96676284  1
  H  H14  1  0.03077900  0.68406235  0.53060421  1
  H  H15  1  0.18525317  0.71747089  0.42579845  1
  H  H16  1  0.25407330  0.54262831  0.94711587  1
  H  H17  1  0.92154519  0.26116953  0.04905718  1
  H  H18  1  0.35137431  0.72319402  0.51497211  1
  H  H19  1  0.81474683  0.28252911  0.57420155  1
  H  H20  1  0.96922100  0.31593765  0.46939579  1
  H  H21  1  0.09671410  0.87201196  0.49236060  1
  H  H22  1  0.41434901  0.71122981  0.93313201  1
  H  H23  1  0.64862569  0.27680598  0.48502789  1
  H  H24  1  0.90328590  0.12798804  0.50763940  1
  H  H25  1  0.07845481  0.73883047  0.95094282  1
  N  N26  1  0.25125619  0.66415893  0.96560169  1
  N  N27  1  0.16804427  0.74654932  0.49101188  1
  N  N28  1  0.74874381  0.33584107  0.03439831  1
  N  N29  1  0.83195573  0.25345068  0.50898812  1
  O  O30  1  0.98522802  0.28408889  0.70104825  1
  O  O31  1  0.75922932  0.03422535  0.33224601  1
  O  O32  1  0.63960284  0.63181549  0.22666613  1
  O  O33  1  0.36199899  0.16945288  0.42986728  1
  O  O34  1  0.24338878  0.45428561  0.13631249  1
  O  O35  1  0.43260362  0.25291350  0.26036992  1
  O  O36  1  0.02409620  0.59291777  0.70871311  1
  O  O37  1  0.05752325  0.17821693  0.18691469  1
  O  O38  1  0.70807498  0.69584987  0.05862247  1
  O  O39  1  0.01477198  0.71591111  0.29895175  1
  O  O40  1  0.94247675  0.82178307  0.81308531  1
  O  O41  1  0.56739638  0.74708650  0.73963008  1
  O  O42  1  0.78163836  0.91328947  0.16228366  1
  O  O43  1  0.75661122  0.54571439  0.86368751  1
  O  O44  1  0.69825849  0.03204846  0.68341065  1
  O  O45  1  0.36039716  0.36818451  0.77333387  1
  O  O46  1  0.32105922  0.85483432  0.14973098  1
  O  O47  1  0.29192502  0.30415013  0.94137753  1
  O  O48  1  0.67894078  0.14516568  0.85026902  1
  O  O49  1  0.30174151  0.96795154  0.31658935  1
  O  O50  1  0.63800101  0.83054712  0.57013272  1
  O  O51  1  0.65266888  0.57158691  0.39612759  1
  O  O52  1  0.97590380  0.40708223  0.29128689  1
  O  O53  1  0.24077068  0.96577465  0.66775399  1
  O  O54  1  0.34733112  0.42841309  0.60387241  1
  O  O55  1  0.21836164  0.08671053  0.83771634  1
