# generated using pymatgen
data_SiO2
_symmetry_space_group_name_H-M   'P 1'
_cell_length_a   13.58266104
_cell_length_b   13.58266104
_cell_length_c   22.06674490
_cell_angle_alpha   90.00000000
_cell_angle_beta   90.00000000
_cell_angle_gamma   90.00000000
_symmetry_Int_Tables_number   1
_chemical_formula_structural   SiO2
_chemical_formula_sum   'Si56 O112'
_cell_volume   4071.06465897
_cell_formula_units_Z   56
loop_
 _symmetry_equiv_pos_site_id
 _symmetry_equiv_pos_as_xyz
  1  'x, y, z'
loop_
 _atom_site_type_symbol
 _atom_site_label
 _atom_site_symmetry_multiplicity
 _atom_site_fract_x
 _atom_site_fract_y
 _atom_site_fract_z
 _atom_site_occupancy
  Si  Si0  1  0.38765175  0.61312299  0.38737964  1
  Si  Si1  1  0.61312299  0.61234825  0.61262036  1
  Si  Si2  1  0.38687701  0.38765175  0.61262036  1
  Si  Si3  1  0.61234825  0.38687701  0.38737964  1
  Si  Si4  1  0.61312299  0.38765175  0.61262036  1
  Si  Si5  1  0.38687701  0.61234825  0.61262036  1
  Si  Si6  1  0.61234825  0.61312299  0.38737964  1
  Si  Si7  1  0.38765175  0.38687701  0.38737964  1
  Si  Si8  1  0.88765175  0.11312299  0.88737964  1
  Si  Si9  1  0.11312299  0.11234825  0.11262036  1
  Si  Si10  1  0.88687701  0.88765175  0.11262036  1
  Si  Si11  1  0.11234825  0.88687701  0.88737964  1
  Si  Si12  1  0.11312299  0.88765175  0.11262036  1
  Si  Si13  1  0.88687701  0.11234825  0.11262036  1
  Si  Si14  1  0.11234825  0.11312299  0.88737964  1
  Si  Si15  1  0.88765175  0.88687701  0.88737964  1
  Si  Si16  1  0.11347676  0.61467809  0.43618882  1
  Si  Si17  1  0.61467809  0.88652324  0.56381118  1
  Si  Si18  1  0.38532191  0.11347676  0.56381118  1
  Si  Si19  1  0.88652324  0.38532191  0.43618882  1
  Si  Si20  1  0.61467809  0.11347676  0.56381118  1
  Si  Si21  1  0.38532191  0.88652324  0.56381118  1
  Si  Si22  1  0.88652324  0.61467809  0.43618882  1
  Si  Si23  1  0.11347676  0.38532191  0.43618882  1
  Si  Si24  1  0.61347676  0.11467809  0.93618882  1
  Si  Si25  1  0.11467809  0.38652324  0.06381118  1
  Si  Si26  1  0.88532191  0.61347676  0.06381118  1
  Si  Si27  1  0.38652324  0.88532191  0.93618882  1
  Si  Si28  1  0.11467809  0.61347676  0.06381118  1
  Si  Si29  1  0.88532191  0.38652324  0.06381118  1
  Si  Si30  1  0.38652324  0.11467809  0.93618882  1
  Si  Si31  1  0.61347676  0.88532191  0.93618882  1
  Si  Si32  1  0.20544622  0.38368167  0.30993477  1
  Si  Si33  1  0.38368167  0.79455378  0.69006523  1
  Si  Si34  1  0.61631833  0.20544622  0.69006523  1
  Si  Si35  1  0.79455378  0.61631833  0.30993477  1
  Si  Si36  1  0.38368167  0.20544622  0.69006523  1
  Si  Si37  1  0.61631833  0.79455378  0.69006523  1
  Si  Si38  1  0.79455378  0.38368167  0.30993477  1
  Si  Si39  1  0.20544622  0.61631833  0.30993477  1
  Si  Si40  1  0.70544622  0.88368167  0.80993477  1
  Si  Si41  1  0.88368167  0.29455378  0.19006523  1
  Si  Si42  1  0.11631833  0.70544622  0.19006523  1
  Si  Si43  1  0.29455378  0.11631833  0.80993477  1
  Si  Si44  1  0.88368167  0.70544622  0.19006523  1
  Si  Si45  1  0.11631833  0.29455378  0.19006523  1
  Si  Si46  1  0.29455378  0.88368167  0.80993477  1
  Si  Si47  1  0.70544622  0.11631833  0.80993477  1
  Si  Si48  1  0.70316395  0.29683605  0.50000000  1
  Si  Si49  1  0.29683605  0.29683605  0.50000000  1
  Si  Si50  1  0.70316395  0.70316395  0.50000000  1
  Si  Si51  1  0.29683605  0.70316395  0.50000000  1
  Si  Si52  1  0.20316395  0.79683605  0.00000000  1
  Si  Si53  1  0.79683605  0.79683605  0.00000000  1
  Si  Si54  1  0.20316395  0.20316395  0.00000000  1
  Si  Si55  1  0.79683605  0.20316395  0.00000000  1
  O  O56  1  0.31439320  0.65026244  0.33384626  1
  O  O57  1  0.65026244  0.68560680  0.66615374  1
  O  O58  1  0.34973756  0.31439320  0.66615374  1
  O  O59  1  0.68560680  0.34973756  0.33384626  1
  O  O60  1  0.65026244  0.31439320  0.66615374  1
  O  O61  1  0.34973756  0.68560680  0.66615374  1
  O  O62  1  0.68560680  0.65026244  0.33384626  1
  O  O63  1  0.31439320  0.34973756  0.33384626  1
  O  O64  1  0.81439320  0.15026244  0.83384626  1
  O  O65  1  0.15026244  0.18560680  0.16615374  1
  O  O66  1  0.84973756  0.81439320  0.16615374  1
  O  O67  1  0.18560680  0.84973756  0.83384626  1
  O  O68  1  0.15026244  0.81439320  0.16615374  1
  O  O69  1  0.84973756  0.18560680  0.16615374  1
  O  O70  1  0.18560680  0.15026244  0.83384626  1
  O  O71  1  0.81439320  0.84973756  0.83384626  1
  O  O72  1  0.37695910  0.68444589  0.44601213  1
  O  O73  1  0.68444589  0.62304090  0.55398787  1
  O  O74  1  0.31555411  0.37695910  0.55398787  1
  O  O75  1  0.62304090  0.31555411  0.44601213  1
  O  O76  1  0.68444589  0.37695910  0.55398787  1
  O  O77  1  0.31555411  0.62304090  0.55398787  1
  O  O78  1  0.62304090  0.68444589  0.44601213  1
  O  O79  1  0.37695910  0.31555411  0.44601213  1
  O  O80  1  0.87695910  0.18444589  0.94601213  1
  O  O81  1  0.18444589  0.12304090  0.05398787  1
  O  O82  1  0.81555411  0.87695910  0.05398787  1
  O  O83  1  0.12304090  0.81555411  0.94601213  1
  O  O84  1  0.18444589  0.87695910  0.05398787  1
  O  O85  1  0.81555411  0.12304090  0.05398787  1
  O  O86  1  0.12304090  0.18444589  0.94601213  1
  O  O87  1  0.87695910  0.81555411  0.94601213  1
  O  O88  1  0.64110618  0.50000000  0.40695441  1
  O  O89  1  0.50000000  0.35889382  0.59304559  1
  O  O90  1  0.50000000  0.64110618  0.59304559  1
  O  O91  1  0.35889382  0.50000000  0.40695441  1
  O  O92  1  0.14110618  0.00000000  0.90695441  1
  O  O93  1  0.00000000  0.85889382  0.09304559  1
  O  O94  1  0.00000000  0.14110618  0.09304559  1
  O  O95  1  0.85889382  0.00000000  0.90695441  1
  O  O96  1  0.50000000  0.61625545  0.36258607  1
  O  O97  1  0.61625545  0.50000000  0.63741393  1
  O  O98  1  0.38374455  0.50000000  0.63741393  1
  O  O99  1  0.50000000  0.38374455  0.36258607  1
  O  O100  1  0.00000000  0.11625545  0.86258607  1
  O  O101  1  0.11625545  0.00000000  0.13741393  1
  O  O102  1  0.88374455  0.00000000  0.13741393  1
  O  O103  1  0.00000000  0.88374455  0.86258607  1
  O  O104  1  0.79283958  0.50000000  0.29276952  1
  O  O105  1  0.50000000  0.20716042  0.70723048  1
  O  O106  1  0.50000000  0.79283958  0.70723048  1
  O  O107  1  0.20716042  0.50000000  0.29276952  1
  O  O108  1  0.29283958  0.00000000  0.79276952  1
  O  O109  1  0.00000000  0.70716042  0.20723048  1
  O  O110  1  0.00000000  0.29283958  0.20723048  1
  O  O111  1  0.70716042  0.00000000  0.79276952  1
  O  O112  1  0.12468431  0.63615426  0.36361328  1
  O  O113  1  0.63615426  0.87531569  0.63638672  1
  O  O114  1  0.36384574  0.12468431  0.63638672  1
  O  O115  1  0.87531569  0.36384574  0.36361328  1
  O  O116  1  0.63615426  0.12468431  0.63638672  1
  O  O117  1  0.36384574  0.87531569  0.63638672  1
  O  O118  1  0.87531569  0.63615426  0.36361328  1
  O  O119  1  0.12468431  0.36384574  0.36361328  1
  O  O120  1  0.62468431  0.13615426  0.86361328  1
  O  O121  1  0.13615426  0.37531569  0.13638672  1
  O  O122  1  0.86384574  0.62468431  0.13638672  1
  O  O123  1  0.37531569  0.86384574  0.86361328  1
  O  O124  1  0.13615426  0.62468431  0.13638672  1
  O  O125  1  0.86384574  0.37531569  0.13638672  1
  O  O126  1  0.37531569  0.13615426  0.86361328  1
  O  O127  1  0.62468431  0.86384574  0.86361328  1
  O  O128  1  0.82080392  0.67919608  0.25000000  1
  O  O129  1  0.67919608  0.17919608  0.75000000  1
  O  O130  1  0.32080392  0.82080392  0.75000000  1
  O  O131  1  0.17919608  0.32080392  0.25000000  1
  O  O132  1  0.67919608  0.82080392  0.75000000  1
  O  O133  1  0.32080392  0.17919608  0.75000000  1
  O  O134  1  0.17919608  0.67919608  0.25000000  1
  O  O135  1  0.82080392  0.32080392  0.25000000  1
  O  O136  1  0.18556980  0.68840153  0.47392531  1
  O  O137  1  0.68840153  0.81443020  0.52607469  1
  O  O138  1  0.31159847  0.18556980  0.52607469  1
  O  O139  1  0.81443020  0.31159847  0.47392531  1
  O  O140  1  0.68840153  0.18556980  0.52607469  1
  O  O141  1  0.31159847  0.81443020  0.52607469  1
  O  O142  1  0.81443020  0.68840153  0.47392531  1
  O  O143  1  0.18556980  0.31159847  0.47392531  1
  O  O144  1  0.68556980  0.18840153  0.97392531  1
  O  O145  1  0.18840153  0.31443020  0.02607469  1
  O  O146  1  0.81159847  0.68556980  0.02607469  1
  O  O147  1  0.31443020  0.81159847  0.97392531  1
  O  O148  1  0.18840153  0.68556980  0.02607469  1
  O  O149  1  0.81159847  0.31443020  0.02607469  1
  O  O150  1  0.31443020  0.18840153  0.97392531  1
  O  O151  1  0.68556980  0.81159847  0.97392531  1
  O  O152  1  0.85692998  0.50000000  0.45033198  1
  O  O153  1  0.50000000  0.14307002  0.54966802  1
  O  O154  1  0.50000000  0.85692998  0.54966802  1
  O  O155  1  0.14307002  0.50000000  0.45033198  1
  O  O156  1  0.35692998  0.00000000  0.95033198  1
  O  O157  1  0.00000000  0.64307002  0.04966802  1
  O  O158  1  0.00000000  0.35692998  0.04966802  1
  O  O159  1  0.64307002  0.00000000  0.95033198  1
  O  O160  1  0.00000000  0.63447730  0.45615272  1
  O  O161  1  0.63447730  0.00000000  0.54384728  1
  O  O162  1  0.36552270  0.00000000  0.54384728  1
  O  O163  1  0.00000000  0.36552270  0.45615272  1
  O  O164  1  0.50000000  0.13447730  0.95615272  1
  O  O165  1  0.13447730  0.50000000  0.04384728  1
  O  O166  1  0.86552270  0.50000000  0.04384728  1
  O  O167  1  0.50000000  0.86552270  0.95615272  1
