# generated using pymatgen
data_RbNaMg30O31
_symmetry_space_group_name_H-M   'P 1'
_cell_length_a   8.61779524
_cell_length_b   8.68436710
_cell_length_c   8.68436710
_cell_angle_alpha   90.00000000
_cell_angle_beta   90.00000000
_cell_angle_gamma   90.00000000
_symmetry_Int_Tables_number   1
_chemical_formula_structural   RbNaMg30O31
_chemical_formula_sum   'Rb1 Na1 Mg30 O31'
_cell_volume   649.93888011
_cell_formula_units_Z   1
loop_
 _symmetry_equiv_pos_site_id
 _symmetry_equiv_pos_as_xyz
  1  'x, y, z'
loop_
 _atom_site_type_symbol
 _atom_site_label
 _atom_site_symmetry_multiplicity
 _atom_site_fract_x
 _atom_site_fract_y
 _atom_site_fract_z
 _atom_site_occupancy
  Rb  Rb0  1  0.99731544  0.50000000  0.50000000  1
  Na  Na1  1  0.99793364  0.00000000  -0.00000000  1
  Mg  Mg2  1  0.99388783  0.00000000  0.50000000  1
  Mg  Mg3  1  0.99388783  0.50000000  -0.00000000  1
  Mg  Mg4  1  0.51807812  0.00000000  -0.00000000  1
  Mg  Mg5  1  0.50265841  0.00000000  0.50000000  1
  Mg  Mg6  1  0.50265841  0.50000000  -0.00000000  1
  Mg  Mg7  1  0.49972815  0.50000000  0.50000000  1
  Mg  Mg8  1  0.00084367  0.24571050  0.24571050  1
  Mg  Mg9  1  0.00084367  0.24571050  0.75428950  1
  Mg  Mg10  1  0.00084367  0.75428950  0.24571050  1
  Mg  Mg11  1  0.00084367  0.75428950  0.75428950  1
  Mg  Mg12  1  0.49932820  0.24881289  0.24881289  1
  Mg  Mg13  1  0.49932820  0.24881289  0.75118711  1
  Mg  Mg14  1  0.49932820  0.75118711  0.24881289  1
  Mg  Mg15  1  0.49932820  0.75118711  0.75118711  1
  Mg  Mg16  1  0.24668186  0.00000000  0.27445738  1
  Mg  Mg17  1  0.24668186  0.00000000  0.72554262  1
  Mg  Mg18  1  0.25140657  0.50000000  0.25020636  1
  Mg  Mg19  1  0.25140657  0.50000000  0.74979364  1
  Mg  Mg20  1  0.75537114  0.00000000  0.24853049  1
  Mg  Mg21  1  0.75537114  0.00000000  0.75146951  1
  Mg  Mg22  1  0.74754953  0.50000000  0.24807232  1
  Mg  Mg23  1  0.74754953  0.50000000  0.75192768  1
  Mg  Mg24  1  0.24668186  0.27445738  -0.00000000  1
  Mg  Mg25  1  0.25140657  0.25020636  0.50000000  1
  Mg  Mg26  1  0.24668186  0.72554262  -0.00000000  1
  Mg  Mg27  1  0.25140657  0.74979364  0.50000000  1
  Mg  Mg28  1  0.75537114  0.24853049  -0.00000000  1
  Mg  Mg29  1  0.74754953  0.24807232  0.50000000  1
  Mg  Mg30  1  0.75537114  0.75146951  -0.00000000  1
  Mg  Mg31  1  0.74754953  0.75192768  0.50000000  1
  O  O32  1  0.26045257  0.00000000  0.50000000  1
  O  O33  1  0.26045257  0.50000000  -0.00000000  1
  O  O34  1  0.27814043  0.50000000  0.50000000  1
  O  O35  1  0.74328348  0.00000000  -0.00000000  1
  O  O36  1  0.74224668  0.00000000  0.50000000  1
  O  O37  1  0.74224668  0.50000000  -0.00000000  1
  O  O38  1  0.71956734  0.50000000  0.50000000  1
  O  O39  1  0.25029200  0.24473549  0.24473549  1
  O  O40  1  0.25029200  0.24473549  0.75526451  1
  O  O41  1  0.25029200  0.75526451  0.24473549  1
  O  O42  1  0.25029200  0.75526451  0.75526451  1
  O  O43  1  0.74945794  0.24841317  0.24841317  1
  O  O44  1  0.74945794  0.24841317  0.75158683  1
  O  O45  1  0.74945794  0.75158683  0.24841317  1
  O  O46  1  0.74945794  0.75158683  0.75158683  1
  O  O47  1  0.00596276  0.00000000  0.25593085  1
  O  O48  1  0.00596276  0.00000000  0.74406915  1
  O  O49  1  0.00299157  0.50000000  0.22168132  1
  O  O50  1  0.00299157  0.50000000  0.77831868  1
  O  O51  1  0.49118409  0.00000000  0.24177862  1
  O  O52  1  0.49118409  0.00000000  0.75822138  1
  O  O53  1  0.49829626  0.50000000  0.24314345  1
  O  O54  1  0.49829626  0.50000000  0.75685655  1
  O  O55  1  0.00596276  0.25593085  -0.00000000  1
  O  O56  1  0.00299157  0.22168132  0.50000000  1
  O  O57  1  0.00596276  0.74406915  -0.00000000  1
  O  O58  1  0.00299157  0.77831868  0.50000000  1
  O  O59  1  0.49118409  0.24177862  -0.00000000  1
  O  O60  1  0.49829626  0.24314345  0.50000000  1
  O  O61  1  0.49118409  0.75822138  -0.00000000  1
  O  O62  1  0.49829626  0.75685655  0.50000000  1
