# generated using pymatgen
data_Rh2O3
_symmetry_space_group_name_H-M   'P 1'
_cell_length_a   5.22933835
_cell_length_b   5.51363433
_cell_length_c   14.96002921
_cell_angle_alpha   90.00043121
_cell_angle_beta   89.99764338
_cell_angle_gamma   89.99983478
_symmetry_Int_Tables_number   1
_chemical_formula_structural   Rh2O3
_chemical_formula_sum   'Rh16 O24'
_cell_volume   431.33742738
_cell_formula_units_Z   8
loop_
 _symmetry_equiv_pos_site_id
 _symmetry_equiv_pos_as_xyz
  1  'x, y, z'
loop_
 _atom_site_type_symbol
 _atom_site_label
 _atom_site_symmetry_multiplicity
 _atom_site_fract_x
 _atom_site_fract_y
 _atom_site_fract_z
 _atom_site_occupancy
  Rh  Rh0  1  0.49871959  0.68997720  0.07486759  1
  Rh  Rh1  1  0.00130049  0.30998648  0.57485542  1
  Rh  Rh2  1  0.50130739  0.23630765  0.67868618  1
  Rh  Rh3  1  0.49870585  0.73625527  0.82131334  1
  Rh  Rh4  1  0.99867613  0.76377943  0.17868977  1
  Rh  Rh5  1  0.00131977  0.26382338  0.32131065  1
  Rh  Rh6  1  0.50129047  0.26373066  0.17868682  1
  Rh  Rh7  1  0.49869287  0.76368444  0.32131197  1
  Rh  Rh8  1  0.99869609  0.81001200  0.92515019  1
  Rh  Rh9  1  0.49873975  0.81003720  0.57485803  1
  Rh  Rh10  1  0.99869818  0.69001213  0.42514792  1
  Rh  Rh11  1  0.50126829  0.18997699  0.42514299  1
  Rh  Rh12  1  0.99867184  0.73618553  0.67869367  1
  Rh  Rh13  1  0.00132159  0.23622717  0.82130780  1
  Rh  Rh14  1  0.00129344  0.19000121  0.07484690  1
  Rh  Rh15  1  0.50128035  0.31000583  0.92513245  1
  O  O16  1  0.80158762  0.47995197  0.12359522  1
  O  O17  1  0.14895666  0.84887350  0.05262112  1
  O  O18  1  0.64208010  0.12782265  0.29724195  1
  O  O19  1  0.30159910  0.47990494  0.37639419  1
  O  O20  1  0.35786261  0.87214817  0.70274981  1
  O  O21  1  0.30150798  0.02024911  0.87639096  1
  O  O22  1  0.14894431  0.65109778  0.55260606  1
  O  O23  1  0.35103821  0.15112212  0.55260211  1
  O  O24  1  0.14207371  0.12778386  0.20276357  1
  O  O25  1  0.64895481  0.84887720  0.44738605  1
  O  O26  1  0.69845938  0.52014036  0.62360522  1
  O  O27  1  0.19837815  0.52001292  0.87640793  1
  O  O28  1  0.14206712  0.37214008  0.70278123  1
  O  O29  1  0.85104960  0.15114903  0.94737135  1
  O  O30  1  0.64894928  0.65106967  0.94741530  1
  O  O31  1  0.35105494  0.34890635  0.05259007  1
  O  O32  1  0.85104564  0.34890660  0.44740642  1
  O  O33  1  0.35785986  0.62792510  0.20276992  1
  O  O34  1  0.64219152  0.37204740  0.79724558  1
  O  O35  1  0.80159369  0.02013723  0.62358786  1
  O  O36  1  0.69845443  0.97977621  0.12360395  1
  O  O37  1  0.19846246  0.97982175  0.37641349  1
  O  O38  1  0.85797061  0.87224327  0.79722313  1
  O  O39  1  0.85787613  0.62789013  0.29722581  1
