# generated using pymatgen
data_Fe6Ge5
_symmetry_space_group_name_H-M   'P 1'
_cell_length_a   6.30166720
_cell_length_b   6.30166752
_cell_length_c   7.79789307
_cell_angle_alpha   74.68624417
_cell_angle_beta   74.68624333
_cell_angle_gamma   76.65132449
_symmetry_Int_Tables_number   1
_chemical_formula_structural   Fe6Ge5
_chemical_formula_sum   'Fe12 Ge10'
_cell_volume   283.70897430
_cell_formula_units_Z   2
loop_
 _symmetry_equiv_pos_site_id
 _symmetry_equiv_pos_as_xyz
  1  'x, y, z'
loop_
 _atom_site_type_symbol
 _atom_site_label
 _atom_site_symmetry_multiplicity
 _atom_site_fract_x
 _atom_site_fract_y
 _atom_site_fract_z
 _atom_site_occupancy
  Fe  Fe0  1  0.87634448  0.87634448  0.01729014  1
  Fe  Fe1  1  0.02375341  0.54438419  0.82445210  1
  Fe  Fe2  1  0.57870852  0.57870852  0.72117015  1
  Fe  Fe3  1  0.74765674  0.25234326  0.50000000  1
  Fe  Fe4  1  0.42129148  0.42129148  0.27882985  1
  Fe  Fe5  1  0.97624659  0.45561581  0.17554790  1
  Fe  Fe6  1  0.12365552  0.12365552  0.98270986  1
  Fe  Fe7  1  0.54438419  0.02375341  0.82445210  1
  Fe  Fe8  1  0.25234326  0.74765674  0.50000000  1
  Fe  Fe9  1  0.45561581  0.97624659  0.17554790  1
  Fe  Fe10  1  0.50000000  0.00000000  0.50000000  1
  Fe  Fe11  1  0.00000000  0.50000000  0.50000000  1
  Ge  Ge12  1  0.65643879  0.65643879  0.37258407  1
  Ge  Ge13  1  0.63584513  0.63584513  0.00599124  1
  Ge  Ge14  1  0.75729065  0.15288967  0.21270813  1
  Ge  Ge15  1  0.85057398  0.85057398  0.60074292  1
  Ge  Ge16  1  0.15288967  0.75729065  0.21270813  1
  Ge  Ge17  1  0.36415487  0.36415487  0.99400876  1
  Ge  Ge18  1  0.84711033  0.24270935  0.78729187  1
  Ge  Ge19  1  0.14942602  0.14942602  0.39925708  1
  Ge  Ge20  1  0.34356121  0.34356121  0.62741593  1
  Ge  Ge21  1  0.24270935  0.84711033  0.78729187  1
