# generated using pymatgen
data_Rb5Si2NiO8
_symmetry_space_group_name_H-M   'P 1'
_cell_length_a   6.79742912
_cell_length_b   6.79742868
_cell_length_c   13.93194243
_cell_angle_alpha   84.60022385
_cell_angle_beta   95.39977557
_cell_angle_gamma   80.43707770
_symmetry_Int_Tables_number   1
_chemical_formula_structural   Rb5Si2NiO8
_chemical_formula_sum   'Rb10 Si4 Ni2 O16'
_cell_volume   628.00306384
_cell_formula_units_Z   2
loop_
 _symmetry_equiv_pos_site_id
 _symmetry_equiv_pos_as_xyz
  1  'x, y, z'
loop_
 _atom_site_type_symbol
 _atom_site_label
 _atom_site_symmetry_multiplicity
 _atom_site_fract_x
 _atom_site_fract_y
 _atom_site_fract_z
 _atom_site_occupancy
  Ni  Ni0  1  0.50000000  0.50000000  0.50000000  1
  Ni  Ni1  1  0.50000000  0.50000000  0.00000000  1
  O  O2  1  0.27792422  0.84610581  0.78070518  1
  O  O3  1  0.34218629  0.76218378  0.97955063  1
  O  O4  1  0.15389419  0.72207578  0.28070518  1
  O  O5  1  0.23781622  0.65781371  0.47955063  1
  O  O6  1  0.35928680  0.47536576  0.88433837  1
  O  O7  1  0.70813047  0.98585341  0.61865633  1
  O  O8  1  0.52463424  0.64071320  0.38433837  1
  O  O9  1  0.98585341  0.70813047  0.88134367  1
  O  O10  1  0.01414659  0.29186953  0.11865633  1
  O  O11  1  0.47536576  0.35928680  0.61566163  1
  O  O12  1  0.29186953  0.01414659  0.38134367  1
  O  O13  1  0.64071320  0.52463424  0.11566163  1
  O  O14  1  0.76218378  0.34218629  0.52044937  1
  O  O15  1  0.84610581  0.27792422  0.71929482  1
  O  O16  1  0.65781371  0.23781622  0.02044937  1
  O  O17  1  0.72207578  0.15389419  0.21929482  1
  Rb  Rb18  1  0.08506903  0.56821684  0.65306503  1
  Rb  Rb19  1  0.03834869  0.25323549  0.91390632  1
  Rb  Rb20  1  0.43178316  0.91493097  0.15306503  1
  Rb  Rb21  1  0.74676451  0.96165131  0.41390632  1
  Rb  Rb22  1  0.65203586  0.65203586  0.75000000  1
  Rb  Rb23  1  0.34796414  0.34796414  0.25000000  1
  Rb  Rb24  1  0.25323549  0.03834869  0.58609368  1
  Rb  Rb25  1  0.56821684  0.08506903  0.84693497  1
  Rb  Rb26  1  0.96165131  0.74676451  0.08609368  1
  Rb  Rb27  1  0.91493097  0.43178316  0.34693497  1
  Si  Si28  1  0.22007825  0.71615578  0.87362377  1
  Si  Si29  1  0.28384422  0.77992175  0.37362377  1
  Si  Si30  1  0.71615578  0.22007825  0.62637623  1
  Si  Si31  1  0.77992175  0.28384422  0.12637623  1
