# generated using pymatgen
data_TeHO3
_symmetry_space_group_name_H-M   'P 1'
_cell_length_a   12.08093179
_cell_length_b   8.30172445
_cell_length_c   4.92575740
_cell_angle_alpha   90.00000000
_cell_angle_beta   92.21790834
_cell_angle_gamma   90.00000000
_symmetry_Int_Tables_number   1
_chemical_formula_structural   TeHO3
_chemical_formula_sum   'Te8 H8 O24'
_cell_volume   493.64677004
_cell_formula_units_Z   8
loop_
 _symmetry_equiv_pos_site_id
 _symmetry_equiv_pos_as_xyz
  1  'x, y, z'
loop_
 _atom_site_type_symbol
 _atom_site_label
 _atom_site_symmetry_multiplicity
 _atom_site_fract_x
 _atom_site_fract_y
 _atom_site_fract_z
 _atom_site_occupancy
  Te  Te0  1  0.61412423  0.44846183  0.98729512  1
  Te  Te1  1  0.39415828  0.53074571  0.48563320  1
  Te  Te2  1  0.89415828  0.96925429  0.48563320  1
  Te  Te3  1  0.11412423  0.05153817  0.98729512  1
  Te  Te4  1  0.91792503  0.34744063  0.87642242  1
  Te  Te5  1  0.07099502  0.66344584  0.31581335  1
  Te  Te6  1  0.57099502  0.83655416  0.31581335  1
  Te  Te7  1  0.41792503  0.15255937  0.87642242  1
  H  H8  1  0.24361835  0.39248182  0.21368088  1
  H  H9  1  0.74361835  0.10751818  0.21368088  1
  H  H10  1  0.85758253  0.52062109  0.51070569  1
  H  H11  1  0.35758253  0.97937891  0.51070569  1
  H  H12  1  0.70118619  0.35909139  0.43928224  1
  H  H13  1  0.29774262  0.63130261  0.88024162  1
  H  H14  1  0.79774262  0.86869739  0.88024162  1
  H  H15  1  0.20118619  0.14090861  0.43928224  1
  O  O16  1  0.73444574  0.45238916  0.75652944  1
  O  O17  1  0.26731189  0.50829745  0.22104397  1
  O  O18  1  0.76731189  0.99170255  0.22104397  1
  O  O19  1  0.23444574  0.04761084  0.75652944  1
  O  O20  1  0.92764891  0.45941326  0.52463738  1
  O  O21  1  0.03319617  0.55169592  0.99758207  1
  O  O22  1  0.53319617  0.94830408  0.99758207  1
  O  O23  1  0.42764891  0.04058674  0.52463738  1
  O  O24  1  0.34626353  0.34191910  0.67391228  1
  O  O25  1  0.65403469  0.65213032  0.17072267  1
  O  O26  1  0.15403469  0.84786968  0.17072267  1
  O  O27  1  0.84626353  0.15808090  0.67391228  1
  O  O28  1  0.48496788  0.40466312  0.22982419  1
  O  O29  1  0.52177947  0.58299473  0.73033993  1
  O  O30  1  0.02177947  0.91700527  0.73033993  1
  O  O31  1  0.98496788  0.09533688  0.22982419  1
  O  O32  1  0.56216801  0.25227766  0.80255195  1
  O  O33  1  0.42785093  0.72458463  0.28164558  1
  O  O34  1  0.92785093  0.77541537  0.28164558  1
  O  O35  1  0.06216801  0.24772234  0.80255195  1
  O  O36  1  0.70488584  0.32078489  0.24559669  1
  O  O37  1  0.29863468  0.66841556  0.69071133  1
  O  O38  1  0.79863468  0.83158444  0.69071133  1
  O  O39  1  0.20488584  0.17921511  0.24559669  1
