# generated using pymatgen
data_H9BrO4
_symmetry_space_group_name_H-M   'P 1'
_cell_length_a   7.19766749
_cell_length_b   11.57502391
_cell_length_c   7.66115733
_cell_angle_alpha   90.29426470
_cell_angle_beta   110.81243127
_cell_angle_gamma   89.91641969
_symmetry_Int_Tables_number   1
_chemical_formula_structural   H9BrO4
_chemical_formula_sum   'H36 Br4 O16'
_cell_volume   596.61906026
_cell_formula_units_Z   4
loop_
 _symmetry_equiv_pos_site_id
 _symmetry_equiv_pos_as_xyz
  1  'x, y, z'
loop_
 _atom_site_type_symbol
 _atom_site_label
 _atom_site_symmetry_multiplicity
 _atom_site_fract_x
 _atom_site_fract_y
 _atom_site_fract_z
 _atom_site_occupancy
  H  H0  1  0.26442945  0.32737199  0.95270111  1
  H  H1  1  0.31019381  0.19656816  0.99631011  1
  H  H2  1  0.71426589  0.83122893  0.03427225  1
  H  H3  1  0.67823005  0.69870410  0.99621297  1
  H  H4  1  0.93055559  0.17115281  0.13192340  1
  H  H5  1  0.04592537  0.25891385  0.04542168  1
  H  H6  1  0.06806007  0.67129811  0.86793966  1
  H  H7  1  0.95552272  0.75995412  0.95701291  1
  H  H8  1  0.54915611  0.17193455  0.78202504  1
  H  H9  1  0.78234752  0.24913217  0.93620199  1
  H  H10  1  0.64125074  0.25519856  0.66627408  1
  H  H11  1  0.45136285  0.67131108  0.21749081  1
  H  H12  1  0.36092568  0.75674157  0.33312169  1
  H  H13  1  0.22004967  0.74890643  0.06504531  1
  H  H14  1  0.82300094  0.23830191  0.50013302  1
  H  H15  1  0.65085816  0.31662272  0.36790372  1
  H  H16  1  0.18511339  0.73788594  0.50227797  1
  H  H17  1  0.35447300  0.82017037  0.62829492  1
  H  H18  1  0.13577754  0.28486968  0.54087033  1
  H  H19  1  0.13336116  0.15593968  0.60444538  1
  H  H20  1  0.86760263  0.78444169  0.46582846  1
  H  H21  1  0.86080394  0.65851110  0.38219645  1
  H  H22  1  0.35369424  0.34977642  0.38608150  1
  H  H23  1  0.36236007  0.44812730  0.54536970  1
  H  H24  1  0.64666450  0.85060637  0.60911246  1
  H  H25  1  0.63414189  0.95255882  0.45097938  1
  H  H26  1  0.62325056  0.52328943  0.71139207  1
  H  H27  1  0.44082585  0.61239462  0.64509461  1
  H  H28  1  0.37632590  0.02496865  0.29133685  1
  H  H29  1  0.56279159  0.11272788  0.35437678  1
  H  H30  1  0.02978620  0.50257852  0.06996040  1
  H  H31  1  0.89886678  0.50499551  0.20557517  1
  H  H32  1  0.14400485  0.45533334  0.30844637  1
  H  H33  1  0.96814619  0.00242895  0.93075392  1
  H  H34  1  0.09926856  0.00490472  0.79722380  1
  H  H35  1  0.84895135  0.95342927  0.68543801  1
  Br  Br36  1  0.97484886  0.49680154  0.78632725  1
  Br  Br37  1  0.02876615  0.99984478  0.22322417  1
  Br  Br38  1  0.60891092  0.50895248  0.20726971  1
  Br  Br39  1  0.39392679  0.00763858  0.79504207  1
  O  O40  1  0.26700895  0.26696961  0.04293728  1
  O  O41  1  0.72757195  0.76803937  0.95382214  1
  O  O42  1  0.91614173  0.24985225  0.07076911  1
  O  O43  1  0.08372723  0.74991134  0.93051943  1
  O  O44  1  0.61863988  0.24720327  0.78735630  1
  O  O45  1  0.38299159  0.74721825  0.21142614  1
  O  O46  1  0.67298318  0.24870386  0.45016990  1
  O  O47  1  0.33402555  0.75116684  0.54703822  1
  O  O48  1  0.06437270  0.23029237  0.59307288  1
  O  O49  1  0.94515642  0.72719720  0.42541462  1
  O  O50  1  0.26950014  0.39059759  0.44177923  1
  O  O51  1  0.72982085  0.89382929  0.55566101  1
  O  O52  1  0.47873322  0.53128918  0.68337964  1
  O  O53  1  0.52105782  0.03142719  0.31780233  1
  O  O54  1  0.03896592  0.51517643  0.20539027  1
  O  O55  1  0.95943235  0.01443225  0.79674903  1
