# generated using pymatgen
data_LiCaUF8
_symmetry_space_group_name_H-M   'P 1'
_cell_length_a   6.65871305
_cell_length_b   6.65871305
_cell_length_c   6.65871305
_cell_angle_alpha   133.05571849
_cell_angle_beta   133.05571849
_cell_angle_gamma   68.56665886
_symmetry_Int_Tables_number   1
_chemical_formula_structural   LiCaUF8
_chemical_formula_sum   'Li1 Ca1 U1 F8'
_cell_volume   154.80186582
_cell_formula_units_Z   1
loop_
 _symmetry_equiv_pos_site_id
 _symmetry_equiv_pos_as_xyz
  1  'x, y, z'
loop_
 _atom_site_type_symbol
 _atom_site_label
 _atom_site_symmetry_multiplicity
 _atom_site_fract_x
 _atom_site_fract_y
 _atom_site_fract_z
 _atom_site_occupancy
  Li  Li0  1  0.00000000  0.00000000  0.00000000  1
  Ca  Ca1  1  0.25000000  0.75000000  0.50000000  1
  U  U2  1  0.50000000  0.50000000  0.00000000  1
  F  F3  1  0.20357813  0.74820556  0.10559717  1
  F  F4  1  0.64260839  0.09798096  0.89440283  1
  F  F5  1  0.90201904  0.79642187  0.54462743  1
  F  F6  1  0.25179444  0.35739161  0.45537257  1
  F  F7  1  0.14076085  0.18336840  0.62763118  1
  F  F8  1  0.55573722  0.51312967  0.37236882  1
  F  F9  1  0.48687033  0.85923915  0.04260754  1
  F  F10  1  0.81663160  0.44426278  0.95739246  1
