# generated using pymatgen
data_Ba(H8O5)2
_symmetry_space_group_name_H-M   'P 1'
_cell_length_a   6.41299205
_cell_length_b   6.38954322
_cell_length_c   11.99275437
_cell_angle_alpha   89.32794077
_cell_angle_beta   90.00000000
_cell_angle_gamma   90.00000000
_symmetry_Int_Tables_number   1
_chemical_formula_structural   Ba(H8O5)2
_chemical_formula_sum   'Ba2 H32 O20'
_cell_volume   491.38237603
_cell_formula_units_Z   2
loop_
 _symmetry_equiv_pos_site_id
 _symmetry_equiv_pos_as_xyz
  1  'x, y, z'
loop_
 _atom_site_type_symbol
 _atom_site_label
 _atom_site_symmetry_multiplicity
 _atom_site_fract_x
 _atom_site_fract_y
 _atom_site_fract_z
 _atom_site_occupancy
  Ba  Ba0  1  0.00455159  0.99684609  0.49544641  1
  Ba  Ba1  1  0.99544841  0.99684609  0.99544641  1
  H  H2  1  0.28725379  0.40005189  0.39170979  1
  H  H3  1  0.04894671  0.44474010  0.36751978  1
  H  H4  1  0.83890132  0.68019128  0.29034128  1
  H  H5  1  0.72501374  0.59370919  0.39932564  1
  H  H6  1  0.60359751  0.28530107  0.39362232  1
  H  H7  1  0.55563628  0.04669025  0.36686416  1
  H  H8  1  0.32927603  0.83441510  0.28607067  1
  H  H9  1  0.41316672  0.72216395  0.39619536  1
  H  H10  1  0.71274621  0.40005189  0.89170979  1
  H  H11  1  0.95105329  0.44474010  0.86751978  1
  H  H12  1  0.16109868  0.68019128  0.79034128  1
  H  H13  1  0.27498626  0.59370919  0.89932564  1
  H  H14  1  0.44436372  0.04669025  0.86686416  1
  H  H15  1  0.39640249  0.28530107  0.89362232  1
  H  H16  1  0.67072397  0.83441510  0.78607067  1
  H  H17  1  0.58683328  0.72216395  0.89619536  1
  H  H18  1  0.71891181  0.59750879  0.60223712  1
  H  H19  1  0.95336131  0.54363021  0.63308281  1
  H  H20  1  0.19375810  0.28038230  0.70512743  1
  H  H21  1  0.28159455  0.39373795  0.59612141  1
  H  H22  1  0.40199114  0.71685153  0.60047219  1
  H  H23  1  0.45130606  0.95320815  0.63347122  1
  H  H24  1  0.71680031  0.19866344  0.70407873  1
  H  H25  1  0.60276149  0.27743105  0.59556572  1
  H  H26  1  0.28108819  0.59750879  0.10223712  1
  H  H27  1  0.04663869  0.54363021  0.13308281  1
  H  H28  1  0.80624190  0.28038230  0.20512743  1
  H  H29  1  0.71840545  0.39373795  0.09612141  1
  H  H30  1  0.54869394  0.95320815  0.13347122  1
  H  H31  1  0.59800886  0.71685153  0.10047219  1
  H  H32  1  0.28319969  0.19866344  0.20407873  1
  H  H33  1  0.39723851  0.27743105  0.09556572  1
  O  O34  1  0.50570447  0.50849713  0.43402743  1
  O  O35  1  0.49429553  0.50849713  0.93402743  1
  O  O36  1  0.49543367  0.49502404  0.55780415  1
  O  O37  1  0.50456633  0.49502404  0.05780415  1
  O  O38  1  0.15348327  0.32949875  0.36848810  1
  O  O39  1  0.86494900  0.65011440  0.36977455  1
  O  O40  1  0.67105391  0.15052662  0.36932332  1
  O  O41  1  0.35079067  0.86035778  0.36567794  1
  O  O42  1  0.84651673  0.32949875  0.86848810  1
  O  O43  1  0.13505100  0.65011440  0.86977455  1
  O  O44  1  0.32894609  0.15052662  0.86932332  1
  O  O45  1  0.64920933  0.86035778  0.86567794  1
  O  O46  1  0.85467801  0.66251040  0.62654087  1
  O  O47  1  0.14880666  0.33283304  0.63169209  1
  O  O48  1  0.33623052  0.85119072  0.62742036  1
  O  O49  1  0.66897923  0.14758878  0.63152114  1
  O  O50  1  0.14532199  0.66251040  0.12654087  1
  O  O51  1  0.85119334  0.33283304  0.13169209  1
  O  O52  1  0.66376948  0.85119072  0.12742036  1
  O  O53  1  0.33102077  0.14758878  0.13152114  1
