# generated using pymatgen
data_Mg30CdSiO32
_symmetry_space_group_name_H-M   'P 1'
_cell_length_a   8.59751741
_cell_length_b   8.59466621
_cell_length_c   8.59466621
_cell_angle_alpha   90.00000000
_cell_angle_beta   90.00000000
_cell_angle_gamma   90.00000000
_symmetry_Int_Tables_number   1
_chemical_formula_structural   Mg30CdSiO32
_chemical_formula_sum   'Mg30 Cd1 Si1 O32'
_cell_volume   635.08388578
_cell_formula_units_Z   1
loop_
 _symmetry_equiv_pos_site_id
 _symmetry_equiv_pos_as_xyz
  1  'x, y, z'
loop_
 _atom_site_type_symbol
 _atom_site_label
 _atom_site_symmetry_multiplicity
 _atom_site_fract_x
 _atom_site_fract_y
 _atom_site_fract_z
 _atom_site_occupancy
  Mg  Mg0  1  -0.00000000  0.00000000  0.50000000  1
  Mg  Mg1  1  -0.00000000  0.50000000  0.00000000  1
  Mg  Mg2  1  0.50000000  0.00000000  0.00000000  1
  Mg  Mg3  1  0.50000000  0.00000000  0.50000000  1
  Mg  Mg4  1  0.50000000  0.50000000  0.00000000  1
  Mg  Mg5  1  0.50000000  0.50000000  0.50000000  1
  Mg  Mg6  1  -0.00000000  0.24915893  0.24915893  1
  Mg  Mg7  1  -0.00000000  0.24915893  0.75084107  1
  Mg  Mg8  1  -0.00000000  0.75084107  0.24915893  1
  Mg  Mg9  1  -0.00000000  0.75084107  0.75084107  1
  Mg  Mg10  1  0.50000000  0.24998943  0.24998943  1
  Mg  Mg11  1  0.50000000  0.24998943  0.75001057  1
  Mg  Mg12  1  0.50000000  0.75001057  0.24998943  1
  Mg  Mg13  1  0.50000000  0.75001057  0.75001057  1
  Mg  Mg14  1  0.25122443  0.00000000  0.25122295  1
  Mg  Mg15  1  0.25122443  0.00000000  0.74877705  1
  Mg  Mg16  1  0.25206661  0.50000000  0.24792215  1
  Mg  Mg17  1  0.25206661  0.50000000  0.75207785  1
  Mg  Mg18  1  0.74877557  0.00000000  0.25122295  1
  Mg  Mg19  1  0.74877557  0.00000000  0.74877705  1
  Mg  Mg20  1  0.74793339  0.50000000  0.24792215  1
  Mg  Mg21  1  0.74793339  0.50000000  0.75207785  1
  Mg  Mg22  1  0.25122443  0.25122295  0.00000000  1
  Mg  Mg23  1  0.25206661  0.24792215  0.50000000  1
  Mg  Mg24  1  0.25122443  0.74877705  0.00000000  1
  Mg  Mg25  1  0.25206661  0.75207785  0.50000000  1
  Mg  Mg26  1  0.74877557  0.25122295  0.00000000  1
  Mg  Mg27  1  0.74793339  0.24792215  0.50000000  1
  Mg  Mg28  1  0.74877557  0.74877705  0.00000000  1
  Mg  Mg29  1  0.74793339  0.75207785  0.50000000  1
  Cd  Cd30  1  -0.00000000  0.50000000  0.50000000  1
  Si  Si31  1  -0.00000000  0.00000000  0.00000000  1
  O  O32  1  0.25974875  0.00000000  0.00000000  1
  O  O33  1  0.25301864  0.00000000  0.50000000  1
  O  O34  1  0.25301864  0.50000000  0.00000000  1
  O  O35  1  0.26424660  0.50000000  0.50000000  1
  O  O36  1  0.74025125  0.00000000  0.00000000  1
  O  O37  1  0.74698136  0.00000000  0.50000000  1
  O  O38  1  0.74698136  0.50000000  0.00000000  1
  O  O39  1  0.73575340  0.50000000  0.50000000  1
  O  O40  1  0.24919818  0.24998042  0.24998042  1
  O  O41  1  0.24919818  0.24998042  0.75001958  1
  O  O42  1  0.24919818  0.75001958  0.24998042  1
  O  O43  1  0.24919818  0.75001958  0.75001958  1
  O  O44  1  0.75080182  0.24998042  0.24998042  1
  O  O45  1  0.75080182  0.24998042  0.75001958  1
  O  O46  1  0.75080182  0.75001958  0.24998042  1
  O  O47  1  0.75080182  0.75001958  0.75001958  1
  O  O48  1  -0.00000000  0.00000000  0.25764074  1
  O  O49  1  -0.00000000  0.00000000  0.74235926  1
  O  O50  1  -0.00000000  0.50000000  0.23707366  1
  O  O51  1  -0.00000000  0.50000000  0.76292634  1
  O  O52  1  0.50000000  0.00000000  0.25090721  1
  O  O53  1  0.50000000  0.00000000  0.74909279  1
  O  O54  1  0.50000000  0.50000000  0.24826697  1
  O  O55  1  0.50000000  0.50000000  0.75173303  1
  O  O56  1  -0.00000000  0.25764074  0.00000000  1
  O  O57  1  -0.00000000  0.23707366  0.50000000  1
  O  O58  1  -0.00000000  0.74235926  0.00000000  1
  O  O59  1  -0.00000000  0.76292634  0.50000000  1
  O  O60  1  0.50000000  0.25090721  0.00000000  1
  O  O61  1  0.50000000  0.24826697  0.50000000  1
  O  O62  1  0.50000000  0.74909279  0.00000000  1
  O  O63  1  0.50000000  0.75173303  0.50000000  1
