# generated using pymatgen
data_AlHO2
_symmetry_space_group_name_H-M   'P 1'
_cell_length_a   3.71805008
_cell_length_b   12.39287509
_cell_length_c   2.88850529
_cell_angle_alpha   90.00000000
_cell_angle_beta   90.00000000
_cell_angle_gamma   90.00000000
_symmetry_Int_Tables_number   1
_chemical_formula_structural   AlHO2
_chemical_formula_sum   'Al4 H4 O8'
_cell_volume   133.09461209
_cell_formula_units_Z   4
loop_
 _symmetry_equiv_pos_site_id
 _symmetry_equiv_pos_as_xyz
  1  'x, y, z'
loop_
 _atom_site_type_symbol
 _atom_site_label
 _atom_site_symmetry_multiplicity
 _atom_site_fract_x
 _atom_site_fract_y
 _atom_site_fract_z
 _atom_site_occupancy
  Al  Al0  1  0.75113267  0.56812201  0.27051827  1
  Al  Al1  1  0.74886733  0.06812201  0.27051827  1
  Al  Al2  1  0.24886733  0.43187799  0.77051827  1
  Al  Al3  1  0.25113267  0.93187799  0.77051827  1
  H  H4  1  0.57592313  0.22524342  0.77051011  1
  H  H5  1  0.92407687  0.72524342  0.77051011  1
  H  H6  1  0.42407687  0.77475658  0.27051011  1
  H  H7  1  0.07592313  0.27475758  0.27051011  1
  O  O8  1  0.75122002  0.96073350  0.77053245  1
  O  O9  1  0.74877998  0.46073350  0.77053245  1
  O  O10  1  0.24877998  0.03926650  0.27053245  1
  O  O11  1  0.25122002  0.53926650  0.27053245  1
  O  O12  1  0.75892126  0.16854868  0.77050016  1
  O  O13  1  0.74107874  0.66854868  0.77050016  1
  O  O14  1  0.24107874  0.83145132  0.27050016  1
  O  O15  1  0.25892126  0.33145132  0.27050016  1
