# generated using pymatgen
data_SiAg5ClO4
_symmetry_space_group_name_H-M   'P 1'
_cell_length_a   12.96365023
_cell_length_b   13.11123353
_cell_length_c   19.47314702
_cell_angle_alpha   90.00000000
_cell_angle_beta   90.00000000
_cell_angle_gamma   118.87477982
_symmetry_Int_Tables_number   1
_chemical_formula_structural   SiAg5ClO4
_chemical_formula_sum   'Si16 Ag80 Cl16 O64'
_cell_volume   2898.35133037
_cell_formula_units_Z   16
loop_
 _symmetry_equiv_pos_site_id
 _symmetry_equiv_pos_as_xyz
  1  'x, y, z'
loop_
 _atom_site_type_symbol
 _atom_site_label
 _atom_site_symmetry_multiplicity
 _atom_site_fract_x
 _atom_site_fract_y
 _atom_site_fract_z
 _atom_site_occupancy
  Si  Si0  1  0.67760689  0.57664006  0.60734380  1
  Si  Si1  1  0.31554497  0.93341889  0.10031682  1
  Si  Si2  1  0.81554497  0.93341889  0.39968318  1
  Si  Si3  1  0.17760689  0.57664006  0.89265620  1
  Si  Si4  1  0.56520758  0.67855801  0.10292175  1
  Si  Si5  1  0.06520758  0.67855801  0.39707825  1
  Si  Si6  1  0.68445503  0.06658111  0.89968318  1
  Si  Si7  1  0.93479242  0.32144199  0.60292175  1
  Si  Si8  1  0.56654937  0.17245906  0.39491998  1
  Si  Si9  1  0.82239311  0.42335994  0.10734380  1
  Si  Si10  1  0.32239311  0.42335994  0.39265620  1
  Si  Si11  1  0.18445503  0.06658111  0.60031682  1
  Si  Si12  1  0.43345063  0.82754094  0.60508002  1
  Si  Si13  1  0.06654937  0.17245906  0.10508002  1
  Si  Si14  1  0.93345063  0.82754094  0.89491998  1
  Si  Si15  1  0.43479242  0.32144199  0.89707825  1
  Ag  Ag16  1  0.58348594  0.92486902  0.75168030  1
  Ag  Ag17  1  0.49614071  0.33261535  0.29405792  1
  Ag  Ag18  1  0.54964792  0.70240761  0.39318100  1
  Ag  Ag19  1  0.05649200  0.94540486  0.46173833  1
  Ag  Ag20  1  0.95035208  0.29759239  0.89318100  1
  Ag  Ag21  1  0.55564756  0.94203737  0.46255409  1
  Ag  Ag22  1  0.43676155  0.56300339  0.53911663  1
  Ag  Ag23  1  0.07092373  0.43243622  0.74831205  1
  Ag  Ag24  1  0.33467710  0.20451250  0.05639200  1
  Ag  Ag25  1  0.05217180  0.42591668  0.45360063  1
  Ag  Ag26  1  0.44782820  0.57408332  0.95360063  1
  Ag  Ag27  1  0.18639499  0.80645550  0.95621054  1
  Ag  Ag28  1  0.31360501  0.19354450  0.45621054  1
  Ag  Ag29  1  0.08348594  0.92486902  0.74831970  1
  Ag  Ag30  1  0.20563701  0.25604812  0.25471974  1
  Ag  Ag31  1  0.81796966  0.45876710  0.70077685  1
  Ag  Ag32  1  0.94435244  0.05796263  0.96255409  1
  Ag  Ag33  1  0.18203034  0.54123290  0.29922315  1
  Ag  Ag34  1  0.70563701  0.25604812  0.24528026  1
  Ag  Ag35  1  0.68639499  0.80645550  0.54378946  1
  Ag  Ag36  1  0.46093919  0.83091085  0.19584926  1
  Ag  Ag37  1  0.29606367  0.94115634  0.39968251  1
  Ag  Ag38  1  0.79606367  0.94115634  0.10031749  1
  Ag  Ag39  1  0.44534597  0.80672053  0.90100305  1
  Ag  Ag40  1  0.70056176  0.30716738  0.53523869  1
  Ag  Ag41  1  0.42907627  0.56756378  0.24831205  1
  Ag  Ag42  1  0.35554157  0.00311060  0.69974404  1
  Ag  Ag43  1  0.05564756  0.94203737  0.03744591  1
  Ag  Ag44  1  0.73041130  0.80249816  0.24688542  1
  Ag  Ag45  1  0.03906081  0.16908915  0.69584926  1
  Ag  Ag46  1  0.99614071  0.33261535  0.20594208  1
  Ag  Ag47  1  0.45035208  0.29759239  0.60681900  1
  Ag  Ag48  1  0.76958870  0.19750184  0.74688542  1
  Ag  Ag49  1  0.55465403  0.19327947  0.09899695  1
  Ag  Ag50  1  0.57092373  0.43243622  0.75168795  1
  Ag  Ag51  1  0.20393633  0.05884366  0.89968251  1
  Ag  Ag52  1  0.00385929  0.66738465  0.79405792  1
  Ag  Ag53  1  0.50385929  0.66738465  0.70594208  1
  Ag  Ag54  1  0.79189380  0.44002002  0.39493338  1
  Ag  Ag55  1  0.79943824  0.69283262  0.03523869  1
  Ag  Ag56  1  0.31796966  0.45876710  0.79922315  1
  Ag  Ag57  1  0.94782820  0.57408332  0.54639937  1
  Ag  Ag58  1  0.66532290  0.79548750  0.94360800  1
  Ag  Ag59  1  0.23041130  0.80249816  0.25311458  1
  Ag  Ag60  1  0.77499590  0.66496110  0.44676447  1
  Ag  Ag61  1  0.04964792  0.70240761  0.10681900  1
  Ag  Ag62  1  0.29189380  0.44002002  0.10506662  1
  Ag  Ag63  1  0.91651406  0.07513098  0.25168030  1
  Ag  Ag64  1  0.41651406  0.07513098  0.24831970  1
  Ag  Ag65  1  0.68203034  0.54123290  0.20077685  1
  Ag  Ag66  1  0.29436299  0.74395188  0.75471974  1
  Ag  Ag67  1  0.06323845  0.43699661  0.03911663  1
  Ag  Ag68  1  0.16532290  0.79548750  0.55639200  1
  Ag  Ag69  1  0.56323845  0.43699661  0.46088337  1
  Ag  Ag70  1  0.14445843  0.99688940  0.19974404  1
  Ag  Ag71  1  0.55649200  0.94540486  0.03826167  1
  Ag  Ag72  1  0.05465403  0.19327947  0.40100305  1
  Ag  Ag73  1  0.53906081  0.16908915  0.80415074  1
  Ag  Ag74  1  0.83467710  0.20451250  0.44360800  1
  Ag  Ag75  1  0.96093919  0.83091085  0.30415074  1
  Ag  Ag76  1  0.79436299  0.74395188  0.74528026  1
  Ag  Ag77  1  0.55217180  0.42591668  0.04639937  1
  Ag  Ag78  1  0.22500410  0.33503890  0.55323553  1
  Ag  Ag79  1  0.27499590  0.66496110  0.05323553  1
  Ag  Ag80  1  0.20056176  0.30716738  0.96476131  1
  Ag  Ag81  1  0.85554157  0.00311060  0.80025596  1
  Ag  Ag82  1  0.20810620  0.55997998  0.60506662  1
  Ag  Ag83  1  0.94350800  0.05459514  0.53826167  1
  Ag  Ag84  1  0.70810620  0.55997998  0.89493338  1
  Ag  Ag85  1  0.94534597  0.80672053  0.59899695  1
  Ag  Ag86  1  0.29943824  0.69283262  0.46476131  1
  Ag  Ag87  1  0.81360501  0.19354450  0.04378946  1
  Ag  Ag88  1  0.70393633  0.05884366  0.60031749  1
  Ag  Ag89  1  0.44350800  0.05459514  0.96173833  1
  Ag  Ag90  1  0.26958870  0.19750184  0.75311458  1
  Ag  Ag91  1  0.92907627  0.56756378  0.25168795  1
  Ag  Ag92  1  0.44435244  0.05796263  0.53744591  1
  Ag  Ag93  1  0.64445843  0.99688940  0.30025596  1
  Ag  Ag94  1  0.72500410  0.33503890  0.94676447  1
  Ag  Ag95  1  0.93676155  0.56300339  0.96088337  1
  Cl  Cl96  1  0.90355731  0.80729621  0.17847028  1
  Cl  Cl97  1  0.67093175  0.07458990  0.18080848  1
  Cl  Cl98  1  0.82906825  0.92541010  0.68080848  1
  Cl  Cl99  1  0.32757521  0.42175993  0.67041484  1
  Cl  Cl100  1  0.93328297  0.33700977  0.32815803  1
  Cl  Cl101  1  0.56671703  0.66299023  0.82815803  1
  Cl  Cl102  1  0.59644269  0.19270379  0.67847028  1
  Cl  Cl103  1  0.32906825  0.92541010  0.81919152  1
  Cl  Cl104  1  0.17242479  0.57824007  0.17041484  1
  Cl  Cl105  1  0.43328297  0.33700977  0.17184197  1
  Cl  Cl106  1  0.17093175  0.07458990  0.31919152  1
  Cl  Cl107  1  0.06671703  0.66299023  0.67184197  1
  Cl  Cl108  1  0.09644269  0.19270379  0.82152972  1
  Cl  Cl109  1  0.40355731  0.80729621  0.32152972  1
  Cl  Cl110  1  0.82757521  0.42175993  0.82958516  1
  Cl  Cl111  1  0.67242479  0.57824007  0.32958516  1
  O  O112  1  0.93461783  0.60133352  0.43247726  1
  O  O113  1  0.59964000  0.64687497  0.60676585  1
  O  O114  1  0.35734691  0.39216263  0.90008377  1
  O  O115  1  0.70061705  0.34946244  0.06256397  1
  O  O116  1  0.09964000  0.64687497  0.89323415  1
  O  O117  1  0.69409593  0.85971145  0.35309428  1
  O  O118  1  0.30590407  0.14028855  0.64690572  1
  O  O119  1  0.13966674  0.09883953  0.09993471  1
  O  O120  1  0.89324393  0.55334719  0.07115235  1
  O  O121  1  0.19409593  0.85971145  0.14690572  1
  O  O122  1  0.29938295  0.65053756  0.93743603  1
  O  O123  1  0.85734691  0.39216263  0.59991623  1
  O  O124  1  0.43461783  0.60133352  0.06752274  1
  O  O125  1  0.79938295  0.65053756  0.56256397  1
  O  O126  1  0.14100541  0.29313602  0.15104622  1
  O  O127  1  0.63578420  0.80224767  0.05966321  1
  O  O128  1  0.71954651  0.04228484  0.97727729  1
  O  O129  1  0.06538217  0.39866648  0.56752274  1
  O  O130  1  0.86421580  0.19775233  0.55966321  1
  O  O131  1  0.60932211  0.93986375  0.86050546  1
  O  O132  1  0.20061705  0.34946244  0.43743603  1
  O  O133  1  0.54287468  0.21020092  0.47274520  1
  O  O134  1  0.89067789  0.06013625  0.36050546  1
  O  O135  1  0.78045349  0.95771516  0.47727729  1
  O  O136  1  0.06212741  0.90329954  0.85676288  1
  O  O137  1  0.05110243  0.70816561  0.31556657  1
  O  O138  1  0.39069413  0.86122474  0.09519852  1
  O  O139  1  0.10930587  0.13877526  0.59519852  1
  O  O140  1  0.56212741  0.90329954  0.64323712  1
  O  O141  1  0.36421580  0.19775233  0.94033679  1
  O  O142  1  0.35899459  0.70686398  0.65104622  1
  O  O143  1  0.70847912  0.56188933  0.68855385  1
  O  O144  1  0.60675607  0.44665281  0.57115235  1
  O  O145  1  0.55110243  0.70816561  0.18443343  1
  O  O146  1  0.14265309  0.60783737  0.40008377  1
  O  O147  1  0.29152088  0.43811067  0.31144615  1
  O  O148  1  0.04287468  0.21020092  0.02725480  1
  O  O149  1  0.44889757  0.29183439  0.81556657  1
  O  O150  1  0.21954651  0.04228484  0.52272271  1
  O  O151  1  0.10675607  0.44665281  0.92884765  1
  O  O152  1  0.39324393  0.55334719  0.42884765  1
  O  O153  1  0.79152088  0.43811067  0.18855385  1
  O  O154  1  0.63966674  0.09883953  0.40006529  1
  O  O155  1  0.86033326  0.90116047  0.90006529  1
  O  O156  1  0.45712532  0.78979908  0.52725480  1
  O  O157  1  0.64265309  0.60783737  0.09991623  1
  O  O158  1  0.94889757  0.29183439  0.68443343  1
  O  O159  1  0.60930587  0.13877526  0.90480148  1
  O  O160  1  0.43787259  0.09670046  0.35676288  1
  O  O161  1  0.93787259  0.09670046  0.14323712  1
  O  O162  1  0.36033326  0.90116047  0.59993471  1
  O  O163  1  0.28045349  0.95771516  0.02272271  1
  O  O164  1  0.90036000  0.35312503  0.10676585  1
  O  O165  1  0.20847912  0.56188933  0.81144615  1
  O  O166  1  0.85899459  0.70686398  0.84895378  1
  O  O167  1  0.80590407  0.14028855  0.85309428  1
  O  O168  1  0.64100541  0.29313602  0.34895378  1
  O  O169  1  0.39067789  0.06013625  0.13949454  1
  O  O170  1  0.56538217  0.39866648  0.93247726  1
  O  O171  1  0.89069413  0.86122474  0.40480148  1
  O  O172  1  0.10932211  0.93986375  0.63949454  1
  O  O173  1  0.95712532  0.78979908  0.97274520  1
  O  O174  1  0.13578420  0.80224767  0.44033679  1
  O  O175  1  0.40036000  0.35312503  0.39323415  1
