# generated using pymatgen
data_Rb6Pb5Cl16
_symmetry_space_group_name_H-M   'P 1'
_cell_length_a   11.40578616
_cell_length_b   11.96584482
_cell_length_c   11.96584482
_cell_angle_alpha   90.83902665
_cell_angle_beta   90.08606016
_cell_angle_gamma   90.08606016
_symmetry_Int_Tables_number   1
_chemical_formula_structural   Rb6Pb5Cl16
_chemical_formula_sum   'Rb12 Pb10 Cl32'
_cell_volume   1632.91807630
_cell_formula_units_Z   2
loop_
 _symmetry_equiv_pos_site_id
 _symmetry_equiv_pos_as_xyz
  1  'x, y, z'
loop_
 _atom_site_type_symbol
 _atom_site_label
 _atom_site_symmetry_multiplicity
 _atom_site_fract_x
 _atom_site_fract_y
 _atom_site_fract_z
 _atom_site_occupancy
  Rb  Rb0  1  0.00000000  0.00000000  0.00000000  1
  Rb  Rb1  1  0.00000000  0.12156957  0.37843043  1
  Rb  Rb2  1  0.00032740  0.37360700  0.87360700  1
  Rb  Rb3  1  0.26531956  0.82252265  0.32252265  1
  Rb  Rb4  1  0.50189728  0.63583587  0.13583587  1
  Rb  Rb5  1  0.50000000  0.86318864  0.63681136  1
  Rb  Rb6  1  0.50000000  0.13681136  0.36318864  1
  Rb  Rb7  1  0.49810272  0.36416413  0.86416413  1
  Rb  Rb8  1  0.73468044  0.17747735  0.67747735  1
  Rb  Rb9  1  0.00000000  0.50000000  0.50000000  1
  Rb  Rb10  1  -0.00032740  0.62639300  0.12639300  1
  Rb  Rb11  1  0.00000000  0.87843043  0.62156957  1
  Pb  Pb12  1  0.26243354  0.17596471  0.67596471  1
  Pb  Pb13  1  0.25645656  0.67909510  0.82856396  1
  Pb  Pb14  1  0.25645656  0.32856396  0.17909510  1
  Pb  Pb15  1  0.34242934  0.00206373  0.99734257  1
  Pb  Pb16  1  0.34242934  0.49734257  0.50206373  1
  Pb  Pb17  1  0.65757066  0.50265743  0.49793627  1
  Pb  Pb18  1  0.65757066  0.99793627  0.00265743  1
  Pb  Pb19  1  0.74354344  0.32090490  0.17143604  1
  Pb  Pb20  1  0.74354344  0.67143604  0.82090490  1
  Pb  Pb21  1  0.73756646  0.82403529  0.32403529  1
  Cl  Cl22  1  0.00000000  0.34121268  0.15878732  1
  Cl  Cl23  1  0.97997279  0.84128359  0.34128359  1
  Cl  Cl24  1  0.21448154  0.08092486  0.19757303  1
  Cl  Cl25  1  0.21440837  0.20034974  0.93275937  1
  Cl  Cl26  1  0.21082526  0.79797532  0.05180125  1
  Cl  Cl27  1  0.21582265  0.92735711  0.79802969  1
  Cl  Cl28  1  0.21582265  0.29802969  0.42735711  1
  Cl  Cl29  1  0.21082526  0.55180125  0.29797532  1
  Cl  Cl30  1  0.21440837  0.43275937  0.70034974  1
  Cl  Cl31  1  0.21448154  0.69757303  0.58092486  1
  Cl  Cl32  1  0.29019093  0.01266622  0.51266622  1
  Cl  Cl33  1  0.28301000  0.49954495  0.99954495  1
  Cl  Cl34  1  0.50238074  0.20397070  0.09196817  1
  Cl  Cl35  1  0.49055676  0.08920405  0.80510011  1
  Cl  Cl36  1  0.50944324  0.91079595  0.19489989  1
  Cl  Cl37  1  0.49761926  0.79602930  0.90803183  1
  Cl  Cl38  1  0.49055676  0.30510011  0.58920405  1
  Cl  Cl39  1  0.50238074  0.59196817  0.70397070  1
  Cl  Cl40  1  0.49761926  0.40803183  0.29602930  1
  Cl  Cl41  1  0.50944324  0.69489989  0.41079595  1
  Cl  Cl42  1  0.71699000  0.50045505  0.00045505  1
  Cl  Cl43  1  0.70980907  0.98733378  0.48733378  1
  Cl  Cl44  1  0.78551846  0.30242697  0.41907514  1
  Cl  Cl45  1  0.78559163  0.56724063  0.29965026  1
  Cl  Cl46  1  0.78417735  0.07264289  0.20197031  1
  Cl  Cl47  1  0.78917474  0.20202468  0.94819875  1
  Cl  Cl48  1  0.78917474  0.44819875  0.70202468  1
  Cl  Cl49  1  0.78417735  0.70197031  0.57264289  1
  Cl  Cl50  1  0.78559163  0.79965026  0.06724063  1
  Cl  Cl51  1  0.78551846  0.91907514  0.80242697  1
  Cl  Cl52  1  0.02002721  0.15871641  0.65871641  1
  Cl  Cl53  1  0.00000000  0.65878732  0.84121268  1
