# generated using pymatgen
data_Ba2Fe2O5
_symmetry_space_group_name_H-M   'P 1'
_cell_length_a   7.18771163
_cell_length_b   11.66751452
_cell_length_c   23.63633442
_cell_angle_alpha   90.00000000
_cell_angle_beta   96.81603419
_cell_angle_gamma   90.00000000
_symmetry_Int_Tables_number   1
_chemical_formula_structural   Ba2Fe2O5
_chemical_formula_sum   'Ba28 Fe28 O70'
_cell_volume   1968.19794649
_cell_formula_units_Z   14
loop_
 _symmetry_equiv_pos_site_id
 _symmetry_equiv_pos_as_xyz
  1  'x, y, z'
loop_
 _atom_site_type_symbol
 _atom_site_label
 _atom_site_symmetry_multiplicity
 _atom_site_fract_x
 _atom_site_fract_y
 _atom_site_fract_z
 _atom_site_occupancy
  Ba  Ba0  1  0.67792278  0.11671537  0.03422591  1
  Ba  Ba1  1  0.68457345  0.63541983  0.03731032  1
  Ba  Ba2  1  0.17792278  0.38328463  0.53422591  1
  Ba  Ba3  1  0.23660135  0.13164132  0.75574302  1
  Ba  Ba4  1  0.32207722  0.88328463  0.96577409  1
  Ba  Ba5  1  0.61180936  0.36587487  0.81746014  1
  Ba  Ba6  1  0.97231369  0.64020919  0.89387350  1
  Ba  Ba7  1  0.38819064  0.63412513  0.18253986  1
  Ba  Ba8  1  0.47231369  0.85979081  0.39387350  1
  Ba  Ba9  1  0.96262875  0.11458562  0.89645757  1
  Ba  Ba10  1  0.46262875  0.38541438  0.39645757  1
  Ba  Ba11  1  0.26339865  0.63164132  0.74425698  1
  Ba  Ba12  1  0.81542655  0.13541983  0.46268968  1
  Ba  Ba13  1  0.18457345  0.86458017  0.53731032  1
  Ba  Ba14  1  0.53737125  0.61458562  0.60354243  1
  Ba  Ba15  1  0.76339865  0.86835868  0.24425698  1
  Ba  Ba16  1  0.03737125  0.88541438  0.10354243  1
  Ba  Ba17  1  0.88819064  0.86587487  0.68253986  1
  Ba  Ba18  1  0.73660135  0.36835868  0.25574302  1
  Ba  Ba19  1  0.31542655  0.36458017  0.96268968  1
  Ba  Ba20  1  0.11180936  0.13412513  0.31746014  1
  Ba  Ba21  1  0.02768631  0.35979081  0.10612650  1
  Ba  Ba22  1  0.10369681  0.62398355  0.32898752  1
  Ba  Ba23  1  0.60369681  0.87601645  0.82898752  1
  Ba  Ba24  1  0.39630319  0.12398355  0.17101248  1
  Ba  Ba25  1  0.52768631  0.14020919  0.60612650  1
  Ba  Ba26  1  0.82207722  0.61671537  0.46577409  1
  Ba  Ba27  1  0.89630319  0.37601645  0.67101248  1
  Fe  Fe28  1  0.31389122  0.62134989  0.46470918  1
  Fe  Fe29  1  0.46070284  0.63051168  0.90028020  1
  Fe  Fe30  1  0.72706313  0.86298782  0.53628606  1
  Fe  Fe31  1  0.70027843  0.09793763  0.75358086  1
  Fe  Fe32  1  0.03693258  0.61542355  0.60349654  1
  Fe  Fe33  1  0.79972157  0.59793763  0.74641914  1
  Fe  Fe34  1  0.27293687  0.13701218  0.46371394  1
  Fe  Fe35  1  0.66261286  0.10154820  0.31482880  1
  Fe  Fe36  1  0.03929716  0.13051168  0.59971980  1
  Fe  Fe37  1  0.46306742  0.11542355  0.89650346  1
  Fe  Fe38  1  0.16261286  0.39845180  0.81482880  1
  Fe  Fe39  1  0.53693258  0.88457645  0.10349654  1
  Fe  Fe40  1  0.96306742  0.38457645  0.39650346  1
  Fe  Fe41  1  0.77293687  0.36298782  0.96371394  1
  Fe  Fe42  1  0.12335218  0.87883836  0.82830356  1
  Fe  Fe43  1  0.62335218  0.62116164  0.32830356  1
  Fe  Fe44  1  0.33738714  0.89845180  0.68517120  1
  Fe  Fe45  1  0.18610878  0.12134989  0.03529082  1
  Fe  Fe46  1  0.81389122  0.87865011  0.96470918  1
  Fe  Fe47  1  0.20027843  0.40206237  0.25358086  1
  Fe  Fe48  1  0.53929716  0.36948832  0.09971980  1
  Fe  Fe49  1  0.83738714  0.60154820  0.18517120  1
  Fe  Fe50  1  0.87664782  0.12116164  0.17169644  1
  Fe  Fe51  1  0.96070284  0.86948832  0.40028020  1
  Fe  Fe52  1  0.68610878  0.37865011  0.53529082  1
  Fe  Fe53  1  0.29972157  0.90206237  0.24641914  1
  Fe  Fe54  1  0.37664782  0.37883836  0.67169644  1
  Fe  Fe55  1  0.22706313  0.63701218  0.03628606  1
  O  O56  1  0.65419373  0.23562817  0.71372663  1
  O  O57  1  0.91809276  0.62369719  0.67998807  1
  O  O58  1  0.73153713  0.63222487  0.25361433  1
  O  O59  1  0.29121203  0.50156477  0.07855061  1
  O  O60  1  0.34899026  0.25709596  0.07465112  1
  O  O61  1  0.84580627  0.73562817  0.78627337  1
  O  O62  1  0.57044609  0.52417943  0.72196704  1
  O  O63  1  0.87937753  0.75052934  0.57773192  1
  O  O64  1  0.31839014  0.12832781  0.96538024  1
  O  O65  1  0.84899026  0.24290404  0.57465112  1
  O  O66  1  0.86100534  0.49626532  0.57086177  1
  O  O67  1  0.12062247  0.24947066  0.42226808  1
  O  O68  1  0.70878797  0.49843523  0.92144939  1
  O  O69  1  0.76846287  0.13222487  0.24638567  1
  O  O70  1  0.66896580  0.39037889  0.03422235  1
  O  O71  1  0.69488441  0.23717943  0.35444001  1
  O  O72  1  0.15100974  0.75709596  0.42534888  1
  O  O73  1  0.13899466  0.50373468  0.42913823  1
  O  O74  1  0.92955391  0.02417943  0.77803296  1
  O  O75  1  0.70513692  0.25367805  0.14455097  1
  O  O76  1  0.34580627  0.76437183  0.28627337  1
  O  O77  1  0.79486308  0.75367805  0.35544903  1
  O  O78  1  0.03119016  0.12810166  0.10709946  1
  O  O79  1  0.83580130  0.99423700  0.35326561  1
  O  O80  1  0.07213360  0.52393589  0.20509192  1
  O  O81  1  0.42955391  0.47582057  0.27803296  1
  O  O82  1  0.18160986  0.62832781  0.53461976  1
  O  O83  1  0.16896580  0.10962111  0.53422235  1
  O  O84  1  0.96880984  0.87189834  0.89290054  1
  O  O85  1  0.20878797  0.00156477  0.42144939  1
  O  O86  1  0.33103420  0.60962111  0.96577765  1
  O  O87  1  0.36100534  0.00373468  0.07086177  1
  O  O88  1  0.08190724  0.37630281  0.32001193  1
  O  O89  1  0.58190724  0.12369719  0.82001193  1
  O  O90  1  0.00000000  0.00000000  0.00000000  1
  O  O91  1  0.30511559  0.76282057  0.64555999  1
  O  O92  1  0.20513692  0.24632195  0.64455097  1
  O  O93  1  0.00389155  0.71542079  0.01069330  1
  O  O94  1  0.15419373  0.26437183  0.21372663  1
  O  O95  1  0.23153713  0.86777513  0.75361433  1
  O  O96  1  0.81839014  0.37167219  0.46538024  1
  O  O97  1  0.79121203  0.99843523  0.57855061  1
  O  O98  1  0.72177796  0.99625691  0.14111440  1
  O  O99  1  0.29486308  0.74632195  0.85544903  1
  O  O100  1  0.53119016  0.37189834  0.60709946  1
  O  O101  1  0.99610845  0.28457921  0.98930670  1
  O  O102  1  0.63899466  0.99626532  0.92913823  1
  O  O103  1  0.33580130  0.50576300  0.85326561  1
  O  O104  1  0.49610845  0.21542079  0.48930670  1
  O  O105  1  0.77822204  0.49625691  0.35888560  1
  O  O106  1  0.46880984  0.62810166  0.39290054  1
  O  O107  1  0.50000000  0.50000000  0.50000000  1
  O  O108  1  0.16419870  0.00576300  0.64673439  1
  O  O109  1  0.22177796  0.50374309  0.64111440  1
  O  O110  1  0.07044609  0.97582057  0.22196704  1
  O  O111  1  0.62062247  0.25052934  0.92226808  1
  O  O112  1  0.80511559  0.73717943  0.14555999  1
  O  O113  1  0.57213360  0.97606411  0.70509192  1
  O  O114  1  0.41809276  0.87630281  0.17998807  1
  O  O115  1  0.66419870  0.49423700  0.14673439  1
  O  O116  1  0.42786640  0.02393589  0.29490808  1
  O  O117  1  0.27822204  0.00374309  0.85888560  1
  O  O118  1  0.37937753  0.74947066  0.07773192  1
  O  O119  1  0.19488441  0.26282057  0.85444001  1
  O  O120  1  0.92786640  0.47606411  0.79490808  1
  O  O121  1  0.50389155  0.78457921  0.51069330  1
  O  O122  1  0.65100974  0.74290404  0.92534888  1
  O  O123  1  0.83103420  0.89037889  0.46577765  1
  O  O124  1  0.68160986  0.87167219  0.03461976  1
  O  O125  1  0.26846287  0.36777513  0.74638567  1
