# generated using pymatgen
data_NaMg30BO31
_symmetry_space_group_name_H-M   'P 1'
_cell_length_a   8.55277163
_cell_length_b   8.50088388
_cell_length_c   8.50088388
_cell_angle_alpha   90.00000000
_cell_angle_beta   90.00000000
_cell_angle_gamma   90.00000000
_symmetry_Int_Tables_number   1
_chemical_formula_structural   NaMg30BO31
_chemical_formula_sum   'Na1 Mg30 B1 O31'
_cell_volume   618.06627055
_cell_formula_units_Z   1
loop_
 _symmetry_equiv_pos_site_id
 _symmetry_equiv_pos_as_xyz
  1  'x, y, z'
loop_
 _atom_site_type_symbol
 _atom_site_label
 _atom_site_symmetry_multiplicity
 _atom_site_fract_x
 _atom_site_fract_y
 _atom_site_fract_z
 _atom_site_occupancy
  Na  Na0  1  0.00493247  -0.00000000  -0.00000000  1
  Mg  Mg1  1  0.00091291  -0.00000000  0.50000000  1
  Mg  Mg2  1  0.00091291  0.50000000  -0.00000000  1
  Mg  Mg3  1  0.49631305  -0.00000000  -0.00000000  1
  Mg  Mg4  1  0.49977090  -0.00000000  0.50000000  1
  Mg  Mg5  1  0.49977090  0.50000000  -0.00000000  1
  Mg  Mg6  1  0.50007952  0.50000000  0.50000000  1
  Mg  Mg7  1  -0.00013148  0.25147969  0.25147969  1
  Mg  Mg8  1  -0.00013148  0.25147969  0.74852031  1
  Mg  Mg9  1  -0.00013148  0.74852031  0.25147969  1
  Mg  Mg10  1  -0.00013148  0.74852031  0.74852031  1
  Mg  Mg11  1  0.50051775  0.24939251  0.24939251  1
  Mg  Mg12  1  0.50051775  0.24939251  0.75060749  1
  Mg  Mg13  1  0.50051775  0.75060749  0.24939251  1
  Mg  Mg14  1  0.50051775  0.75060749  0.75060749  1
  Mg  Mg15  1  0.24915693  -0.00000000  0.25293564  1
  Mg  Mg16  1  0.24915693  -0.00000000  0.74706436  1
  Mg  Mg17  1  0.24864945  0.50000000  0.25969777  1
  Mg  Mg18  1  0.24864945  0.50000000  0.74030223  1
  Mg  Mg19  1  0.75159747  -0.00000000  0.24659412  1
  Mg  Mg20  1  0.75159747  -0.00000000  0.75340588  1
  Mg  Mg21  1  0.75042002  0.50000000  0.24455812  1
  Mg  Mg22  1  0.75042002  0.50000000  0.75544188  1
  Mg  Mg23  1  0.24915693  0.25293564  -0.00000000  1
  Mg  Mg24  1  0.24864945  0.25969777  0.50000000  1
  Mg  Mg25  1  0.24915693  0.74706436  -0.00000000  1
  Mg  Mg26  1  0.24864945  0.74030223  0.50000000  1
  Mg  Mg27  1  0.75159747  0.24659412  -0.00000000  1
  Mg  Mg28  1  0.75042002  0.24455812  0.50000000  1
  Mg  Mg29  1  0.75159747  0.75340588  -0.00000000  1
  Mg  Mg30  1  0.75042002  0.75544188  0.50000000  1
  B  B31  1  0.95121414  0.50000000  0.50000000  1
  O  O32  1  0.24787779  -0.00000000  0.50000000  1
  O  O33  1  0.24787779  0.50000000  -0.00000000  1
  O  O34  1  0.26931439  0.50000000  0.50000000  1
  O  O35  1  0.73741098  -0.00000000  -0.00000000  1
  O  O36  1  0.75345969  -0.00000000  0.50000000  1
  O  O37  1  0.75345969  0.50000000  -0.00000000  1
  O  O38  1  0.77959190  0.50000000  0.50000000  1
  O  O39  1  0.24899288  0.25265549  0.25265549  1
  O  O40  1  0.24899288  0.25265549  0.74734451  1
  O  O41  1  0.24899288  0.74734451  0.25265549  1
  O  O42  1  0.24899288  0.74734451  0.74734451  1
  O  O43  1  0.75102672  0.25042989  0.25042989  1
  O  O44  1  0.75102672  0.25042989  0.74957011  1
  O  O45  1  0.75102672  0.74957011  0.25042989  1
  O  O46  1  0.75102672  0.74957011  0.74957011  1
  O  O47  1  0.00005775  -0.00000000  0.26738381  1
  O  O48  1  0.00005775  -0.00000000  0.73261619  1
  O  O49  1  -0.00529660  0.50000000  0.28717837  1
  O  O50  1  -0.00529660  0.50000000  0.71282163  1
  O  O51  1  0.50036092  -0.00000000  0.25401362  1
  O  O52  1  0.50036092  -0.00000000  0.74598638  1
  O  O53  1  0.50642343  0.50000000  0.25193808  1
  O  O54  1  0.50642343  0.50000000  0.74806192  1
  O  O55  1  0.00005775  0.26738381  -0.00000000  1
  O  O56  1  -0.00529660  0.28717837  0.50000000  1
  O  O57  1  0.00005775  0.73261619  -0.00000000  1
  O  O58  1  -0.00529660  0.71282163  0.50000000  1
  O  O59  1  0.50036092  0.25401362  -0.00000000  1
  O  O60  1  0.50642343  0.25193808  0.50000000  1
  O  O61  1  0.50036092  0.74598638  -0.00000000  1
  O  O62  1  0.50642343  0.74806192  0.50000000  1
