# generated using pymatgen
data_Cu3B7IO13
_symmetry_space_group_name_H-M   'P 1'
_cell_length_a   8.58449616
_cell_length_b   8.58404192
_cell_length_c   8.58332891
_cell_angle_alpha   60.00578701
_cell_angle_beta   60.00065205
_cell_angle_gamma   59.99225334
_symmetry_Int_Tables_number   1
_chemical_formula_structural   Cu3B7IO13
_chemical_formula_sum   'Cu6 B14 I2 O26'
_cell_volume   447.24252786
_cell_formula_units_Z   2
loop_
 _symmetry_equiv_pos_site_id
 _symmetry_equiv_pos_as_xyz
  1  'x, y, z'
loop_
 _atom_site_type_symbol
 _atom_site_label
 _atom_site_symmetry_multiplicity
 _atom_site_fract_x
 _atom_site_fract_y
 _atom_site_fract_z
 _atom_site_occupancy
  Cu  Cu0  1  0.00000226  0.99999307  0.50000509  1
  Cu  Cu1  1  0.50000247  0.99999842  0.49999946  1
  Cu  Cu2  1  0.49999561  0.99999735  0.00000725  1
  Cu  Cu3  1  0.99999966  0.50000042  0.49999641  1
  Cu  Cu4  1  0.49999999  0.50000313  0.99999936  1
  Cu  Cu5  1  -0.00000048  0.50000410  0.99999613  1
  B  B6  1  0.58050664  0.58051261  0.25853512  1
  B  B7  1  0.08045667  0.75854857  0.08050030  1
  B  B8  1  0.58048962  0.25848811  0.58051864  1
  B  B9  1  0.74998512  0.75000903  0.24999826  1
  B  B10  1  0.24998294  0.75001971  0.25002234  1
  B  B11  1  0.75002230  0.24997351  0.25001632  1
  B  B12  1  0.08051399  0.08048633  0.75850321  1
  B  B13  1  0.58049355  0.58051141  0.58045836  1
  B  B14  1  0.08050274  0.08049010  0.08050733  1
  B  B15  1  0.25001832  0.24998722  0.74999119  1
  B  B16  1  0.75000001  0.24997636  0.74999474  1
  B  B17  1  0.25851555  0.58050112  0.58048125  1
  B  B18  1  0.24999075  0.75003416  0.74997550  1
  B  B19  1  0.75852131  0.08046302  0.08049627  1
  I  I20  1  0.75000075  0.75001136  0.75000540  1
  I  I21  1  0.24999972  0.24998832  0.24999425  1
  O  O22  1  0.75870359  0.43563262  0.60088893  1
  O  O23  1  0.10088232  0.70476210  0.93562710  1
  O  O24  1  0.60087268  0.75874724  0.43563712  1
  O  O25  1  0.25866581  0.70480144  0.10090516  1
  O  O26  1  0.49999983  0.50000660  0.49999483  1
  O  O27  1  0.20469001  0.75878655  0.60084593  1
  O  O28  1  0.25878876  0.10084000  0.93567129  1
  O  O29  1  0.99999972  0.99999276  0.00000547  1
  O  O30  1  0.93564532  0.25873011  0.10087539  1
  O  O31  1  0.75874543  0.60087223  0.20475156  1
  O  O32  1  0.70470241  0.93565262  0.10084085  1
  O  O33  1  0.75878592  0.20468718  0.43568903  1
  O  O34  1  0.10083698  0.93568251  0.25879167  1
  O  O35  1  0.43562547  0.60090578  0.75866469  1
  O  O36  1  0.70474800  0.10087437  0.25873209  1
  O  O37  1  0.10087787  0.25871383  0.70476246  1
  O  O38  1  0.70479673  0.25866447  0.93563952  1
  O  O39  1  0.43565045  0.75879021  0.20471134  1
  O  O40  1  0.60090849  0.43563385  0.20480178  1
  O  O41  1  0.93562265  0.70476688  0.25872080  1
  O  O42  1  0.43566414  0.20473458  0.60086130  1
  O  O43  1  0.93569008  0.10084148  0.70469023  1
  O  O44  1  0.20476376  0.60088798  0.43563368  1
  O  O45  1  0.60084251  0.20469823  0.75879004  1
  O  O46  1  0.25874135  0.93564629  0.70473740  1
  O  O47  1  0.20475023  0.43565065  0.75872816  1
