# generated using pymatgen
data_ReTe5O6F25
_symmetry_space_group_name_H-M   'P 1'
_cell_length_a   9.18399064
_cell_length_b   14.30592345
_cell_length_c   18.68257178
_cell_angle_alpha   90.00000000
_cell_angle_beta   90.00000000
_cell_angle_gamma   107.45534625
_symmetry_Int_Tables_number   1
_chemical_formula_structural   ReTe5O6F25
_chemical_formula_sum   'Re4 Te20 O24 F100'
_cell_volume   2341.58573743
_cell_formula_units_Z   4
loop_
 _symmetry_equiv_pos_site_id
 _symmetry_equiv_pos_as_xyz
  1  'x, y, z'
loop_
 _atom_site_type_symbol
 _atom_site_label
 _atom_site_symmetry_multiplicity
 _atom_site_fract_x
 _atom_site_fract_y
 _atom_site_fract_z
 _atom_site_occupancy
  Re  Re0  1  0.91305077  0.30924418  0.53740071  1
  Re  Re1  1  0.91305077  0.80924418  0.96259929  1
  Re  Re2  1  0.08694923  0.69075582  0.46259929  1
  Re  Re3  1  0.08694923  0.19075582  0.03740071  1
  Te  Te4  1  0.04848832  0.42155327  0.11503768  1
  Te  Te5  1  0.35028386  0.34505568  0.91044332  1
  Te  Te6  1  0.41762858  0.74284272  0.34034119  1
  Te  Te7  1  0.17814938  0.94965266  0.82597824  1
  Te  Te8  1  0.64971614  0.15494432  0.41044332  1
  Te  Te9  1  0.24417717  0.84790931  0.07548887  1
  Te  Te10  1  0.82185062  0.05034734  0.17402176  1
  Te  Te11  1  0.95151168  0.57844673  0.88496232  1
  Te  Te12  1  0.41762858  0.24284272  0.15965881  1
  Te  Te13  1  0.04848832  0.92155327  0.38496232  1
  Te  Te14  1  0.75582283  0.15209069  0.92451113  1
  Te  Te15  1  0.82185062  0.55034734  0.32597824  1
  Te  Te16  1  0.17814938  0.44965266  0.67402176  1
  Te  Te17  1  0.24417717  0.34790931  0.42451113  1
  Te  Te18  1  0.58237142  0.25715728  0.65965881  1
  Te  Te19  1  0.95151168  0.07844673  0.61503768  1
  Te  Te20  1  0.64971614  0.65494432  0.08955668  1
  Te  Te21  1  0.35028386  0.84505568  0.58955668  1
  Te  Te22  1  0.58237142  0.75715728  0.84034119  1
  Te  Te23  1  0.75582283  0.65209069  0.57548887  1
  O  O24  1  0.27995893  0.19835115  0.07984091  1
  O  O25  1  0.10046668  0.10654613  0.97415502  1
  O  O26  1  0.98886015  0.09563400  0.10776828  1
  O  O27  1  0.89953332  0.89345387  0.02584498  1
  O  O28  1  0.06944562  0.29389044  0.10729527  1
  O  O29  1  0.11093176  0.80426390  0.99414336  1
  O  O30  1  0.72004107  0.30164885  0.57984091  1
  O  O31  1  0.10046668  0.60654613  0.52584498  1
  O  O32  1  0.89953332  0.39345387  0.47415502  1
  O  O33  1  0.93055438  0.70610956  0.89270473  1
  O  O34  1  0.88906824  0.19573610  0.00585664  1
  O  O35  1  0.18207545  0.80139154  0.52352095  1
  O  O36  1  0.81792455  0.19860846  0.47647905  1
  O  O37  1  0.93055438  0.20610956  0.60729527  1
  O  O38  1  0.18207545  0.30139154  0.97647905  1
  O  O39  1  0.01113985  0.90436600  0.89223172  1
  O  O40  1  0.27995893  0.69835115  0.42015909  1
  O  O41  1  0.06944562  0.79389044  0.39270473  1
  O  O42  1  0.88906824  0.69573610  0.49414336  1
  O  O43  1  0.81792455  0.69860846  0.02352095  1
  O  O44  1  0.11093176  0.30426390  0.50585664  1
  O  O45  1  0.01113985  0.40436600  0.60776828  1
  O  O46  1  0.98886015  0.59563400  0.39223172  1
  O  O47  1  0.72004107  0.80164885  0.92015909  1
  F  F48  1  0.72946396  0.77622971  0.58161374  1
  F  F49  1  0.12955589  0.06669354  0.81785781  1
  F  F50  1  0.04766154  0.89721693  0.75010593  1
  F  F51  1  0.22999712  0.83326255  0.83362873  1
  F  F52  1  0.57611222  0.38562383  0.67160570  1
  F  F53  1  0.66003310  0.50306585  0.26203639  1
  F  F54  1  0.12955589  0.56669354  0.68214219  1
  F  F55  1  0.74538160  0.28203157  0.72414419  1
  F  F56  1  0.58653300  0.62803658  0.85094256  1
  F  F57  1  0.44606429  0.71767321  0.76420358  1
  F  F58  1  0.30904686  0.50138343  0.59748335  1
  F  F59  1  0.92180114  0.19063394  0.86153219  1
  F  F60  1  0.77825529  0.70079417  0.16772795  1
  F  F61  1  0.07819886  0.80936606  0.13846781  1
  F  F62  1  0.25461840  0.21796843  0.22414419  1
  F  F63  1  0.21840667  0.97308034  0.07003087  1
  F  F64  1  0.41080660  0.88792260  0.01332924  1
  F  F65  1  0.51440231  0.88981216  0.65264733  1
  F  F66  1  0.25461840  0.71796843  0.27585581  1
  F  F67  1  0.48559769  0.11018784  0.34735267  1
  F  F68  1  0.13255901  0.62427994  0.83210659  1
  F  F69  1  0.41080660  0.38792260  0.48667076  1
  F  F70  1  0.95233846  0.60278307  0.25010593  1
  F  F71  1  0.42388778  0.11437617  0.17160570  1
  F  F72  1  0.77000288  0.16673745  0.16637127  1
  F  F73  1  0.60789066  0.27548216  0.41579987  1
  F  F74  1  0.68787874  0.03423592  0.40393161  1
  F  F75  1  0.72946396  0.27622971  0.91838626  1
  F  F76  1  0.58919340  0.61207740  0.51332924  1
  F  F77  1  0.41986252  0.23259348  0.59546038  1
  F  F78  1  0.51440231  0.38981216  0.84735267  1
  F  F79  1  0.68787874  0.53423592  0.09606839  1
  F  F80  1  0.86744099  0.37572006  0.16789341  1
  F  F81  1  0.74538160  0.78203157  0.77585581  1
  F  F82  1  0.42388778  0.61437617  0.32839430  1
  F  F83  1  0.22978105  0.47654933  0.06366878  1
  F  F84  1  0.22999712  0.33326255  0.66637127  1
  F  F85  1  0.06745520  0.59657991  0.96948680  1
  F  F86  1  0.03035602  0.04823323  0.37856484  1
  F  F87  1  0.03035602  0.54823323  0.12143516  1
  F  F88  1  0.62401965  0.11039044  0.84687104  1
  F  F89  1  0.87044411  0.43330646  0.31785781  1
  F  F90  1  0.77825529  0.20079417  0.33227205  1
  F  F91  1  0.31212126  0.46576408  0.90393161  1
  F  F92  1  0.07819886  0.30936606  0.36153219  1
  F  F93  1  0.58653300  0.12803658  0.64905744  1
  F  F94  1  0.33996690  0.49693415  0.73796361  1
  F  F95  1  0.96964398  0.45176677  0.87856484  1
  F  F96  1  0.58013748  0.76740652  0.40453962  1
  F  F97  1  0.69095314  0.49861657  0.40251665  1
  F  F98  1  0.60789066  0.77548216  0.08420013  1
  F  F99  1  0.27053604  0.72377029  0.08161374  1
  F  F100  1  0.78159333  0.52691966  0.57003087  1
  F  F101  1  0.51868689  0.11003018  0.48807354  1
  F  F102  1  0.41346700  0.37196342  0.14905744  1
  F  F103  1  0.58013748  0.26740652  0.09546038  1
  F  F104  1  0.96964398  0.95176677  0.62143516  1
  F  F105  1  0.78159333  0.02691966  0.92996913  1
  F  F106  1  0.48559769  0.61018784  0.15264733  1
  F  F107  1  0.41346700  0.87196342  0.35094256  1
  F  F108  1  0.93254480  0.90342009  0.46948680  1
  F  F109  1  0.44606429  0.21767321  0.73579642  1
  F  F110  1  0.04766154  0.39721693  0.74989407  1
  F  F111  1  0.95233846  0.10278307  0.24989407  1
  F  F112  1  0.58919340  0.11207740  0.98667076  1
  F  F113  1  0.86744099  0.87572006  0.33210659  1
  F  F114  1  0.13255901  0.12427994  0.66789341  1
  F  F115  1  0.21840667  0.47308034  0.42996913  1
  F  F116  1  0.15749602  0.94391088  0.29847823  1
  F  F117  1  0.69095314  0.99861657  0.09748335  1
  F  F118  1  0.93254480  0.40342009  0.03051320  1
  F  F119  1  0.84250398  0.55608912  0.79847823  1
  F  F120  1  0.30904686  0.00138343  0.90251665  1
  F  F121  1  0.77000288  0.66673745  0.33362873  1
  F  F122  1  0.06745520  0.09657991  0.53051320  1
  F  F123  1  0.77021895  0.02345067  0.56366878  1
  F  F124  1  0.31212126  0.96576408  0.59606839  1
  F  F125  1  0.37598035  0.38960956  0.34687104  1
  F  F126  1  0.27053604  0.22377029  0.41838626  1
  F  F127  1  0.51868689  0.61003018  0.01192646  1
  F  F128  1  0.22174471  0.79920583  0.66772795  1
  F  F129  1  0.55393571  0.78232679  0.26420358  1
  F  F130  1  0.39210934  0.22451784  0.91579987  1
  F  F131  1  0.48131311  0.88996982  0.51192646  1
  F  F132  1  0.84250398  0.05608912  0.70152177  1
  F  F133  1  0.22174471  0.29920583  0.83227205  1
  F  F134  1  0.39210934  0.72451784  0.58420013  1
  F  F135  1  0.37598035  0.88960956  0.15312896  1
  F  F136  1  0.66003310  0.00306585  0.23796361  1
  F  F137  1  0.41986252  0.73259348  0.90453962  1
  F  F138  1  0.92180114  0.69063394  0.63846781  1
  F  F139  1  0.62401965  0.61039044  0.65312896  1
  F  F140  1  0.22978105  0.97654933  0.43633122  1
  F  F141  1  0.33996690  0.99693415  0.76203639  1
  F  F142  1  0.15749602  0.44391088  0.20152177  1
  F  F143  1  0.55393571  0.28232679  0.23579642  1
  F  F144  1  0.48131311  0.38996982  0.98807354  1
  F  F145  1  0.57611222  0.88562383  0.82839430  1
  F  F146  1  0.77021895  0.52345067  0.93633122  1
  F  F147  1  0.87044411  0.93330646  0.18214219  1
