# generated using pymatgen
data_Ce2Mo4O15
_symmetry_space_group_name_H-M   'P 1'
_cell_length_a   7.50708742
_cell_length_b   7.63853136
_cell_length_c   11.78130329
_cell_angle_alpha   90.18739740
_cell_angle_beta   84.02051102
_cell_angle_gamma   84.16813104
_symmetry_Int_Tables_number   1
_chemical_formula_structural   Ce2Mo4O15
_chemical_formula_sum   'Ce4 Mo8 O30'
_cell_volume   668.35800368
_cell_formula_units_Z   2
loop_
 _symmetry_equiv_pos_site_id
 _symmetry_equiv_pos_as_xyz
  1  'x, y, z'
loop_
 _atom_site_type_symbol
 _atom_site_label
 _atom_site_symmetry_multiplicity
 _atom_site_fract_x
 _atom_site_fract_y
 _atom_site_fract_z
 _atom_site_occupancy
  Ce  Ce0  1  0.74216845  0.41391018  0.22422497  1
  Ce  Ce1  1  0.81400544  0.89908523  0.76934137  1
  Ce  Ce2  1  0.25783155  0.58608982  0.77577503  1
  Ce  Ce3  1  0.18599456  0.10091477  0.23065863  1
  Mo  Mo4  1  0.77458011  0.42236508  0.87120168  1
  Mo  Mo5  1  0.06960372  0.75884853  0.47698272  1
  Mo  Mo6  1  0.22541989  0.57763492  0.12879832  1
  Mo  Mo7  1  0.59969240  0.66662783  0.52677461  1
  Mo  Mo8  1  0.72807906  0.91802123  0.12635182  1
  Mo  Mo9  1  0.27192094  0.08197877  0.87364818  1
  Mo  Mo10  1  0.40030760  0.33337217  0.47322539  1
  Mo  Mo11  1  0.93039628  0.24115147  0.52301728  1
  O  O12  1  0.16367170  0.79402229  0.18788245  1
  O  O13  1  0.55040828  0.50041858  0.84645825  1
  O  O14  1  0.79247110  0.88567148  0.97711293  1
  O  O15  1  0.21619597  0.59710141  0.97859482  1
  O  O16  1  0.83632830  0.20597771  0.81211755  1
  O  O17  1  0.77059267  0.70948993  0.19587924  1
  O  O18  1  0.46114349  0.83235995  0.47525963  1
  O  O19  1  0.91284993  0.25888112  0.37085453  1
  O  O20  1  0.41350010  0.51888336  0.60341112  1
  O  O21  1  0.22940733  0.29051007  0.80412076  1
  O  O22  1  0.20776901  0.57680692  0.41286898  1
  O  O23  1  0.78380403  0.40289859  0.02140518  1
  O  O24  1  0.65181984  0.76393434  0.67343712  1
  O  O25  1  0.07179251  0.41618736  0.18240446  1
  O  O26  1  0.15586529  0.27954224  0.55268994  1
  O  O27  1  0.84685686  0.09308551  0.18092798  1
  O  O28  1  0.44959172  0.49958142  0.15354175  1
  O  O29  1  0.87422276  0.04102951  0.59346355  1
  O  O30  1  0.79223099  0.42319308  0.58713102  1
  O  O31  1  0.50517147  0.01167479  0.85029077  1
  O  O32  1  0.92820749  0.58381264  0.81759554  1
  O  O33  1  0.49482853  0.98832521  0.14970923  1
  O  O34  1  0.84413471  0.72045776  0.44731006  1
  O  O35  1  0.58649990  0.48111664  0.39658888  1
  O  O36  1  0.08715007  0.74111888  0.62914547  1
  O  O37  1  0.15314314  0.90691449  0.81907202  1
  O  O38  1  0.12577724  0.95897049  0.40653645  1
  O  O39  1  0.53885651  0.16764005  0.52474037  1
  O  O40  1  0.34818016  0.23606566  0.32656288  1
  O  O41  1  0.20752890  0.11432852  0.02288707  1
