# generated using pymatgen
data_ReTe7O7F32
_symmetry_space_group_name_H-M   'P 1'
_cell_length_a   10.86324767
_cell_length_b   11.57070514
_cell_length_c   12.60944200
_cell_angle_alpha   81.72919558
_cell_angle_beta   80.99446836
_cell_angle_gamma   85.33815197
_symmetry_Int_Tables_number   1
_chemical_formula_structural   ReTe7O7F32
_chemical_formula_sum   'Re2 Te14 O14 F64'
_cell_volume   1546.32870656
_cell_formula_units_Z   2
loop_
 _symmetry_equiv_pos_site_id
 _symmetry_equiv_pos_as_xyz
  1  'x, y, z'
loop_
 _atom_site_type_symbol
 _atom_site_label
 _atom_site_symmetry_multiplicity
 _atom_site_fract_x
 _atom_site_fract_y
 _atom_site_fract_z
 _atom_site_occupancy
  Re  Re0  1  0.78856493  0.62250436  0.35971490  1
  Re  Re1  1  0.21143507  0.37749564  0.64028510  1
  Te  Te2  1  0.31492998  0.16386908  0.88067787  1
  Te  Te3  1  0.84343902  0.08695148  0.14461748  1
  Te  Te4  1  0.94886176  0.79415446  0.50704777  1
  Te  Te5  1  0.15656098  0.91304852  0.85538252  1
  Te  Te6  1  0.50100742  0.22227554  0.53711370  1
  Te  Te7  1  0.60729483  0.49356079  0.19024069  1
  Te  Te8  1  0.08533145  0.56140232  0.19459362  1
  Te  Te9  1  0.68507002  0.83613092  0.11932213  1
  Te  Te10  1  0.33978634  0.07346993  0.16536985  1
  Te  Te11  1  0.49899258  0.77772446  0.46288630  1
  Te  Te12  1  0.05113824  0.20584554  0.49295223  1
  Te  Te13  1  0.66021366  0.92653007  0.83463015  1
  Te  Te14  1  0.39270517  0.50643921  0.80975931  1
  Te  Te15  1  0.91466855  0.43859768  0.80540638  1
  O  O16  1  0.32640724  0.26441841  0.57135620  1
  O  O17  1  0.78854410  0.96748727  0.07349270  1
  O  O18  1  0.21145590  0.03251273  0.92650730  1
  O  O19  1  0.33841679  0.39325590  0.73276938  1
  O  O20  1  0.67359276  0.73558159  0.42864380  1
  O  O21  1  0.90925111  0.55973896  0.25100732  1
  O  O22  1  0.66158321  0.60674410  0.26723062  1
  O  O23  1  0.92253061  0.68775126  0.40877204  1
  O  O24  1  0.39304852  0.11708363  0.01479829  1
  O  O25  1  0.09074889  0.44026104  0.74899268  1
  O  O26  1  0.23660685  0.49635622  0.54747855  1
  O  O27  1  0.07746939  0.31224874  0.59122796  1
  O  O28  1  0.76339315  0.50364378  0.45252145  1
  O  O29  1  0.60695148  0.88291637  0.98520171  1
  F  F30  1  0.82861470  0.88158890  0.84041239  1
  F  F31  1  0.25512181  0.55654021  0.13701746  1
  F  F32  1  0.20241543  0.26404882  0.95819247  1
  F  F33  1  0.18532545  0.26027534  0.38957071  1
  F  F34  1  0.91475227  0.15094386  0.59223935  1
  F  F35  1  0.54536938  0.50801920  0.71679063  1
  F  F36  1  0.75625569  0.48938603  0.09249531  1
  F  F37  1  0.09244462  0.72148393  0.20380525  1
  F  F38  1  0.69886017  0.97267015  0.68559783  1
  F  F39  1  0.30113983  0.02732985  0.31440217  1
  F  F40  1  0.53908959  0.37993512  0.50008811  1
  F  F41  1  0.95615856  0.12439498  0.01877225  1
  F  F42  1  0.72866724  0.04710929  0.26976863  1
  F  F43  1  0.89650615  0.20746822  0.20666140  1
  F  F44  1  0.17138530  0.11841110  0.15958761  1
  F  F45  1  0.81467455  0.73972466  0.61042929  1
  F  F46  1  0.54293443  0.39370950  0.11169801  1
  F  F47  1  0.86716681  0.47681030  0.66652332  1
  F  F48  1  0.04419656  0.59985609  0.05434554  1
  F  F49  1  0.62989408  0.77857639  0.80491074  1
  F  F50  1  0.45520711  0.37662504  0.90025681  1
  F  F51  1  0.45706557  0.60629050  0.88830199  1
  F  F52  1  0.72387633  0.19346710  0.08723988  1
  F  F53  1  0.32739239  0.63408098  0.72155391  1
  F  F54  1  0.08524773  0.84905614  0.40776065  1
  F  F55  1  0.08539058  0.40196947  0.18159047  1
  F  F56  1  0.04384144  0.87560502  0.98122775  1
  F  F57  1  0.53393118  0.22721888  0.67982680  1
  F  F58  1  0.49139584  0.97639791  0.82147448  1
  F  F59  1  0.50860416  0.02360209  0.17852552  1
  F  F60  1  0.33047716  0.82281686  0.50066794  1
  F  F61  1  0.46645125  0.06510832  0.58090340  1
  F  F62  1  0.96419294  0.98295409  0.20236393  1
  F  F63  1  0.27612367  0.80653290  0.91276012  1
  F  F64  1  0.01770552  0.10625288  0.39802756  1
  F  F65  1  0.10349385  0.79253178  0.79333860  1
  F  F66  1  0.54479289  0.62337496  0.09974319  1
  F  F67  1  0.31323534  0.92036272  0.14422550  1
  F  F68  1  0.47677199  0.21052199  0.39533079  1
  F  F69  1  0.27133276  0.95289071  0.73023137  1
  F  F70  1  0.74487819  0.44345979  0.86298254  1
  F  F71  1  0.52322801  0.78947801  0.60466921  1
  F  F72  1  0.67260761  0.36591902  0.27844609  1
  F  F73  1  0.46606882  0.77278112  0.32017320  1
  F  F74  1  0.05503968  0.67807834  0.57156669  1
  F  F75  1  0.79758457  0.73595118  0.04180753  1
  F  F76  1  0.91460942  0.59803053  0.81840953  1
  F  F77  1  0.95580344  0.40014391  0.94565446  1
  F  F78  1  0.53354875  0.93489168  0.41909660  1
  F  F79  1  0.46091041  0.62006488  0.49991189  1
  F  F80  1  0.80587764  0.78551431  0.23473343  1
  F  F81  1  0.24374431  0.51061397  0.90750469  1
  F  F82  1  0.66952284  0.17718314  0.49933206  1
  F  F83  1  0.45463062  0.49198080  0.28320937  1
  F  F84  1  0.94496032  0.32192166  0.42843331  1
  F  F85  1  0.13283319  0.52318970  0.33347668  1
  F  F86  1  0.37010592  0.22142361  0.19508926  1
  F  F87  1  0.68676466  0.07963728  0.85577450  1
  F  F88  1  0.15705495  0.08640113  0.55334284  1
  F  F89  1  0.90755538  0.27851607  0.79619475  1
  F  F90  1  0.19412236  0.21448569  0.76526657  1
  F  F91  1  0.03580706  0.01704591  0.79763607  1
  F  F92  1  0.84294505  0.91359887  0.44665716  1
  F  F93  1  0.98229448  0.89374712  0.60197244  1
