# generated using pymatgen
data_Ti8Cu3S16
_symmetry_space_group_name_H-M   'P 1'
_cell_length_a   13.63376065
_cell_length_b   5.89882162
_cell_length_c   8.98950736
_cell_angle_alpha   89.98672961
_cell_angle_beta   40.68409021
_cell_angle_gamma   89.99999535
_symmetry_Int_Tables_number   1
_chemical_formula_structural   Ti8Cu3S16
_chemical_formula_sum   'Ti8 Cu3 S16'
_cell_volume   471.29158777
_cell_formula_units_Z   1
loop_
 _symmetry_equiv_pos_site_id
 _symmetry_equiv_pos_as_xyz
  1  'x, y, z'
loop_
 _atom_site_type_symbol
 _atom_site_label
 _atom_site_symmetry_multiplicity
 _atom_site_fract_x
 _atom_site_fract_y
 _atom_site_fract_z
 _atom_site_occupancy
  Ti  Ti0  1  0.00247534  0.00664410  0.99504933  1
  Ti  Ti1  1  0.12139075  0.49991916  0.00832979  1
  Ti  Ti2  1  0.25000000  0.00000000  -0.00000000  1
  Ti  Ti3  1  0.37860925  0.50008084  0.99167021  1
  Ti  Ti4  1  0.49752466  0.99335590  0.00495067  1
  Ti  Ti5  1  0.62972053  0.50008084  0.99167021  1
  Ti  Ti6  1  0.75000000  0.00000000  -0.00000000  1
  Ti  Ti7  1  0.87027947  0.49991916  0.00832979  1
  Cu  Cu8  1  0.12093025  0.50000000  0.50000000  1
  Cu  Cu9  1  0.37906975  0.50000000  0.50000000  1
  Cu  Cu10  1  0.75000000  0.00000000  0.50000000  1
  S  S11  1  0.00198604  0.83494211  0.24649837  1
  S  S12  1  0.12684677  0.33201518  0.24699391  1
  S  S13  1  0.25124124  0.83258982  0.24629418  1
  S  S14  1  0.12328547  0.66871250  0.75342806  1
  S  S15  1  0.37671453  0.33128750  0.24657194  1
  S  S16  1  0.24875876  0.16741018  0.75370582  1
  S  S17  1  0.50246457  0.83258982  0.24629418  1
  S  S18  1  0.37315323  0.66798482  0.75300609  1
  S  S19  1  0.62615932  0.33201518  0.24699391  1
  S  S20  1  0.75151559  0.83494211  0.24649837  1
  S  S21  1  0.49801396  0.16505789  0.75350163  1
  S  S22  1  0.62554853  0.66365756  0.74890295  1
  S  S23  1  0.87445147  0.33634244  0.25109705  1
  S  S24  1  0.74848441  0.16505789  0.75350163  1
  S  S25  1  0.87384068  0.66798482  0.75300609  1
  S  S26  1  0.99753543  0.16741018  0.75370582  1
