# generated using pymatgen
data_Ce(Mo3Se4)2
_symmetry_space_group_name_H-M   'P 1'
_cell_length_a   6.79894588
_cell_length_b   6.79894598
_cell_length_c   6.79894636
_cell_angle_alpha   88.91821622
_cell_angle_beta   88.91821623
_cell_angle_gamma   88.91822323
_symmetry_Int_Tables_number   1
_chemical_formula_structural   Ce(Mo3Se4)2
_chemical_formula_sum   'Ce1 Mo6 Se8'
_cell_volume   314.11985891
_cell_formula_units_Z   1
loop_
 _symmetry_equiv_pos_site_id
 _symmetry_equiv_pos_as_xyz
  1  'x, y, z'
loop_
 _atom_site_type_symbol
 _atom_site_label
 _atom_site_symmetry_multiplicity
 _atom_site_fract_x
 _atom_site_fract_y
 _atom_site_fract_z
 _atom_site_occupancy
  Ce  Ce0  1  0.00000000  0.00000000  0.00000000  1
  Mo  Mo1  1  0.23556058  0.42304908  0.56024632  1
  Mo  Mo2  1  0.42304908  0.56024632  0.23556058  1
  Mo  Mo3  1  0.56024632  0.23556058  0.42304908  1
  Mo  Mo4  1  0.43975368  0.76443942  0.57695092  1
  Mo  Mo5  1  0.57695092  0.43975368  0.76443942  1
  Mo  Mo6  1  0.76443942  0.57695092  0.43975368  1
  Se  Se7  1  0.24435926  0.62598665  0.87879529  1
  Se  Se8  1  0.62598665  0.87879529  0.24435926  1
  Se  Se9  1  0.76045351  0.76045351  0.76045351  1
  Se  Se10  1  0.87879529  0.24435926  0.62598665  1
  Se  Se11  1  0.12120471  0.75564074  0.37401335  1
  Se  Se12  1  0.23954649  0.23954649  0.23954649  1
  Se  Se13  1  0.37401335  0.12120471  0.75564074  1
  Se  Se14  1  0.75564074  0.37401335  0.12120471  1
