# generated using pymatgen
data_CoPO4
_symmetry_space_group_name_H-M   'P 1'
_cell_length_a   10.58669006
_cell_length_b   6.53013381
_cell_length_c   5.12593690
_cell_angle_alpha   90.00000000
_cell_angle_beta   90.00000000
_cell_angle_gamma   90.00000000
_symmetry_Int_Tables_number   1
_chemical_formula_structural   CoPO4
_chemical_formula_sum   'Co4 P4 O16'
_cell_volume   354.36884656
_cell_formula_units_Z   4
loop_
 _symmetry_equiv_pos_site_id
 _symmetry_equiv_pos_as_xyz
  1  'x, y, z'
loop_
 _atom_site_type_symbol
 _atom_site_label
 _atom_site_symmetry_multiplicity
 _atom_site_fract_x
 _atom_site_fract_y
 _atom_site_fract_z
 _atom_site_occupancy
  Co  Co0  1  0.83386595  0.53211534  0.99502923  1
  Co  Co1  1  0.66613405  0.03211534  0.49502923  1
  Co  Co2  1  0.33386595  0.96788466  0.99502923  1
  Co  Co3  1  0.16613405  0.46788466  0.49502923  1
  P  P4  1  0.40468498  0.22027548  0.49474219  1
  P  P5  1  0.09531502  0.72027548  0.99474219  1
  P  P6  1  0.59531502  0.77972452  0.99474219  1
  P  P7  1  0.90468498  0.27972452  0.49474219  1
  O  O8  1  0.88699584  0.31393469  0.79170722  1
  O  O9  1  0.11300416  0.68606531  0.29170722  1
  O  O10  1  0.83597318  0.07869876  0.42035325  1
  O  O11  1  0.84716523  0.46553861  0.34752236  1
  O  O12  1  0.65283477  0.96553861  0.84752236  1
  O  O13  1  0.95284939  0.73940064  0.93005276  1
  O  O14  1  0.61300416  0.81393469  0.29170722  1
  O  O15  1  0.45284939  0.76059936  0.93005276  1
  O  O16  1  0.04715061  0.26059936  0.43005276  1
  O  O17  1  0.54715061  0.23940064  0.43005276  1
  O  O18  1  0.38699584  0.18606531  0.79170722  1
  O  O19  1  0.16402682  0.92130124  0.92035325  1
  O  O20  1  0.33597318  0.42130124  0.42035325  1
  O  O21  1  0.15283477  0.53446139  0.84752236  1
  O  O22  1  0.66402682  0.57869876  0.92035325  1
  O  O23  1  0.34716523  0.03446139  0.34752236  1
