# generated using pymatgen
data_Yb7Cl15
_symmetry_space_group_name_H-M   'P 1'
_cell_length_a   6.57360156
_cell_length_b   6.88757921
_cell_length_c   47.50446069
_cell_angle_alpha   90.00000000
_cell_angle_beta   90.00000000
_cell_angle_gamma   90.00000000
_symmetry_Int_Tables_number   1
_chemical_formula_structural   Yb7Cl15
_chemical_formula_sum   'Yb28 Cl60'
_cell_volume   2150.82153147
_cell_formula_units_Z   4
loop_
 _symmetry_equiv_pos_site_id
 _symmetry_equiv_pos_as_xyz
  1  'x, y, z'
loop_
 _atom_site_type_symbol
 _atom_site_label
 _atom_site_symmetry_multiplicity
 _atom_site_fract_x
 _atom_site_fract_y
 _atom_site_fract_z
 _atom_site_occupancy
  Yb  Yb0  1  0.02773214  0.72659780  0.38940182  1
  Yb  Yb1  1  0.52659692  0.16678070  0.96035047  1
  Yb  Yb2  1  0.47233322  0.81980927  0.18048071  1
  Yb  Yb3  1  0.52766678  0.18019073  0.81951929  1
  Yb  Yb4  1  0.02766678  0.31980927  0.31951929  1
  Yb  Yb5  1  0.02659692  0.33321930  0.03964953  1
  Yb  Yb6  1  0.47226786  0.22659780  0.38940182  1
  Yb  Yb7  1  0.97246020  0.26899314  0.75000000  1
  Yb  Yb8  1  0.47340308  0.83321930  0.46035047  1
  Yb  Yb9  1  0.52766678  0.18019073  0.68048071  1
  Yb  Yb10  1  0.52659692  0.16678070  0.53964953  1
  Yb  Yb11  1  0.02753980  0.73100686  0.25000000  1
  Yb  Yb12  1  0.97340308  0.66678070  0.53964953  1
  Yb  Yb13  1  0.52773214  0.77340220  0.61059818  1
  Yb  Yb14  1  0.97233322  0.68019073  0.81951929  1
  Yb  Yb15  1  0.47340308  0.83321930  0.03964953  1
  Yb  Yb16  1  0.02659692  0.33321930  0.46035047  1
  Yb  Yb17  1  0.97226786  0.27340220  0.88940182  1
  Yb  Yb18  1  0.52753980  0.76899314  0.75000000  1
  Yb  Yb19  1  0.47226786  0.22659780  0.11059818  1
  Yb  Yb20  1  0.97226786  0.27340220  0.61059818  1
  Yb  Yb21  1  0.47246020  0.23100686  0.25000000  1
  Yb  Yb22  1  0.47233322  0.81980927  0.31951929  1
  Yb  Yb23  1  0.02773214  0.72659780  0.11059818  1
  Yb  Yb24  1  0.02766678  0.31980927  0.18048071  1
  Yb  Yb25  1  0.97233322  0.68019073  0.68048071  1
  Yb  Yb26  1  0.52773214  0.77340220  0.88940182  1
  Yb  Yb27  1  0.97340308  0.66678070  0.96035047  1
  Cl  Cl28  1  0.15135755  0.32992817  0.80888585  1
  Cl  Cl29  1  0.64192944  0.87251958  0.25000000  1
  Cl  Cl30  1  0.18667693  0.35218832  0.56144571  1
  Cl  Cl31  1  0.80273006  0.98330300  0.57583670  1
  Cl  Cl32  1  0.69178994  0.47456335  0.78450690  1
  Cl  Cl33  1  0.33444727  0.11071545  0.62726953  1
  Cl  Cl34  1  0.66555273  0.88928455  0.37273047  1
  Cl  Cl35  1  0.19178994  0.02543665  0.21549310  1
  Cl  Cl36  1  0.34864245  0.82992817  0.69111415  1
  Cl  Cl37  1  0.19726994  0.01669700  0.07583670  1
  Cl  Cl38  1  0.85807056  0.37251958  0.25000000  1
  Cl  Cl39  1  0.83444727  0.38928455  0.37273047  1
  Cl  Cl40  1  0.31332307  0.85218832  0.56144571  1
  Cl  Cl41  1  0.19417788  0.02488834  0.14614885  1
  Cl  Cl42  1  0.30273006  0.51669700  0.07583670  1
  Cl  Cl43  1  0.66555273  0.88928455  0.12726953  1
  Cl  Cl44  1  0.80582212  0.97511166  0.64614885  1
  Cl  Cl45  1  0.31332307  0.85218832  0.93855429  1
  Cl  Cl46  1  0.19178994  0.02543665  0.28450690  1
  Cl  Cl47  1  0.34864245  0.82992817  0.80888585  1
  Cl  Cl48  1  0.26993352  0.10770278  0.49409562  1
  Cl  Cl49  1  0.33444727  0.11071545  0.87273047  1
  Cl  Cl50  1  0.69178994  0.47456335  0.71549310  1
  Cl  Cl51  1  0.14192944  0.62748042  0.75000000  1
  Cl  Cl52  1  0.80273006  0.98330300  0.92416330  1
  Cl  Cl53  1  0.18667693  0.35218832  0.93855429  1
  Cl  Cl54  1  0.68667693  0.14781168  0.43855429  1
  Cl  Cl55  1  0.30821006  0.52543665  0.21549310  1
  Cl  Cl56  1  0.35807056  0.12748042  0.75000000  1
  Cl  Cl57  1  0.30582212  0.52488834  0.14614885  1
  Cl  Cl58  1  0.30582212  0.52488834  0.35385115  1
  Cl  Cl59  1  0.15135755  0.32992817  0.69111415  1
  Cl  Cl60  1  0.16555273  0.61071545  0.87273047  1
  Cl  Cl61  1  0.81332307  0.64781168  0.06144571  1
  Cl  Cl62  1  0.84864245  0.67007183  0.30888585  1
  Cl  Cl63  1  0.30821006  0.52543665  0.28450690  1
  Cl  Cl64  1  0.19417788  0.02488834  0.35385115  1
  Cl  Cl65  1  0.80821006  0.97456335  0.71549310  1
  Cl  Cl66  1  0.65135755  0.17007183  0.30888585  1
  Cl  Cl67  1  0.69726994  0.48330300  0.92416330  1
  Cl  Cl68  1  0.30273006  0.51669700  0.42416330  1
  Cl  Cl69  1  0.76993352  0.39229722  0.50590438  1
  Cl  Cl70  1  0.73006648  0.89229722  0.99409562  1
  Cl  Cl71  1  0.80582212  0.97511166  0.85385115  1
  Cl  Cl72  1  0.84864245  0.67007183  0.19111415  1
  Cl  Cl73  1  0.83444727  0.38928455  0.12726953  1
  Cl  Cl74  1  0.69417788  0.47511166  0.85385115  1
  Cl  Cl75  1  0.81332307  0.64781168  0.43855429  1
  Cl  Cl76  1  0.69417788  0.47511166  0.64614885  1
  Cl  Cl77  1  0.65135755  0.17007183  0.19111415  1
  Cl  Cl78  1  0.19726994  0.01669700  0.42416330  1
  Cl  Cl79  1  0.23006648  0.60770278  0.00590438  1
  Cl  Cl80  1  0.73006648  0.89229722  0.50590438  1
  Cl  Cl81  1  0.76993352  0.39229722  0.99409562  1
  Cl  Cl82  1  0.69726994  0.48330300  0.57583670  1
  Cl  Cl83  1  0.68667693  0.14781168  0.06144571  1
  Cl  Cl84  1  0.26993352  0.10770278  0.00590438  1
  Cl  Cl85  1  0.80821006  0.97456335  0.78450690  1
  Cl  Cl86  1  0.16555273  0.61071545  0.62726953  1
  Cl  Cl87  1  0.23006648  0.60770278  0.49409562  1
