# generated using pymatgen
data_Ta6Pb4O19
_symmetry_space_group_name_H-M   'P 1'
_cell_length_a   7.53468358
_cell_length_b   7.53468334
_cell_length_c   22.69137279
_cell_angle_alpha   59.68206118
_cell_angle_beta   59.68206225
_cell_angle_gamma   59.80492712
_symmetry_Int_Tables_number   1
_chemical_formula_structural   Ta6Pb4O19
_chemical_formula_sum   'Ta12 Pb8 O38'
_cell_volume   905.17757194
_cell_formula_units_Z   2
loop_
 _symmetry_equiv_pos_site_id
 _symmetry_equiv_pos_as_xyz
  1  'x, y, z'
loop_
 _atom_site_type_symbol
 _atom_site_label
 _atom_site_symmetry_multiplicity
 _atom_site_fract_x
 _atom_site_fract_y
 _atom_site_fract_z
 _atom_site_occupancy
  Ta  Ta0  1  0.99556193  0.99556193  0.00488718  1
  Ta  Ta1  1  0.99750559  0.49800775  0.00202345  1
  Ta  Ta2  1  0.49800775  0.99750559  0.00202345  1
  Ta  Ta3  1  0.00000000  0.50000000  0.33333300  1
  Ta  Ta4  1  -0.00047503  -0.00047503  0.16895469  1
  Ta  Ta5  1  0.00047503  0.00047503  0.49771231  1
  Ta  Ta6  1  0.50000000  0.00000000  0.33333300  1
  Ta  Ta7  1  0.00249441  0.50199225  0.66464355  1
  Ta  Ta8  1  0.00000000  0.00000000  0.83333300  1
  Ta  Ta9  1  0.50199225  0.00249441  0.66464355  1
  Ta  Ta10  1  0.00000000  0.00000000  0.33333300  1
  Ta  Ta11  1  0.00443807  0.00443807  0.66177982  1
  Pb  Pb12  1  0.49748675  0.49748675  0.16225371  1
  Pb  Pb13  1  0.50000000  0.50000000  0.33333300  1
  Pb  Pb14  1  0.50251325  0.50251325  0.50441329  1
  Pb  Pb15  1  0.51853487  0.51853487  0.65721546  1
  Pb  Pb16  1  0.50000000  0.50000000  0.83333300  1
  Pb  Pb17  1  0.48146513  0.48146513  0.00945154  1
  Pb  Pb18  1  0.50000000  0.00000000  0.83333300  1
  Pb  Pb19  1  0.00000000  0.50000000  0.83333300  1
  O  O20  1  0.05753205  0.05753205  0.23074149  1
  O  O21  1  0.06872982  0.68879575  0.01723613  1
  O  O22  1  0.06899047  0.68372579  0.22898452  1
  O  O23  1  0.68879575  0.06872982  0.01723613  1
  O  O24  1  0.31995725  0.31995725  0.30982872  1
  O  O25  1  0.07270109  0.68365823  0.35208516  1
  O  O26  1  0.31673838  0.92160528  0.10559819  1
  O  O27  1  0.05583079  0.05583079  0.56475053  1
  O  O28  1  0.68372579  0.06899047  0.22898452  1
  O  O29  1  0.68153806  0.68153806  0.02487165  1
  O  O30  1  0.68365823  0.07270109  0.35208516  1
  O  O31  1  0.31634177  0.92729891  0.31458084  1
  O  O32  1  0.92160528  0.31673838  0.10559819  1
  O  O33  1  0.07839472  0.68326162  0.56106781  1
  O  O34  1  0.31846194  0.31846194  0.64179535  1
  O  O35  1  0.06184307  0.68390008  0.68854593  1
  O  O36  1  0.31627421  0.93100953  0.43768248  1
  O  O37  1  0.06731298  0.06731298  0.89330198  1
  O  O38  1  0.68326162  0.07839472  0.56106781  1
  O  O39  1  0.92729891  0.31634177  0.31458084  1
  O  O40  1  0.94416921  0.94416921  0.10191547  1
  O  O41  1  0.68004275  0.68004275  0.35683728  1
  O  O42  1  0.68390008  0.06184307  0.68854593  1
  O  O43  1  0.39488510  0.39488510  0.77335169  1
  O  O44  1  0.31120425  0.93127018  0.64943087  1
  O  O45  1  0.93100953  0.31627421  0.43768248  1
  O  O46  1  0.06469328  0.68339996  0.89578320  1
  O  O47  1  0.31169313  0.31169313  0.98255067  1
  O  O48  1  0.31660004  0.93530672  0.77088380  1
  O  O49  1  0.68339996  0.06469328  0.89578320  1
  O  O50  1  0.93127018  0.31120425  0.64943087  1
  O  O51  1  0.94246795  0.94246795  0.43592551  1
  O  O52  1  0.68830687  0.68830687  0.68411633  1
  O  O53  1  0.93530672  0.31660004  0.77088380  1
  O  O54  1  0.60511490  0.60511490  0.89331531  1
  O  O55  1  0.31609992  0.93815693  0.97812107  1
  O  O56  1  0.93815693  0.31609992  0.97812107  1
  O  O57  1  0.93268702  0.93268702  0.77336502  1
