# generated using pymatgen
data_Tl18Ag59Se39
_symmetry_space_group_name_H-M   'P 1'
_cell_length_a   15.25826327
_cell_length_b   15.25826322
_cell_length_c   13.99313038
_cell_angle_alpha   90.00000000
_cell_angle_beta   90.00000000
_cell_angle_gamma   119.99999833
_symmetry_Int_Tables_number   1
_chemical_formula_structural   Tl18Ag59Se39
_chemical_formula_sum   'Tl18 Ag59 Se39'
_cell_volume   2821.34195027
_cell_formula_units_Z   1
loop_
 _symmetry_equiv_pos_site_id
 _symmetry_equiv_pos_as_xyz
  1  'x, y, z'
loop_
 _atom_site_type_symbol
 _atom_site_label
 _atom_site_symmetry_multiplicity
 _atom_site_fract_x
 _atom_site_fract_y
 _atom_site_fract_z
 _atom_site_occupancy
  Tl  Tl0  1  0.14382589  0.68461195  0.08936942  1
  Tl  Tl1  1  0.16040435  0.70626733  0.73543537  1
  Tl  Tl2  1  0.14600074  0.68296009  0.42256463  1
  Tl  Tl3  1  0.31538805  0.45921395  0.08936942  1
  Tl  Tl4  1  0.29373267  0.45413703  0.73543537  1
  Tl  Tl5  1  0.31703991  0.46304064  0.42256463  1
  Tl  Tl6  1  0.54078605  0.85617411  0.08936942  1
  Tl  Tl7  1  0.53695936  0.85399926  0.42256463  1
  Tl  Tl8  1  0.54586297  0.83959565  0.73543537  1
  Tl  Tl9  1  0.45264685  0.13726124  0.23554337  1
  Tl  Tl10  1  0.46613370  0.15143743  0.58428891  1
  Tl  Tl11  1  0.45851571  0.14251778  0.93235843  1
  Tl  Tl12  1  0.68461439  0.54735315  0.23554337  1
  Tl  Tl13  1  0.68530373  0.53386630  0.58428891  1
  Tl  Tl14  1  0.68400308  0.54148429  0.93235843  1
  Tl  Tl15  1  0.86273876  0.31538561  0.23554337  1
  Tl  Tl16  1  0.84856257  0.31469627  0.58428891  1
  Tl  Tl17  1  0.85748222  0.31599692  0.93235843  1
  Ag  Ag18  1  0.01608857  0.89183474  0.08000244  1
  Ag  Ag19  1  0.01395007  0.85489029  0.41229233  1
  Ag  Ag20  1  0.01845843  0.83773631  0.74776931  1
  Ag  Ag21  1  0.22392131  0.86852839  0.25938618  1
  Ag  Ag22  1  0.22818698  0.87561241  0.56444389  1
  Ag  Ag23  1  0.21861862  0.86032767  0.91679105  1
  Ag  Ag24  1  0.07516690  0.43066807  0.08559018  1
  Ag  Ag25  1  0.03650973  0.42603379  0.41483532  1
  Ag  Ag26  1  0.02610559  0.45826939  0.74691879  1
  Ag  Ag27  1  0.13147161  0.35539192  0.25938618  1
  Ag  Ag28  1  0.12438759  0.35257557  0.56444389  1
  Ag  Ag29  1  0.13967233  0.35828996  0.91679105  1
  Ag  Ag30  1  0.35550017  0.92483310  0.08559018  1
  Ag  Ag31  1  0.43216380  0.97389441  0.74691879  1
  Ag  Ag32  1  0.38952406  0.96349027  0.41483532  1
  Ag  Ag33  1  0.33333300  0.66666700  0.25196694  1
  Ag  Ag34  1  0.33333300  0.66666700  0.91672150  1
  Ag  Ag35  1  0.10816526  0.12425483  0.08000244  1
  Ag  Ag36  1  0.14510971  0.15905978  0.41229233  1
  Ag  Ag37  1  0.16226369  0.18072212  0.74776931  1
  Ag  Ag38  1  0.12365510  0.01384093  0.25249911  1
  Ag  Ag39  1  0.19308043  0.05570846  0.58993839  1
  Ag  Ag40  1  0.19383801  0.04157558  0.90282269  1
  Ag  Ag41  1  0.34231179  0.21926036  0.07336592  1
  Ag  Ag42  1  0.36776872  0.22058483  0.42246349  1
  Ag  Ag43  1  0.35914829  0.19686113  0.75892014  1
  Ag  Ag44  1  0.41949044  0.34780832  0.24910980  1
  Ag  Ag45  1  0.43709670  0.41073820  0.91495805  1
  Ag  Ag46  1  0.44513880  0.39840578  0.58600306  1
  Ag  Ag47  1  0.56933193  0.64449983  0.08559018  1
  Ag  Ag48  1  0.54173061  0.56783620  0.74691879  1
  Ag  Ag49  1  0.57396621  0.61047694  0.41483532  1
  Ag  Ag50  1  0.64460808  0.77607869  0.25938618  1
  Ag  Ag51  1  0.64742443  0.77181302  0.56444389  1
  Ag  Ag52  1  0.64171004  0.78138238  0.91679105  1
  Ag  Ag53  1  0.84094022  0.98604993  0.41229233  1
  Ag  Ag54  1  0.87574517  0.98391143  0.08000244  1
  Ag  Ag55  1  0.81927788  0.98154157  0.74776931  1
  Ag  Ag56  1  0.89018583  0.87634490  0.25249911  1
  Ag  Ag57  1  0.86262803  0.80691957  0.58993839  1
  Ag  Ag58  1  0.84773857  0.80616199  0.90282269  1
  Ag  Ag59  1  0.66666700  0.33333300  0.40375809  1
  Ag  Ag60  1  0.66666700  0.33333300  0.08338001  1
  Ag  Ag61  1  0.66666700  0.33333300  0.76275736  1
  Ag  Ag62  1  0.65219168  0.07168212  0.24910980  1
  Ag  Ag63  1  0.60159422  0.04673302  0.58600306  1
  Ag  Ag64  1  0.58926180  0.02635850  0.91495805  1
  Ag  Ag65  1  0.87694857  0.65768821  0.07336592  1
  Ag  Ag66  1  0.85281712  0.63223128  0.42246349  1
  Ag  Ag67  1  0.83771185  0.64085171  0.75892014  1
  Ag  Ag68  1  0.92831788  0.58050956  0.24910980  1
  Ag  Ag69  1  0.95326698  0.55486120  0.58600306  1
  Ag  Ag70  1  0.97364150  0.56290330  0.91495805  1
  Ag  Ag71  1  0.78073964  0.12305143  0.07336592  1
  Ag  Ag72  1  0.77941517  0.14718288  0.42246349  1
  Ag  Ag73  1  0.80313887  0.16228815  0.75892014  1
  Ag  Ag74  1  0.98615907  0.10981417  0.25249911  1
  Ag  Ag75  1  0.94429154  0.13737197  0.58993839  1
  Ag  Ag76  1  0.95842442  0.15226143  0.90282269  1
  Se  Se77  1  0.00000000  0.00000000  0.49993934  1
  Se  Se78  1  0.00000000  0.00000000  0.93299636  1
  Se  Se79  1  0.02910410  0.78898935  0.23940839  1
  Se  Se80  1  0.03015091  0.75644069  0.57837336  1
  Se  Se81  1  0.02369196  0.75892972  0.91941562  1
  Se  Se82  1  0.13768732  0.53025902  0.25134693  1
  Se  Se83  1  0.13872364  0.52909579  0.91714068  1
  Se  Se84  1  0.12957650  0.52745717  0.57844120  1
  Se  Se85  1  0.39257170  0.86231268  0.25134693  1
  Se  Se86  1  0.39788067  0.87042350  0.57844120  1
  Se  Se87  1  0.39037215  0.86127636  0.91714068  1
  Se  Se88  1  0.00000000  0.00000000  0.71984149  1
  Se  Se89  1  0.21101065  0.24011475  0.23940839  1
  Se  Se90  1  0.24355931  0.27371022  0.57837336  1
  Se  Se91  1  0.24107028  0.26476224  0.91941562  1
  Se  Se92  1  0.46974098  0.60742830  0.25134693  1
  Se  Se93  1  0.47090421  0.60962785  0.91714068  1
  Se  Se94  1  0.47254283  0.60211933  0.57844120  1
  Se  Se95  1  0.75988525  0.97089590  0.23940839  1
  Se  Se96  1  0.72628978  0.96984909  0.57837336  1
  Se  Se97  1  0.73523776  0.97630804  0.91941562  1
  Se  Se98  1  0.25032060  0.02289363  0.08602728  1
  Se  Se99  1  0.26869337  0.00407186  0.74375656  1
  Se  Se100  1  0.25500475  0.02824345  0.40730551  1
  Se  Se101  1  0.52198687  0.38277403  0.08364536  1
  Se  Se102  1  0.53104281  0.39416243  0.40996026  1
  Se  Se103  1  0.51916435  0.37295377  0.75594257  1
  Se  Se104  1  0.77323970  0.74499525  0.40730551  1
  Se  Se105  1  0.77257303  0.74967940  0.08602728  1
  Se  Se106  1  0.73537849  0.73130663  0.74375656  1
  Se  Se107  1  0.61722597  0.13921284  0.08364536  1
  Se  Se108  1  0.60583757  0.13688038  0.40996026  1
  Se  Se109  1  0.62704623  0.14621058  0.75594257  1
  Se  Se110  1  0.86078716  0.47801313  0.08364536  1
  Se  Se111  1  0.86311962  0.46895719  0.40996026  1
  Se  Se112  1  0.85378942  0.48083565  0.75594257  1
  Se  Se113  1  0.97710637  0.22742697  0.08602728  1
  Se  Se114  1  0.99592814  0.26462151  0.74375656  1
  Se  Se115  1  0.97175655  0.22676030  0.40730551  1
