# generated using pymatgen
data_Gd2CuO4
_symmetry_space_group_name_H-M   'P 1'
_cell_length_a   5.52385401
_cell_length_b   5.51943685
_cell_length_c   6.55743085
_cell_angle_alpha   90.00000000
_cell_angle_beta   113.55749464
_cell_angle_gamma   90.00000000
_symmetry_Int_Tables_number   1
_chemical_formula_structural   Gd2CuO4
_chemical_formula_sum   'Gd4 Cu2 O8'
_cell_volume   183.26465527
_cell_formula_units_Z   2
loop_
 _symmetry_equiv_pos_site_id
 _symmetry_equiv_pos_as_xyz
  1  'x, y, z'
loop_
 _atom_site_type_symbol
 _atom_site_label
 _atom_site_symmetry_multiplicity
 _atom_site_fract_x
 _atom_site_fract_y
 _atom_site_fract_z
 _atom_site_occupancy
  Gd  Gd0  1  0.15665355  0.50293752  0.30288260  1
  Gd  Gd1  1  0.65665355  0.99706248  0.30288260  1
  Gd  Gd2  1  0.34334645  0.00293752  0.69711740  1
  Gd  Gd3  1  0.84334645  0.49706248  0.69711740  1
  Cu  Cu4  1  0.00000000  0.00000000  0.00000000  1
  Cu  Cu5  1  0.50000000  0.50000000  0.00000000  1
  O  O6  1  0.00397858  0.24899709  0.49725880  1
  O  O7  1  0.22468105  0.27250951  0.99496069  1
  O  O8  1  0.27531895  0.77250951  0.00503931  1
  O  O9  1  0.49602142  0.74899709  0.50274120  1
  O  O10  1  0.50397858  0.25100291  0.49725880  1
  O  O11  1  0.72468105  0.22749049  0.99496069  1
  O  O12  1  0.77531895  0.72749049  0.00503931  1
  O  O13  1  0.99602142  0.75100291  0.50274120  1
