# generated using pymatgen
data_Sr16Cu8BC7O40
_symmetry_space_group_name_H-M   'P 1'
_cell_length_a   15.62680428
_cell_length_b   11.06984747
_cell_length_c   9.45559360
_cell_angle_alpha   89.58125708
_cell_angle_beta   65.23131393
_cell_angle_gamma   45.05919965
_symmetry_Int_Tables_number   1
_chemical_formula_structural   Sr16Cu8BC7O40
_chemical_formula_sum   'Sr16 Cu8 B1 C7 O40'
_cell_volume   939.32034354
_cell_formula_units_Z   1
loop_
 _symmetry_equiv_pos_site_id
 _symmetry_equiv_pos_as_xyz
  1  'x, y, z'
loop_
 _atom_site_type_symbol
 _atom_site_label
 _atom_site_symmetry_multiplicity
 _atom_site_fract_x
 _atom_site_fract_y
 _atom_site_fract_z
 _atom_site_occupancy
  Sr  Sr0  1  0.12924719  0.11883515  0.24146558  1
  Sr  Sr1  1  0.14640891  0.60401788  0.21209555  1
  Sr  Sr2  1  0.37960501  0.12334136  0.24244850  1
  Sr  Sr3  1  0.11827048  0.39191511  0.76410135  1
  Sr  Sr4  1  0.38352125  0.60961838  0.22803370  1
  Sr  Sr5  1  0.61757339  0.12736407  0.24655185  1
  Sr  Sr6  1  0.36451801  0.38845582  0.75299360  1
  Sr  Sr7  1  0.11399121  0.88172198  0.75972908  1
  Sr  Sr8  1  0.64463916  0.60477656  0.20935079  1
  Sr  Sr9  1  0.88387612  0.11072836  0.23052294  1
  Sr  Sr10  1  0.61326254  0.38855423  0.77259744  1
  Sr  Sr11  1  0.35416175  0.89696757  0.78963426  1
  Sr  Sr12  1  0.88704773  0.61187730  0.22380481  1
  Sr  Sr13  1  0.86818725  0.38760487  0.75939032  1
  Sr  Sr14  1  0.61224944  0.89095343  0.76984378  1
  Sr  Sr15  1  0.85866642  0.89322166  0.78678255  1
  Cu  Cu16  1  0.24942284  0.25183507  0.00019752  1
  Cu  Cu17  1  0.99819442  0.75312401  0.99807931  1
  Cu  Cu18  1  0.49416194  0.25579883  0.00647780  1
  Cu  Cu19  1  0.24832966  0.75219042  0.99801101  1
  Cu  Cu20  1  0.74896505  0.25169164  0.00057425  1
  Cu  Cu21  1  0.49742245  0.75373046  0.00196959  1
  Cu  Cu22  1  0.00070332  0.24881275  0.99816192  1
  Cu  Cu23  1  0.74840403  0.75159023  0.99986480  1
  B  B24  1  0.25310065  0.48673136  0.49311304  1
  C  C25  1  0.25433542  0.00804761  0.49715026  1
  C  C26  1  0.00944982  0.98748733  0.50249510  1
  C  C27  1  0.49032655  0.51477186  0.50198262  1
  C  C28  1  0.75564964  0.00702648  0.49615995  1
  C  C29  1  0.74898523  0.49135447  0.49707160  1
  C  C30  1  0.51382386  0.97969442  0.50333469  1
  C  C31  1  0.98621085  0.51490578  0.50328537  1
  O  O32  1  0.11230606  0.01365191  0.02666767  1
  O  O33  1  0.12056506  0.25490013  0.00849776  1
  O  O34  1  0.36175599  0.01481194  0.02436889  1
  O  O35  1  0.15876496  0.18630979  0.52576973  1
  O  O36  1  0.10395538  0.44955817  0.37191858  1
  O  O37  1  0.02067003  0.92302968  0.37423695  1
  O  O38  1  0.61230389  0.01120817  0.02213147  1
  O  O39  1  0.30228019  0.47255221  0.32551488  1
  O  O40  1  0.40515098  0.06148443  0.66305063  1
  O  O41  1  0.33299729  0.31873825  0.51184831  1
  O  O42  1  0.12720437  0.66135133  0.64106910  1
  O  O43  1  0.12829025  0.49751050  0.99000503  1
  O  O44  1  0.10974462  0.96641628  0.47189486  1
  O  O45  1  0.62018186  0.25545779  0.00694263  1
  O  O46  1  0.36860056  0.75636467  0.01044141  1
  O  O47  1  0.38518490  0.24160151  0.97443007  1
  O  O48  1  0.13297718  0.74375238  0.97805832  1
  O  O49  1  0.41926157  0.50414405  0.47818365  1
  O  O50  1  0.85906053  0.01598167  0.02469535  1
  O  O51  1  0.65959132  0.18515616  0.52479408  1
  O  O52  1  0.24206337  0.96667932  0.62689834  1
  O  O53  1  0.36079759  0.87497670  0.33758870  1
  O  O54  1  0.44027324  0.59463929  0.65963340  1
  O  O55  1  0.38036186  0.49632720  0.98291623  1
  O  O56  1  0.60920488  0.44627387  0.36914120  1
  O  O57  1  0.52657546  0.91374147  0.37388131  1
  O  O58  1  0.79523270  0.47715598  0.34073674  1
  O  O59  1  0.89952632  0.07337509  0.66261239  1
  O  O60  1  0.82236880  0.33642672  0.51770353  1
  O  O61  1  0.63122508  0.65641303  0.63275579  1
  O  O62  1  0.62905053  0.49678640  0.99023322  1
  O  O63  1  0.61296140  0.96025758  0.47418421  1
  O  O64  1  0.86732740  0.75725158  0.01130088  1
  O  O65  1  0.88728495  0.23856445  0.97439088  1
  O  O66  1  0.63508425  0.73965036  0.97825128  1
  O  O67  1  0.91745061  0.50133173  0.47690948  1
  O  O68  1  0.74442786  0.96548941  0.62582366  1
  O  O69  1  0.86236101  0.87369109  0.33654442  1
  O  O70  1  0.93462932  0.59424855  0.66226880  1
  O  O71  1  0.88091578  0.49454770  0.98760022  1
