# generated using pymatgen
data_Pr2PbS4
_symmetry_space_group_name_H-M   'P 1'
_cell_length_a   7.57115285
_cell_length_b   7.57115246
_cell_length_c   7.57115223
_cell_angle_alpha   109.41295072
_cell_angle_beta   109.41294963
_cell_angle_gamma   109.58782764
_symmetry_Int_Tables_number   1
_chemical_formula_structural   Pr2PbS4
_chemical_formula_sum   'Pr4 Pb2 S8'
_cell_volume   334.08942326
_cell_formula_units_Z   2
loop_
 _symmetry_equiv_pos_site_id
 _symmetry_equiv_pos_as_xyz
  1  'x, y, z'
loop_
 _atom_site_type_symbol
 _atom_site_label
 _atom_site_symmetry_multiplicity
 _atom_site_fract_x
 _atom_site_fract_y
 _atom_site_fract_z
 _atom_site_occupancy
  Pr  Pr0  1  0.11752387  0.75000000  0.86752387  1
  Pr  Pr1  1  0.25000000  0.61752387  0.36752387  1
  Pr  Pr2  1  0.38247613  0.25000000  0.63247613  1
  Pr  Pr3  1  0.75000000  0.88247613  0.13247613  1
  Pb  Pb4  1  0.62500000  0.37500000  0.25000000  1
  Pb  Pb5  1  0.87500000  0.12500000  0.75000000  1
  S  S6  1  0.00902858  0.85588679  0.49794700  1
  S  S7  1  0.01108158  0.35793978  0.50205300  1
  S  S8  1  0.48891842  0.99097142  0.34685821  1
  S  S9  1  0.14411321  0.14206022  0.15314179  1
  S  S10  1  0.35588679  0.50902858  0.99794700  1
  S  S11  1  0.64206022  0.64411321  0.65314179  1
  S  S12  1  0.49097142  0.98891842  0.84685821  1
  S  S13  1  0.85793978  0.51108158  0.00205300  1
