# generated using pymatgen
data_Ba2La2MgTi3O12
_symmetry_space_group_name_H-M   'P 1'
_cell_length_a   5.66540754
_cell_length_b   5.67474565
_cell_length_c   33.87046274
_cell_angle_alpha   89.92277912
_cell_angle_beta   120.16690872
_cell_angle_gamma   120.10757687
_symmetry_Int_Tables_number   1
_chemical_formula_structural   Ba2La2MgTi3O12
_chemical_formula_sum   'Ba6 La6 Mg3 Ti9 O36'
_cell_volume   767.30547330
_cell_formula_units_Z   3
loop_
 _symmetry_equiv_pos_site_id
 _symmetry_equiv_pos_as_xyz
  1  'x, y, z'
loop_
 _atom_site_type_symbol
 _atom_site_label
 _atom_site_symmetry_multiplicity
 _atom_site_fract_x
 _atom_site_fract_y
 _atom_site_fract_z
 _atom_site_occupancy
  Ba  Ba0  1  0.48864754  0.24451402  0.95564266  1
  Ba  Ba1  1  0.51135246  0.75548598  0.37769034  1
  Ba  Ba2  1  0.50828458  0.25383865  0.29361469  1
  Ba  Ba3  1  0.50247065  0.75095833  0.20904933  1
  Ba  Ba4  1  0.49752935  0.24904167  0.12428367  1
  Ba  Ba5  1  0.49171542  0.74616135  0.03971931  1
  La  La6  1  0.48861423  0.74150836  0.87239552  1
  La  La7  1  0.50233793  0.25266038  0.79059469  1
  La  La8  1  0.49865297  0.74937594  0.70781880  1
  La  La9  1  0.49766207  0.74733962  0.54273931  1
  La  La10  1  0.50134703  0.25062406  0.62551420  1
  La  La11  1  0.51138577  0.25849164  0.46093748  1
  Mg  Mg12  1  0.98449104  0.99178658  0.83029285  1
  Mg  Mg13  1  0.00000000  0.00000000  0.66666700  1
  Mg  Mg14  1  0.01550896  0.00821342  0.50304015  1
  Ti  Ti15  1  0.99685517  0.49983330  0.74859936  1
  Ti  Ti16  1  0.98114067  0.49483095  0.91040587  1
  Ti  Ti17  1  0.01885933  0.50516905  0.42292813  1
  Ti  Ti18  1  0.00314483  0.50016670  0.58473364  1
  Ti  Ti19  1  0.98192066  0.99094412  0.99650572  1
  Ti  Ti20  1  0.01807934  0.00905588  0.33682728  1
  Ti  Ti21  1  0.00578319  0.50156005  0.25154905  1
  Ti  Ti22  1  0.99421681  0.49843995  0.08178395  1
  Ti  Ti23  1  0.00000000  0.00000000  0.16666700  1
  O  O24  1  0.97246605  0.74321882  0.95287842  1
  O  O25  1  0.05617939  0.75118340  0.87518119  1
  O  O26  1  0.49362312  0.73785563  0.95654555  1
  O  O27  1  0.12617672  0.80308107  0.71937411  1
  O  O28  1  0.99578862  0.25353480  0.70851952  1
  O  O29  1  0.47569862  0.67413583  0.79931092  1
  O  O30  1  0.50015104  0.30226207  0.86604531  1
  O  O31  1  0.95077261  0.21422048  0.95031297  1
  O  O32  1  0.12429688  0.80285647  0.55382791  1
  O  O33  1  0.00196405  0.25471663  0.54426980  1
  O  O34  1  0.48678267  0.67916050  0.63451558  1
  O  O35  1  0.51321733  0.32083950  0.69881742  1
  O  O36  1  0.95869276  0.23698384  0.87015215  1
  O  O37  1  0.99803595  0.74528337  0.78906420  1
  O  O38  1  0.87570312  0.19714353  0.77950509  1
  O  O39  1  0.04922739  0.78577952  0.38302003  1
  O  O40  1  0.02753395  0.25678118  0.38045458  1
  O  O41  1  0.49984896  0.69773793  0.46728869  1
  O  O42  1  0.52430138  0.32586417  0.53402208  1
  O  O43  1  0.00421138  0.74646520  0.62481348  1
  O  O44  1  0.87382328  0.19691893  0.61395989  1
  O  O45  1  0.99757568  0.74902555  0.20876504  1
  O  O46  1  0.00322674  0.25172110  0.20907578  1
  O  O47  1  0.51002003  0.75614756  0.29402830  1
  O  O48  1  0.50637688  0.26214437  0.37678845  1
  O  O49  1  0.04130724  0.76301616  0.46318085  1
  O  O50  1  0.94382061  0.24881660  0.45815181  1
  O  O51  1  0.99072586  0.74313835  0.03972670  1
  O  O52  1  0.49885766  0.75237472  0.12406289  1
  O  O53  1  0.50114234  0.24762528  0.20927011  1
  O  O54  1  0.00716946  0.75232829  0.29404876  1
  O  O55  1  0.00927414  0.25686165  0.29360630  1
  O  O56  1  0.48997997  0.24385244  0.03930470  1
  O  O57  1  0.99677326  0.74827890  0.12425722  1
  O  O58  1  0.00242432  0.25097445  0.12456896  1
  O  O59  1  0.99283054  0.24767171  0.03928524  1
