# generated using pymatgen
data_Li2NiP2O7
_symmetry_space_group_name_H-M   'P 1'
_cell_length_a   5.03233345
_cell_length_b   6.87745930
_cell_length_c   8.24782120
_cell_angle_alpha   66.94541703
_cell_angle_beta   89.02180470
_cell_angle_gamma   89.98635624
_symmetry_Int_Tables_number   1
_chemical_formula_structural   Li2NiP2O7
_chemical_formula_sum   'Li4 Ni2 P4 O14'
_cell_volume   262.61101977
_cell_formula_units_Z   2
loop_
 _symmetry_equiv_pos_site_id
 _symmetry_equiv_pos_as_xyz
  1  'x, y, z'
loop_
 _atom_site_type_symbol
 _atom_site_label
 _atom_site_symmetry_multiplicity
 _atom_site_fract_x
 _atom_site_fract_y
 _atom_site_fract_z
 _atom_site_occupancy
  Li  Li0  1  0.71056813  0.15991080  0.00250847  1
  Li  Li1  1  0.23742038  0.81366692  0.56629139  1
  Li  Li2  1  0.76257962  0.18633308  0.43370861  1
  Li  Li3  1  0.28943187  0.84008920  0.99749153  1
  Ni  Ni4  1  0.22730284  0.23113686  0.72073295  1
  Ni  Ni5  1  0.77269716  0.76886314  0.27926705  1
  P  P6  1  0.77216284  0.87848908  0.82351029  1
  P  P7  1  0.28236890  0.45615423  0.30759071  1
  P  P8  1  0.22783716  0.12151092  0.17648971  1
  P  P9  1  0.71763110  0.54384577  0.69240929  1
  O  O10  1  0.72242026  0.63717268  0.84639020  1
  O  O11  1  0.27757974  0.36282732  0.15360980  1
  O  O12  1  0.57851123  0.48220245  0.33568520  1
  O  O13  1  0.13585298  0.66550199  0.22346122  1
  O  O14  1  0.86301022  0.70886578  0.53295877  1
  O  O15  1  0.86414702  0.33449801  0.77653878  1
  O  O16  1  0.07200097  0.92235990  0.78188528  1
  O  O17  1  0.69213891  0.86891554  0.00718317  1
  O  O18  1  0.92799903  0.07764010  0.21811472  1
  O  O19  1  0.59261361  0.02491592  0.67923112  1
  O  O20  1  0.42148877  0.51779755  0.66431480  1
  O  O21  1  0.40738639  0.97508408  0.32076888  1
  O  O22  1  0.13698978  0.29113422  0.46704123  1
  O  O23  1  0.30786109  0.13108446  0.99281683  1
