# generated using pymatgen
data_Fe7(PO5)4
_symmetry_space_group_name_H-M   'P 1'
_cell_length_a   10.60048490
_cell_length_b   7.59889518
_cell_length_c   7.41791414
_cell_angle_alpha   90.60479701
_cell_angle_beta   68.45060598
_cell_angle_gamma   45.87665628
_symmetry_Int_Tables_number   1
_chemical_formula_structural   Fe7(PO5)4
_chemical_formula_sum   'Fe7 P4 O20'
_cell_volume   365.84924831
_cell_formula_units_Z   1
loop_
 _symmetry_equiv_pos_site_id
 _symmetry_equiv_pos_as_xyz
  1  'x, y, z'
loop_
 _atom_site_type_symbol
 _atom_site_label
 _atom_site_symmetry_multiplicity
 _atom_site_fract_x
 _atom_site_fract_y
 _atom_site_fract_z
 _atom_site_occupancy
  Fe  Fe0  1  0.24482138  0.01132904  0.00757919  1
  Fe  Fe1  1  0.00048310  0.49816191  0.50037999  1
  Fe  Fe2  1  0.27754659  0.49865815  0.49153922  1
  Fe  Fe3  1  0.50020330  0.49853248  0.99965229  1
  Fe  Fe4  1  0.75570149  0.98630564  0.99296109  1
  Fe  Fe5  1  0.72245001  0.49942196  0.50911039  1
  Fe  Fe6  1  0.00042028  0.49896345  0.00047465  1
  P  P7  1  0.99958512  0.87337237  0.25675196  1
  P  P8  1  0.50968317  0.11137010  0.73292172  1
  P  P9  1  0.49148569  0.88516485  0.26651843  1
  P  P10  1  0.00054096  0.12455570  0.74502547  1
  O  O11  1  0.00045645  0.36443981  0.25897427  1
  O  O12  1  0.05665431  0.18295061  0.88384820  1
  O  O13  1  0.30644150  0.19403389  0.39288388  1
  O  O14  1  0.06480363  0.68112287  0.37326781  1
  O  O15  1  0.00065292  0.63249670  0.74169761  1
  O  O16  1  0.19183204  0.80203979  0.11201971  1
  O  O17  1  0.31933681  0.18279531  0.88602142  1
  O  O18  1  0.49965084  0.35385114  0.21667202  1
  O  O19  1  0.45743668  0.27019815  0.59615616  1
  O  O20  1  0.17996124  0.83052667  0.59718646  1
  O  O21  1  0.43180528  0.81803018  0.14041429  1
  O  O22  1  0.57060140  0.17790547  0.85747096  1
  O  O23  1  0.54385563  0.72537825  0.40262188  1
  O  O24  1  0.82042771  0.16698820  0.40530949  1
  O  O25  1  0.49964870  0.64408377  0.78311706  1
  O  O26  1  0.68155942  0.81474323  0.11458486  1
  O  O27  1  0.80821032  0.19600396  0.88956982  1
  O  O28  1  0.93550472  0.31638846  0.62818999  1
  O  O29  1  0.69423776  0.80234561  0.60712082  1
  O  O30  1  0.94294857  0.81575826  0.11816294  1
