# generated using pymatgen
data_Ba7Na3Ti7Nb3O30
_symmetry_space_group_name_H-M   'P 1'
_cell_length_a   4.02851346
_cell_length_b   8.05673516
_cell_length_c   20.17327144
_cell_angle_alpha   90.02761251
_cell_angle_beta   90.00000000
_cell_angle_gamma   90.00000000
_symmetry_Int_Tables_number   1
_chemical_formula_structural   Ba7Na3Ti7Nb3O30
_chemical_formula_sum   'Ba7 Na3 Ti7 Nb3 O30'
_cell_volume   654.75705844
_cell_formula_units_Z   1
loop_
 _symmetry_equiv_pos_site_id
 _symmetry_equiv_pos_as_xyz
  1  'x, y, z'
loop_
 _atom_site_type_symbol
 _atom_site_label
 _atom_site_symmetry_multiplicity
 _atom_site_fract_x
 _atom_site_fract_y
 _atom_site_fract_z
 _atom_site_occupancy
  Ba  Ba0  1  0.00000000  0.49739501  0.00451030  1
  Ba  Ba1  1  0.00000000  0.49834862  0.19848850  1
  Ba  Ba2  1  0.00000000  0.49856558  0.39951266  1
  Ba  Ba3  1  0.00000000  0.00172732  0.19879467  1
  Ba  Ba4  1  0.00000000  0.00144421  0.39950231  1
  Ba  Ba5  1  0.00000000  0.49448005  0.59965110  1
  Ba  Ba6  1  0.00000000  0.00551251  0.59967011  1
  Na  Na7  1  0.00000000  0.00198775  0.00365576  1
  Na  Na8  1  0.00000000  0.49479942  0.79849074  1
  Na  Na9  1  0.00000000  0.00538555  0.79829895  1
  Ti  Ti10  1  0.50000000  0.24225772  0.09727937  1
  Ti  Ti11  1  0.50000000  0.75011584  0.29860572  1
  Ti  Ti12  1  0.50000000  0.24991512  0.29878889  1
  Ti  Ti13  1  0.50000000  0.75624865  0.10024882  1
  Ti  Ti14  1  0.50000000  0.24997519  0.50006127  1
  Ti  Ti15  1  0.50000000  0.24994212  0.70324606  1
  Ti  Ti16  1  0.50000000  0.75002030  0.49758875  1
  Nb  Nb17  1  0.50000000  0.75002376  0.70331384  1
  Nb  Nb18  1  0.50000000  0.24729086  0.89669423  1
  Nb  Nb19  1  0.50000000  0.75427795  0.90122509  1
  O  O20  1  0.00000000  0.24829403  0.09951843  1
  O  O21  1  0.00000000  0.24994005  0.30006651  1
  O  O22  1  0.00000000  0.75173117  0.09917380  1
  O  O23  1  0.00000000  0.75007146  0.30009326  1
  O  O24  1  0.00000000  0.24925632  0.89964597  1
  O  O25  1  0.00000000  0.75051510  0.89899004  1
  O  O26  1  0.50000000  0.25005767  0.99979666  1
  O  O27  1  0.50000000  0.24888271  0.20046212  1
  O  O28  1  0.50000000  0.50095881  0.09897336  1
  O  O29  1  0.50000000  0.75037470  0.99916203  1
  O  O30  1  0.50000000  0.50111448  0.30006543  1
  O  O31  1  0.50000000  0.50026132  0.50010928  1
  O  O32  1  0.50000000  0.00087659  0.70105274  1
  O  O33  1  0.50000000  0.75109767  0.19979865  1
  O  O34  1  0.50000000  0.75002322  0.40096870  1
  O  O35  1  0.50000000  0.99944014  0.09984027  1
  O  O36  1  0.50000000  0.99888303  0.30013360  1
  O  O37  1  0.50000000  0.24997100  0.40018356  1
  O  O38  1  0.50000000  0.25002541  0.59981606  1
  O  O39  1  0.50000000  0.49908819  0.70114620  1
  O  O40  1  0.50000000  0.49971593  0.89969251  1
  O  O41  1  0.50000000  0.74998948  0.60132736  1
  O  O42  1  0.50000000  0.75067530  0.80081226  1
  O  O43  1  0.50000000  -0.00025053  0.50011023  1
  O  O44  1  0.50000000  0.24905700  0.80018195  1
  O  O45  1  0.50000000  0.00022038  0.89888980  1
  O  O46  1  0.00000000  0.24999931  0.49991547  1
  O  O47  1  0.00000000  0.25002209  0.70109099  1
  O  O48  1  0.00000000  0.75000700  0.50026124  1
  O  O49  1  0.00000000  0.74998742  0.70109438  1
