# generated using pymatgen
data_Ca6TiAl5Si6(O5F)5
_symmetry_space_group_name_H-M   'P 1'
_cell_length_a   5.40725762
_cell_length_b   5.40492666
_cell_length_c   42.35299646
_cell_angle_alpha   104.63021039
_cell_angle_beta   104.65577827
_cell_angle_gamma   105.71598629
_symmetry_Int_Tables_number   1
_chemical_formula_structural   Ca6TiAl5Si6(O5F)5
_chemical_formula_sum   'Ca12 Ti2 Al10 Si12 O50 F10'
_cell_volume   1082.06705223
_cell_formula_units_Z   2
loop_
 _symmetry_equiv_pos_site_id
 _symmetry_equiv_pos_as_xyz
  1  'x, y, z'
loop_
 _atom_site_type_symbol
 _atom_site_label
 _atom_site_symmetry_multiplicity
 _atom_site_fract_x
 _atom_site_fract_y
 _atom_site_fract_z
 _atom_site_occupancy
  Ca  Ca0  1  0.15421577  0.82517220  0.95653805  1
  Ca  Ca1  1  0.16282869  0.83655687  0.79083137  1
  Ca  Ca2  1  0.16312606  0.83639258  0.62456410  1
  Ca  Ca3  1  0.16319285  0.83643909  0.45794838  1
  Ca  Ca4  1  0.83428021  0.16092257  0.87337941  1
  Ca  Ca5  1  0.16366304  0.83688244  0.29176204  1
  Ca  Ca6  1  0.83637884  0.16297061  0.70781922  1
  Ca  Ca7  1  0.17652530  0.84445286  0.12811908  1
  Ca  Ca8  1  0.83642477  0.16315561  0.54126825  1
  Ca  Ca9  1  0.83665095  0.16326438  0.37468184  1
  Ca  Ca10  1  0.83947855  0.16642988  0.20919127  1
  Ca  Ca11  1  0.83470883  0.16300812  0.04411715  1
  Ti  Ti12  1  0.50254304  0.51129646  0.08723160  1
  Ti  Ti13  1  0.50319437  0.48643875  0.00252149  1
  Al  Al14  1  0.49303778  0.49644903  0.91502821  1
  Al  Al15  1  0.49860229  0.49934484  0.83259390  1
  Al  Al16  1  0.49958793  0.49929880  0.74966075  1
  Al  Al17  1  0.49945664  0.49973899  0.66652549  1
  Al  Al18  1  0.49982057  0.49954811  0.58327837  1
  Al  Al19  1  0.49959416  0.49981898  0.49997839  1
  Al  Al20  1  0.49991159  0.49967165  0.41670402  1
  Al  Al21  1  0.50014853  0.50019866  0.33351443  1
  Al  Al22  1  0.50154908  0.50123941  0.25054770  1
  Al  Al23  1  0.50325514  0.50879264  0.16740855  1
  Si  Si24  1  0.18362824  0.81186989  0.87374464  1
  Si  Si25  1  0.18633071  0.81339164  0.70816628  1
  Si  Si26  1  0.18651670  0.81356831  0.54165651  1
  Si  Si27  1  0.80191848  0.17493440  0.95511016  1
  Si  Si28  1  0.18687310  0.81385823  0.37512974  1
  Si  Si29  1  0.81333615  0.18638683  0.79125451  1
  Si  Si30  1  0.19000787  0.81756279  0.20988631  1
  Si  Si31  1  0.81363815  0.18655891  0.62499227  1
  Si  Si32  1  0.18309554  0.81216357  0.04096591  1
  Si  Si33  1  0.81372490  0.18665509  0.45838473  1
  Si  Si34  1  0.81426400  0.18711769  0.29202032  1
  Si  Si35  1  0.82589738  0.19698316  0.12799386  1
  O  O36  1  0.11285021  0.25357827  0.98253233  1
  O  O37  1  0.19303540  0.60240317  0.89638596  1
  O  O38  1  0.12854888  0.26075421  0.81712577  1
  O  O39  1  0.25889520  0.12642092  0.89993672  1
  O  O40  1  0.39327301  0.80234093  0.85126279  1
  O  O41  1  0.19752115  0.60560379  0.73107004  1
  O  O42  1  0.59526512  0.17805575  0.97792232  1
  O  O43  1  0.12908191  0.26085037  0.65085500  1
  O  O44  1  0.73775558  0.86518923  0.92944790  1
  O  O45  1  0.26085472  0.12880972  0.73409754  1
  O  O46  1  0.39448952  0.80252498  0.68539026  1
  O  O47  1  0.19784310  0.60599957  0.56461934  1
  O  O48  1  0.79797029  0.39190422  0.93388884  1
  O  O49  1  0.60565884  0.19743493  0.81412310  1
  O  O50  1  0.12921371  0.26090837  0.48423545  1
  O  O51  1  0.73842306  0.87039352  0.76556474  1
  O  O52  1  0.26092908  0.12919358  0.56755915  1
  O  O53  1  0.86890606  0.73863715  0.84815636  1
  O  O54  1  0.39458519  0.80256249  0.51886437  1
  O  O55  1  0.19794955  0.60609436  0.39805201  1
  O  O56  1  0.80251834  0.39463607  0.76848255  1
  O  O57  1  0.60604475  0.19772262  0.64791087  1
  O  O58  1  0.12983073  0.26163331  0.31782360  1
  O  O59  1  0.73874349  0.87064089  0.59924023  1
  O  O60  1  0.26104972  0.12943651  0.40099144  1
  O  O61  1  0.87055213  0.73869409  0.68247688  1
  O  O62  1  0.39507574  0.80303463  0.35237374  1
  O  O63  1  0.19911286  0.60823714  0.23245184  1
  O  O64  1  0.80252185  0.39465063  0.60217096  1
  O  O65  1  0.60616332  0.19782172  0.48131325  1
  O  O66  1  0.13356852  0.26043486  0.15401888  1
  O  O67  1  0.73880171  0.87075650  0.43262054  1
  O  O68  1  0.26166285  0.13204197  0.23553889  1
  O  O69  1  0.87075520  0.73879782  0.51594237  1
  O  O70  1  0.39927949  0.80865808  0.18734605  1
  O  O71  1  0.18170506  0.59848655  0.06251976  1
  O  O72  1  0.80260828  0.39473829  0.43556371  1
  O  O73  1  0.60654283  0.19803922  0.31490555  1
  O  O74  1  0.43234306  0.57194449  0.12636943  1
  O  O75  1  0.73982510  0.87171214  0.26624757  1
  O  O76  1  0.25413441  0.11631900  0.06850555  1
  O  O77  1  0.87132216  0.73898662  0.34937717  1
  O  O78  1  0.39375063  0.81111277  0.01862256  1
  O  O79  1  0.80331826  0.39513029  0.26920880  1
  O  O80  1  0.60939905  0.19817080  0.14926049  1
  O  O81  1  0.74928079  0.89044946  0.09907962  1
  O  O82  1  0.57402634  0.42617176  0.04156804  1
  O  O83  1  0.87666320  0.74100316  0.18357628  1
  O  O84  1  0.82093659  0.40255270  0.10481962  1
  O  O85  1  0.87760499  0.74594020  0.01318232  1
  F  F86  1  0.42675254  0.57085292  0.95580684  1
  F  F87  1  0.43039711  0.56746734  0.79118075  1
  F  F88  1  0.56552649  0.42829066  0.87391965  1
  F  F89  1  0.43165635  0.56813189  0.62500930  1
  F  F90  1  0.56801131  0.43146704  0.70820165  1
  F  F91  1  0.43194196  0.56838518  0.45844113  1
  F  F92  1  0.56830400  0.43181834  0.54172957  1
  F  F93  1  0.43433490  0.57095331  0.29230812  1
  F  F94  1  0.56860727  0.43203413  0.37519192  1
  F  F95  1  0.57087084  0.43445131  0.20909421  1
