# generated using pymatgen
data_Na2Cu(HO)4
_symmetry_space_group_name_H-M   'P 1'
_cell_length_a   6.73945333
_cell_length_b   6.73428013
_cell_length_c   9.06177016
_cell_angle_alpha   90.00000000
_cell_angle_beta   90.00000000
_cell_angle_gamma   90.00000000
_symmetry_Int_Tables_number   1
_chemical_formula_structural   Na2Cu(HO)4
_chemical_formula_sum   'Na8 Cu4 H16 O16'
_cell_volume   411.27176118
_cell_formula_units_Z   4
loop_
 _symmetry_equiv_pos_site_id
 _symmetry_equiv_pos_as_xyz
  1  'x, y, z'
loop_
 _atom_site_type_symbol
 _atom_site_label
 _atom_site_symmetry_multiplicity
 _atom_site_fract_x
 _atom_site_fract_y
 _atom_site_fract_z
 _atom_site_occupancy
  Na  Na0  1  0.00148677  0.79152491  0.74893104  1
  Na  Na1  1  0.99851323  0.20847509  0.24893104  1
  Na  Na2  1  0.49851323  0.29152491  0.24893104  1
  Na  Na3  1  0.50148677  0.70847509  0.74893104  1
  Na  Na4  1  0.75159316  0.49612091  0.49817455  1
  Na  Na5  1  0.24840684  0.50387909  0.99817455  1
  Na  Na6  1  0.74840684  0.99612091  0.99817455  1
  Na  Na7  1  0.25159316  0.00387909  0.49817455  1
  Cu  Cu8  1  0.76386123  0.49693524  0.99936237  1
  Cu  Cu9  1  0.23613877  0.50306476  0.49936237  1
  Cu  Cu10  1  0.73613877  0.99693524  0.49936237  1
  Cu  Cu11  1  0.26386123  0.00306476  0.99936237  1
  H  H12  1  0.09041108  0.53845566  0.25592455  1
  H  H13  1  0.90958892  0.46154434  0.75592455  1
  H  H14  1  0.40958892  0.03845566  0.75592455  1
  H  H15  1  0.59041108  0.96154434  0.25592455  1
  H  H16  1  0.74561050  0.16095945  0.73745248  1
  H  H17  1  0.25438950  0.83904055  0.23745248  1
  H  H18  1  0.75438950  0.66095945  0.23745248  1
  H  H19  1  0.24561050  0.33904055  0.73745248  1
  H  H20  1  0.98985548  0.23548349  0.59511871  1
  H  H21  1  0.01014452  0.76451651  0.09511871  1
  H  H22  1  0.51014452  0.73548349  0.09511871  1
  H  H23  1  0.48985548  0.26451651  0.59511871  1
  H  H24  1  0.99986327  0.25050715  0.90427126  1
  H  H25  1  0.00013673  0.74949285  0.40427126  1
  H  H26  1  0.50013673  0.75050715  0.40427126  1
  H  H27  1  0.49986327  0.24949285  0.90427126  1
  O  O28  1  0.76748935  0.48452430  0.77699970  1
  O  O29  1  0.23251065  0.51547570  0.27699970  1
  O  O30  1  0.73251065  0.98452430  0.27699970  1
  O  O31  1  0.26748935  0.01547570  0.77699970  1
  O  O32  1  0.78974606  0.52067894  0.22031210  1
  O  O33  1  0.21025394  0.47932106  0.72031210  1
  O  O34  1  0.71025394  0.02067894  0.72031210  1
  O  O35  1  0.28974606  0.97932106  0.22031210  1
  O  O36  1  0.55129887  0.69822573  0.99567757  1
  O  O37  1  0.44870113  0.30177427  0.49567757  1
  O  O38  1  0.94870113  0.19822573  0.49567757  1
  O  O39  1  0.05129887  0.80177427  0.99567757  1
  O  O40  1  0.96319467  0.28477990  0.00597567  1
  O  O41  1  0.03680533  0.71522010  0.50597567  1
  O  O42  1  0.53680533  0.78477990  0.50597567  1
  O  O43  1  0.46319467  0.21522010  0.00597567  1
