# generated using pymatgen
data_Na17Zr7Sc5Si6(PO6)12
_symmetry_space_group_name_H-M   'P 1'
_cell_length_a   9.24451877
_cell_length_b   9.27767535
_cell_length_c   27.81113005
_cell_angle_alpha   58.95547847
_cell_angle_beta   59.31089699
_cell_angle_gamma   59.28346762
_symmetry_Int_Tables_number   1
_chemical_formula_structural   Na17Zr7Sc5Si6(PO6)12
_chemical_formula_sum   'Na17 Zr7 Sc5 Si6 P12 O72'
_cell_volume   1655.22983062
_cell_formula_units_Z   1
loop_
 _symmetry_equiv_pos_site_id
 _symmetry_equiv_pos_as_xyz
  1  'x, y, z'
loop_
 _atom_site_type_symbol
 _atom_site_label
 _atom_site_symmetry_multiplicity
 _atom_site_fract_x
 _atom_site_fract_y
 _atom_site_fract_z
 _atom_site_occupancy
  Na  Na0  1  0.01793496  0.99451640  0.32901450  1
  Na  Na1  1  0.37823271  0.75403220  0.03531012  1
  Na  Na2  1  0.75490778  0.10849730  0.12722164  1
  Na  Na3  1  0.48199029  0.50529546  0.16982841  1
  Na  Na4  1  0.01174027  0.99755989  0.66543022  1
  Na  Na5  1  0.61737016  0.24055513  0.29456572  1
  Na  Na6  1  0.88766757  0.62883758  0.08004571  1
  Na  Na7  1  0.74957169  0.10818003  0.46377994  1
  Na  Na8  1  0.48774959  0.50453620  0.50110871  1
  Na  Na9  1  0.24992831  0.87944996  0.54028504  1
  Na  Na10  1  0.61741877  0.24783937  0.62694319  1
  Na  Na11  1  0.88147026  0.62091526  0.41741455  1
  Na  Na12  1  0.75083521  0.10990459  0.79670299  1
  Na  Na13  1  0.48823410  0.50491737  0.83406816  1
  Na  Na14  1  0.24483901  0.88400428  0.87650645  1
  Na  Na15  1  0.62871370  0.24299271  0.96077791  1
  Na  Na16  1  0.88255432  0.61898025  0.75068903  1
  Zr  Zr17  1  0.14733690  0.14509304  0.04522790  1
  Zr  Zr18  1  0.34496356  0.35040203  0.12132841  1
  Zr  Zr19  1  0.15279687  0.14026875  0.37970736  1
  Zr  Zr20  1  0.34572681  0.36240015  0.45338578  1
  Zr  Zr21  1  0.64230974  0.65894897  0.21660421  1
  Zr  Zr22  1  0.15342399  0.14037574  0.71266229  1
  Zr  Zr23  1  0.34441676  0.36367136  0.78637639  1
  Sc  Sc24  1  0.85802236  0.84905169  0.28028191  1
  Sc  Sc25  1  0.65091431  0.65668666  0.55076217  1
  Sc  Sc26  1  0.84854026  0.84756487  0.61468136  1
  Sc  Sc27  1  0.65312088  0.65569219  0.88304544  1
  Sc  Sc28  1  0.85379233  0.85340344  0.94746683  1
  Si  Si29  1  0.04506576  0.74663836  0.15366475  1
  Si  Si30  1  0.45968104  0.04559945  0.25104265  1
  Si  Si31  1  0.04229796  0.75049592  0.48626479  1
  Si  Si32  1  0.45741060  0.04138286  0.58323781  1
  Si  Si33  1  0.04222508  0.75072965  0.81982667  1
  Si  Si34  1  0.46193176  0.04258015  0.91549192  1
  P  P35  1  0.74848903  0.46045070  0.01406205  1
  P  P36  1  0.24781172  0.54396749  0.31917069  1
  P  P37  1  0.54266895  0.95422534  0.08321103  1
  P  P38  1  0.95178240  0.24671889  0.18228770  1
  P  P39  1  0.75056008  0.45892675  0.34783857  1
  P  P40  1  0.25008150  0.54436935  0.65164739  1
  P  P41  1  0.54698710  0.95552822  0.41705281  1
  P  P42  1  0.95280511  0.24932972  0.51477616  1
  P  P43  1  0.74966610  0.45675491  0.68108961  1
  P  P44  1  0.25182693  0.54315656  0.98498742  1
  P  P45  1  0.54655648  0.95606325  0.75034109  1
  P  P46  1  0.95296504  0.24999966  0.84716311  1
  O  O47  1  0.11725322  0.28521471  0.16873157  1
  O  O48  1  0.28496874  0.51213590  0.03987524  1
  O  O49  1  0.06751276  0.92592043  0.09428687  1
  O  O50  1  0.51218140  0.11813210  0.09407936  1
  O  O51  1  0.00943620  0.77464685  0.21150415  1
  O  O52  1  0.23290878  0.58298624  0.13868004  1
  O  O53  1  0.27205896  0.07365027  0.30620207  1
  O  O54  1  0.44375476  0.22082633  0.18946980  1
  O  O55  1  0.58253659  0.43157555  0.07208922  1
  O  O56  1  0.21941862  0.37676706  0.33044316  1
  O  O57  1  0.08273061  0.71326662  0.31405519  1
  O  O58  1  0.37591622  0.98770513  0.07357505  1
  O  O59  1  0.63104144  0.02189405  0.26007919  1
  O  O60  1  0.12239328  0.28022858  0.50142208  1
  O  O61  1  0.90752311  0.28800737  0.02676841  1
  O  O62  1  0.77266410  0.62477077  0.00602935  1
  O  O63  1  0.41768929  0.55803198  0.26231304  1
  O  O64  1  0.28319643  0.50663720  0.37403895  1
  O  O65  1  0.57138613  0.77698345  0.13752602  1
  O  O66  1  0.05723627  0.93249158  0.42626876  1
  O  O67  1  0.51627709  0.12059237  0.42692218  1
  O  O68  1  0.71238605  0.92948244  0.02898313  1
  O  O69  1  0.01774103  0.78557421  0.54209647  1
  O  O70  1  0.22767550  0.58174715  0.47530882  1
  O  O71  1  0.77937750  0.41471527  0.18954940  1
  O  O72  1  0.98062717  0.22060313  0.12700815  1
  O  O73  1  0.27231561  0.07399438  0.63941454  1
  O  O74  1  0.49359536  0.87228756  0.23950858  1
  O  O75  1  0.92657155  0.09060335  0.24147268  1
  O  O76  1  0.44301052  0.22130125  0.52250182  1
  O  O77  1  0.71667979  0.48670654  0.29368554  1
  O  O78  1  0.58942616  0.42436631  0.40591966  1
  O  O79  1  0.21889749  0.37787078  0.66388575  1
  O  O80  1  0.08578424  0.71774672  0.64505813  1
  O  O81  1  0.87053026  0.71827806  0.16157329  1
  O  O82  1  0.37718447  0.99584438  0.40660537  1
  O  O83  1  0.63000872  0.01830227  0.59256826  1
  O  O84  1  0.12262018  0.28030722  0.83423099  1
  O  O85  1  0.91066998  0.28214743  0.35792731  1
  O  O86  1  0.78211699  0.61854553  0.33921467  1
  O  O87  1  0.41433234  0.56466354  0.59392253  1
  O  O88  1  0.28199356  0.50788567  0.70710775  1
  O  O89  1  0.56415431  0.77990135  0.47175373  1
  O  O90  1  0.05700182  0.93223156  0.75962929  1
  O  O91  1  0.51712392  0.12046086  0.76012336  1
  O  O92  1  0.71927459  0.93113709  0.36279122  1
  O  O93  1  0.01753229  0.78445388  0.87569769  1
  O  O94  1  0.22738680  0.58159506  0.80871520  1
  O  O95  1  0.78031305  0.41299986  0.52277192  1
  O  O96  1  0.98300484  0.21992115  0.45976593  1
  O  O97  1  0.28598216  0.06547064  0.97496862  1
  O  O98  1  0.48233015  0.87399481  0.57145430  1
  O  O99  1  0.93527141  0.08530521  0.57327207  1
  O  O100  1  0.44295637  0.22154883  0.85571782  1
  O  O101  1  0.71719201  0.48257920  0.62759742  1
  O  O102  1  0.58899912  0.42379576  0.73974129  1
  O  O103  1  0.22345585  0.37261481  0.99900099  1
  O  O104  1  0.08563388  0.70971708  0.97820486  1
  O  O105  1  0.87029677  0.72208200  0.49382436  1
  O  O106  1  0.37764720  0.99568925  0.73982847  1
  O  O107  1  0.63435119  0.01646923  0.92508413  1
  O  O108  1  0.91052021  0.28080088  0.69187961  1
  O  O109  1  0.78237344  0.61693792  0.67251982  1
  O  O110  1  0.41615422  0.56343256  0.92733844  1
  O  O111  1  0.56438335  0.78068072  0.80507992  1
  O  O112  1  0.71937622  0.93111607  0.69574170  1
  O  O113  1  0.78093288  0.41460330  0.85563909  1
  O  O114  1  0.98311732  0.22485413  0.79129880  1
  O  O115  1  0.48377292  0.86902234  0.90750481  1
  O  O116  1  0.93354960  0.08575699  0.90404367  1
  O  O117  1  0.71619537  0.48457221  0.96092862  1
  O  O118  1  0.87055217  0.72212740  0.82693480  1
