# generated using pymatgen
data_TlCuHSeO5
_symmetry_space_group_name_H-M   'P 1'
_cell_length_a   9.36250474
_cell_length_b   6.10820717
_cell_length_c   4.66586207
_cell_angle_alpha   90.00000000
_cell_angle_beta   97.38138107
_cell_angle_gamma   90.00000000
_symmetry_Int_Tables_number   1
_chemical_formula_structural   TlCuHSeO5
_chemical_formula_sum   'Tl2 Cu2 H2 Se2 O10'
_cell_volume   264.62062761
_cell_formula_units_Z   2
loop_
 _symmetry_equiv_pos_site_id
 _symmetry_equiv_pos_as_xyz
  1  'x, y, z'
loop_
 _atom_site_type_symbol
 _atom_site_label
 _atom_site_symmetry_multiplicity
 _atom_site_fract_x
 _atom_site_fract_y
 _atom_site_fract_z
 _atom_site_occupancy
  Tl  Tl0  1  0.61464897  0.25000000  0.90788656  1
  Tl  Tl1  1  0.38535103  0.75000000  0.09211344  1
  Cu  Cu2  1  0.00000000  0.50000000  0.00000000  1
  Cu  Cu3  1  0.00000000  0.00000000  0.00000000  1
  H  H4  1  0.88914313  0.25000000  0.60370272  1
  H  H5  1  0.11085687  0.75000000  0.39629728  1
  Se  Se6  1  0.23273466  0.25000000  0.51276079  1
  Se  Se7  1  0.76726534  0.75000000  0.48723921  1
  O  O8  1  0.89898062  0.25000000  0.81603035  1
  O  O9  1  0.10101938  0.75000000  0.18396965  1
  O  O10  1  0.21843082  0.47919356  0.70219907  1
  O  O11  1  0.78156918  0.97919356  0.29780093  1
  O  O12  1  0.78156918  0.52080644  0.29780093  1
  O  O13  1  0.21843082  0.02080644  0.70219907  1
  O  O14  1  0.38048883  0.25000000  0.34891852  1
  O  O15  1  0.61951117  0.75000000  0.65108148  1
  O  O16  1  0.07775941  0.25000000  0.25041890  1
  O  O17  1  0.92224059  0.75000000  0.74958110  1
