# generated using pymatgen
data_Ti3Fe5O12
_symmetry_space_group_name_H-M   'P 1'
_cell_length_a   5.57616074
_cell_length_b   22.16403924
_cell_length_c   9.81607926
_cell_angle_alpha   27.80426266
_cell_angle_beta   49.98121039
_cell_angle_gamma   55.32814465
_symmetry_Int_Tables_number   1
_chemical_formula_structural   Ti3Fe5O12
_chemical_formula_sum   'Ti6 Fe10 O24'
_cell_volume   433.37518418
_cell_formula_units_Z   2
loop_
 _symmetry_equiv_pos_site_id
 _symmetry_equiv_pos_as_xyz
  1  'x, y, z'
loop_
 _atom_site_type_symbol
 _atom_site_label
 _atom_site_symmetry_multiplicity
 _atom_site_fract_x
 _atom_site_fract_y
 _atom_site_fract_z
 _atom_site_occupancy
  Ti  Ti0  1  0.35569845  0.99937838  0.35772785  1
  Ti  Ti1  1  0.15556632  0.49642892  0.14864752  1
  Ti  Ti2  1  0.84949307  0.99490527  0.86432704  1
  Ti  Ti3  1  0.84091138  0.25306311  0.85275117  1
  Ti  Ti4  1  0.85468832  0.50071287  0.84968256  1
  Ti  Ti5  1  0.87275847  0.74821637  0.84855414  1
  Fe  Fe6  1  0.14503707  0.00149446  0.14189429  1
  Fe  Fe7  1  0.14305718  0.25104501  0.14471139  1
  Fe  Fe8  1  0.35926533  0.24941812  0.35184150  1
  Fe  Fe9  1  0.64090930  0.99755963  0.65075312  1
  Fe  Fe10  1  0.35472664  0.49805906  0.36438601  1
  Fe  Fe11  1  0.63803353  0.24665660  0.64724652  1
  Fe  Fe12  1  0.14326792  0.74978229  0.15190932  1
  Fe  Fe13  1  0.35748429  0.75261734  0.34942294  1
  Fe  Fe14  1  0.64097829  0.50460728  0.63466364  1
  Fe  Fe15  1  0.64913670  0.74851585  0.64779551  1
  O  O16  1  0.08279926  0.07554501  0.43269695  1
  O  O17  1  0.73281915  0.08714343  0.08307997  1
  O  O18  1  0.56592394  0.18506367  0.22080990  1
  O  O19  1  0.06914550  0.33011427  0.43559124  1
  O  O20  1  0.44959230  0.08141409  0.74205530  1
  O  O21  1  0.75206432  0.34526372  0.05948712  1
  O  O22  1  0.20398243  0.14813170  0.96906220  1
  O  O23  1  0.56124952  0.43483468  0.21748610  1
  O  O24  1  0.03975573  0.58041529  0.44881108  1
  O  O25  1  0.96028607  0.16413870  0.56285667  1
  O  O26  1  0.45733760  0.31750509  0.76398861  1
  O  O27  1  0.78627540  0.59576500  0.05427149  1
  O  O28  1  0.22044726  0.40115087  0.95844383  1
  O  O29  1  0.56755346  0.68924014  0.20375757  1
  O  O30  1  0.04945452  0.82818030  0.45151278  1
  O  O31  1  0.94971509  0.41066761  0.56965097  1
  O  O32  1  0.43212640  0.56836976  0.78039657  1
  O  O33  1  0.76343231  0.85286413  0.04900197  1
  O  O34  1  0.22600397  0.65304477  0.95621508  1
  O  O35  1  0.56240899  0.93826240  0.21604758  1
  O  O36  1  0.94825575  0.66126028  0.57338514  1
  O  O37  1  0.43388765  0.83739612  0.73231525  1
  O  O38  1  0.21437235  0.90820402  0.94798320  1
  O  O39  1  0.97009880  0.91356441  0.56477889  1
