# generated using pymatgen
data_BaLa3TiCr3O12
_symmetry_space_group_name_H-M   'P 1'
_cell_length_a   5.60077603
_cell_length_b   22.31708805
_cell_length_c   9.65818692
_cell_angle_alpha   30.05536924
_cell_angle_beta   55.15633640
_cell_angle_gamma   60.36203173
_symmetry_Int_Tables_number   1
_chemical_formula_structural   BaLa3TiCr3O12
_chemical_formula_sum   'Ba2 La6 Ti2 Cr6 O24'
_cell_volume   496.21435784
_cell_formula_units_Z   2
loop_
 _symmetry_equiv_pos_site_id
 _symmetry_equiv_pos_as_xyz
  1  'x, y, z'
loop_
 _atom_site_type_symbol
 _atom_site_label
 _atom_site_symmetry_multiplicity
 _atom_site_fract_x
 _atom_site_fract_y
 _atom_site_fract_z
 _atom_site_occupancy
  Ba  Ba0  1  0.25000000  0.99736807  0.25526385  1
  Ba  Ba1  1  0.75000000  0.00263193  0.74473615  1
  La  La2  1  0.25000000  0.25156760  0.24686481  1
  La  La3  1  0.25000000  0.50655350  0.23689300  1
  La  La4  1  0.25000000  0.74582073  0.25835854  1
  La  La5  1  0.75000000  0.25417927  0.74164146  1
  La  La6  1  0.75000000  0.49344650  0.76310700  1
  La  La7  1  0.75000000  0.74843240  0.75313519  1
  Ti  Ti8  1  0.00000000  0.00000000  0.00000000  1
  Ti  Ti9  1  0.50000000  0.00000000  0.50000000  1
  Cr  Cr10  1  0.99696562  0.25289457  0.99366991  1
  Cr  Cr11  1  0.00000000  0.50000000  0.00000000  1
  Cr  Cr12  1  0.50303438  0.25289457  0.49475183  1
  Cr  Cr13  1  0.50000000  0.50000000  0.50000000  1
  Cr  Cr14  1  0.49696562  0.74710543  0.50524817  1
  Cr  Cr15  1  0.00303438  0.74710543  0.00633009  1
  O  O16  1  0.30015381  0.13991946  0.19948353  1
  O  O17  1  0.25000000  0.02274603  0.70450794  1
  O  O18  1  0.19984619  0.13991946  0.74083865  1
  O  O19  1  0.31207778  0.39332477  0.18525488  1
  O  O20  1  0.77224286  0.11927261  0.24096846  1
  O  O21  1  0.25000000  0.28469301  0.68061399  1
  O  O22  1  0.75000000  0.24076082  0.26847836  1
  O  O23  1  0.18792222  0.39332477  0.74144602  1
  O  O24  1  0.72775714  0.11927261  0.78194109  1
  O  O25  1  0.31965463  0.64105991  0.18704209  1
  O  O26  1  0.81965463  0.35894009  0.25128172  1
  O  O27  1  0.25000000  0.53178274  0.68643452  1
  O  O28  1  0.75000000  0.46821726  0.31356548  1
  O  O29  1  0.18034537  0.64105991  0.74871828  1
  O  O30  1  0.68034537  0.35894009  0.81295791  1
  O  O31  1  0.27224286  0.88072739  0.21805891  1
  O  O32  1  0.81207778  0.60667523  0.25855398  1
  O  O33  1  0.25000000  0.75923918  0.73152164  1
  O  O34  1  0.75000000  0.71530699  0.31938601  1
  O  O35  1  0.22775714  0.88072739  0.75903154  1
  O  O36  1  0.68792222  0.60667523  0.81474512  1
  O  O37  1  0.80015381  0.86008054  0.25916135  1
  O  O38  1  0.75000000  0.97725397  0.29549206  1
  O  O39  1  0.69984619  0.86008054  0.80051647  1
