# generated using pymatgen
data_Li3Cr2(PO4)3
_symmetry_space_group_name_H-M   'P 1'
_cell_length_a   8.70558741
_cell_length_b   8.68491363
_cell_length_c   8.70558715
_cell_angle_alpha   60.11979177
_cell_angle_beta   120.43943629
_cell_angle_gamma   119.88020912
_symmetry_Int_Tables_number   1
_chemical_formula_structural   Li3Cr2(PO4)3
_chemical_formula_sum   'Li6 Cr4 P6 O24'
_cell_volume   464.68900036
_cell_formula_units_Z   2
loop_
 _symmetry_equiv_pos_site_id
 _symmetry_equiv_pos_as_xyz
  1  'x, y, z'
loop_
 _atom_site_type_symbol
 _atom_site_label
 _atom_site_symmetry_multiplicity
 _atom_site_fract_x
 _atom_site_fract_y
 _atom_site_fract_z
 _atom_site_occupancy
  Li  Li0  1  0.88843270  0.82774383  0.25760521  1
  Li  Li1  1  0.35107789  0.56339398  0.96395641  1
  Li  Li2  1  0.74239479  0.32774383  0.11156730  1
  Li  Li3  1  0.61730753  0.73065333  0.63476088  1
  Li  Li4  1  0.36523912  0.23065333  0.38269247  1
  Li  Li5  1  0.03604359  0.06339398  0.64892211  1
  Cr  Cr6  1  0.64696048  0.93866879  0.84737648  1
  Cr  Cr7  1  0.15262352  0.43866879  0.35303952  1
  Cr  Cr8  1  0.35421798  0.06859344  0.14717507  1
  Cr  Cr9  1  0.85282493  0.56859344  0.64578202  1
  P  P10  1  0.95299539  0.75118877  0.95563100  1
  P  P11  1  0.04436900  0.25118877  0.04700461  1
  P  P12  1  0.24950423  0.76129204  0.52730899  1
  P  P13  1  0.75283066  0.24115165  0.47137902  1
  P  P14  1  0.47269101  0.26129204  0.75049577  1
  P  P15  1  0.52862098  0.74115165  0.24716934  1
  O  O16  1  0.75172849  0.38800612  0.51704254  1
  O  O17  1  0.59287362  0.23892906  0.27789257  1
  O  O18  1  0.24187634  0.26607502  0.07095860  1
  O  O19  1  0.40352197  0.75997968  0.72446410  1
  O  O20  1  0.47264628  0.21211187  0.94622442  1
  O  O21  1  0.28324656  0.96032975  0.37627283  1
  O  O22  1  0.27553590  0.25997968  0.59647803  1
  O  O23  1  0.51864798  0.12183161  0.73507844  1
  O  O24  1  0.48295746  0.88800612  0.24827151  1
  O  O25  1  0.01223467  0.43051143  0.88383442  1
  O  O26  1  0.37361924  0.54435159  0.27370338  1
  O  O27  1  0.55224816  0.78090989  0.06523899  1
  O  O28  1  0.05377558  0.71211187  0.52735372  1
  O  O29  1  0.72210743  0.73892906  0.40712638  1
  O  O30  1  0.11616558  0.93051143  0.98776533  1
  O  O31  1  0.76460051  0.74393005  0.94210481  1
  O  O32  1  0.05789519  0.24393005  0.23539949  1
  O  O33  1  0.88790626  0.06580409  0.01947081  1
  O  O34  1  0.26492156  0.62183161  0.48135202  1
  O  O35  1  0.62372717  0.46032975  0.71675344  1
  O  O36  1  0.72629662  0.04435159  0.62638076  1
  O  O37  1  0.98052919  0.56580409  0.11209374  1
  O  O38  1  0.93476101  0.28090989  0.44775184  1
  O  O39  1  0.92904140  0.76607502  0.75812366  1
