# generated using pymatgen
data_MnP2O7
_symmetry_space_group_name_H-M   'P 1'
_cell_length_a   5.01705553
_cell_length_b   6.30931236
_cell_length_c   8.61937219
_cell_angle_alpha   113.00158155
_cell_angle_beta   92.30396572
_cell_angle_gamma   87.04869229
_symmetry_Int_Tables_number   1
_chemical_formula_structural   MnP2O7
_chemical_formula_sum   'Mn2 P4 O14'
_cell_volume   250.75378901
_cell_formula_units_Z   2
loop_
 _symmetry_equiv_pos_site_id
 _symmetry_equiv_pos_as_xyz
  1  'x, y, z'
loop_
 _atom_site_type_symbol
 _atom_site_label
 _atom_site_symmetry_multiplicity
 _atom_site_fract_x
 _atom_site_fract_y
 _atom_site_fract_z
 _atom_site_occupancy
  Mn  Mn0  1  0.76064755  0.56536528  0.27290381  1
  Mn  Mn1  1  0.23935245  0.43463472  0.72709619  1
  P  P2  1  0.29548028  0.28029612  0.34313060  1
  P  P3  1  0.78095193  0.21849889  0.86154116  1
  P  P4  1  0.21904807  0.78150111  0.13845884  1
  P  P5  1  0.70451972  0.71970388  0.65686940  1
  O  O6  1  0.25849877  0.04908104  0.17734759  1
  O  O7  1  0.93818945  0.77690676  0.20280703  1
  O  O8  1  0.23641945  0.67268835  0.94800950  1
  O  O9  1  0.43373943  0.70156028  0.23420158  1
  O  O10  1  0.76358055  0.32731165  0.05199050  1
  O  O11  1  0.41533821  0.64975709  0.65905149  1
  O  O12  1  0.25427939  0.21361730  0.49423261  1
  O  O13  1  0.74572061  0.78638270  0.50576739  1
  O  O14  1  0.74150123  0.95091896  0.82265241  1
  O  O15  1  0.58466179  0.35024291  0.34094851  1
  O  O16  1  0.56626057  0.29843972  0.76579842  1
  O  O17  1  0.06181055  0.22309324  0.79719297  1
  O  O18  1  0.09808146  0.46143302  0.32765548  1
  O  O19  1  0.90191854  0.53856698  0.67234452  1
