# generated using pymatgen
data_FePO4
_symmetry_space_group_name_H-M   'P 1'
_cell_length_a   8.73167450
_cell_length_b   8.73167433
_cell_length_c   8.73167469
_cell_angle_alpha   108.14477908
_cell_angle_beta   108.14477868
_cell_angle_gamma   108.14477978
_symmetry_Int_Tables_number   1
_chemical_formula_structural   FePO4
_chemical_formula_sum   'Fe6 P6 O24'
_cell_volume   536.16428673
_cell_formula_units_Z   6
loop_
 _symmetry_equiv_pos_site_id
 _symmetry_equiv_pos_as_xyz
  1  'x, y, z'
loop_
 _atom_site_type_symbol
 _atom_site_label
 _atom_site_symmetry_multiplicity
 _atom_site_fract_x
 _atom_site_fract_y
 _atom_site_fract_z
 _atom_site_occupancy
  Fe  Fe0  1  0.76189102  0.94367381  0.52957278  1
  Fe  Fe1  1  0.94367381  0.52957278  0.76189102  1
  Fe  Fe2  1  0.45301004  0.23784471  0.04761059  1
  Fe  Fe3  1  0.23784471  0.04761059  0.45301004  1
  Fe  Fe4  1  0.52957278  0.76189102  0.94367381  1
  Fe  Fe5  1  0.04761059  0.45301004  0.23784471  1
  P  P6  1  0.87568427  0.09136924  0.28511352  1
  P  P7  1  0.38812046  0.79642054  0.56884513  1
  P  P8  1  0.09136924  0.28511352  0.87568427  1
  P  P9  1  0.56884513  0.38812046  0.79642054  1
  P  P10  1  0.79642054  0.56884513  0.38812046  1
  P  P11  1  0.28511352  0.87568427  0.09136924  1
  O  O12  1  0.91118590  0.57749208  0.28316047  1
  O  O13  1  0.99477277  0.32125449  0.99572872  1
  O  O14  1  0.08291442  0.73582090  0.99262669  1
  O  O15  1  0.28316047  0.91118590  0.57749208  1
  O  O16  1  0.91414852  0.61056009  0.58345827  1
  O  O17  1  0.99572872  0.99477277  0.32125449  1
  O  O18  1  0.37778803  0.29118402  0.63284132  1
  O  O19  1  0.99698072  0.28834192  0.33402820  1
  O  O20  1  0.73582090  0.99262669  0.08291442  1
  O  O21  1  0.40445910  0.77589161  0.08822492  1
  O  O22  1  0.58345827  0.91414852  0.61056009  1
  O  O23  1  0.63284132  0.37778803  0.29118402  1
  O  O24  1  0.32125449  0.99572872  0.99477277  1
  O  O25  1  0.71024426  0.39046798  0.72498149  1
  O  O26  1  0.29118402  0.63284132  0.37778803  1
  O  O27  1  0.33402820  0.99698072  0.28834192  1
  O  O28  1  0.57749208  0.28316047  0.91118590  1
  O  O29  1  0.77589161  0.08822492  0.40445910  1
  O  O30  1  0.08822492  0.40445910  0.77589161  1
  O  O31  1  0.99262669  0.08291442  0.73582090  1
  O  O32  1  0.61056009  0.58345827  0.91414852  1
  O  O33  1  0.28834192  0.33402820  0.99698072  1
  O  O34  1  0.39046798  0.72498149  0.71024426  1
  O  O35  1  0.72498149  0.71024426  0.39046798  1
