# generated using pymatgen
data_Mo2P3O13
_symmetry_space_group_name_H-M   'P 1'
_cell_length_a   8.95840632
_cell_length_b   9.08685042
_cell_length_c   9.07790261
_cell_angle_alpha   105.77348871
_cell_angle_beta   69.21448156
_cell_angle_gamma   68.90940849
_symmetry_Int_Tables_number   1
_chemical_formula_structural   Mo2P3O13
_chemical_formula_sum   'Mo4 P6 O26'
_cell_volume   573.00796886
_cell_formula_units_Z   2
loop_
 _symmetry_equiv_pos_site_id
 _symmetry_equiv_pos_as_xyz
  1  'x, y, z'
loop_
 _atom_site_type_symbol
 _atom_site_label
 _atom_site_symmetry_multiplicity
 _atom_site_fract_x
 _atom_site_fract_y
 _atom_site_fract_z
 _atom_site_occupancy
  Mo  Mo0  1  0.82510563  0.83296663  0.15673549  1
  Mo  Mo1  1  0.67469916  0.34288205  0.66704078  1
  Mo  Mo2  1  0.17489437  0.16703337  0.84326451  1
  Mo  Mo3  1  0.32530084  0.65711795  0.33295922  1
  P  P4  1  0.43823248  0.73747060  0.65021277  1
  P  P5  1  0.56176752  0.26252940  0.34978723  1
  P  P6  1  0.74947646  0.51066467  0.99186473  1
  P  P7  1  0.25052354  0.48933533  0.00813527  1
  P  P8  1  0.06179230  0.85111595  0.76345835  1
  P  P9  1  0.93820770  0.14888405  0.23654165  1
  O  O10  1  0.90678428  0.85040069  0.89950766  1
  O  O11  1  0.28129505  0.29936260  0.94173616  1
  O  O12  1  0.77711101  0.44415737  0.80300228  1
  O  O13  1  0.39938112  0.92859273  0.74390820  1
  O  O14  1  0.45867515  0.70055967  0.46538843  1
  O  O15  1  0.60061888  0.07140727  0.25609180  1
  O  O16  1  0.72941263  0.15520492  0.69194900  1
  O  O17  1  0.89757629  0.24282564  0.42843524  1
  O  O18  1  0.10242371  0.75717436  0.57156476  1
  O  O19  1  0.42070506  0.49022102  0.88561310  1
  O  O20  1  0.09321572  0.14959931  0.10049234  1
  O  O21  1  0.27058737  0.84479508  0.30805100  1
  O  O22  1  0.23053140  0.18937079  0.65462798  1
  O  O23  1  0.75030261  0.25964146  0.23635945  1
  O  O24  1  0.24969739  0.74035854  0.76364055  1
  O  O25  1  0.54132485  0.29944033  0.53461157  1
  O  O26  1  0.07769639  0.61090247  0.00932796  1
  O  O27  1  0.71870495  0.70063740  0.05826384  1
  O  O28  1  0.96110557  0.96302627  0.19806156  1
  O  O29  1  0.76946860  0.81062921  0.34537202  1
  O  O30  1  0.92230361  0.38909753  0.99067204  1
  O  O31  1  0.57929494  0.50977898  0.11438690  1
  O  O32  1  0.03889443  0.03697373  0.80193844  1
  O  O33  1  0.59406797  0.59859299  0.64819299  1
  O  O34  1  0.22288899  0.55584263  0.19699772  1
  O  O35  1  0.40593203  0.40140701  0.35180701  1
