# generated using pymatgen
data_FeBi25O39
_symmetry_space_group_name_H-M   'P 1'
_cell_length_a   17.91192997
_cell_length_b   10.33176758
_cell_length_c   10.32855368
_cell_angle_alpha   89.84989645
_cell_angle_beta   54.78341151
_cell_angle_gamma   54.54096242
_symmetry_Int_Tables_number   1
_chemical_formula_structural   FeBi25O39
_chemical_formula_sum   'Fe1 Bi25 O39'
_cell_volume   1102.44283745
_cell_formula_units_Z   1
loop_
 _symmetry_equiv_pos_site_id
 _symmetry_equiv_pos_as_xyz
  1  'x, y, z'
loop_
 _atom_site_type_symbol
 _atom_site_label
 _atom_site_symmetry_multiplicity
 _atom_site_fract_x
 _atom_site_fract_y
 _atom_site_fract_z
 _atom_site_occupancy
  Fe  Fe0  1  0.50037034  0.99924685  0.00003666  1
  Bi  Bi1  1  0.01245776  0.67173027  0.16483416  1
  Bi  Bi2  1  0.18735064  0.13740827  0.29815849  1
  Bi  Bi3  1  0.01630424  0.31542343  0.80074999  1
  Bi  Bi4  1  0.18521926  0.49083604  0.32459115  1
  Bi  Bi5  1  0.17745214  0.81015681  0.13692352  1
  Bi  Bi6  1  0.32868714  0.18299622  0.48890410  1
  Bi  Bi7  1  0.18208877  0.82869379  0.49191091  1
  Bi  Bi8  1  0.48625005  0.32608211  0.18869690  1
  Bi  Bi9  1  0.98462095  0.03080065  0.99580517  1
  Bi  Bi10  1  0.32387643  0.16602580  0.86064483  1
  Bi  Bi11  1  0.31684247  0.50513437  0.69517929  1
  Bi  Bi12  1  0.51183837  0.67396314  0.16493619  1
  Bi  Bi13  1  0.31386235  0.86269685  0.67336781  1
  Bi  Bi14  1  0.67625654  0.14230861  0.31264211  1
  Bi  Bi15  1  0.51068432  0.30424011  0.81307029  1
  Bi  Bi16  1  0.66802009  0.51480152  0.34800161  1
  Bi  Bi17  1  0.67686646  0.81077829  0.13694873  1
  Bi  Bi18  1  0.48767397  0.69450982  0.84071811  1
  Bi  Bi19  1  0.82344101  0.18947471  0.48953249  1
  Bi  Bi20  1  0.67518333  0.83894112  0.51203887  1
  Bi  Bi21  1  0.98881154  0.33570425  0.19243764  1
  Bi  Bi22  1  0.81706754  0.16690873  0.85018352  1
  Bi  Bi23  1  0.81378623  0.50928831  0.69809403  1
  Bi  Bi24  1  0.81818732  0.85334794  0.66974850  1
  Bi  Bi25  1  0.98735506  0.69782601  0.83553448  1
  O  O26  1  0.11584193  0.98865614  0.99486958  1
  O  O27  1  0.01277712  0.23831399  0.35734137  1
  O  O28  1  0.13151730  0.37863545  0.12053204  1
  O  O29  1  0.31048154  0.99759911  0.99749769  1
  O  O30  1  0.19120484  0.61758057  0.99947848  1
  O  O31  1  0.13476124  0.35311083  0.61391422  1
  O  O32  1  0.39232388  0.21578104  0.99987681  1
  O  O33  1  0.39335270  0.99844881  0.21540476  1
  O  O34  1  0.01030616  0.73730806  0.61953354  1
  O  O35  1  0.25163410  0.61702055  0.23789558  1
  O  O36  1  0.25122931  0.11827437  0.75946272  1
  O  O37  1  0.30847501  0.38078737  0.38313210  1
  O  O38  1  0.60888948  0.99742408  0.99943238  1
  O  O39  1  0.25322375  0.37632494  0.73539677  1
  O  O40  1  0.11415643  0.76868878  0.77862252  1
  O  O41  1  0.25452527  0.87768127  0.25591031  1
  O  O42  1  0.37112929  0.61689426  0.37617215  1
  O  O43  1  0.51116997  0.23538842  0.35683948  1
  O  O44  1  0.18449192  0.00065945  0.62895661  1
  O  O45  1  0.49043839  0.25676354  0.64115549  1
  O  O46  1  0.63429422  0.37978734  0.11598122  1
  O  O47  1  0.81407870  0.00142798  0.00023743  1
  O  O48  1  0.49001576  0.76032386  0.38104475  1
  O  O49  1  0.36999304  0.64196868  0.88173088  1
  O  O50  1  0.69185568  0.61603573  0.99977843  1
  O  O51  1  0.63066979  0.35824344  0.61999546  1
  O  O52  1  0.89477837  0.99234518  0.21828864  1
  O  O53  1  0.51219515  0.73922265  0.62238345  1
  O  O54  1  0.75052281  0.61522602  0.23521951  1
  O  O55  1  0.74826456  0.11686235  0.76347264  1
  O  O56  1  0.81374793  0.37356925  0.37135123  1
  O  O57  1  0.75028712  0.37819969  0.73897736  1
  O  O58  1  0.60814190  0.78293588  0.78551840  1
  O  O59  1  0.74860656  0.88065956  0.26364348  1
  O  O60  1  0.86814661  0.62049163  0.38531750  1
  O  O61  1  0.69212254  0.99951992  0.61823344  1
  O  O62  1  0.98594240  0.26359342  0.64802223  1
  O  O63  1  0.98793092  0.76020404  0.38162698  1
  O  O64  1  0.87104200  0.63847833  0.87806278  1
