# generated using pymatgen
data_Ba5B20(H2O19)2
_symmetry_space_group_name_H-M   'P 1'
_cell_length_a   9.63173925
_cell_length_b   6.79687763
_cell_length_c   11.82095002
_cell_angle_alpha   90.00000000
_cell_angle_beta   94.96457492
_cell_angle_gamma   90.00000000
_symmetry_Int_Tables_number   1
_chemical_formula_structural   Ba5B20(H2O19)2
_chemical_formula_sum   'Ba5 B20 H4 O38'
_cell_volume   770.96415031
_cell_formula_units_Z   1
loop_
 _symmetry_equiv_pos_site_id
 _symmetry_equiv_pos_as_xyz
  1  'x, y, z'
loop_
 _atom_site_type_symbol
 _atom_site_label
 _atom_site_symmetry_multiplicity
 _atom_site_fract_x
 _atom_site_fract_y
 _atom_site_fract_z
 _atom_site_occupancy
  Ba  Ba0  1  0.00000000  0.00611243  0.00000000  1
  Ba  Ba1  1  0.38423298  0.76674146  0.30199943  1
  Ba  Ba2  1  0.61576702  0.76674146  0.69800057  1
  Ba  Ba3  1  0.61855277  0.25266451  0.17559228  1
  Ba  Ba4  1  0.38144723  0.25266451  0.82440772  1
  B  B5  1  0.28509161  0.26993408  0.14264480  1
  B  B6  1  0.71490839  0.26993408  0.85735520  1
  B  B7  1  0.36442213  0.93989735  0.03406854  1
  B  B8  1  0.63557787  0.93989735  0.96593146  1
  B  B9  1  0.95425041  0.78292891  0.30983358  1
  B  B10  1  0.04574959  0.78292891  0.69016642  1
  B  B11  1  0.06971888  0.28117224  0.24515477  1
  B  B12  1  0.93028112  0.28117224  0.75484523  1
  B  B13  1  0.32140986  0.57708421  0.00777978  1
  B  B14  1  0.67859014  0.57708421  0.99222022  1
  B  B15  1  0.29664984  0.30616585  0.35716243  1
  B  B16  1  0.70335016  0.30616585  0.64283757  1
  B  B17  1  0.65769847  0.07423135  0.48363837  1
  B  B18  1  0.34230153  0.07423135  0.51636163  1
  B  B19  1  0.75750401  0.80446236  0.15462095  1
  B  B20  1  0.24249599  0.80446236  0.84537905  1
  B  B21  1  0.71299170  0.77312616  0.36077418  1
  B  B22  1  0.28700830  0.77312616  0.63922582  1
  B  B23  1  0.67040759  0.42692973  0.44533812  1
  B  B24  1  0.32959241  0.42692973  0.55466188  1
  H  H25  1  0.11177211  0.76871990  0.42614147  1
  H  H26  1  0.88822789  0.76871990  0.57385853  1
  H  H27  1  0.89622455  0.26884666  0.31835704  1
  H  H28  1  0.10377545  0.26884666  0.68164296  1
  O  O29  1  0.12941405  0.27811991  0.14346452  1
  O  O30  1  0.87058595  0.27811991  0.85653548  1
  O  O31  1  0.09744015  0.78061565  0.34344777  1
  O  O32  1  0.90255985  0.78061565  0.65655223  1
  O  O33  1  0.36574616  0.72997054  0.07724810  1
  O  O34  1  0.63425384  0.72997054  0.92275190  1
  O  O35  1  0.90999898  0.80125020  0.19678658  1
  O  O36  1  0.09000102  0.80125020  0.80321342  1
  O  O37  1  0.35139090  0.35625376  0.24970458  1
  O  O38  1  0.64860910  0.35625376  0.75029542  1
  O  O39  1  0.68634067  0.22850583  0.40965959  1
  O  O40  1  0.31365933  0.22850583  0.59034041  1
  O  O41  1  0.74135703  0.95476631  0.06447197  1
  O  O42  1  0.25864297  0.95476631  0.93552803  1
  O  O43  1  0.50000000  0.00732513  0.00000000  1
  O  O44  1  0.32771769  0.06114521  0.13213403  1
  O  O45  1  0.67228231  0.06114521  0.86786597  1
  O  O46  1  0.86333605  0.77067408  0.39299202  1
  O  O47  1  0.13666395  0.77067408  0.60700798  1
  O  O48  1  0.92356228  0.26976046  0.24101080  1
  O  O49  1  0.07643772  0.26976046  0.75898920  1
  O  O50  1  0.14454029  0.28616151  0.34737928  1
  O  O51  1  0.85545971  0.28616151  0.65262072  1
  O  O52  1  0.32953687  0.38237588  0.04347242  1
  O  O53  1  0.67046313  0.38237588  0.95652758  1
  O  O54  1  0.71826996  0.60729196  0.10585537  1
  O  O55  1  0.28173004  0.60729196  0.89414463  1
  O  O56  1  0.33471708  0.46612252  0.44241338  1
  O  O57  1  0.66528292  0.46612252  0.55758662  1
  O  O58  1  0.36091123  0.11949984  0.40575837  1
  O  O59  1  0.63908877  0.11949984  0.59424163  1
  O  O60  1  0.64309426  0.88232908  0.44970405  1
  O  O61  1  0.35690574  0.88232908  0.55029595  1
  O  O62  1  0.67390828  0.85675426  0.24918606  1
  O  O63  1  0.32609172  0.85675426  0.75081394  1
  O  O64  1  0.65767725  0.56270080  0.35982463  1
  O  O65  1  0.34232275  0.56270080  0.64017537  1
  O  O66  1  0.00000000  0.59675731  0.00000000  1
