# generated using pymatgen
data_SrMg30SiO32
_symmetry_space_group_name_H-M   'P 1'
_cell_length_a   8.63550279
_cell_length_b   8.63037274
_cell_length_c   8.63037274
_cell_angle_alpha   90.00000000
_cell_angle_beta   90.00000000
_cell_angle_gamma   90.00000000
_symmetry_Int_Tables_number   1
_chemical_formula_structural   SrMg30SiO32
_chemical_formula_sum   'Sr1 Mg30 Si1 O32'
_cell_volume   643.20103538
_cell_formula_units_Z   1
loop_
 _symmetry_equiv_pos_site_id
 _symmetry_equiv_pos_as_xyz
  1  'x, y, z'
loop_
 _atom_site_type_symbol
 _atom_site_label
 _atom_site_symmetry_multiplicity
 _atom_site_fract_x
 _atom_site_fract_y
 _atom_site_fract_z
 _atom_site_occupancy
  Sr  Sr0  1  0.00000000  0.50000000  0.50000000  1
  Mg  Mg1  1  0.00000000  -0.00000000  0.50000000  1
  Mg  Mg2  1  0.00000000  0.50000000  0.00000000  1
  Mg  Mg3  1  0.50000000  -0.00000000  0.00000000  1
  Mg  Mg4  1  0.50000000  -0.00000000  0.50000000  1
  Mg  Mg5  1  0.50000000  0.50000000  0.00000000  1
  Mg  Mg6  1  0.50000000  0.50000000  0.50000000  1
  Mg  Mg7  1  0.00000000  0.24628931  0.24628931  1
  Mg  Mg8  1  0.00000000  0.24628931  0.75371069  1
  Mg  Mg9  1  0.00000000  0.75371069  0.24628931  1
  Mg  Mg10  1  0.00000000  0.75371069  0.75371069  1
  Mg  Mg11  1  0.50000000  0.24959542  0.24959542  1
  Mg  Mg12  1  0.50000000  0.24959542  0.75040458  1
  Mg  Mg13  1  0.50000000  0.75040458  0.24959542  1
  Mg  Mg14  1  0.50000000  0.75040458  0.75040458  1
  Mg  Mg15  1  0.25202205  -0.00000000  0.25092036  1
  Mg  Mg16  1  0.25202205  -0.00000000  0.74907964  1
  Mg  Mg17  1  0.25516439  0.50000000  0.24484773  1
  Mg  Mg18  1  0.25516439  0.50000000  0.75515227  1
  Mg  Mg19  1  0.74797795  -0.00000000  0.25092036  1
  Mg  Mg20  1  0.74797795  -0.00000000  0.74907964  1
  Mg  Mg21  1  0.74483561  0.50000000  0.24484773  1
  Mg  Mg22  1  0.74483561  0.50000000  0.75515227  1
  Mg  Mg23  1  0.25202205  0.25092036  0.00000000  1
  Mg  Mg24  1  0.25516439  0.24484773  0.50000000  1
  Mg  Mg25  1  0.25202205  0.74907964  0.00000000  1
  Mg  Mg26  1  0.25516439  0.75515227  0.50000000  1
  Mg  Mg27  1  0.74797795  0.25092036  0.00000000  1
  Mg  Mg28  1  0.74483561  0.24484773  0.50000000  1
  Mg  Mg29  1  0.74797795  0.74907964  0.00000000  1
  Mg  Mg30  1  0.74483561  0.75515227  0.50000000  1
  Si  Si31  1  0.00000000  -0.00000000  0.00000000  1
  O  O32  1  0.26091639  -0.00000000  0.00000000  1
  O  O33  1  0.25527725  -0.00000000  0.50000000  1
  O  O34  1  0.25527725  0.50000000  0.00000000  1
  O  O35  1  0.27019894  0.50000000  0.50000000  1
  O  O36  1  0.73908361  -0.00000000  0.00000000  1
  O  O37  1  0.74472275  -0.00000000  0.50000000  1
  O  O38  1  0.74472275  0.50000000  0.00000000  1
  O  O39  1  0.72980106  0.50000000  0.50000000  1
  O  O40  1  0.24947435  0.24969045  0.24969045  1
  O  O41  1  0.24947435  0.24969045  0.75030955  1
  O  O42  1  0.24947435  0.75030955  0.24969045  1
  O  O43  1  0.24947435  0.75030955  0.75030955  1
  O  O44  1  0.75052565  0.24969045  0.24969045  1
  O  O45  1  0.75052565  0.24969045  0.75030955  1
  O  O46  1  0.75052565  0.75030955  0.24969045  1
  O  O47  1  0.75052565  0.75030955  0.75030955  1
  O  O48  1  0.00000000  -0.00000000  0.25611362  1
  O  O49  1  0.00000000  -0.00000000  0.74388638  1
  O  O50  1  0.00000000  0.50000000  0.23065148  1
  O  O51  1  0.00000000  0.50000000  0.76934852  1
  O  O52  1  0.50000000  -0.00000000  0.25054608  1
  O  O53  1  0.50000000  -0.00000000  0.74945392  1
  O  O54  1  0.50000000  0.50000000  0.24646515  1
  O  O55  1  0.50000000  0.50000000  0.75353485  1
  O  O56  1  0.00000000  0.25611362  0.00000000  1
  O  O57  1  0.00000000  0.23065148  0.50000000  1
  O  O58  1  0.00000000  0.74388638  0.00000000  1
  O  O59  1  0.00000000  0.76934852  0.50000000  1
  O  O60  1  0.50000000  0.25054608  0.00000000  1
  O  O61  1  0.50000000  0.24646515  0.50000000  1
  O  O62  1  0.50000000  0.74945392  0.00000000  1
  O  O63  1  0.50000000  0.75353485  0.50000000  1
