# generated using pymatgen
data_Li2Cr(PO3)4
_symmetry_space_group_name_H-M   'P 1'
_cell_length_a   9.47136565
_cell_length_b   10.15920942
_cell_length_c   9.40003045
_cell_angle_alpha   90.00000000
_cell_angle_beta   91.87887391
_cell_angle_gamma   90.00000000
_symmetry_Int_Tables_number   1
_chemical_formula_structural   Li2Cr(PO3)4
_chemical_formula_sum   'Li8 Cr4 P16 O48'
_cell_volume   903.99957352
_cell_formula_units_Z   4
loop_
 _symmetry_equiv_pos_site_id
 _symmetry_equiv_pos_as_xyz
  1  'x, y, z'
loop_
 _atom_site_type_symbol
 _atom_site_label
 _atom_site_symmetry_multiplicity
 _atom_site_fract_x
 _atom_site_fract_y
 _atom_site_fract_z
 _atom_site_occupancy
  Li  Li0  1  0.50083865  0.67456631  0.39428323  1
  Li  Li1  1  0.99554154  0.17751814  0.89474592  1
  Li  Li2  1  0.49554154  0.32248186  0.89474592  1
  Li  Li3  1  0.00083865  0.82543369  0.39428323  1
  Li  Li4  1  0.49916135  0.32543369  0.60571677  1
  Li  Li5  1  0.50445846  0.67751814  0.10525408  1
  Li  Li6  1  0.00445846  0.82248186  0.10525408  1
  Li  Li7  1  0.99916135  0.17456631  0.60571677  1
  Cr  Cr8  1  0.48204670  0.68961965  0.74706342  1
  Cr  Cr9  1  0.51795330  0.31038035  0.25293658  1
  Cr  Cr10  1  0.01795330  0.18961965  0.25293658  1
  Cr  Cr11  1  0.98204670  0.81038035  0.74706342  1
  P  P12  1  0.80253468  0.59967466  0.26767335  1
  P  P13  1  0.79821529  0.39737367  0.48894242  1
  P  P14  1  0.77197128  0.53760981  0.76177715  1
  P  P15  1  0.27197128  0.96239019  0.76177715  1
  P  P16  1  0.69746532  0.09967466  0.73232665  1
  P  P17  1  0.70637349  0.89056131  0.95902102  1
  P  P18  1  0.22802872  0.46239019  0.23822285  1
  P  P19  1  0.29362651  0.10943869  0.04097898  1
  P  P20  1  0.20637349  0.60943869  0.95902102  1
  P  P21  1  0.20178471  0.60262633  0.51105758  1
  P  P22  1  0.30253468  0.90032534  0.26767335  1
  P  P23  1  0.29821529  0.10262633  0.48894242  1
  P  P24  1  0.72802872  0.03760981  0.23822285  1
  P  P25  1  0.70178471  0.89737367  0.51105758  1
  P  P26  1  0.79362651  0.39056131  0.04097898  1
  P  P27  1  0.19746532  0.40032534  0.73232665  1
  O  O28  1  0.85530449  0.48117681  0.16763600  1
  O  O29  1  0.35530449  0.01882319  0.16763600  1
  O  O30  1  0.65212226  0.03517643  0.58054202  1
  O  O31  1  0.16567953  0.56853682  0.34601893  1
  O  O32  1  0.88722149  0.02972459  0.24534415  1
  O  O33  1  0.38554887  0.23011993  0.04355193  1
  O  O34  1  0.34787774  0.96482357  0.41945798  1
  O  O35  1  0.64071654  0.38173543  0.46353836  1
  O  O36  1  0.38722149  0.47027541  0.24534415  1
  O  O37  1  0.15212226  0.46482357  0.58054202  1
  O  O38  1  0.66378926  0.98051757  0.09239530  1
  O  O39  1  0.16490596  0.33032245  0.26086399  1
  O  O40  1  0.89611785  0.28700401  0.45205210  1
  O  O41  1  0.39603470  0.78305586  0.24720352  1
  O  O42  1  0.61445113  0.76988007  0.95644807  1
  O  O43  1  0.14573358  0.88391884  0.25465042  1
  O  O44  1  0.89603470  0.71694414  0.24720352  1
  O  O45  1  0.33509404  0.83032245  0.73913601  1
  O  O46  1  0.83621074  0.48051757  0.90760470  1
  O  O47  1  0.11445113  0.73011993  0.95644807  1
  O  O48  1  0.33621074  0.01948243  0.90760470  1
  O  O49  1  0.33432047  0.06853682  0.65398107  1
  O  O50  1  0.10396530  0.28305586  0.75279648  1
  O  O51  1  0.64469551  0.98117681  0.83236400  1
  O  O52  1  0.61277851  0.52972459  0.75465585  1
  O  O53  1  0.85426642  0.11608116  0.74534958  1
  O  O54  1  0.10388215  0.71299599  0.54794790  1
  O  O55  1  0.64573358  0.61608116  0.25465042  1
  O  O56  1  0.60396530  0.21694414  0.75279648  1
  O  O57  1  0.35928346  0.61826457  0.53646164  1
  O  O58  1  0.16378926  0.51948243  0.09239530  1
  O  O59  1  0.84787774  0.53517643  0.41945798  1
  O  O60  1  0.66567953  0.93146318  0.34601893  1
  O  O61  1  0.83432047  0.43146318  0.65398107  1
  O  O62  1  0.14071654  0.11826457  0.46353836  1
  O  O63  1  0.11277851  0.97027541  0.75465585  1
  O  O64  1  0.36462229  0.62079849  0.95258935  1
  O  O65  1  0.35426642  0.38391884  0.74534958  1
  O  O66  1  0.14469551  0.51882319  0.83236400  1
  O  O67  1  0.39611785  0.21299599  0.45205210  1
  O  O68  1  0.88554887  0.26988007  0.04355193  1
  O  O69  1  0.83509404  0.66967755  0.73913601  1
  O  O70  1  0.63537771  0.37920151  0.04741065  1
  O  O71  1  0.66490596  0.16967755  0.26086399  1
  O  O72  1  0.13537771  0.12079849  0.04741065  1
  O  O73  1  0.85928346  0.88173543  0.53646164  1
  O  O74  1  0.60388215  0.78700401  0.54794790  1
  O  O75  1  0.86462229  0.87920151  0.95258935  1
