# generated using pymatgen
data_V9O17
_symmetry_space_group_name_H-M   'P 1'
_cell_length_a   5.53664097
_cell_length_b   7.11857977
_cell_length_c   14.77072782
_cell_angle_alpha   83.95681874
_cell_angle_beta   90.22058425
_cell_angle_gamma   71.84384258
_symmetry_Int_Tables_number   1
_chemical_formula_structural   V9O17
_chemical_formula_sum   'V18 O34'
_cell_volume   549.68562364
_cell_formula_units_Z   2
loop_
 _symmetry_equiv_pos_site_id
 _symmetry_equiv_pos_as_xyz
  1  'x, y, z'
loop_
 _atom_site_type_symbol
 _atom_site_label
 _atom_site_symmetry_multiplicity
 _atom_site_fract_x
 _atom_site_fract_y
 _atom_site_fract_z
 _atom_site_occupancy
  V  V0  1  0.32782535  0.91413181  0.73253088  1
  V  V1  1  0.66974847  0.08178988  0.27281425  1
  V  V2  1  0.74292150  0.11920862  0.84073576  1
  V  V3  1  0.24987774  0.89615503  0.15863579  1
  V  V4  1  0.32837306  0.41683036  0.72876350  1
  V  V5  1  0.67310978  0.58513912  0.27562550  1
  V  V6  1  0.91500717  0.20150411  0.61401829  1
  V  V7  1  0.08832757  0.79587536  0.38464832  1
  V  V8  1  0.24198742  0.40541177  0.16071709  1
  V  V9  1  0.74482029  0.61658337  0.83639393  1
  V  V10  1  0.79745813  0.69491664  0.03923100  1
  V  V11  1  0.18776784  0.31804709  0.95701277  1
  V  V12  1  0.92139298  0.70111046  0.60900395  1
  V  V13  1  0.09015409  0.29120186  0.38684818  1
  V  V14  1  0.80355364  0.19392762  0.04401566  1
  V  V15  1  0.18937450  0.81327083  0.95852601  1
  V  V16  1  0.49676615  0.99635814  0.49971757  1
  V  V17  1  0.50689384  0.49601212  0.50077539  1
  O  O18  1  0.14723598  0.19515621  0.09466797  1
  O  O19  1  0.84282682  0.81432576  0.90652520  1
  O  O20  1  0.95767681  0.06949648  0.74925180  1
  O  O21  1  0.02323652  0.92904599  0.25904082  1
  O  O22  1  0.19895699  0.00493211  0.41702636  1
  O  O23  1  0.80182400  0.97635808  0.58364197  1
  O  O24  1  0.19577448  0.53990705  0.02094682  1
  O  O25  1  0.79246560  0.46111081  0.97808574  1
  O  O26  1  0.73057494  0.95456514  0.39408508  1
  O  O27  1  0.25478539  0.04993687  0.60458772  1
  O  O28  1  0.56627361  0.35635973  0.62569131  1
  O  O29  1  0.45156535  0.62761147  0.37008588  1
  O  O30  1  0.79642059  0.29825843  0.30557054  1
  O  O31  1  0.22181251  0.68511636  0.69332695  1
  O  O32  1  0.62775205  0.40044459  0.80562225  1
  O  O33  1  0.37535454  0.59232788  0.19236235  1
  O  O34  1  0.14882832  0.66441975  0.50792659  1
  O  O35  1  0.86175747  0.32330538  0.48996487  1
  O  O36  1  0.47171860  0.81457777  0.04581720  1
  O  O37  1  0.54279846  0.18696004  0.95516268  1
  O  O38  1  0.03703025  0.11617807  0.93113587  1
  O  O39  1  0.96067491  0.89639536  0.07046862  1
  O  O40  1  0.43783972  0.13485179  0.77231353  1
  O  O41  1  0.55952065  0.87837902  0.23037000  1
  O  O42  1  0.39681597  0.76893911  0.85835593  1
  O  O43  1  0.61505808  0.22617125  0.13984193  1
  O  O44  1  0.02954543  0.42573649  0.65158351  1
  O  O45  1  0.97055902  0.57919326  0.34681013  1
  O  O46  1  0.37015636  0.29675939  0.45911084  1
  O  O47  1  0.62296765  0.69993618  0.53617137  1
  O  O48  1  0.30823480  0.25225949  0.27657129  1
  O  O49  1  0.70763998  0.73873530  0.72470779  1
  O  O50  1  0.11190103  0.45383182  0.84101510  1
  O  O51  1  0.88705761  0.55094342  0.16214015  1
