# generated using pymatgen
data_KMg30BO31
_symmetry_space_group_name_H-M   'P 1'
_cell_length_a   8.58459059
_cell_length_b   8.77514568
_cell_length_c   8.42552303
_cell_angle_alpha   90.00000000
_cell_angle_beta   90.00000000
_cell_angle_gamma   90.00000000
_symmetry_Int_Tables_number   1
_chemical_formula_structural   KMg30BO31
_chemical_formula_sum   'K1 Mg30 B1 O31'
_cell_volume   634.70335367
_cell_formula_units_Z   1
loop_
 _symmetry_equiv_pos_site_id
 _symmetry_equiv_pos_as_xyz
  1  'x, y, z'
loop_
 _atom_site_type_symbol
 _atom_site_label
 _atom_site_symmetry_multiplicity
 _atom_site_fract_x
 _atom_site_fract_y
 _atom_site_fract_z
 _atom_site_occupancy
  K  K0  1  0.01445960  -0.00000000  -0.00000000  1
  Mg  Mg1  1  0.99922999  0.50000000  -0.00000000  1
  Mg  Mg2  1  0.00313929  0.50000000  0.50000000  1
  Mg  Mg3  1  0.49307131  0.00000000  -0.00000000  1
  Mg  Mg4  1  0.50645806  0.00000000  0.50000000  1
  Mg  Mg5  1  0.50140716  0.50000000  -0.00000000  1
  Mg  Mg6  1  0.49856903  0.50000000  0.50000000  1
  Mg  Mg7  1  0.99997168  0.26162683  0.25741716  1
  Mg  Mg8  1  0.99997168  0.26162683  0.74258284  1
  Mg  Mg9  1  0.99997168  0.73837317  0.25741716  1
  Mg  Mg10  1  0.99997168  0.73837317  0.74258284  1
  Mg  Mg11  1  0.50092099  0.25005905  0.25029759  1
  Mg  Mg12  1  0.50092099  0.25005905  0.74970241  1
  Mg  Mg13  1  0.50092099  0.74994095  0.25029759  1
  Mg  Mg14  1  0.50092099  0.74994095  0.74970241  1
  Mg  Mg15  1  0.25909633  -0.00000000  0.26735158  1
  Mg  Mg16  1  0.25909633  0.00000000  0.73264842  1
  Mg  Mg17  1  0.25153450  0.50000000  0.25251567  1
  Mg  Mg18  1  0.25153450  0.50000000  0.74748433  1
  Mg  Mg19  1  0.74447997  0.00000000  0.24494623  1
  Mg  Mg20  1  0.74447997  -0.00000000  0.75505377  1
  Mg  Mg21  1  0.74926060  0.50000000  0.24795969  1
  Mg  Mg22  1  0.74926060  0.50000000  0.75204031  1
  Mg  Mg23  1  0.25173819  0.25949969  -0.00000000  1
  Mg  Mg24  1  0.24576601  0.24410628  0.50000000  1
  Mg  Mg25  1  0.25173819  0.74050031  -0.00000000  1
  Mg  Mg26  1  0.24576601  0.75589372  0.50000000  1
  Mg  Mg27  1  0.75044245  0.25175342  -0.00000000  1
  Mg  Mg28  1  0.75239063  0.26294732  0.50000000  1
  Mg  Mg29  1  0.75044245  0.74824658  -0.00000000  1
  Mg  Mg30  1  0.75239063  0.73705268  0.50000000  1
  B  B31  1  0.93574125  0.00000000  0.50000000  1
  O  O32  1  0.27691374  -0.00000000  0.50000000  1
  O  O33  1  0.25469119  0.50000000  -0.00000000  1
  O  O34  1  0.25458505  0.50000000  0.50000000  1
  O  O35  1  0.73276822  -0.00000000  -0.00000000  1
  O  O36  1  0.76482635  0.00000000  0.50000000  1
  O  O37  1  0.74643987  0.50000000  -0.00000000  1
  O  O38  1  0.74568131  0.50000000  0.50000000  1
  O  O39  1  0.24781371  0.24829539  0.25187012  1
  O  O40  1  0.24781371  0.24829539  0.74812988  1
  O  O41  1  0.24781371  0.75170461  0.25187012  1
  O  O42  1  0.24781371  0.75170461  0.74812988  1
  O  O43  1  0.75277018  0.24759752  0.25003390  1
  O  O44  1  0.75277018  0.24759752  0.74996610  1
  O  O45  1  0.75277018  0.75240248  0.25003390  1
  O  O46  1  0.75277018  0.75240248  0.74996610  1
  O  O47  1  0.99151048  -0.00000000  0.33905076  1
  O  O48  1  0.99151048  -0.00000000  0.66094924  1
  O  O49  1  0.00011023  0.50000000  0.25042845  1
  O  O50  1  0.00011023  0.50000000  0.74957155  1
  O  O51  1  0.50662814  0.00000000  0.25431011  1
  O  O52  1  0.50662814  -0.00000000  0.74569089  1
  O  O53  1  0.50059720  0.50000000  0.25071606  1
  O  O54  1  0.50059720  0.50000000  0.74928394  1
  O  O55  1  0.00007704  0.27069567  -0.00000000  1
  O  O56  1  0.99688691  0.27179240  0.50000000  1
  O  O57  1  0.00007704  0.72930433  -0.00000000  1
  O  O58  1  0.99688691  0.72820760  0.50000000  1
  O  O59  1  0.50077050  0.25481763  -0.00000000  1
  O  O60  1  0.50676999  0.24990774  0.50000000  1
  O  O61  1  0.50077050  0.74518237  -0.00000000  1
  O  O62  1  0.50676999  0.75009226  0.50000000  1
