# generated using pymatgen
data_Fe10O11
_symmetry_space_group_name_H-M   'P 1'
_cell_length_a   34.26124148
_cell_length_b   23.46881332
_cell_length_c   10.75721587
_cell_angle_alpha   28.13274320
_cell_angle_beta   29.54462467
_cell_angle_gamma   6.45229085
_symmetry_Int_Tables_number   1
_chemical_formula_structural   Fe10O11
_chemical_formula_sum   'Fe20 O22'
_cell_volume   455.06357521
_cell_formula_units_Z   2
loop_
 _symmetry_equiv_pos_site_id
 _symmetry_equiv_pos_as_xyz
  1  'x, y, z'
loop_
 _atom_site_type_symbol
 _atom_site_label
 _atom_site_symmetry_multiplicity
 _atom_site_fract_x
 _atom_site_fract_y
 _atom_site_fract_z
 _atom_site_occupancy
  Fe  Fe0  1  0.09085921  0.00006522  0.00003526  1
  Fe  Fe1  1  0.01018857  0.99313498  0.48552035  1
  Fe  Fe2  1  0.09090927  0.00001769  0.49995037  1
  Fe  Fe3  1  0.28181054  0.98720660  0.99979544  1
  Fe  Fe4  1  0.17165485  0.00679920  0.51456429  1
  Fe  Fe5  1  0.38674983  0.96355270  0.00052983  1
  Fe  Fe6  1  0.26753440  0.00392883  0.51127908  1
  Fe  Fe7  1  0.46804145  0.98357545  0.99506019  1
  Fe  Fe8  1  0.35164504  0.01243792  0.50690477  1
  Fe  Fe9  1  0.56566876  0.96788335  0.00265842  1
  Fe  Fe10  1  0.46694034  0.97290705  0.51738877  1
  Fe  Fe11  1  0.61607136  0.03230654  0.99714135  1
  Fe  Fe12  1  0.52655378  0.03495195  0.48160503  1
  Fe  Fe13  1  0.71380290  0.01636842  0.00500619  1
  Fe  Fe14  1  0.65515703  0.96521675  0.51836918  1
  Fe  Fe15  1  0.79492920  0.03665669  0.99945743  1
  Fe  Fe16  1  0.71488078  0.02709297  0.48257877  1
  Fe  Fe17  1  0.90013273  0.01265098  0.00017620  1
  Fe  Fe18  1  0.83025858  0.98741765  0.49309466  1
  Fe  Fe19  1  0.91435840  0.99594607  0.48877208  1
  O  O20  1  0.06816529  0.46845252  0.25261482  1
  O  O21  1  0.15471374  0.46828226  0.25196433  1
  O  O22  1  0.02731038  0.53149189  0.74785699  1
  O  O23  1  0.22466661  0.49059012  0.26461087  1
  O  O24  1  0.11362905  0.53155852  0.74743458  1
  O  O25  1  0.33264074  0.47763656  0.25939371  1
  O  O26  1  0.20385999  0.53873274  0.74583408  1
  O  O27  1  0.41509983  0.47877043  0.26816908  1
  O  O28  1  0.30537381  0.51894991  0.74005930  1
  O  O29  1  0.52723188  0.45409159  0.27923915  1
  O  O30  1  0.42954765  0.48262924  0.72457997  1
  O  O31  1  0.56205532  0.52888467  0.27398420  1
  O  O32  1  0.49214378  0.51449990  0.73374568  1
  O  O33  1  0.68967723  0.48547590  0.26631712  1
  O  O34  1  0.61972089  0.47115286  0.72608747  1
  O  O35  1  0.75240951  0.51708648  0.27553040  1
  O  O36  1  0.65453383  0.54600355  0.72071046  1
  O  O37  1  0.87635417  0.48129379  0.25975236  1
  O  O38  1  0.76673801  0.52118031  0.73185944  1
  O  O39  1  0.97792370  0.46129000  0.25421656  1
  O  O40  1  0.84920770  0.52229530  0.74064488  1
  O  O41  1  0.95703186  0.50953446  0.73550690  1
