# generated using pymatgen
data_Al4P3(HO5)3
_symmetry_space_group_name_H-M   'P 1'
_cell_length_a   11.33457895
_cell_length_b   10.27629135
_cell_length_c   11.33457895
_cell_angle_alpha   56.21334671
_cell_angle_beta   142.89178109
_cell_angle_gamma   141.21107281
_symmetry_Int_Tables_number   1
_chemical_formula_structural   Al4P3(HO5)3
_chemical_formula_sum   'Al8 P6 H6 O30'
_cell_volume   491.42883615
_cell_formula_units_Z   2
loop_
 _symmetry_equiv_pos_site_id
 _symmetry_equiv_pos_as_xyz
  1  'x, y, z'
loop_
 _atom_site_type_symbol
 _atom_site_label
 _atom_site_symmetry_multiplicity
 _atom_site_fract_x
 _atom_site_fract_y
 _atom_site_fract_z
 _atom_site_occupancy
  Al  Al0  1  0.17362494  0.01336385  0.82537671  1
  Al  Al1  1  0.68798714  0.51336385  0.83973891  1
  Al  Al2  1  0.82637506  0.98663615  0.17462329  1
  Al  Al3  1  0.31201286  0.48663615  0.16026109  1
  Al  Al4  1  0.35476742  0.00816357  0.19550364  1
  Al  Al5  1  0.31265992  0.50816357  0.65339615  1
  Al  Al6  1  0.64523258  0.99183643  0.80449636  1
  Al  Al7  1  0.68734008  0.49183643  0.34660385  1
  P  P8  1  0.13249381  0.25000000  0.88249381  1
  P  P9  1  0.86750619  0.75000000  0.11750619  1
  P  P10  1  0.78719276  0.25057870  0.19896181  1
  P  P11  1  0.55161689  0.75057870  0.46338595  1
  P  P12  1  0.21280724  0.74942130  0.80103819  1
  P  P13  1  0.44838311  0.24942130  0.53661405  1
  H  H14  1  0.74756807  0.25000000  0.49756807  1
  H  H15  1  0.25243193  0.75000000  0.50243193  1
  H  H16  1  0.20287665  0.21154372  0.59089109  1
  H  H17  1  0.12065263  0.71154372  0.00866706  1
  H  H18  1  0.79712335  0.78845628  0.40910891  1
  H  H19  1  0.87934737  0.28845628  0.99133294  1
  O  O20  1  0.18971485  0.11300344  0.94787088  1
  O  O21  1  0.66513256  0.61300344  0.92328859  1
  O  O22  1  0.81028515  0.88699656  0.05212912  1
  O  O23  1  0.33486744  0.38699656  0.07671141  1
  O  O24  1  0.16385491  0.38217325  0.74060486  1
  O  O25  1  0.14156839  0.88217325  0.21831834  1
  O  O26  1  0.83614509  0.61782675  0.25939514  1
  O  O27  1  0.85843161  0.11782675  0.78168166  1
  O  O28  1  0.79719503  0.09522007  0.22571499  1
  O  O29  1  0.36950508  0.59522007  0.29802504  1
  O  O30  1  0.20280497  0.90477993  0.77428501  1
  O  O31  1  0.63049492  0.40477993  0.70197496  1
  O  O32  1  0.00075939  0.37782167  0.39844830  1
  O  O33  1  0.47937337  0.87782167  0.37706228  1
  O  O34  1  0.99924061  0.62217833  0.60155170  1
  O  O35  1  0.52062663  0.12217833  0.62293772  1
  O  O36  1  0.50944947  0.12114680  0.10378592  1
  O  O37  1  0.51736088  0.62114680  0.61169734  1
  O  O38  1  0.49055053  0.87885320  0.89621408  1
  O  O39  1  0.48263912  0.37885320  0.38830266  1
  O  O40  1  0.81156803  0.39421769  0.05381931  1
  O  O41  1  0.84039838  0.89421769  0.58264966  1
  O  O42  1  0.18843197  0.60578231  0.94618069  1
  O  O43  1  0.15960162  0.10578231  0.41735034  1
  O  O44  1  0.61174688  0.25000000  0.36174688  1
  O  O45  1  0.38825312  0.75000000  0.63825312  1
  O  O46  1  0.31210038  0.27193276  0.71953976  1
  O  O47  1  0.05239300  0.77193276  0.95983238  1
  O  O48  1  0.68789962  0.72806724  0.28046024  1
  O  O49  1  0.94760700  0.22806724  0.04016762  1
