# generated using pymatgen
data_Cr2Bi28O47
_symmetry_space_group_name_H-M   'P 1'
_cell_length_a   8.86324877
_cell_length_b   8.87671658
_cell_length_c   21.14408897
_cell_angle_alpha   114.58685693
_cell_angle_beta   114.25227134
_cell_angle_gamma   90.31671252
_symmetry_Int_Tables_number   1
_chemical_formula_structural   Cr2Bi28O47
_chemical_formula_sum   'Cr2 Bi28 O47'
_cell_volume   1347.61874398
_cell_formula_units_Z   1
loop_
 _symmetry_equiv_pos_site_id
 _symmetry_equiv_pos_as_xyz
  1  'x, y, z'
loop_
 _atom_site_type_symbol
 _atom_site_label
 _atom_site_symmetry_multiplicity
 _atom_site_fract_x
 _atom_site_fract_y
 _atom_site_fract_z
 _atom_site_occupancy
  Cr  Cr0  1  0.97654798  0.02577028  0.97851864  1
  Cr  Cr1  1  0.94008875  0.02765072  0.47856634  1
  Bi  Bi2  1  0.12956318  0.72627475  0.83333214  1
  Bi  Bi3  1  0.05591668  0.87086378  0.66725840  1
  Bi  Bi4  1  0.34192475  0.34937787  0.83999679  1
  Bi  Bi5  1  0.27297356  0.46833837  0.66614629  1
  Bi  Bi6  1  0.21619668  0.55194450  0.49954718  1
  Bi  Bi7  1  0.52715396  0.94187236  0.82889712  1
  Bi  Bi8  1  0.12406971  0.71993950  0.33052888  1
  Bi  Bi9  1  0.05718423  0.87160986  0.16712318  1
  Bi  Bi10  1  0.46491071  0.05890329  0.66769177  1
  Bi  Bi11  1  0.44156778  0.21352300  0.49821215  1
  Bi  Bi12  1  0.71735018  0.53614355  0.82861562  1
  Bi  Bi13  1  0.33970518  0.34470324  0.33926773  1
  Bi  Bi14  1  0.65754296  0.65980603  0.66015817  1
  Bi  Bi15  1  0.27384391  0.46608200  0.16622823  1
  Bi  Bi16  1  0.56094807  0.79103345  0.50055520  1
  Bi  Bi17  1  0.21583061  0.55454676  0.00041761  1
  Bi  Bi18  1  0.52741284  0.93907713  0.33023297  1
  Bi  Bi19  1  0.93842208  0.13731665  0.82977023  1
  Bi  Bi20  1  0.86518681  0.27655980  0.66426287  1
  Bi  Bi21  1  0.46557451  0.05905343  0.16711701  1
  Bi  Bi22  1  0.78425892  0.44362925  0.49841955  1
  Bi  Bi23  1  0.44245410  0.21440007  0.99886666  1
  Bi  Bi24  1  0.72056218  0.53420384  0.32902866  1
  Bi  Bi25  1  0.66212451  0.66280945  0.15994254  1
  Bi  Bi26  1  0.55854110  0.79054690  0.00121212  1
  Bi  Bi27  1  0.93871931  0.13068959  0.33024493  1
  Bi  Bi28  1  0.86906565  0.27528771  0.16492957  1
  Bi  Bi29  1  0.78592619  0.44446426  0.99813028  1
  O  O30  1  0.17507357  0.99874472  0.01078737  1
  O  O31  1  0.99994276  0.16827856  0.74633488  1
  O  O32  1  0.23771739  0.29914280  0.91981923  1
  O  O33  1  0.29802336  0.60385590  0.92057884  1
  O  O34  1  0.17513629  0.50629359  0.75413460  1
  O  O35  1  0.11627719  0.61947129  0.61621101  1
  O  O36  1  0.37891042  0.88957071  0.88440034  1
  O  O37  1  0.32882722  0.00177878  0.74760356  1
  O  O38  1  0.54322449  0.23993005  0.91936250  1
  O  O39  1  0.00186449  0.16916765  0.24839262  1
  O  O40  1  0.59734215  0.54618387  0.91884704  1
  O  O41  1  0.49653744  0.66837642  0.74553993  1
  O  O42  1  0.49847608  0.33144688  0.75138012  1
  O  O43  1  0.24061624  0.29902228  0.41986419  1
  O  O44  1  0.40084858  0.46187154  0.58028194  1
  O  O45  1  0.29687281  0.60111929  0.41979551  1
  O  O46  1  0.17155552  0.49675829  0.25072187  1
  O  O47  1  0.45608672  0.76497093  0.58093452  1
  O  O48  1  0.11825367  0.62021164  0.11669602  1
  O  O49  1  0.66304114  0.00314917  0.74800495  1
  O  O50  1  0.37862324  0.88966088  0.38541171  1
  O  O51  1  0.61662805  0.11602019  0.61647463  1
  O  O52  1  0.32947283  0.00357127  0.25060724  1
  O  O53  1  0.87466419  0.89879577  0.88168450  1
  O  O54  1  0.88139201  0.39072613  0.88055801  1
  O  O55  1  0.54208913  0.23740201  0.41978708  1
  O  O56  1  0.82016101  0.49743366  0.74375410  1
  O  O57  1  0.69653624  0.39900848  0.57813662  1
  O  O58  1  0.60190677  0.54229674  0.42028374  1
  O  O59  1  0.76312981  0.70281620  0.57937383  1
  O  O60  1  0.49312285  0.66574553  0.24725346  1
  O  O61  1  0.49722735  0.33084779  0.24955840  1
  O  O62  1  0.39912742  0.45961685  0.07918942  1
  O  O63  1  0.00206648  0.83162475  0.74871163  1
  O  O64  1  0.45749416  0.76143220  0.07986123  1
  O  O65  1  0.80239186  0.99530121  0.51213706  1
  O  O66  1  0.66633906  0.99976494  0.24748929  1
  O  O67  1  0.61726396  0.11527539  0.11492367  1
  O  O68  1  0.89970123  0.86843719  0.38492365  1
  O  O69  1  0.88223641  0.38571795  0.38276525  1
  O  O70  1  0.06702926  0.21329428  0.51102770  1
  O  O71  1  0.82720943  0.49504170  0.24519094  1
  O  O72  1  0.70111092  0.39950587  0.07845809  1
  O  O73  1  0.76156444  0.70901446  0.08140557  1
  O  O74  1  0.99775521  0.82839367  0.24695356  1
  O  O75  1  0.87509261  0.97974486  0.02192930  1
  O  O76  1  0.97826943  0.22654428  0.99304046  1
