# generated using pymatgen
data_V6O13
_symmetry_space_group_name_H-M   'P 1'
_cell_length_a   3.74320147
_cell_length_b   10.30036609
_cell_length_c   12.15976579
_cell_angle_alpha   100.84836415
_cell_angle_beta   90.00047145
_cell_angle_gamma   89.99991452
_symmetry_Int_Tables_number   1
_chemical_formula_structural   V6O13
_chemical_formula_sum   'V12 O26'
_cell_volume   460.45743361
_cell_formula_units_Z   2
loop_
 _symmetry_equiv_pos_site_id
 _symmetry_equiv_pos_as_xyz
  1  'x, y, z'
loop_
 _atom_site_type_symbol
 _atom_site_label
 _atom_site_symmetry_multiplicity
 _atom_site_fract_x
 _atom_site_fract_y
 _atom_site_fract_z
 _atom_site_occupancy
  V  V0  1  0.99664306  0.36514316  0.71341568  1
  V  V1  1  0.00346827  0.63472698  0.28625755  1
  V  V2  1  0.50347103  0.36526908  0.21374285  1
  V  V3  1  0.49664468  0.63485844  0.78658574  1
  V  V4  1  0.00306221  0.36385423  0.41273467  1
  V  V5  1  0.50305591  0.63613923  0.08726793  1
  V  V6  1  0.99714696  0.63605464  0.58698686  1
  V  V7  1  0.49715776  0.36394819  0.91300983  1
  V  V8  1  0.00822930  0.99835968  0.35295258  1
  V  V9  1  0.98992718  0.00082705  0.65023167  1
  V  V10  1  0.50822179  0.00165170  0.14705058  1
  V  V11  1  0.48995094  0.99917588  0.84976599  1
  O  O12  1  0.49430638  0.19786598  0.88688829  1
  O  O13  1  0.00597324  0.19794663  0.38563184  1
  O  O14  1  0.99430364  0.80213198  0.61311449  1
  O  O15  1  0.50597138  0.80205758  0.11436576  1
  O  O16  1  0.99278558  0.19837655  0.67626898  1
  O  O17  1  0.00756964  0.80192766  0.32235026  1
  O  O18  1  0.50756859  0.19806802  0.17765050  1
  O  O19  1  0.49279417  0.80162326  0.82373101  1
  O  O20  1  0.99966260  0.40895407  0.56012972  1
  O  O21  1  0.50039069  0.40897283  0.06050773  1
  O  O22  1  0.49966104  0.59103968  0.93987245  1
  O  O23  1  0.00038960  0.59102862  0.43949030  1
  O  O24  1  0.99681514  0.38458839  0.88018100  1
  O  O25  1  0.50329616  0.38525116  0.38014330  1
  O  O26  1  0.49681078  0.61541277  0.61982106  1
  O  O27  1  0.00329508  0.61475352  0.11985248  1
  O  O28  1  0.99662392  0.58963433  0.74650694  1
  O  O29  1  0.49661976  0.41035930  0.75349313  1
  O  O30  1  0.50347055  0.58939597  0.24654509  1
  O  O31  1  0.00346597  0.41060539  0.25345175  1
  O  O32  1  0.00105822  0.00035280  0.49571458  1
  O  O33  1  0.50105987  0.99964770  0.00428224  1
  O  O34  1  0.50748520  0.99952765  0.31648552  1
  O  O35  1  0.99208238  0.00040343  0.82166443  1
  O  O36  1  0.49207047  0.99959567  0.67832679  1
  O  O37  1  0.00749085  0.00047079  0.18352846  1
