# generated using pymatgen
data_Th8Al4H11
_symmetry_space_group_name_H-M   'P 1'
_cell_length_a   7.69809584
_cell_length_b   7.69809584
_cell_length_c   19.02401118
_cell_angle_alpha   90.00000000
_cell_angle_beta   90.00000000
_cell_angle_gamma   90.00000000
_symmetry_Int_Tables_number   1
_chemical_formula_structural   Th8Al4H11
_chemical_formula_sum   'Th24 Al12 H33'
_cell_volume   1127.37583052
_cell_formula_units_Z   3
loop_
 _symmetry_equiv_pos_site_id
 _symmetry_equiv_pos_as_xyz
  1  'x, y, z'
loop_
 _atom_site_type_symbol
 _atom_site_label
 _atom_site_symmetry_multiplicity
 _atom_site_fract_x
 _atom_site_fract_y
 _atom_site_fract_z
 _atom_site_occupancy
  Th  Th0  1  0.33625412  0.33625412  0.24935489  1
  Th  Th1  1  0.66374588  0.66374588  0.24935489  1
  Th  Th2  1  0.66374588  0.33625412  0.75064511  1
  Th  Th3  1  0.33625412  0.66374588  0.75064511  1
  Th  Th4  1  0.83704356  0.83704356  0.74666347  1
  Th  Th5  1  0.16295644  0.16295644  0.74666347  1
  Th  Th6  1  0.16295644  0.83704356  0.25333653  1
  Th  Th7  1  0.83704356  0.16295644  0.25333653  1
  Th  Th8  1  0.83984850  0.83984850  0.08451524  1
  Th  Th9  1  0.16015150  0.16015150  0.08451524  1
  Th  Th10  1  0.16015150  0.83984850  0.91548476  1
  Th  Th11  1  0.83984850  0.16015150  0.91548476  1
  Th  Th12  1  0.33860879  0.33860879  0.58374769  1
  Th  Th13  1  0.66139121  0.66139121  0.58374769  1
  Th  Th14  1  0.66139121  0.33860879  0.41625231  1
  Th  Th15  1  0.33860879  0.66139121  0.41625231  1
  Th  Th16  1  0.33207844  0.33207844  0.91647002  1
  Th  Th17  1  0.66792156  0.66792156  0.91647002  1
  Th  Th18  1  0.66792156  0.33207844  0.08352998  1
  Th  Th19  1  0.33207844  0.66792156  0.08352998  1
  Th  Th20  1  0.83198622  0.83198622  0.41631306  1
  Th  Th21  1  0.16801378  0.16801378  0.41631306  1
  Th  Th22  1  0.16801378  0.83198622  0.58368694  1
  Th  Th23  1  0.83198622  0.16801378  0.58368694  1
  Al  Al24  1  0.50000000  0.00000000  0.33322118  1
  Al  Al25  1  0.50000000  0.00000000  0.66677882  1
  Al  Al26  1  0.00000000  0.50000000  0.66677882  1
  Al  Al27  1  0.00000000  0.50000000  0.33322118  1
  Al  Al28  1  0.50000000  0.00000000  0.16760029  1
  Al  Al29  1  0.50000000  0.00000000  0.83239971  1
  Al  Al30  1  0.00000000  0.50000000  0.83239971  1
  Al  Al31  1  0.00000000  0.50000000  0.16760029  1
  Al  Al32  1  0.00000000  0.50000000  0.00000000  1
  Al  Al33  1  0.50000000  0.00000000  0.00000000  1
  Al  Al34  1  0.00000000  0.50000000  0.50000000  1
  Al  Al35  1  0.50000000  0.00000000  0.50000000  1
  H  H36  1  0.37116300  0.37116300  0.36732769  1
  H  H37  1  0.62883700  0.62883700  0.36732769  1
  H  H38  1  0.62883700  0.37116300  0.63267231  1
  H  H39  1  0.37116300  0.62883700  0.63267231  1
  H  H40  1  0.37246241  0.37246241  0.12307348  1
  H  H41  1  0.62753759  0.62753759  0.12307348  1
  H  H42  1  0.62753759  0.37246241  0.87692652  1
  H  H43  1  0.37246241  0.62753759  0.87692652  1
  H  H44  1  0.37234131  0.37234131  0.70853972  1
  H  H45  1  0.62765869  0.62765869  0.70853972  1
  H  H46  1  0.62765869  0.37234131  0.29146028  1
  H  H47  1  0.37234131  0.62765869  0.29146028  1
  H  H48  1  0.37185383  0.37185383  0.46606893  1
  H  H49  1  0.62814617  0.62814617  0.46606893  1
  H  H50  1  0.62814617  0.37185383  0.53393107  1
  H  H51  1  0.37185383  0.62814617  0.53393107  1
  H  H52  1  0.86782998  0.86782998  0.86490692  1
  H  H53  1  0.13217002  0.13217002  0.86490692  1
  H  H54  1  0.13217002  0.86782998  0.13509308  1
  H  H55  1  0.86782998  0.13217002  0.13509308  1
  H  H56  1  0.87315621  0.87315621  0.62037705  1
  H  H57  1  0.12684379  0.12684379  0.62037705  1
  H  H58  1  0.12684379  0.87315621  0.37962295  1
  H  H59  1  0.87315621  0.12684379  0.37962295  1
  H  H60  1  0.87311578  0.87311578  0.21057910  1
  H  H61  1  0.12688422  0.12688422  0.21057910  1
  H  H62  1  0.12688422  0.87311578  0.78942090  1
  H  H63  1  0.87311578  0.12688422  0.78942090  1
  H  H64  1  0.86984257  0.86984257  0.96573468  1
  H  H65  1  0.13015743  0.13015743  0.96573468  1
  H  H66  1  0.13015743  0.86984257  0.03426532  1
  H  H67  1  0.86984257  0.13015743  0.03426532  1
  H  H68  1  0.50000000  0.50000000  0.00000000  1
