# generated using pymatgen
data_KCa4Si8H16O29
_symmetry_space_group_name_H-M   'P 1'
_cell_length_a   9.05887683
_cell_length_b   9.05887683
_cell_length_c   16.09682757
_cell_angle_alpha   90.00000000
_cell_angle_beta   90.00000000
_cell_angle_gamma   90.00000000
_symmetry_Int_Tables_number   1
_chemical_formula_structural   KCa4Si8H16O29
_chemical_formula_sum   'K2 Ca8 Si16 H32 O58'
_cell_volume   1320.95797577
_cell_formula_units_Z   2
loop_
 _symmetry_equiv_pos_site_id
 _symmetry_equiv_pos_as_xyz
  1  'x, y, z'
loop_
 _atom_site_type_symbol
 _atom_site_label
 _atom_site_symmetry_multiplicity
 _atom_site_fract_x
 _atom_site_fract_y
 _atom_site_fract_z
 _atom_site_occupancy
  K  K0  1  0.50000000  0.50000000  0.00000000  1
  K  K1  1  0.00000000  0.00000000  0.50000000  1
  Ca  Ca2  1  0.74462722  0.61128454  0.50000000  1
  Ca  Ca3  1  0.25537278  0.38871546  0.50000000  1
  Ca  Ca4  1  0.75537278  0.11128454  0.00000000  1
  Ca  Ca5  1  0.24462722  0.88871546  0.00000000  1
  Ca  Ca6  1  0.61128454  0.25537278  0.50000000  1
  Ca  Ca7  1  0.38871546  0.74462722  0.50000000  1
  Ca  Ca8  1  0.11128454  0.24462722  0.00000000  1
  Ca  Ca9  1  0.88871546  0.75537278  0.00000000  1
  Si  Si10  1  0.58531107  0.72582824  0.30960251  1
  Si  Si11  1  0.41468893  0.27417176  0.30960251  1
  Si  Si12  1  0.91468893  0.22582824  0.80960251  1
  Si  Si13  1  0.08531107  0.77417176  0.80960251  1
  Si  Si14  1  0.72582824  0.41468893  0.30960251  1
  Si  Si15  1  0.27417176  0.58531107  0.30960251  1
  Si  Si16  1  0.22582824  0.08531107  0.80960251  1
  Si  Si17  1  0.77417176  0.91468893  0.80960251  1
  Si  Si18  1  0.41468893  0.27417176  0.69039749  1
  Si  Si19  1  0.58531107  0.72582824  0.69039749  1
  Si  Si20  1  0.08531107  0.77417176  0.19039749  1
  Si  Si21  1  0.91468893  0.22582824  0.19039749  1
  Si  Si22  1  0.27417176  0.58531107  0.69039749  1
  Si  Si23  1  0.72582824  0.41468893  0.69039749  1
  Si  Si24  1  0.77417176  0.91468893  0.19039749  1
  Si  Si25  1  0.22582824  0.08531107  0.19039749  1
  H  H26  1  0.65871628  0.94825038  0.40902610  1
  H  H27  1  0.34128372  0.05174962  0.40902610  1
  H  H28  1  0.84128372  0.44825038  0.90902610  1
  H  H29  1  0.15871628  0.55174962  0.90902610  1
  H  H30  1  0.94825038  0.34128372  0.40902610  1
  H  H31  1  0.05174962  0.65871628  0.40902610  1
  H  H32  1  0.44825038  0.15871628  0.90902610  1
  H  H33  1  0.55174962  0.84128372  0.90902610  1
  H  H34  1  0.34128372  0.05174962  0.59097390  1
  H  H35  1  0.65871628  0.94825038  0.59097390  1
  H  H36  1  0.15871628  0.55174962  0.09097390  1
  H  H37  1  0.84128372  0.44825038  0.09097390  1
  H  H38  1  0.05174962  0.65871628  0.59097390  1
  H  H39  1  0.94825038  0.34128372  0.59097390  1
  H  H40  1  0.55174962  0.84128372  0.09097390  1
  H  H41  1  0.44825038  0.15871628  0.09097390  1
  H  H42  1  0.92597786  0.72005783  0.35233689  1
  H  H43  1  0.07402214  0.27994217  0.35233689  1
  H  H44  1  0.57402214  0.22005783  0.85233689  1
  H  H45  1  0.42597786  0.77994217  0.85233689  1
  H  H46  1  0.72005783  0.07402214  0.35233689  1
  H  H47  1  0.27994217  0.92597786  0.35233689  1
  H  H48  1  0.22005783  0.42597786  0.85233689  1
  H  H49  1  0.77994217  0.57402214  0.85233689  1
  H  H50  1  0.07402214  0.27994217  0.64766311  1
  H  H51  1  0.92597786  0.72005783  0.64766311  1
  H  H52  1  0.42597786  0.77994217  0.14766311  1
  H  H53  1  0.57402214  0.22005783  0.14766311  1
  H  H54  1  0.27994217  0.92597786  0.64766311  1
  H  H55  1  0.72005783  0.07402214  0.64766311  1
  H  H56  1  0.77994217  0.57402214  0.14766311  1
  H  H57  1  0.22005783  0.42597786  0.14766311  1
  O  O58  1  0.86349790  0.36349790  0.25000000  1
  O  O59  1  0.13650210  0.63650210  0.25000000  1
  O  O60  1  0.63650210  0.86349790  0.75000000  1
  O  O61  1  0.36349790  0.13650210  0.75000000  1
  O  O62  1  0.36349790  0.13650210  0.25000000  1
  O  O63  1  0.63650210  0.86349790  0.25000000  1
  O  O64  1  0.86349790  0.36349790  0.75000000  1
  O  O65  1  0.13650210  0.63650210  0.75000000  1
  O  O66  1  0.68943813  0.58509103  0.28050048  1
  O  O67  1  0.31056187  0.41490897  0.28050048  1
  O  O68  1  0.81056187  0.08509103  0.78050048  1
  O  O69  1  0.18943813  0.91490897  0.78050048  1
  O  O70  1  0.58509103  0.31056187  0.28050048  1
  O  O71  1  0.41490897  0.68943813  0.28050048  1
  O  O72  1  0.08509103  0.18943813  0.78050048  1
  O  O73  1  0.91490897  0.81056187  0.78050048  1
  O  O74  1  0.31056187  0.41490897  0.71949952  1
  O  O75  1  0.68943813  0.58509103  0.71949952  1
  O  O76  1  0.18943813  0.91490897  0.21949952  1
  O  O77  1  0.81056187  0.08509103  0.21949952  1
  O  O78  1  0.41490897  0.68943813  0.71949952  1
  O  O79  1  0.58509103  0.31056187  0.71949952  1
  O  O80  1  0.91490897  0.81056187  0.21949952  1
  O  O81  1  0.08509103  0.18943813  0.21949952  1
  O  O82  1  0.59915153  0.76387257  0.40669733  1
  O  O83  1  0.40084847  0.23612743  0.40669733  1
  O  O84  1  0.90084847  0.26387257  0.90669733  1
  O  O85  1  0.09915153  0.73612743  0.90669733  1
  O  O86  1  0.76387257  0.40084847  0.40669733  1
  O  O87  1  0.23612743  0.59915153  0.40669733  1
  O  O88  1  0.26387257  0.09915153  0.90669733  1
  O  O89  1  0.73612743  0.90084847  0.90669733  1
  O  O90  1  0.40084847  0.23612743  0.59330267  1
  O  O91  1  0.59915153  0.76387257  0.59330267  1
  O  O92  1  0.09915153  0.73612743  0.09330267  1
  O  O93  1  0.90084847  0.26387257  0.09330267  1
  O  O94  1  0.23612743  0.59915153  0.59330267  1
  O  O95  1  0.76387257  0.40084847  0.59330267  1
  O  O96  1  0.73612743  0.90084847  0.09330267  1
  O  O97  1  0.26387257  0.09915153  0.09330267  1
  O  O98  1  0.94977214  0.70174743  0.41039999  1
  O  O99  1  0.05022786  0.29825257  0.41039999  1
  O  O100  1  0.55022786  0.20174743  0.91039999  1
  O  O101  1  0.44977214  0.79825257  0.91039999  1
  O  O102  1  0.70174743  0.05022786  0.41039999  1
  O  O103  1  0.29825257  0.94977214  0.41039999  1
  O  O104  1  0.20174743  0.44977214  0.91039999  1
  O  O105  1  0.79825257  0.55022786  0.91039999  1
  O  O106  1  0.05022786  0.29825257  0.58960001  1
  O  O107  1  0.94977214  0.70174743  0.58960001  1
  O  O108  1  0.44977214  0.79825257  0.08960001  1
  O  O109  1  0.55022786  0.20174743  0.08960001  1
  O  O110  1  0.29825257  0.94977214  0.58960001  1
  O  O111  1  0.70174743  0.05022786  0.58960001  1
  O  O112  1  0.79825257  0.55022786  0.08960001  1
  O  O113  1  0.20174743  0.44977214  0.08960001  1
  O  O114  1  0.50000000  0.50000000  0.50000000  1
  O  O115  1  0.00000000  0.00000000  0.00000000  1
