# generated using pymatgen
data_Li3Mn3(PO4)4
_symmetry_space_group_name_H-M   'P 1'
_cell_length_a   6.74702075
_cell_length_b   9.93819183
_cell_length_c   10.49105642
_cell_angle_alpha   90.45985080
_cell_angle_beta   90.08376613
_cell_angle_gamma   70.15889087
_symmetry_Int_Tables_number   1
_chemical_formula_structural   Li3Mn3(PO4)4
_chemical_formula_sum   'Li6 Mn6 P8 O32'
_cell_volume   661.67777403
_cell_formula_units_Z   2
loop_
 _symmetry_equiv_pos_site_id
 _symmetry_equiv_pos_as_xyz
  1  'x, y, z'
loop_
 _atom_site_type_symbol
 _atom_site_label
 _atom_site_symmetry_multiplicity
 _atom_site_fract_x
 _atom_site_fract_y
 _atom_site_fract_z
 _atom_site_occupancy
  Li  Li0  1  0.95532273  0.85964753  0.44934878  1
  Li  Li1  1  0.44357615  0.99941233  0.25000187  1
  Li  Li2  1  0.81406990  0.14034971  0.05020784  1
  Li  Li3  1  0.21040777  0.85317933  0.94917996  1
  Li  Li4  1  0.06317160  0.14404625  0.55130860  1
  Li  Li5  1  0.55395798  0.99960528  0.74978411  1
  Mn  Mn6  1  0.63401355  0.68568985  0.75252438  1
  Mn  Mn7  1  0.67889787  0.68583891  0.25310757  1
  Mn  Mn8  1  0.49898530  0.49951859  0.49956938  1
  Mn  Mn9  1  0.32038877  0.31329620  0.74646744  1
  Mn  Mn10  1  0.36541309  0.31306094  0.24632742  1
  Mn  Mn11  1  0.99892004  0.49960864  0.99966041  1
  P  P12  1  0.41644064  0.83733933  0.49721003  1
  P  P13  1  0.74310761  0.83752840  0.99784764  1
  P  P14  1  0.82657794  0.39280059  0.25010815  1
  P  P15  1  0.17222982  0.60630162  0.74963422  1
  P  P16  1  0.77929658  0.39221136  0.74955174  1
  P  P17  1  0.25356101  0.16174022  0.00173754  1
  P  P18  1  0.21992931  0.60658719  0.24874775  1
  P  P19  1  0.58170113  0.16155492  0.50188234  1
  O  O20  1  0.58410152  0.82807911  0.89014950  1
  O  O21  1  0.23251659  0.48873933  0.14143559  1
  O  O22  1  0.35787947  0.69208348  0.21431002  1
  O  O23  1  0.81558880  0.96292147  0.97353922  1
  O  O24  1  0.76682117  0.50973498  0.85713665  1
  O  O25  1  0.68170528  0.51449047  0.64221536  1
  O  O26  1  0.58269445  0.82878633  0.38962989  1
  O  O27  1  0.05115412  0.30742656  0.28455004  1
  O  O28  1  0.21548114  0.96170456  0.47210788  1
  O  O29  1  0.94762413  0.69196901  0.71558332  1
  O  O30  1  0.36759977  0.15354765  0.87065516  1
  O  O31  1  0.47621973  0.15331685  0.37052296  1
  O  O32  1  0.99842190  0.69753045  0.29102041  1
  O  O33  1  0.41314312  0.17074916  0.60898295  1
  O  O34  1  0.17709349  0.03740788  0.02558221  1
  O  O35  1  0.52108868  0.84607520  0.62873744  1
  O  O36  1  0.27646137  0.48901096  0.64184405  1
  O  O37  1  0.19686743  0.48421666  0.85693135  1
  O  O38  1  0.72200100  0.51030893  0.35767374  1
  O  O39  1  0.80229363  0.51468348  0.14265783  1
  O  O40  1  0.00089540  0.30162473  0.70725170  1
  O  O41  1  0.64261842  0.29919009  0.50323313  1
  O  O42  1  0.64122657  0.30660855  0.78364075  1
  O  O43  1  0.05429114  0.29933017  0.00284406  1
  O  O44  1  0.78082876  0.03659859  0.52732026  1
  O  O45  1  0.31769255  0.48467659  0.35632735  1
  O  O46  1  0.62879246  0.84495141  0.12877568  1
  O  O47  1  0.35457174  0.69997792  0.49620362  1
  O  O48  1  0.94229009  0.69994794  0.99625067  1
  O  O49  1  0.41086324  0.16994941  0.11013666  1
  O  O50  1  0.69674894  0.30174426  0.20796179  1
  O  O51  1  0.30302209  0.69679362  0.79171860  1
