# generated using pymatgen
data_PH10SN3O2
_symmetry_space_group_name_H-M   'P 1'
_cell_length_a   7.10093581
_cell_length_b   6.92653127
_cell_length_c   7.90109105
_cell_angle_alpha   86.06949340
_cell_angle_beta   75.47502776
_cell_angle_gamma   87.97901309
_symmetry_Int_Tables_number   1
_chemical_formula_structural   PH10SN3O2
_chemical_formula_sum   'P2 H20 S2 N6 O4'
_cell_volume   375.24272647
_cell_formula_units_Z   2
loop_
 _symmetry_equiv_pos_site_id
 _symmetry_equiv_pos_as_xyz
  1  'x, y, z'
loop_
 _atom_site_type_symbol
 _atom_site_label
 _atom_site_symmetry_multiplicity
 _atom_site_fract_x
 _atom_site_fract_y
 _atom_site_fract_z
 _atom_site_occupancy
  P  P0  1  0.63951505  0.79813218  0.77900337  1
  P  P1  1  0.36048495  0.20186782  0.22099663  1
  H  H2  1  0.39562267  0.85051266  0.03233158  1
  H  H3  1  0.60437733  0.14948734  0.96766842  1
  H  H4  1  0.36234650  0.64116364  0.94296040  1
  H  H5  1  0.63765350  0.35883636  0.05703960  1
  H  H6  1  0.27096026  0.78658687  0.41629699  1
  H  H7  1  0.72903974  0.21341313  0.58370301  1
  H  H8  1  0.15845155  0.68375780  0.61130023  1
  H  H9  1  0.84154845  0.31624220  0.38869977  1
  H  H10  1  0.29188806  0.53648830  0.45207491  1
  H  H11  1  0.70811194  0.46351170  0.54792509  1
  H  H12  1  0.40223662  0.69166814  0.55261999  1
  H  H13  1  0.59776338  0.30833186  0.44738001  1
  H  H14  1  0.21989235  0.12563791  0.62535202  1
  H  H15  1  0.78010765  0.87436209  0.37464798  1
  H  H16  1  0.12103539  0.25522204  0.00628703  1
  H  H17  1  0.87896461  0.74477796  0.99371297  1
  H  H18  1  0.00955137  0.04257039  0.75216025  1
  H  H19  1  0.99044863  0.95742961  0.24783975  1
  H  H20  1  0.22243037  0.97810786  0.80137815  1
  H  H21  1  0.77756963  0.02189214  0.19862185  1
  S  S22  1  0.85559561  0.62263325  0.87427334  1
  S  S23  1  0.14440439  0.37736675  0.12572666  1
  N  N24  1  0.42469666  0.77437347  0.92050946  1
  N  N25  1  0.57530334  0.22562653  0.07949054  1
  N  N26  1  0.27861129  0.67193705  0.50642980  1
  N  N27  1  0.72138871  0.32806295  0.49357020  1
  N  N28  1  0.15367153  0.01120870  0.70340735  1
  N  N29  1  0.84632847  0.98879130  0.29659265  1
  O  O30  1  0.63341534  0.69541553  0.61609563  1
  O  O31  1  0.36658466  0.30458447  0.38390437  1
  O  O32  1  0.69695673  0.00764137  0.76679881  1
  O  O33  1  0.30304327  0.99235863  0.23320119  1
