# generated using pymatgen
data_Ca9LaMn10O30
_symmetry_space_group_name_H-M   'P 1'
_cell_length_a   26.95879799
_cell_length_b   7.63641596
_cell_length_c   9.29811392
_cell_angle_alpha   65.85526423
_cell_angle_beta   54.55761735
_cell_angle_gamma   45.13397530
_symmetry_Int_Tables_number   1
_chemical_formula_structural   Ca9LaMn10O30
_chemical_formula_sum   'Ca18 La2 Mn20 O60'
_cell_volume   1105.30040528
_cell_formula_units_Z   2
loop_
 _symmetry_equiv_pos_site_id
 _symmetry_equiv_pos_as_xyz
  1  'x, y, z'
loop_
 _atom_site_type_symbol
 _atom_site_label
 _atom_site_symmetry_multiplicity
 _atom_site_fract_x
 _atom_site_fract_y
 _atom_site_fract_z
 _atom_site_occupancy
  Ca  Ca0  1  0.14159799  0.03373082  0.25088807  1
  Ca  Ca1  1  0.05696239  0.46091797  0.74729075  1
  Ca  Ca2  1  0.14503353  0.53507059  0.24893846  1
  Ca  Ca3  1  0.33908261  0.03949355  0.25321194  1
  Ca  Ca4  1  0.05906544  0.96409088  0.75016119  1
  Ca  Ca5  1  0.25566873  0.46269925  0.74854892  1
  Ca  Ca6  1  0.34461131  0.53586975  0.25110842  1
  Ca  Ca7  1  0.54167495  0.03651363  0.24810098  1
  Ca  Ca8  1  0.25945481  0.96330784  0.75053365  1
  Ca  Ca9  1  0.45512191  0.46590884  0.74995608  1
  Ca  Ca10  1  0.54453402  0.53522974  0.25029727  1
  Ca  Ca11  1  0.74081070  0.03790378  0.24770761  1
  Ca  Ca12  1  0.65516506  0.46197031  0.75132416  1
  Ca  Ca13  1  0.74466291  0.53943137  0.24926382  1
  Ca  Ca14  1  0.94007679  0.03813143  0.24998515  1
  Ca  Ca15  1  0.65906181  0.96230174  0.75071674  1
  Ca  Ca16  1  0.85454790  0.46340318  0.75291974  1
  Ca  Ca17  1  0.85926853  0.96411914  0.74866158  1
  La  La18  1  0.45540254  0.97764866  0.74985719  1
  La  La19  1  0.94594224  0.52310784  0.25020215  1
  Mn  Mn20  1  0.10145503  0.99545292  0.99741384  1
  Mn  Mn21  1  0.10126659  0.50016636  0.99798404  1
  Mn  Mn22  1  0.00084438  0.49962297  0.50147125  1
  Mn  Mn23  1  0.29831388  0.00021046  0.00379887  1
  Mn  Mn24  1  0.19968169  0.50078051  0.50028424  1
  Mn  Mn25  1  0.29856301  0.50465027  0.00316313  1
  Mn  Mn26  1  0.50091593  0.99909616  0.00191457  1
  Mn  Mn27  1  0.19978097  0.99960256  0.50116840  1
  Mn  Mn28  1  0.39941927  0.50477112  0.49758108  1
  Mn  Mn29  1  0.50044994  0.49598661  0.00177875  1
  Mn  Mn30  1  0.69996098  0.00040292  0.99996147  1
  Mn  Mn31  1  0.39967492  -0.00007904  0.49614125  1
  Mn  Mn32  1  0.60148244  0.49614031  0.49693746  1
  Mn  Mn33  1  0.69992012  0.49973302  0.00063703  1
  Mn  Mn34  1  0.89941859  0.00358107  0.99767846  1
  Mn  Mn35  1  0.60174075  0.99972641  0.49751258  1
  Mn  Mn36  1  0.79810340  0.50010158  0.50408931  1
  Mn  Mn37  1  0.89955208  0.50086669  0.99607714  1
  Mn  Mn38  1  0.79836075  0.00417820  0.50271057  1
  Mn  Mn39  1  0.00070561  0.99534331  0.50192387  1
  O  O40  1  0.08225391  0.27583018  0.03803926  1
  O  O41  1  0.06913193  0.48173167  0.25022913  1
  O  O42  1  0.00783780  0.22211567  0.95975769  1
  O  O43  1  0.09107506  0.21892234  0.54555568  1
  O  O44  1  0.00419035  0.71848810  0.54382955  1
  O  O45  1  0.03559248  0.99317551  0.24993453  1
  O  O46  1  0.16340441  0.01599843  0.74951250  1
  O  O47  1  0.28093228  0.27683525  0.04069470  1
  O  O48  1  0.19554507  0.28192015  0.45695189  1
  O  O49  1  0.19158759  0.77911961  0.04464598  1
  O  O50  1  0.10906124  0.77980695  0.45589743  1
  O  O51  1  0.13012930  0.51982131  0.74982526  1
  O  O52  1  0.26936693  0.48353040  0.25098531  1
  O  O53  1  0.20852631  0.22008683  0.95664710  1
  O  O54  1  0.29101857  0.21902113  0.54238968  1
  O  O55  1  0.20385233  0.71894451  0.54405973  1
  O  O56  1  0.12206309  0.71769430  0.95632746  1
  O  O57  1  0.23684722  0.98298285  0.25085482  1
  O  O58  1  0.36099569  0.01304547  0.75001855  1
  O  O59  1  0.47881585  0.28039073  0.04521513  1
  O  O60  1  0.39712862  0.27637867  0.45940357  1
  O  O61  1  0.30898165  0.78030489  0.45626020  1
  O  O62  1  0.39183665  0.78212260  0.04157512  1
  O  O63  1  0.33306485  0.50682346  0.74997203  1
  O  O64  1  0.46992202  0.48187050  0.24920225  1
  O  O65  1  0.40803691  0.22469501  0.96182967  1
  O  O66  1  0.49263171  0.22498415  0.53765656  1
  O  O67  1  0.40349416  0.71971562  0.54260900  1
  O  O68  1  0.32044097  0.72028399  0.95772345  1
  O  O69  1  0.43735222  0.98008648  0.24979910  1
  O  O70  1  0.56174953  0.01851796  0.75002687  1
  O  O71  1  0.67811742  0.28228709  0.04403389  1
  O  O72  1  0.59694134  0.28092279  0.45449030  1
  O  O73  1  0.50882557  0.78133059  0.45775745  1
  O  O74  1  0.59148818  0.78099056  0.04482498  1
  O  O75  1  0.53042825  0.51805785  0.74952969  1
  O  O76  1  0.67116546  0.47934257  0.24944631  1
  O  O77  1  0.60840071  0.21868440  0.95639439  1
  O  O78  1  0.69075862  0.21806438  0.54522018  1
  O  O79  1  0.60345686  0.72102825  0.54282869  1
  O  O80  1  0.52077339  0.72072827  0.95619723  1
  O  O81  1  0.63796059  0.98141090  0.24928241  1
  O  O82  1  0.76252599  0.01903834  0.75003097  1
  O  O83  1  0.87831495  0.28196474  0.04171347  1
  O  O84  1  0.79518970  0.28207649  0.45751220  1
  O  O85  1  0.70858617  0.78342268  0.45694166  1
  O  O86  1  0.79140264  0.78292052  0.04148447  1
  O  O87  1  0.72932938  0.51882857  0.75079678  1
  O  O88  1  0.86622547  0.48510049  0.25019073  1
  O  O89  1  0.80863346  0.21793546  0.95478009  1
  O  O90  1  0.89150411  0.22284178  0.54023148  1
  O  O91  1  0.72112332  0.71925418  0.95652898  1
  O  O92  1  0.80507475  0.71674509  0.54155897  1
  O  O93  1  0.83749005  0.98203253  0.25011985  1
  O  O94  1  0.96268074  0.01707979  0.75042465  1
  O  O95  1  0.99756690  0.27571101  0.46175637  1
  O  O96  1  0.99147369  0.77989388  0.04359109  1
  O  O97  1  0.90889593  0.77997848  0.45669757  1
  O  O98  1  0.92975813  0.51931620  0.74969418  1
  O  O99  1  0.92168500  0.71658268  0.95861062  1
