# generated using pymatgen
data_La3ScO6
_symmetry_space_group_name_H-M   'P 1'
_cell_length_a   6.94881129
_cell_length_b   6.94881171
_cell_length_c   6.94881156
_cell_angle_alpha   92.29217952
_cell_angle_beta   92.29217270
_cell_angle_gamma   92.29217506
_symmetry_Int_Tables_number   1
_chemical_formula_structural   La3ScO6
_chemical_formula_sum   'La6 Sc2 O12'
_cell_volume   334.70261286
_cell_formula_units_Z   2
loop_
 _symmetry_equiv_pos_site_id
 _symmetry_equiv_pos_as_xyz
  1  'x, y, z'
loop_
 _atom_site_type_symbol
 _atom_site_label
 _atom_site_symmetry_multiplicity
 _atom_site_fract_x
 _atom_site_fract_y
 _atom_site_fract_z
 _atom_site_occupancy
  La  La0  1  0.06788579  0.56029006  0.25372965  1
  La  La1  1  0.43970994  0.74627035  0.93211421  1
  La  La2  1  0.74627035  0.93211421  0.43970994  1
  La  La3  1  0.25372965  0.06788579  0.56029006  1
  La  La4  1  0.56029006  0.25372965  0.06788579  1
  La  La5  1  0.93211421  0.43970994  0.74627035  1
  Sc  Sc6  1  0.00000000  0.00000000  0.00000000  1
  Sc  Sc7  1  0.50000000  0.50000000  0.50000000  1
  O  O8  1  0.06418158  0.92105893  0.29762677  1
  O  O9  1  0.07894107  0.70237323  0.93581842  1
  O  O10  1  0.46055174  0.79650983  0.58773542  1
  O  O11  1  0.70237323  0.93581842  0.07894107  1
  O  O12  1  0.20349017  0.41226458  0.53944826  1
  O  O13  1  0.41226458  0.53944826  0.20349017  1
  O  O14  1  0.58773542  0.46055174  0.79650983  1
  O  O15  1  0.79650983  0.58773542  0.46055174  1
  O  O16  1  0.29762677  0.06418158  0.92105893  1
  O  O17  1  0.53944826  0.20349017  0.41226458  1
  O  O18  1  0.92105893  0.29762677  0.06418158  1
  O  O19  1  0.93581842  0.07894107  0.70237323  1
