# generated using pymatgen
data_CrH6SO7
_symmetry_space_group_name_H-M   'P 1'
_cell_length_a   7.28903261
_cell_length_b   7.28903261
_cell_length_c   7.55281025
_cell_angle_alpha   87.79639502
_cell_angle_beta   92.20360498
_cell_angle_gamma   47.09034657
_symmetry_Int_Tables_number   1
_chemical_formula_structural   CrH6SO7
_chemical_formula_sum   'Cr2 H12 S2 O14'
_cell_volume   292.54468696
_cell_formula_units_Z   2
loop_
 _symmetry_equiv_pos_site_id
 _symmetry_equiv_pos_as_xyz
  1  'x, y, z'
loop_
 _atom_site_type_symbol
 _atom_site_label
 _atom_site_symmetry_multiplicity
 _atom_site_fract_x
 _atom_site_fract_y
 _atom_site_fract_z
 _atom_site_occupancy
  Cr  Cr0  1  0.86726672  0.86239386  0.50793769  1
  Cr  Cr1  1  0.13760614  0.13273328  0.00793769  1
  H  H2  1  0.03240178  0.18323848  0.64863781  1
  H  H3  1  0.81676152  0.96759822  0.14863781  1
  H  H4  1  0.95045576  0.43523543  0.71719304  1
  H  H5  1  0.56476457  0.04954424  0.21719304  1
  H  H6  1  0.49894318  0.89136247  0.77793832  1
  H  H7  1  0.10863753  0.50105682  0.27793832  1
  H  H8  1  0.61900435  0.74429246  0.97213287  1
  H  H9  1  0.25570754  0.38099565  0.47213287  1
  H  H10  1  0.72316932  0.44411034  0.20760415  1
  H  H11  1  0.55588966  0.27683068  0.70760415  1
  H  H12  1  0.64297418  0.41850279  0.01687809  1
  H  H13  1  0.58149721  0.35702582  0.51687809  1
  S  S14  1  0.38526869  0.84485940  0.42522013  1
  S  S15  1  0.15514060  0.61473131  0.92522013  1
  O  O16  1  0.53614901  0.57962379  0.38722719  1
  O  O17  1  0.42037621  0.46385099  0.88722719  1
  O  O18  1  0.33909777  0.99386934  0.25656355  1
  O  O19  1  0.00613066  0.66090223  0.75656355  1
  O  O20  1  0.14161889  0.95451256  0.49214561  1
  O  O21  1  0.04548744  0.85838111  0.99214561  1
  O  O22  1  0.52690757  0.86533227  0.55770381  1
  O  O23  1  0.13466773  0.47309243  0.05770381  1
  O  O24  1  0.70816121  0.03210335  0.24952107  1
  O  O25  1  0.96789665  0.29183879  0.74952107  1
  O  O26  1  0.08804754  0.51127188  0.40866223  1
  O  O27  1  0.48872812  0.91195246  0.90866223  1
  O  O28  1  0.59042403  0.22858156  0.58313442  1
  O  O29  1  0.77141844  0.40957597  0.08313442  1
