# generated using pymatgen
data_LaCrMoO6
_symmetry_space_group_name_H-M   'P 1'
_cell_length_a   5.51977145
_cell_length_b   5.52602598
_cell_length_c   5.50069207
_cell_angle_alpha   59.95566017
_cell_angle_beta   119.98917190
_cell_angle_gamma   89.83904325
_symmetry_Int_Tables_number   1
_chemical_formula_structural   LaCrMoO6
_chemical_formula_sum   'La1 Cr1 Mo1 O6'
_cell_volume   118.41332255
_cell_formula_units_Z   1
loop_
 _symmetry_equiv_pos_site_id
 _symmetry_equiv_pos_as_xyz
  1  'x, y, z'
loop_
 _atom_site_type_symbol
 _atom_site_label
 _atom_site_symmetry_multiplicity
 _atom_site_fract_x
 _atom_site_fract_y
 _atom_site_fract_z
 _atom_site_occupancy
  La  La0  1  0.75923329  0.25896816  0.50426553  1
  Cr  Cr1  1  0.00141221  0.51021532  0.00030986  1
  Mo  Mo2  1  0.50277413  0.00915075  0.00415302  1
  O  O3  1  0.31991145  0.25189210  0.50755062  1
  O  O4  1  0.22288030  0.28698737  0.93755427  1
  O  O5  1  0.76510944  0.71919276  0.06276828  1
  O  O6  1  0.21556154  0.80308003  0.94417865  1
  O  O7  1  0.77205252  0.23108334  0.04793402  1
  O  O8  1  0.70130211  0.77084118  0.49169876  1
