# generated using pymatgen
data_K4P4H7(RuO9)2
_symmetry_space_group_name_H-M   'P 1'
_cell_length_a   9.23039293
_cell_length_b   9.41316244
_cell_length_c   10.46300793
_cell_angle_alpha   90.00000000
_cell_angle_beta   90.60404337
_cell_angle_gamma   90.00000000
_symmetry_Int_Tables_number   1
_chemical_formula_structural   K4P4H7(RuO9)2
_chemical_formula_sum   'K8 P8 H14 Ru4 O36'
_cell_volume   909.05081689
_cell_formula_units_Z   2
loop_
 _symmetry_equiv_pos_site_id
 _symmetry_equiv_pos_as_xyz
  1  'x, y, z'
loop_
 _atom_site_type_symbol
 _atom_site_label
 _atom_site_symmetry_multiplicity
 _atom_site_fract_x
 _atom_site_fract_y
 _atom_site_fract_z
 _atom_site_occupancy
  K  K0  1  0.13791972  0.77436147  0.34779790  1
  K  K1  1  0.15568949  0.62241067  0.78137807  1
  K  K2  1  0.34431051  0.12241067  0.71862193  1
  K  K3  1  0.36208028  0.27436147  0.15220210  1
  K  K4  1  0.63791972  0.72563853  0.84779790  1
  K  K5  1  0.65568949  0.87758933  0.28137807  1
  K  K6  1  0.84431051  0.37758933  0.21862193  1
  K  K7  1  0.86208028  0.22563853  0.65220210  1
  P  P8  1  0.10219465  0.28557172  0.92289359  1
  P  P9  1  0.21800805  0.36723515  0.46260068  1
  P  P10  1  0.28199195  0.86723515  0.03739932  1
  P  P11  1  0.39780535  0.78557172  0.57710641  1
  P  P12  1  0.60219465  0.21442828  0.42289359  1
  P  P13  1  0.71800805  0.13276485  0.96260068  1
  P  P14  1  0.78199195  0.63276485  0.53739932  1
  P  P15  1  0.89780535  0.71442828  0.07710641  1
  H  H16  1  0.00000000  0.50000000  0.50000000  1
  H  H17  1  0.07709868  0.89817291  0.63113230  1
  H  H18  1  0.09652444  0.12664803  0.36668095  1
  H  H19  1  0.11240457  0.62825818  0.10093121  1
  H  H20  1  0.38759543  0.12825818  0.39906879  1
  H  H21  1  0.40347556  0.62664803  0.13331905  1
  H  H22  1  0.42290132  0.39817291  0.86886770  1
  H  H23  1  0.50000000  0.00000000  0.00000000  1
  H  H24  1  0.57709868  0.60182709  0.13113230  1
  H  H25  1  0.59652444  0.37335197  0.86668095  1
  H  H26  1  0.61240457  0.87174182  0.60093121  1
  H  H27  1  0.88759543  0.37174182  0.89906879  1
  H  H28  1  0.90347556  0.87335197  0.63331905  1
  H  H29  1  0.92290132  0.10182709  0.36886770  1
  Ru  Ru30  1  0.99930045  0.96380319  0.89320326  1
  Ru  Ru31  1  0.00069955  0.03619681  0.10679674  1
  Ru  Ru32  1  0.50069955  0.46380319  0.60679674  1
  Ru  Ru33  1  0.49930045  0.53619681  0.39320326  1
  O  O34  1  0.01469916  0.06732142  0.33148219  1
  O  O35  1  0.00970489  0.59340880  0.12030639  1
  O  O36  1  0.05079010  0.38819790  0.46813775  1
  O  O37  1  0.06683799  0.23968530  0.06265633  1
  O  O38  1  0.07343299  0.15759143  0.83074088  1
  O  O39  1  0.21262246  0.89615147  0.90190664  1
  O  O40  1  0.21521498  0.97877441  0.13187568  1
  O  O41  1  0.24287117  0.21324394  0.41830957  1
  O  O42  1  0.25242132  0.34746344  0.91077200  1
  O  O43  1  0.24757868  0.84746344  0.58922800  1
  O  O44  1  0.25712883  0.71324394  0.08169043  1
  O  O45  1  0.28737754  0.39615147  0.59809336  1
  O  O46  1  0.28478502  0.47877441  0.36812432  1
  O  O47  1  0.42656701  0.65759143  0.66925912  1
  O  O48  1  0.43316201  0.73968530  0.43734367  1
  O  O49  1  0.44920990  0.88819790  0.03186225  1
  O  O50  1  0.49029511  0.09340880  0.37969361  1
  O  O51  1  0.48530084  0.56732142  0.16851781  1
  O  O52  1  0.51469916  0.43267858  0.83148219  1
  O  O53  1  0.50970489  0.90659120  0.62030639  1
  O  O54  1  0.55079010  0.11180210  0.96813775  1
  O  O55  1  0.56683799  0.26031470  0.56265633  1
  O  O56  1  0.57343299  0.34240857  0.33074088  1
  O  O57  1  0.71521498  0.52122559  0.63187568  1
  O  O58  1  0.71262246  0.60384853  0.40190664  1
  O  O59  1  0.74287117  0.28675606  0.91830957  1
  O  O60  1  0.75242132  0.15253656  0.41077200  1
  O  O61  1  0.74757868  0.65253656  0.08922800  1
  O  O62  1  0.75712883  0.78675606  0.58169043  1
  O  O63  1  0.78478502  0.02122559  0.86812432  1
  O  O64  1  0.78737754  0.10384853  0.09809336  1
  O  O65  1  0.92656701  0.84240857  0.16925912  1
  O  O66  1  0.93316201  0.76031470  0.93734367  1
  O  O67  1  0.94920990  0.61180210  0.53186225  1
  O  O68  1  0.99029511  0.40659120  0.87969361  1
  O  O69  1  0.98530084  0.93267858  0.66851781  1
