# generated using pymatgen
data_K4CuP6(H4O11)2
_symmetry_space_group_name_H-M   'P 1'
_cell_length_a   8.61823038
_cell_length_b   14.50087024
_cell_length_c   8.57523662
_cell_angle_alpha   90.00000000
_cell_angle_beta   96.65208011
_cell_angle_gamma   90.00000000
_symmetry_Int_Tables_number   1
_chemical_formula_structural   K4CuP6(H4O11)2
_chemical_formula_sum   'K8 Cu2 P12 H16 O44'
_cell_volume   1064.44853901
_cell_formula_units_Z   2
loop_
 _symmetry_equiv_pos_site_id
 _symmetry_equiv_pos_as_xyz
  1  'x, y, z'
loop_
 _atom_site_type_symbol
 _atom_site_label
 _atom_site_symmetry_multiplicity
 _atom_site_fract_x
 _atom_site_fract_y
 _atom_site_fract_z
 _atom_site_occupancy
  K  K0  1  0.17500525  0.09676485  0.94640421  1
  K  K1  1  0.32499475  0.59676485  0.05359579  1
  K  K2  1  0.82499475  0.90323515  0.05359579  1
  K  K3  1  0.67500525  0.40323515  0.94640421  1
  K  K4  1  0.00269457  0.28173402  0.33277801  1
  K  K5  1  0.49730543  0.78173402  0.66722199  1
  K  K6  1  0.99730543  0.71826598  0.66722199  1
  K  K7  1  0.50269457  0.21826598  0.33277801  1
  Cu  Cu8  1  0.50000000  0.50000000  0.50000000  1
  Cu  Cu9  1  0.00000000  0.00000000  0.50000000  1
  P  P10  1  0.25743507  0.33479002  0.00154224  1
  P  P11  1  0.24256493  0.83479002  0.99845776  1
  P  P12  1  0.74256493  0.66520998  0.99845776  1
  P  P13  1  0.75743507  0.16520998  0.00154224  1
  P  P14  1  0.30935857  0.32584666  0.67181147  1
  P  P15  1  0.19064143  0.82584666  0.32818853  1
  P  P16  1  0.69064143  0.67415334  0.32818853  1
  P  P17  1  0.80935857  0.17415334  0.67181147  1
  P  P18  1  0.06675146  0.45005517  0.76638481  1
  P  P19  1  0.43324854  0.95005517  0.23361519  1
  P  P20  1  0.93324854  0.54994483  0.23361519  1
  P  P21  1  0.56675146  0.04994483  0.76638481  1
  H  H22  1  0.21564592  0.07055392  0.34911679  1
  H  H23  1  0.28435408  0.57055392  0.65088321  1
  H  H24  1  0.78435408  0.92944608  0.65088321  1
  H  H25  1  0.71564592  0.42944608  0.34911679  1
  H  H26  1  0.19989276  0.13556220  0.49945333  1
  H  H27  1  0.30010724  0.63556220  0.50054667  1
  H  H28  1  0.80010724  0.86443780  0.50054667  1
  H  H29  1  0.69989276  0.36443780  0.49945333  1
  H  H30  1  0.36315873  0.42270794  0.25971248  1
  H  H31  1  0.13684127  0.92270794  0.74028752  1
  H  H32  1  0.63684127  0.57729206  0.74028752  1
  H  H33  1  0.86315873  0.07729206  0.25971248  1
  H  H34  1  0.23250776  0.48309231  0.33438341  1
  H  H35  1  0.26749224  0.98309231  0.66561659  1
  H  H36  1  0.76749224  0.51690769  0.66561659  1
  H  H37  1  0.73250776  0.01690769  0.33438341  1
  O  O38  1  0.20642963  0.26365803  0.11131708  1
  O  O39  1  0.29357037  0.76365803  0.88868292  1
  O  O40  1  0.79357037  0.73634197  0.88868292  1
  O  O41  1  0.70642963  0.23634197  0.11131708  1
  O  O42  1  0.38796102  0.39933378  0.06264853  1
  O  O43  1  0.11203898  0.89933378  0.93735147  1
  O  O44  1  0.61203898  0.60066622  0.93735147  1
  O  O45  1  0.88796102  0.10066622  0.06264853  1
  O  O46  1  0.29566637  0.27974164  0.84483331  1
  O  O47  1  0.20433363  0.77974164  0.15516669  1
  O  O48  1  0.70433363  0.72025836  0.15516669  1
  O  O49  1  0.79566637  0.22025836  0.84483331  1
  O  O50  1  0.44507983  0.39135371  0.69026627  1
  O  O51  1  0.05492017  0.89135371  0.30973373  1
  O  O52  1  0.55492017  0.60864629  0.30973373  1
  O  O53  1  0.94507983  0.10864629  0.69026627  1
  O  O54  1  0.29661628  0.25058251  0.55219251  1
  O  O55  1  0.20338372  0.75058251  0.44780749  1
  O  O56  1  0.70338372  0.74941749  0.44780749  1
  O  O57  1  0.79661628  0.24941749  0.55219251  1
  O  O58  1  0.89272143  0.44621298  0.72908564  1
  O  O59  1  0.60727857  0.94621298  0.27091436  1
  O  O60  1  0.10727857  0.55378702  0.27091436  1
  O  O61  1  0.39272143  0.05378702  0.72908564  1
  O  O62  1  0.14663456  0.54271235  0.77100069  1
  O  O63  1  0.35336544  0.04271235  0.22899931  1
  O  O64  1  0.85336544  0.45728765  0.22899931  1
  O  O65  1  0.64663456  0.95728765  0.77100069  1
  O  O66  1  0.14284606  0.38235439  0.64493572  1
  O  O67  1  0.35715394  0.88235439  0.35506428  1
  O  O68  1  0.85715394  0.61764561  0.35506428  1
  O  O69  1  0.64284606  0.11764561  0.64493572  1
  O  O70  1  0.10590345  0.39622075  0.93287428  1
  O  O71  1  0.39409655  0.89622075  0.06712572  1
  O  O72  1  0.89409655  0.60377925  0.06712572  1
  O  O73  1  0.60590345  0.10377925  0.93287428  1
  O  O74  1  0.13982284  0.09683579  0.41788949  1
  O  O75  1  0.36017716  0.59683579  0.58211051  1
  O  O76  1  0.86017716  0.90316421  0.58211051  1
  O  O77  1  0.63982284  0.40316421  0.41788949  1
  O  O78  1  0.32579238  0.44046109  0.36169656  1
  O  O79  1  0.17420762  0.94046109  0.63830344  1
  O  O80  1  0.67420762  0.55953891  0.63830344  1
  O  O81  1  0.82579238  0.05953891  0.36169656  1
