# generated using pymatgen
data_BaSrI4
_symmetry_space_group_name_H-M   'P 1'
_cell_length_a   10.21900744
_cell_length_b   11.19704226
_cell_length_c   11.20805500
_cell_angle_alpha   90.00000000
_cell_angle_beta   90.00000000
_cell_angle_gamma   90.00000000
_symmetry_Int_Tables_number   1
_chemical_formula_structural   BaSrI4
_chemical_formula_sum   'Ba4 Sr4 I16'
_cell_volume   1282.45544591
_cell_formula_units_Z   4
loop_
 _symmetry_equiv_pos_site_id
 _symmetry_equiv_pos_as_xyz
  1  'x, y, z'
loop_
 _atom_site_type_symbol
 _atom_site_label
 _atom_site_symmetry_multiplicity
 _atom_site_fract_x
 _atom_site_fract_y
 _atom_site_fract_z
 _atom_site_occupancy
  Ba  Ba0  1  0.99583220  0.76143577  0.21686060  1
  Ba  Ba1  1  0.50416780  0.26143577  0.71686060  1
  Ba  Ba2  1  0.49583220  0.73856423  0.21686060  1
  Ba  Ba3  1  0.00416780  0.23856423  0.71686060  1
  Sr  Sr4  1  0.22711205  0.25079850  0.21728329  1
  Sr  Sr5  1  0.27288795  0.75079850  0.71728329  1
  Sr  Sr6  1  0.72711205  0.24920150  0.21728329  1
  Sr  Sr7  1  0.77288795  0.74920150  0.71728329  1
  I  I8  1  0.02054241  0.76650077  0.52758495  1
  I  I9  1  0.02101154  0.77429561  0.90633850  1
  I  I10  1  0.24365324  0.45621821  0.72566984  1
  I  I11  1  0.23419958  0.54497118  0.20564282  1
  I  I12  1  0.26580042  0.04497118  0.70564282  1
  I  I13  1  0.25634676  0.95621821  0.22566984  1
  I  I14  1  0.47898846  0.27429561  0.40633850  1
  I  I15  1  0.47945759  0.26650077  0.02758495  1
  I  I16  1  0.52054241  0.73349923  0.52758495  1
  I  I17  1  0.52101154  0.72570439  0.90633850  1
  I  I18  1  0.74365324  0.04378179  0.72566984  1
  I  I19  1  0.73419958  0.95502882  0.20564282  1
  I  I20  1  0.76580042  0.45502882  0.70564282  1
  I  I21  1  0.75634676  0.54378179  0.22566984  1
  I  I22  1  0.97898846  0.22570439  0.40633850  1
  I  I23  1  0.97945759  0.23349923  0.02758495  1
