# generated using pymatgen
data_VH2SeO5
_symmetry_space_group_name_H-M   'P 1'
_cell_length_a   6.14342468
_cell_length_b   6.28762319
_cell_length_c   6.44461645
_cell_angle_alpha   92.10613311
_cell_angle_beta   101.25823304
_cell_angle_gamma   117.87799015
_symmetry_Int_Tables_number   1
_chemical_formula_structural   VH2SeO5
_chemical_formula_sum   'V2 H4 Se2 O10'
_cell_volume   213.44797756
_cell_formula_units_Z   2
loop_
 _symmetry_equiv_pos_site_id
 _symmetry_equiv_pos_as_xyz
  1  'x, y, z'
loop_
 _atom_site_type_symbol
 _atom_site_label
 _atom_site_symmetry_multiplicity
 _atom_site_fract_x
 _atom_site_fract_y
 _atom_site_fract_z
 _atom_site_occupancy
  V  V0  1  0.72234759  0.70820471  0.68920648  1
  V  V1  1  0.27765241  0.29179529  0.31079352  1
  H  H2  1  0.79506942  0.28949285  0.57755725  1
  H  H3  1  0.20493058  0.71050715  0.42244275  1
  H  H4  1  0.99033322  0.42320626  0.79767201  1
  H  H5  1  0.00966678  0.57679374  0.20232799  1
  Se  Se6  1  0.66195191  0.80821658  0.15789881  1
  Se  Se7  1  0.33804809  0.19178342  0.84210119  1
  O  O8  1  0.61188804  0.89999592  0.70684186  1
  O  O9  1  0.38811196  0.10000408  0.29315814  1
  O  O10  1  0.85959655  0.43020403  0.68677068  1
  O  O11  1  0.14040345  0.56979597  0.31322932  1
  O  O12  1  0.79472732  0.68282045  0.01024526  1
  O  O13  1  0.20527268  0.31717955  0.98975474  1
  O  O14  1  0.90774406  0.07282260  0.29812035  1
  O  O15  1  0.09225594  0.92717740  0.70187965  1
  O  O16  1  0.62490661  0.61301232  0.36105545  1
  O  O17  1  0.37509339  0.38698768  0.63894455  1
