# generated using pymatgen
data_SrP2(H2O3)3
_symmetry_space_group_name_H-M   'P 1'
_cell_length_a   6.73556632
_cell_length_b   7.37824731
_cell_length_c   8.67295386
_cell_angle_alpha   102.03279041
_cell_angle_beta   110.00499064
_cell_angle_gamma   95.92784457
_symmetry_Int_Tables_number   1
_chemical_formula_structural   SrP2(H2O3)3
_chemical_formula_sum   'Sr2 P4 H12 O18'
_cell_volume   388.89793524
_cell_formula_units_Z   2
loop_
 _symmetry_equiv_pos_site_id
 _symmetry_equiv_pos_as_xyz
  1  'x, y, z'
loop_
 _atom_site_type_symbol
 _atom_site_label
 _atom_site_symmetry_multiplicity
 _atom_site_fract_x
 _atom_site_fract_y
 _atom_site_fract_z
 _atom_site_occupancy
  Sr  Sr0  1  0.39862548  0.74873746  0.30887912  1
  Sr  Sr1  1  0.60137452  0.25126254  0.69112088  1
  P  P2  1  0.76182970  0.80129658  0.76140978  1
  P  P3  1  0.23817030  0.19870342  0.23859022  1
  P  P4  1  0.15732689  0.09463599  0.87242828  1
  P  P5  1  0.84267311  0.90536401  0.12757172  1
  H  H6  1  0.27793504  0.47640809  0.74426934  1
  H  H7  1  0.72206496  0.52359191  0.25573066  1
  H  H8  1  0.24929216  0.51350442  0.56751384  1
  H  H9  1  0.75070784  0.48649558  0.43248616  1
  H  H10  1  0.18378947  0.67774665  0.91941151  1
  H  H11  1  0.81621053  0.32225335  0.08058849  1
  H  H12  1  0.16709952  0.46829402  0.93720366  1
  H  H13  1  0.83290048  0.53170598  0.06279634  1
  H  H14  1  0.97515454  0.28856744  0.53633002  1
  H  H15  1  0.02484546  0.71143256  0.46366998  1
  H  H16  1  0.22603223  0.85773230  0.60945169  1
  H  H17  1  0.77396777  0.14226770  0.39054831  1
  O  O18  1  0.97996773  0.11940166  0.17528276  1
  O  O19  1  0.02003227  0.88059834  0.82471724  1
  O  O20  1  0.29483758  0.11700081  0.07227432  1
  O  O21  1  0.70516242  0.88299919  0.92772568  1
  O  O22  1  0.26256122  0.40830166  0.27649576  1
  O  O23  1  0.73743878  0.59169834  0.72350424  1
  O  O24  1  0.35806597  0.10520846  0.37079991  1
  O  O25  1  0.64193403  0.89479154  0.62920009  1
  O  O26  1  0.99022108  0.76462109  0.14395062  1
  O  O27  1  0.00977892  0.23537891  0.85604938  1
  O  O28  1  0.69194332  0.91794501  0.22032501  1
  O  O29  1  0.30805668  0.08205499  0.77967499  1
  O  O30  1  0.26069458  0.41201830  0.62705700  1
  O  O31  1  0.73930542  0.58798170  0.37294300  1
  O  O32  1  0.27031873  0.58817765  0.96399967  1
  O  O33  1  0.72968127  0.41182235  0.03600033  1
  O  O34  1  0.18426537  0.74456814  0.51241667  1
  O  O35  1  0.81573463  0.25543186  0.48758333  1
