# generated using pymatgen
data_Li2P2H2O7
_symmetry_space_group_name_H-M   'P 1'
_cell_length_a   10.13663054
_cell_length_b   10.13663054
_cell_length_c   10.13663047
_cell_angle_alpha   103.86025592
_cell_angle_beta   103.86025592
_cell_angle_gamma   103.86025668
_symmetry_Int_Tables_number   1
_chemical_formula_structural   Li2P2H2O7
_chemical_formula_sum   'Li12 P12 H12 O42'
_cell_volume   931.79384387
_cell_formula_units_Z   6
loop_
 _symmetry_equiv_pos_site_id
 _symmetry_equiv_pos_as_xyz
  1  'x, y, z'
loop_
 _atom_site_type_symbol
 _atom_site_label
 _atom_site_symmetry_multiplicity
 _atom_site_fract_x
 _atom_site_fract_y
 _atom_site_fract_z
 _atom_site_occupancy
  Li  Li0  1  0.80746122  0.19253878  0.50000000  1
  Li  Li1  1  0.19253878  0.50000000  0.80746122  1
  Li  Li2  1  0.50000000  0.80746122  0.19253878  1
  Li  Li3  1  0.80746122  0.50000000  0.19253878  1
  Li  Li4  1  0.50000000  0.19253878  0.80746122  1
  Li  Li5  1  0.19253878  0.80746122  0.50000000  1
  Li  Li6  1  0.79789997  0.23963967  0.23963967  1
  Li  Li7  1  0.23963967  0.23963967  0.79789997  1
  Li  Li8  1  0.23963967  0.79789997  0.23963967  1
  Li  Li9  1  0.20210003  0.76036033  0.76036033  1
  Li  Li10  1  0.76036033  0.76036033  0.20210003  1
  Li  Li11  1  0.76036033  0.20210003  0.76036033  1
  P  P12  1  0.11099005  0.48412388  0.29672685  1
  P  P13  1  0.48412388  0.29672685  0.11099005  1
  P  P14  1  0.29672685  0.11099005  0.48412388  1
  P  P15  1  0.11099005  0.29672685  0.48412388  1
  P  P16  1  0.29672685  0.48412388  0.11099005  1
  P  P17  1  0.48412388  0.11099005  0.29672685  1
  P  P18  1  0.88900995  0.51587612  0.70327315  1
  P  P19  1  0.51587612  0.70327315  0.88900995  1
  P  P20  1  0.70327315  0.88900995  0.51587612  1
  P  P21  1  0.88900995  0.70327315  0.51587612  1
  P  P22  1  0.70327315  0.51587612  0.88900995  1
  P  P23  1  0.51587612  0.88900995  0.70327315  1
  H  H24  1  0.71299095  0.07514919  0.97864774  1
  H  H25  1  0.07514919  0.97864774  0.71299095  1
  H  H26  1  0.97864774  0.71299095  0.07514919  1
  H  H27  1  0.71299095  0.97864774  0.07514919  1
  H  H28  1  0.97864774  0.07514919  0.71299095  1
  H  H29  1  0.07514919  0.71299095  0.97864774  1
  H  H30  1  0.28700905  0.92485081  0.02135226  1
  H  H31  1  0.92485081  0.02135226  0.28700905  1
  H  H32  1  0.02135226  0.28700905  0.92485081  1
  H  H33  1  0.28700905  0.02135226  0.92485081  1
  H  H34  1  0.02135226  0.92485081  0.28700905  1
  H  H35  1  0.92485081  0.28700905  0.02135226  1
  O  O36  1  0.95461049  0.40444677  0.21819388  1
  O  O37  1  0.40444677  0.21819388  0.95461049  1
  O  O38  1  0.21819388  0.95461049  0.40444677  1
  O  O39  1  0.95461049  0.21819388  0.40444677  1
  O  O40  1  0.21819388  0.40444677  0.95461049  1
  O  O41  1  0.40444677  0.95461049  0.21819388  1
  O  O42  1  0.04538951  0.59555323  0.78180612  1
  O  O43  1  0.59555323  0.78180612  0.04538951  1
  O  O44  1  0.78180612  0.04538951  0.59555323  1
  O  O45  1  0.04538951  0.78180612  0.59555323  1
  O  O46  1  0.78180612  0.59555323  0.04538951  1
  O  O47  1  0.59555323  0.04538951  0.78180612  1
  O  O48  1  0.15906516  0.33897366  0.64412246  1
  O  O49  1  0.33897366  0.64412246  0.15906516  1
  O  O50  1  0.64412246  0.15906516  0.33897366  1
  O  O51  1  0.15906516  0.64412246  0.33897366  1
  O  O52  1  0.64412246  0.33897366  0.15906516  1
  O  O53  1  0.33897366  0.15906516  0.64412246  1
  O  O54  1  0.84093484  0.66102634  0.35587754  1
  O  O55  1  0.66102634  0.35587754  0.84093484  1
  O  O56  1  0.35587754  0.84093484  0.66102634  1
  O  O57  1  0.84093484  0.35587754  0.66102634  1
  O  O58  1  0.35587754  0.66102634  0.84093484  1
  O  O59  1  0.66102634  0.84093484  0.35587754  1
  O  O60  1  0.16142878  0.43917475  0.43917475  1
  O  O61  1  0.43917475  0.43917475  0.16142878  1
  O  O62  1  0.43917475  0.16142878  0.43917475  1
  O  O63  1  0.83857122  0.56082525  0.56082525  1
  O  O64  1  0.56082525  0.56082525  0.83857122  1
  O  O65  1  0.56082525  0.83857122  0.56082525  1
  O  O66  1  0.58065018  0.79655836  0.79655836  1
  O  O67  1  0.79655836  0.79655836  0.58065018  1
  O  O68  1  0.79655836  0.58065018  0.79655836  1
  O  O69  1  0.41934982  0.20344164  0.20344164  1
  O  O70  1  0.20344164  0.20344164  0.41934982  1
  O  O71  1  0.20344164  0.41934982  0.20344164  1
  O  O72  1  0.75997204  0.07522930  0.07522930  1
  O  O73  1  0.07522930  0.07522930  0.75997204  1
  O  O74  1  0.07522930  0.75997204  0.07522930  1
  O  O75  1  0.24002796  0.92477070  0.92477070  1
  O  O76  1  0.92477070  0.92477070  0.24002796  1
  O  O77  1  0.92477070  0.24002796  0.92477070  1
