# generated using pymatgen
data_CdNi2H24(ClO2)6
_symmetry_space_group_name_H-M   'P 1'
_cell_length_a   9.99512435
_cell_length_b   9.97577879
_cell_length_c   11.40731706
_cell_angle_alpha   90.27416734
_cell_angle_beta   89.63217767
_cell_angle_gamma   120.23921056
_symmetry_Int_Tables_number   1
_chemical_formula_structural   CdNi2H24(ClO2)6
_chemical_formula_sum   'Cd2 Ni4 H48 Cl12 O24'
_cell_volume   982.62454704
_cell_formula_units_Z   2
loop_
 _symmetry_equiv_pos_site_id
 _symmetry_equiv_pos_as_xyz
  1  'x, y, z'
loop_
 _atom_site_type_symbol
 _atom_site_label
 _atom_site_symmetry_multiplicity
 _atom_site_fract_x
 _atom_site_fract_y
 _atom_site_fract_z
 _atom_site_occupancy
  Cd  Cd0  1  0.99998534  0.00030421  0.00298023  1
  Cd  Cd1  1  0.33326487  0.66658559  0.53209729  1
  Ni  Ni2  1  0.99992780  0.99988874  0.51312031  1
  Ni  Ni3  1  0.66672168  0.33346948  0.11743731  1
  Ni  Ni4  1  0.66670984  0.33337340  0.61280899  1
  Ni  Ni5  1  0.33326480  0.66668787  0.03080296  1
  H  H6  1  0.85996225  0.31921800  0.96739213  1
  H  H7  1  0.45996507  0.14022217  0.96792010  1
  H  H8  1  0.68110402  0.53990469  0.96792226  1
  H  H9  1  0.95669166  0.44171439  0.06509963  1
  H  H10  1  0.48463080  0.04302286  0.06501577  1
  H  H11  1  0.55792415  0.51415614  0.06535984  1
  H  H12  1  0.37499705  0.24231949  0.19163708  1
  H  H13  1  0.86780213  0.62543247  0.19158221  1
  H  H14  1  0.75763624  0.13317183  0.19075615  1
  H  H15  1  0.48801183  0.32234860  0.29534077  1
  H  H16  1  0.83358236  0.51143814  0.29483405  1
  H  H17  1  0.67758784  0.16676300  0.29476417  1
  H  H18  1  0.86049464  0.54600118  0.76817669  1
  H  H19  1  0.68531042  0.14024578  0.76747691  1
  H  H20  1  0.45402047  0.31433169  0.76818402  1
  H  H21  1  0.95551716  0.47571830  0.70311035  1
  H  H22  1  0.51986066  0.04388686  0.70337121  1
  H  H23  1  0.52435393  0.47980226  0.70318246  1
  H  H24  1  0.47340491  0.10539210  0.47546960  1
  H  H25  1  0.63263934  0.52620821  0.47596409  1
  H  H26  1  0.89465000  0.36819630  0.47528441  1
  H  H27  1  0.37769570  0.17543023  0.53383500  1
  H  H28  1  0.79817874  0.62292733  0.53380587  1
  H  H29  1  0.82460176  0.20246849  0.53376816  1
  H  H30  1  0.57730936  0.72216739  0.14632842  1
  H  H31  1  0.14374397  0.42206841  0.14673829  1
  H  H32  1  0.27816795  0.85608864  0.14750571  1
  H  H33  1  0.44337102  0.57663380  0.21451716  1
  H  H34  1  0.13206006  0.55563314  0.21545265  1
  H  H35  1  0.42297110  0.86797877  0.21525544  1
  H  H36  1  0.53014753  0.77387630  0.84676840  1
  H  H37  1  0.24408913  0.46969618  0.84688880  1
  H  H38  1  0.22708474  0.75609647  0.84734684  1
  H  H39  1  0.56541962  0.91702856  0.92902611  1
  H  H40  1  0.35111203  0.43486621  0.92858675  1
  H  H41  1  0.08433204  0.64817865  0.92996269  1
  H  H42  1  0.18823723  0.24621358  0.63227360  1
  H  H43  1  0.05755861  0.81206421  0.63167077  1
  H  H44  1  0.75386651  0.94175339  0.63225488  1
  H  H45  1  0.19798921  0.11185125  0.69445309  1
  H  H46  1  0.91310075  0.80141061  0.69486807  1
  H  H47  1  0.88810858  0.08693409  0.69479660  1
  H  H48  1  0.13143298  0.84921822  0.42419956  1
  H  H49  1  0.71804755  0.86874596  0.42459754  1
  H  H50  1  0.15109056  0.28250423  0.42425107  1
  H  H51  1  0.13016858  0.95385496  0.32639445  1
  H  H52  1  0.82455862  0.86967325  0.32654838  1
  H  H53  1  0.04558471  0.17543248  0.32673696  1
  Cl  Cl54  1  0.15319956  0.43352301  0.67286636  1
  Cl  Cl55  1  0.27993921  0.84643174  0.67292382  1
  Cl  Cl56  1  0.56592310  0.71960510  0.67263239  1
  Cl  Cl57  1  0.08854194  0.60053294  0.39947035  1
  Cl  Cl58  1  0.51242318  0.91170325  0.39928344  1
  Cl  Cl59  1  0.39949393  0.48761083  0.39930898  1
  Cl  Cl60  1  0.07189792  0.84274409  0.15639532  1
  Cl  Cl61  1  0.77109757  0.92836316  0.15674217  1
  Cl  Cl62  1  0.15785607  0.22966007  0.15652321  1
  Cl  Cl63  1  0.86442356  0.74201690  0.87541596  1
  Cl  Cl64  1  0.87753641  0.13517979  0.87561592  1
  Cl  Cl65  1  0.25810821  0.12260168  0.87508754  1
  O  O66  1  0.86384858  0.40412846  0.01569285  1
  O  O67  1  0.54038943  0.13686720  0.01538737  1
  O  O68  1  0.59710413  0.45893113  0.01631412  1
  O  O69  1  0.47355866  0.25979614  0.22489108  1
  O  O70  1  0.78607323  0.52575277  0.22525634  1
  O  O71  1  0.73890849  0.21433657  0.22435260  1
  O  O72  1  0.85211933  0.45901144  0.72178599  1
  O  O73  1  0.60644504  0.14779511  0.72196582  1
  O  O74  1  0.54136185  0.39372548  0.72219651  1
  O  O75  1  0.48097493  0.20181743  0.50448829  1
  O  O76  1  0.72128367  0.51925605  0.50433794  1
  O  O77  1  0.79816199  0.27852712  0.50429773  1
  O  O78  1  0.47897258  0.61997514  0.13520086  1
  O  O79  1  0.13988324  0.51987315  0.13574589  1
  O  O80  1  0.37988260  0.86018844  0.13596862  1
  O  O81  1  0.51820931  0.80479114  0.92724450  1
  O  O82  1  0.28592420  0.48143630  0.92717258  1
  O  O83  1  0.19627042  0.71340220  0.92780868  1
  O  O84  1  0.19069070  0.14926768  0.61559150  1
  O  O85  1  0.95841750  0.80922793  0.61557466  1
  O  O86  1  0.85086901  0.04162080  0.61574644  1
  O  O87  1  0.14364940  0.95276182  0.41208401  1
  O  O88  1  0.80903538  0.85625642  0.41224410  1
  O  O89  1  0.04747571  0.19068298  0.41252377  1
