# generated using pymatgen
data_NaPH7O6
_symmetry_space_group_name_H-M   'P 1'
_cell_length_a   7.87604828
_cell_length_b   7.87604828
_cell_length_c   12.83319722
_cell_angle_alpha   66.84772373
_cell_angle_beta   113.15227627
_cell_angle_gamma   126.89334242
_symmetry_Int_Tables_number   1
_chemical_formula_structural   NaPH7O6
_chemical_formula_sum   'Na4 P4 H28 O24'
_cell_volume   571.86376655
_cell_formula_units_Z   4
loop_
 _symmetry_equiv_pos_site_id
 _symmetry_equiv_pos_as_xyz
  1  'x, y, z'
loop_
 _atom_site_type_symbol
 _atom_site_label
 _atom_site_symmetry_multiplicity
 _atom_site_fract_x
 _atom_site_fract_y
 _atom_site_fract_z
 _atom_site_occupancy
  Na  Na0  1  0.85263983  0.38008336  0.73601165  1
  Na  Na1  1  0.38008336  0.85263983  0.76398835  1
  Na  Na2  1  0.14736017  0.61991664  0.26398835  1
  Na  Na3  1  0.61991664  0.14736017  0.23601165  1
  P  P4  1  0.85697545  0.85970293  0.66234717  1
  P  P5  1  0.85970293  0.85697545  0.83765283  1
  P  P6  1  0.14302455  0.14029707  0.33765283  1
  P  P7  1  0.14029707  0.14302455  0.16234717  1
  H  H8  1  0.13299954  0.72473841  0.55179229  1
  H  H9  1  0.72473841  0.13299954  0.94820771  1
  H  H10  1  0.86700046  0.27526159  0.44820771  1
  H  H11  1  0.27526159  0.86700046  0.05179229  1
  H  H12  1  0.64835778  0.09027032  0.59920531  1
  H  H13  1  0.09027032  0.64835778  0.90079469  1
  H  H14  1  0.35164222  0.90972968  0.40079469  1
  H  H15  1  0.90972968  0.35164222  0.09920531  1
  H  H16  1  0.45786769  0.47579593  0.61359989  1
  H  H17  1  0.47579593  0.45786769  0.88640011  1
  H  H18  1  0.54213231  0.52420407  0.38640011  1
  H  H19  1  0.52420407  0.54213231  0.11359989  1
  H  H20  1  0.18684075  0.54101908  0.60412088  1
  H  H21  1  0.54101908  0.18684075  0.89587912  1
  H  H22  1  0.81315925  0.45898092  0.39587912  1
  H  H23  1  0.45898092  0.81315925  0.10412088  1
  H  H24  1  0.27416982  0.39460153  0.50331416  1
  H  H25  1  0.39460153  0.27416982  0.99668584  1
  H  H26  1  0.72583018  0.60539847  0.49668584  1
  H  H27  1  0.60539847  0.72583018  0.00331416  1
  H  H28  1  0.44625065  0.11314979  0.54656766  1
  H  H29  1  0.11314979  0.44625065  0.95343234  1
  H  H30  1  0.55374935  0.88685021  0.45343234  1
  H  H31  1  0.88685021  0.55374935  0.04656766  1
  H  H32  1  0.19043462  0.13772813  0.64183716  1
  H  H33  1  0.13772813  0.19043462  0.85816284  1
  H  H34  1  0.80956538  0.86227187  0.35816284  1
  H  H35  1  0.86227187  0.80956538  0.14183716  1
  O  O36  1  0.77432053  0.00267880  0.56945465  1
  O  O37  1  0.00267880  0.77432053  0.93054535  1
  O  O38  1  0.22567947  0.99732120  0.43054535  1
  O  O39  1  0.99732120  0.22567947  0.06945465  1
  O  O40  1  0.73794234  0.62891509  0.64570153  1
  O  O41  1  0.62891509  0.73794234  0.85429847  1
  O  O42  1  0.26205766  0.37108491  0.35429847  1
  O  O43  1  0.37108491  0.26205766  0.14570153  1
  O  O44  1  0.11115141  0.97138973  0.67214850  1
  O  O45  1  0.97138973  0.11115141  0.82785150  1
  O  O46  1  0.88884859  0.02861027  0.32785150  1
  O  O47  1  0.02861027  0.88884859  0.17214850  1
  O  O48  1  0.13642737  0.61280032  0.62182295  1
  O  O49  1  0.61280032  0.13642737  0.87817705  1
  O  O50  1  0.86357263  0.38719968  0.37817705  1
  O  O51  1  0.38719968  0.86357263  0.12182295  1
  O  O52  1  0.56818665  0.13535395  0.61501643  1
  O  O53  1  0.13535395  0.56818665  0.88498357  1
  O  O54  1  0.43181335  0.86464605  0.38498357  1
  O  O55  1  0.86464605  0.43181335  0.11501643  1
  O  O56  1  0.29623945  0.38517236  0.58630008  1
  O  O57  1  0.38517236  0.29623945  0.91369992  1
  O  O58  1  0.70376055  0.61482764  0.41369992  1
  O  O59  1  0.61482764  0.70376055  0.08630008  1
