# generated using pymatgen
data_Ce4SmO9
_symmetry_space_group_name_H-M   'P 1'
_cell_length_a   3.82034371
_cell_length_b   10.44803718
_cell_length_c   5.55377993
_cell_angle_alpha   105.45395655
_cell_angle_beta   89.86491795
_cell_angle_gamma   79.57454045
_symmetry_Int_Tables_number   1
_chemical_formula_structural   Ce4SmO9
_chemical_formula_sum   'Ce4 Sm1 O9'
_cell_volume   209.83812876
_cell_formula_units_Z   1
loop_
 _symmetry_equiv_pos_site_id
 _symmetry_equiv_pos_as_xyz
  1  'x, y, z'
loop_
 _atom_site_type_symbol
 _atom_site_label
 _atom_site_symmetry_multiplicity
 _atom_site_fract_x
 _atom_site_fract_y
 _atom_site_fract_z
 _atom_site_occupancy
  Ce  Ce0  1  0.79698159  0.39912762  0.20273707  1
  Ce  Ce1  1  0.60743349  0.78590573  0.40118149  1
  Ce  Ce2  1  0.39144172  0.21450626  0.61802764  1
  Ce  Ce3  1  0.19790608  0.60147874  0.80249233  1
  Sm  Sm4  1  0.99611332  0.99973048  0.94787791  1
  O  O5  1  0.69550372  0.60692204  0.05907299  1
  O  O6  1  0.08242317  0.83230510  0.17009387  1
  O  O7  1  0.90847074  0.16877207  0.34273701  1
  O  O8  1  0.29785227  0.39392158  0.45295233  1
  O  O9  1  0.10552217  0.78772686  0.63983421  1
  O  O10  1  0.70151276  0.59439288  0.55175324  1
  O  O11  1  0.29661724  0.40641345  0.95757802  1
  O  O12  1  0.89136157  0.21185378  0.85717329  1
  O  O13  1  0.49734015  0.99952641  0.72285959  1
