# generated using pymatgen
data_Sr2Li2Nb4O13
_symmetry_space_group_name_H-M   'P 1'
_cell_length_a   4.00477344
_cell_length_b   17.48993064
_cell_length_c   4.00477344
_cell_angle_alpha   83.42590860
_cell_angle_beta   90.00000000
_cell_angle_gamma   96.57409140
_symmetry_Int_Tables_number   1
_chemical_formula_structural   Sr2Li2Nb4O13
_chemical_formula_sum   'Sr2 Li2 Nb4 O13'
_cell_volume   276.80602319
_cell_formula_units_Z   1
loop_
 _symmetry_equiv_pos_site_id
 _symmetry_equiv_pos_as_xyz
  1  'x, y, z'
loop_
 _atom_site_type_symbol
 _atom_site_label
 _atom_site_symmetry_multiplicity
 _atom_site_fract_x
 _atom_site_fract_y
 _atom_site_fract_z
 _atom_site_occupancy
  Sr  Sr0  1  0.61648756  0.23297512  0.38351244  1
  Sr  Sr1  1  0.38351244  0.76702488  0.61648756  1
  Li  Li2  1  0.25000000  0.50000000  0.25000000  1
  Li  Li3  1  0.75000000  0.50000000  0.75000000  1
  Nb  Nb4  1  0.94381221  0.88762541  0.05618779  1
  Nb  Nb5  1  0.82121932  0.64243964  0.17878068  1
  Nb  Nb6  1  0.05618779  0.11237459  0.94381221  1
  Nb  Nb7  1  0.17878068  0.35756036  0.82121932  1
  O  O8  1  0.00000000  0.00000000  0.00000000  1
  O  O9  1  0.06237970  0.12475940  0.43762030  1
  O  O10  1  0.17323030  0.34646060  0.32676970  1
  O  O11  1  0.32676970  0.65353940  0.17323030  1
  O  O12  1  0.43762030  0.87524060  0.06237970  1
  O  O13  1  0.76618464  0.53236828  0.23381536  1
  O  O14  1  0.88307617  0.76615233  0.11692383  1
  O  O15  1  0.11692383  0.23384767  0.88307617  1
  O  O16  1  0.23381536  0.46763172  0.76618464  1
  O  O17  1  0.67323030  0.34646060  0.82676970  1
  O  O18  1  0.56237970  0.12475940  0.93762030  1
  O  O19  1  0.93762030  0.87524060  0.56237970  1
  O  O20  1  0.82676970  0.65353940  0.67323030  1
