# generated using pymatgen
data_MgTi2(CuO4)2
_symmetry_space_group_name_H-M   'P 1'
_cell_length_a   6.42097059
_cell_length_b   8.35683588
_cell_length_c   12.07266004
_cell_angle_alpha   90.00000000
_cell_angle_beta   91.58964426
_cell_angle_gamma   90.00000000
_symmetry_Int_Tables_number   1
_chemical_formula_structural   MgTi2(CuO4)2
_chemical_formula_sum   'Mg4 Ti8 Cu8 O32'
_cell_volume   647.55752263
_cell_formula_units_Z   4
loop_
 _symmetry_equiv_pos_site_id
 _symmetry_equiv_pos_as_xyz
  1  'x, y, z'
loop_
 _atom_site_type_symbol
 _atom_site_label
 _atom_site_symmetry_multiplicity
 _atom_site_fract_x
 _atom_site_fract_y
 _atom_site_fract_z
 _atom_site_occupancy
  Mg  Mg0  1  0.11333891  0.15774561  0.04778478  1
  Mg  Mg1  1  0.88666109  0.84225439  0.95221522  1
  Mg  Mg2  1  0.88666109  0.65774561  0.45221522  1
  Mg  Mg3  1  0.11333891  0.34225439  0.54778478  1
  Ti  Ti4  1  0.09823902  0.45823288  0.83981608  1
  Ti  Ti5  1  0.09823902  0.04176712  0.33981608  1
  Ti  Ti6  1  0.61282084  0.08905407  0.13720559  1
  Ti  Ti7  1  0.90176098  0.95823288  0.66018392  1
  Ti  Ti8  1  0.38717916  0.91094593  0.86279441  1
  Ti  Ti9  1  0.38717916  0.58905407  0.36279441  1
  Ti  Ti10  1  0.61282084  0.41094593  0.63720559  1
  Ti  Ti11  1  0.90176098  0.54176712  0.16018392  1
  Cu  Cu12  1  0.76509877  0.18230130  0.87543202  1
  Cu  Cu13  1  0.37387073  0.06173767  0.62811734  1
  Cu  Cu14  1  0.62612927  0.93826233  0.37188266  1
  Cu  Cu15  1  0.23490123  0.81769870  0.12456798  1
  Cu  Cu16  1  0.76509877  0.31769870  0.37543202  1
  Cu  Cu17  1  0.37387073  0.43826233  0.12811734  1
  Cu  Cu18  1  0.23490123  0.68230130  0.62456798  1
  Cu  Cu19  1  0.62612927  0.56173767  0.87188266  1
  O  O20  1  0.03136632  0.24327434  0.39727954  1
  O  O21  1  0.65008389  0.01460339  0.60433106  1
  O  O22  1  0.19294391  0.57557862  0.47554240  1
  O  O23  1  0.80705609  0.07557862  0.02445760  1
  O  O24  1  0.03136632  0.25672566  0.89727954  1
  O  O25  1  0.96863368  0.75672566  0.60272046  1
  O  O26  1  0.09265358  0.11263750  0.61383241  1
  O  O27  1  0.50023988  0.89576174  0.14186521  1
  O  O28  1  0.50023988  0.60423826  0.64186521  1
  O  O29  1  0.30504982  0.87489477  0.70873737  1
  O  O30  1  0.69495018  0.37489477  0.79126263  1
  O  O31  1  0.49976012  0.10423826  0.85813479  1
  O  O32  1  0.90734642  0.88736250  0.38616759  1
  O  O33  1  0.88300766  0.53316976  0.30805901  1
  O  O34  1  0.41761805  0.27119686  0.58531267  1
  O  O35  1  0.41761805  0.22880314  0.08531267  1
  O  O36  1  0.11699234  0.03316976  0.19194099  1
  O  O37  1  0.49976012  0.39576174  0.35813479  1
  O  O38  1  0.11699234  0.46683024  0.69194099  1
  O  O39  1  0.80705609  0.42442138  0.52445760  1
  O  O40  1  0.65008389  0.48539661  0.10433106  1
  O  O41  1  0.69495018  0.12510523  0.29126263  1
  O  O42  1  0.96863368  0.74327434  0.10272046  1
  O  O43  1  0.09265358  0.38736250  0.11383241  1
  O  O44  1  0.19294391  0.92442138  0.97554240  1
  O  O45  1  0.58238195  0.77119686  0.91468733  1
  O  O46  1  0.34991611  0.98539661  0.39566894  1
  O  O47  1  0.34991611  0.51460339  0.89566894  1
  O  O48  1  0.90734642  0.61263750  0.88616759  1
  O  O49  1  0.58238195  0.72880314  0.41468733  1
  O  O50  1  0.30504982  0.62510523  0.20873737  1
  O  O51  1  0.88300766  0.96683024  0.80805901  1
