# generated using pymatgen
data_Li3BiS3
_symmetry_space_group_name_H-M   'P 1'
_cell_length_a   7.74915235
_cell_length_b   7.74915197
_cell_length_c   7.74915248
_cell_angle_alpha   54.79602179
_cell_angle_beta   54.79602128
_cell_angle_gamma   54.79601825
_symmetry_Int_Tables_number   1
_chemical_formula_structural   Li3BiS3
_chemical_formula_sum   'Li6 Bi2 S6'
_cell_volume   289.16585918
_cell_formula_units_Z   2
loop_
 _symmetry_equiv_pos_site_id
 _symmetry_equiv_pos_as_xyz
  1  'x, y, z'
loop_
 _atom_site_type_symbol
 _atom_site_label
 _atom_site_symmetry_multiplicity
 _atom_site_fract_x
 _atom_site_fract_y
 _atom_site_fract_z
 _atom_site_occupancy
  Li  Li0  1  0.08877667  0.36857911  0.68367368  1
  Li  Li1  1  0.31632632  0.91122333  0.63142089  1
  Li  Li2  1  0.36857911  0.68367368  0.08877667  1
  Li  Li3  1  0.63142089  0.31632632  0.91122333  1
  Li  Li4  1  0.68367368  0.08877667  0.36857911  1
  Li  Li5  1  0.91122333  0.63142089  0.31632632  1
  Bi  Bi6  1  0.16967983  0.16967983  0.16967983  1
  Bi  Bi7  1  0.83032017  0.83032017  0.83032017  1
  S  S8  1  0.04304777  0.77341947  0.42231579  1
  S  S9  1  0.22658053  0.57768421  0.95695223  1
  S  S10  1  0.42231579  0.04304777  0.77341947  1
  S  S11  1  0.57768421  0.95695223  0.22658053  1
  S  S12  1  0.77341947  0.42231579  0.04304777  1
  S  S13  1  0.95695223  0.22658053  0.57768421  1
