# generated using pymatgen
data_LiAgF2
_symmetry_space_group_name_H-M   'P 1'
_cell_length_a   5.69887037
_cell_length_b   7.21747289
_cell_length_c   5.57883280
_cell_angle_alpha   90.00000000
_cell_angle_beta   90.00000000
_cell_angle_gamma   90.00000000
_symmetry_Int_Tables_number   1
_chemical_formula_structural   LiAgF2
_chemical_formula_sum   'Li4 Ag4 F8'
_cell_volume   229.46543997
_cell_formula_units_Z   4
loop_
 _symmetry_equiv_pos_site_id
 _symmetry_equiv_pos_as_xyz
  1  'x, y, z'
loop_
 _atom_site_type_symbol
 _atom_site_label
 _atom_site_symmetry_multiplicity
 _atom_site_fract_x
 _atom_site_fract_y
 _atom_site_fract_z
 _atom_site_occupancy
  Li  Li0  1  0.07258443  0.62711964  0.00029641  1
  Li  Li1  1  0.42741557  0.12711964  0.50029641  1
  Li  Li2  1  0.57258443  0.87288036  0.00029641  1
  Li  Li3  1  0.92741557  0.37288036  0.50029641  1
  Ag  Ag4  1  0.07121999  0.13438559  0.99542934  1
  Ag  Ag5  1  0.42878001  0.63438559  0.49542934  1
  Ag  Ag6  1  0.57121999  0.36561441  0.99542934  1
  Ag  Ag7  1  0.92878001  0.86561441  0.49542934  1
  F  F8  1  0.03903125  0.58099316  0.33141876  1
  F  F9  1  0.10441445  0.15806187  0.42534548  1
  F  F10  1  0.39558555  0.65806187  0.92534548  1
  F  F11  1  0.46096875  0.08099316  0.83141876  1
  F  F12  1  0.53903125  0.91900684  0.33141876  1
  F  F13  1  0.60441445  0.34193813  0.42534548  1
  F  F14  1  0.89558555  0.84193813  0.92534548  1
  F  F15  1  0.96096875  0.41900684  0.83141876  1
