# generated using pymatgen
data_Be3Si3(SbO6)2
_symmetry_space_group_name_H-M   'P 1'
_cell_length_a   8.26429305
_cell_length_b   8.28120692
_cell_length_c   14.36788173
_cell_angle_alpha   90.87462972
_cell_angle_beta   90.00000000
_cell_angle_gamma   90.00000000
_symmetry_Int_Tables_number   1
_chemical_formula_structural   Be3Si3(SbO6)2
_chemical_formula_sum   'Be12 Si12 Sb8 O48'
_cell_volume   983.19913274
_cell_formula_units_Z   4
loop_
 _symmetry_equiv_pos_site_id
 _symmetry_equiv_pos_as_xyz
  1  'x, y, z'
loop_
 _atom_site_type_symbol
 _atom_site_label
 _atom_site_symmetry_multiplicity
 _atom_site_fract_x
 _atom_site_fract_y
 _atom_site_fract_z
 _atom_site_occupancy
  Be  Be0  1  0.84847851  0.92874093  0.75725052  1
  Be  Be1  1  0.66361483  0.91759684  0.40343789  1
  Be  Be2  1  0.16361583  0.58240316  0.09656211  1
  Be  Be3  1  0.33638417  0.08240216  0.59656211  1
  Be  Be4  1  0.83638417  0.41759684  0.90343789  1
  Be  Be5  1  0.16471558  0.61304812  0.42067636  1
  Be  Be6  1  0.66471558  0.88695188  0.07932364  1
  Be  Be7  1  0.83528442  0.38695088  0.57932364  1
  Be  Be8  1  0.33528342  0.11304812  0.92067636  1
  Be  Be9  1  0.65152149  0.42874093  0.25725052  1
  Be  Be10  1  0.15152149  0.07125807  0.24274948  1
  Be  Be11  1  0.34847951  0.57125907  0.74274948  1
  Si  Si12  1  0.22766362  0.93317158  0.75943680  1
  Si  Si13  1  0.72766362  0.56682842  0.74056320  1
  Si  Si14  1  0.77233638  0.06682742  0.24056320  1
  Si  Si15  1  0.27233738  0.43317158  0.25943680  1
  Si  Si16  1  0.71710246  0.10768008  0.91512906  1
  Si  Si17  1  0.21710246  0.39232092  0.58487094  1
  Si  Si18  1  0.28289754  0.89231992  0.08487094  1
  Si  Si19  1  0.78289654  0.60768008  0.41512906  1
  Si  Si20  1  0.21031835  0.43013633  0.90649182  1
  Si  Si21  1  0.71031935  0.06986267  0.59350818  1
  Si  Si22  1  0.78968165  0.56986367  0.09350818  1
  Si  Si23  1  0.28968065  0.93013633  0.40649182  1
  Sb  Sb24  1  0.49612026  0.23920442  0.09229325  1
  Sb  Sb25  1  0.00387974  0.73920542  0.59229325  1
  Sb  Sb26  1  0.50388074  0.76079558  0.90770675  1
  Sb  Sb27  1  0.99612026  0.26079458  0.40770675  1
  Sb  Sb28  1  0.55260731  0.24626952  0.41767224  1
  Sb  Sb29  1  0.05260831  0.25372948  0.08232776  1
  Sb  Sb30  1  0.44739269  0.75373048  0.58232776  1
  Sb  Sb31  1  0.94739169  0.74627052  0.91767224  1
  O  O32  1  0.16337399  0.75109197  0.04372325  1
  O  O33  1  0.04010203  0.90134632  0.79238191  1
  O  O34  1  0.54010203  0.59865368  0.70761809  1
  O  O35  1  0.95989797  0.09865368  0.20761809  1
  O  O36  1  0.45989697  0.40134532  0.29238191  1
  O  O37  1  0.53046306  0.17260256  0.95092023  1
  O  O38  1  0.03046306  0.32739744  0.54908077  1
  O  O39  1  0.46953694  0.82739744  0.04907977  1
  O  O40  1  0.96953594  0.67260256  0.45091923  1
  O  O41  1  0.02424662  0.50126208  0.88879955  1
  O  O42  1  0.52424662  0.99873792  0.61120045  1
  O  O43  1  0.97575338  0.49873892  0.11120045  1
  O  O44  1  0.16711967  0.06747864  0.35920892  1
  O  O45  1  0.66711867  0.43252236  0.14079108  1
  O  O46  1  0.83288133  0.93252136  0.64079108  1
  O  O47  1  0.33288133  0.56747864  0.85920892  1
  O  O48  1  0.66337499  0.74890803  0.45627675  1
  O  O49  1  0.47575438  0.00126208  0.38879955  1
  O  O50  1  0.33662601  0.25109197  0.54372325  1
  O  O51  1  0.83662601  0.24890703  0.95627675  1
  O  O52  1  0.73561594  0.06809184  0.47677697  1
  O  O53  1  0.65565398  0.05738586  0.14255100  1
  O  O54  1  0.84434602  0.55738486  0.64255100  1
  O  O55  1  0.34434502  0.94261414  0.85744900  1
  O  O56  1  0.74138172  0.42389622  0.81134398  1
  O  O57  1  0.24138172  0.07610278  0.68865602  1
  O  O58  1  0.25861828  0.57610378  0.18865602  1
  O  O59  1  0.75861728  0.92389622  0.31134398  1
  O  O60  1  0.73694569  0.05181099  0.80912425  1
  O  O61  1  0.23694569  0.44819001  0.69087575  1
  O  O62  1  0.26305331  0.94818901  0.19087575  1
  O  O63  1  0.76305431  0.55181099  0.30912425  1
  O  O64  1  0.23478872  0.24699435  0.87522535  1
  O  O65  1  0.73478772  0.25300565  0.62477565  1
  O  O66  1  0.76521228  0.75300465  0.12477465  1
  O  O67  1  0.26521228  0.74699535  0.37522435  1
  O  O68  1  0.79367079  0.73695388  0.79426817  1
  O  O69  1  0.29366979  0.76304612  0.70573183  1
  O  O70  1  0.20632921  0.26304512  0.20573183  1
  O  O71  1  0.70633021  0.23695488  0.29426817  1
  O  O72  1  0.73061129  0.93426841  0.97435524  1
  O  O73  1  0.23061029  0.56573159  0.52564476  1
  O  O74  1  0.26938871  0.06573159  0.02564476  1
  O  O75  1  0.76938971  0.43426741  0.47435524  1
  O  O76  1  0.76438506  0.56809084  0.97677697  1
  O  O77  1  0.26438506  0.93190816  0.52322303  1
  O  O78  1  0.23561494  0.43190916  0.02322303  1
  O  O79  1  0.15565398  0.44261414  0.35744900  1
