# generated using pymatgen
data_Ba2Ca3Mn4Tl2O12
_symmetry_space_group_name_H-M   'P 1'
_cell_length_a   3.99018087
_cell_length_b   3.99018032
_cell_length_c   22.13940869
_cell_angle_alpha   95.17021689
_cell_angle_beta   95.17021654
_cell_angle_gamma   89.99999078
_symmetry_Int_Tables_number   1
_chemical_formula_structural   Ba2Ca3Mn4Tl2O12
_chemical_formula_sum   'Ba2 Ca3 Mn4 Tl2 O12'
_cell_volume   349.61929816
_cell_formula_units_Z   1
loop_
 _symmetry_equiv_pos_site_id
 _symmetry_equiv_pos_as_xyz
  1  'x, y, z'
loop_
 _atom_site_type_symbol
 _atom_site_label
 _atom_site_symmetry_multiplicity
 _atom_site_fract_x
 _atom_site_fract_y
 _atom_site_fract_z
 _atom_site_occupancy
  Ba  Ba0  1  0.16343248  0.16343248  0.32686496  1
  Ba  Ba1  1  0.83656752  0.83656752  0.67313504  1
  Ca  Ca2  1  0.07871372  0.07871372  0.15742743  1
  Ca  Ca3  1  0.92128628  0.92128628  0.84257257  1
  Ca  Ca4  1  -0.00000000  0.00000000  0.00000000  1
  Mn  Mn5  1  0.53861617  0.53861617  0.07723233  1
  Mn  Mn6  1  0.38300389  0.38300389  0.76600678  1
  Mn  Mn7  1  0.61699611  0.61699611  0.23399322  1
  Mn  Mn8  1  0.46138383  0.46138383  0.92276767  1
  Tl  Tl9  1  0.72354790  0.72354790  0.44709480  1
  Tl  Tl10  1  0.27645210  0.27645210  0.55290520  1
  O  O11  1  0.39189733  0.89189733  0.78379465  1
  O  O12  1  0.53574277  0.03574277  0.07148755  1
  O  O13  1  0.22306352  0.22306352  0.44612704  1
  O  O14  1  0.96425723  0.46425723  0.92851245  1
  O  O15  1  0.77693648  0.77693648  0.55387296  1
  O  O16  1  0.10810267  0.60810267  0.21620535  1
  O  O17  1  0.60810267  0.10810267  0.21620535  1
  O  O18  1  0.33702323  0.33702323  0.67404646  1
  O  O19  1  0.89189733  0.39189733  0.78379465  1
  O  O20  1  0.03574277  0.53574277  0.07148755  1
  O  O21  1  0.46425723  0.96425723  0.92851245  1
  O  O22  1  0.66297677  0.66297677  0.32595354  1
