# generated using pymatgen
data_BaLaI5
_symmetry_space_group_name_H-M   'P 1'
_cell_length_a   9.25509150
_cell_length_b   4.87365720
_cell_length_c   15.03418883
_cell_angle_alpha   90.00000000
_cell_angle_beta   89.68060847
_cell_angle_gamma   90.00000000
_symmetry_Int_Tables_number   1
_chemical_formula_structural   BaLaI5
_chemical_formula_sum   'Ba2 La2 I10'
_cell_volume   678.12374047
_cell_formula_units_Z   2
loop_
 _symmetry_equiv_pos_site_id
 _symmetry_equiv_pos_as_xyz
  1  'x, y, z'
loop_
 _atom_site_type_symbol
 _atom_site_label
 _atom_site_symmetry_multiplicity
 _atom_site_fract_x
 _atom_site_fract_y
 _atom_site_fract_z
 _atom_site_occupancy
  Ba  Ba0  1  0.07130187  0.75000000  0.84772352  1
  Ba  Ba1  1  0.92869813  0.25000000  0.15227648  1
  La  La2  1  0.42601232  0.25000000  0.65076197  1
  La  La3  1  0.57398768  0.75000000  0.34923803  1
  I  I4  1  0.07765520  0.25000000  0.66542606  1
  I  I5  1  0.16064194  0.75000000  0.07383555  1
  I  I6  1  0.32213881  0.75000000  0.51393275  1
  I  I7  1  0.36164719  0.25000000  0.86007214  1
  I  I8  1  0.36778493  0.25000000  0.28892224  1
  I  I9  1  0.63221507  0.75000000  0.71107776  1
  I  I10  1  0.63835281  0.75000000  0.13992786  1
  I  I11  1  0.67786119  0.25000000  0.48606725  1
  I  I12  1  0.83935806  0.25000000  0.92616445  1
  I  I13  1  0.92234480  0.75000000  0.33457394  1
