# generated using pymatgen
data_NaCuO2
_symmetry_space_group_name_H-M   'P 1'
_cell_length_a   5.56297238
_cell_length_b   5.52013360
_cell_length_c   7.15521900
_cell_angle_alpha   88.08035676
_cell_angle_beta   80.88764219
_cell_angle_gamma   75.41241711
_symmetry_Int_Tables_number   1
_chemical_formula_structural   NaCuO2
_chemical_formula_sum   'Na4 Cu4 O8'
_cell_volume   209.95356747
_cell_formula_units_Z   4
loop_
 _symmetry_equiv_pos_site_id
 _symmetry_equiv_pos_as_xyz
  1  'x, y, z'
loop_
 _atom_site_type_symbol
 _atom_site_label
 _atom_site_symmetry_multiplicity
 _atom_site_fract_x
 _atom_site_fract_y
 _atom_site_fract_z
 _atom_site_occupancy
  Na  Na0  1  0.50000000  0.00000000  0.50000000  1
  Na  Na1  1  0.60316805  0.22721855  0.06611075  1
  Na  Na2  1  0.50000000  0.50000000  0.50000000  1
  Na  Na3  1  0.39683195  0.77278145  0.93388925  1
  Cu  Cu4  1  0.04946430  0.38407271  0.27558576  1
  Cu  Cu5  1  0.05054154  0.88234773  0.28261382  1
  Cu  Cu6  1  0.94945846  0.11765227  0.71738618  1
  Cu  Cu7  1  0.95053570  0.61592729  0.72441424  1
  O  O8  1  0.27859376  0.07638343  0.22075952  1
  O  O9  1  0.17772520  0.31101795  0.66887361  1
  O  O10  1  0.28133299  0.57695453  0.22373623  1
  O  O11  1  0.18191101  0.81088532  0.67608782  1
  O  O12  1  0.81808899  0.18911468  0.32391218  1
  O  O13  1  0.71866701  0.42304547  0.77626377  1
  O  O14  1  0.82227480  0.68898205  0.33112639  1
  O  O15  1  0.72140624  0.92361657  0.77924048  1
