# generated using pymatgen
data_SrSm2O4
_symmetry_space_group_name_H-M   'P 1'
_cell_length_a   10.35166508
_cell_length_b   12.25952233
_cell_length_c   3.52187788
_cell_angle_alpha   90.00000000
_cell_angle_beta   90.00000000
_cell_angle_gamma   90.00000000
_symmetry_Int_Tables_number   1
_chemical_formula_structural   SrSm2O4
_chemical_formula_sum   'Sr4 Sm8 O16'
_cell_volume   446.94908671
_cell_formula_units_Z   4
loop_
 _symmetry_equiv_pos_site_id
 _symmetry_equiv_pos_as_xyz
  1  'x, y, z'
loop_
 _atom_site_type_symbol
 _atom_site_label
 _atom_site_symmetry_multiplicity
 _atom_site_fract_x
 _atom_site_fract_y
 _atom_site_fract_z
 _atom_site_occupancy
  Sr  Sr0  1  0.24679918  0.35137116  0.75000000  1
  Sr  Sr1  1  0.25320082  0.85137116  0.25000000  1
  Sr  Sr2  1  0.74679918  0.14862884  0.75000000  1
  Sr  Sr3  1  0.75320082  0.64862884  0.25000000  1
  Sm  Sm4  1  0.07764350  0.11241214  0.75000000  1
  Sm  Sm5  1  0.07819462  0.61177730  0.75000000  1
  Sm  Sm6  1  0.42180538  0.11177730  0.25000000  1
  Sm  Sm7  1  0.42235650  0.61241214  0.25000000  1
  Sm  Sm8  1  0.57764350  0.38758786  0.75000000  1
  Sm  Sm9  1  0.57819462  0.88822270  0.75000000  1
  Sm  Sm10  1  0.92180538  0.38822270  0.25000000  1
  Sm  Sm11  1  0.92235650  0.88758786  0.25000000  1
  O  O12  1  0.01840773  0.71701882  0.25000000  1
  O  O13  1  0.07641475  0.92194155  0.75000000  1
  O  O14  1  0.12792926  0.47776219  0.25000000  1
  O  O15  1  0.20999460  0.18012191  0.25000000  1
  O  O16  1  0.29000540  0.68012191  0.75000000  1
  O  O17  1  0.37207074  0.97776219  0.75000000  1
  O  O18  1  0.42358525  0.42194155  0.25000000  1
  O  O19  1  0.48159227  0.21701882  0.75000000  1
  O  O20  1  0.51840773  0.78298118  0.25000000  1
  O  O21  1  0.57641475  0.57805845  0.75000000  1
  O  O22  1  0.62792926  0.02223781  0.25000000  1
  O  O23  1  0.70999460  0.31987809  0.25000000  1
  O  O24  1  0.79000540  0.81987809  0.75000000  1
  O  O25  1  0.87207074  0.52223781  0.75000000  1
  O  O26  1  0.92358525  0.07805845  0.25000000  1
  O  O27  1  0.98159227  0.28298118  0.75000000  1
