# generated using pymatgen
data_MgCu2(BiO4)2
_symmetry_space_group_name_H-M   'P 1'
_cell_length_a   6.42992342
_cell_length_b   8.57126703
_cell_length_c   13.77103959
_cell_angle_alpha   90.00000000
_cell_angle_beta   93.35751961
_cell_angle_gamma   90.00000000
_symmetry_Int_Tables_number   1
_chemical_formula_structural   MgCu2(BiO4)2
_chemical_formula_sum   'Mg4 Cu8 Bi8 O32'
_cell_volume   757.65493456
_cell_formula_units_Z   4
loop_
 _symmetry_equiv_pos_site_id
 _symmetry_equiv_pos_as_xyz
  1  'x, y, z'
loop_
 _atom_site_type_symbol
 _atom_site_label
 _atom_site_symmetry_multiplicity
 _atom_site_fract_x
 _atom_site_fract_y
 _atom_site_fract_z
 _atom_site_occupancy
  Mg  Mg0  1  0.10495628  0.15074602  0.04864170  1
  Mg  Mg1  1  0.89504372  0.84925398  0.95135830  1
  Mg  Mg2  1  0.89504372  0.65074602  0.45135830  1
  Mg  Mg3  1  0.10495628  0.34925398  0.54864170  1
  Cu  Cu4  1  0.75143656  0.19713936  0.89294188  1
  Cu  Cu5  1  0.35566539  0.06570496  0.61414697  1
  Cu  Cu6  1  0.64433461  0.93429504  0.38585303  1
  Cu  Cu7  1  0.24856344  0.80286064  0.10705812  1
  Cu  Cu8  1  0.75143656  0.30286064  0.39294188  1
  Cu  Cu9  1  0.35566539  0.43429504  0.11414697  1
  Cu  Cu10  1  0.24856344  0.69713936  0.60705812  1
  Cu  Cu11  1  0.64433461  0.56570496  0.88585303  1
  Bi  Bi12  1  0.09935582  0.44049331  0.83303929  1
  Bi  Bi13  1  0.09935582  0.05950669  0.33303929  1
  Bi  Bi14  1  0.63361674  0.09634856  0.13697328  1
  Bi  Bi15  1  0.90064418  0.94049331  0.66696071  1
  Bi  Bi16  1  0.36638426  0.90365144  0.86302672  1
  Bi  Bi17  1  0.36638426  0.59634856  0.36302672  1
  Bi  Bi18  1  0.63361674  0.40365144  0.63697328  1
  Bi  Bi19  1  0.90064418  0.55950669  0.16696071  1
  O  O20  1  0.03654610  0.26411466  0.40884216  1
  O  O21  1  0.63796495  0.03978366  0.59560992  1
  O  O22  1  0.19831227  0.56659473  0.49640207  1
  O  O23  1  0.80168773  0.06659473  0.00359793  1
  O  O24  1  0.03654610  0.23588534  0.90884216  1
  O  O25  1  0.96345390  0.73588534  0.59115784  1
  O  O26  1  0.07679030  0.12287372  0.60949745  1
  O  O27  1  0.51330481  0.86820787  0.14249499  1
  O  O28  1  0.51330481  0.63179213  0.64249499  1
  O  O29  1  0.28072486  0.88293887  0.67971715  1
  O  O30  1  0.71927514  0.38293887  0.82028285  1
  O  O31  1  0.48669519  0.13179213  0.85750501  1
  O  O32  1  0.92320970  0.87712628  0.39050255  1
  O  O33  1  0.89213576  0.54357498  0.31324354  1
  O  O34  1  0.39408345  0.26365673  0.56429279  1
  O  O35  1  0.39408345  0.23634327  0.06429279  1
  O  O36  1  0.10786424  0.04357498  0.18675646  1
  O  O37  1  0.48669519  0.36820787  0.35750501  1
  O  O38  1  0.10786424  0.45642502  0.68675646  1
  O  O39  1  0.80168773  0.43340527  0.50359793  1
  O  O40  1  0.63796495  0.46021634  0.09560992  1
  O  O41  1  0.71927514  0.11706113  0.32028285  1
  O  O42  1  0.96345390  0.76411466  0.09115784  1
  O  O43  1  0.07679030  0.37712628  0.10949745  1
  O  O44  1  0.19831227  0.93340527  0.99640207  1
  O  O45  1  0.60591655  0.76365673  0.93570721  1
  O  O46  1  0.36203505  0.96021634  0.40439008  1
  O  O47  1  0.36203505  0.53978366  0.90439008  1
  O  O48  1  0.92320970  0.62287372  0.89050255  1
  O  O49  1  0.60591655  0.73634327  0.43570721  1
  O  O50  1  0.28072486  0.61706113  0.17971715  1
  O  O51  1  0.89213576  0.95642502  0.81324354  1
