# generated using pymatgen
data_Cu3OF5
_symmetry_space_group_name_H-M   'P 1'
_cell_length_a   5.40838329
_cell_length_b   4.63528291
_cell_length_c   8.15097818
_cell_angle_alpha   86.13050811
_cell_angle_beta   93.44411504
_cell_angle_gamma   91.75442891
_symmetry_Int_Tables_number   1
_chemical_formula_structural   Cu3OF5
_chemical_formula_sum   'Cu6 O2 F10'
_cell_volume   203.43358524
_cell_formula_units_Z   2
loop_
 _symmetry_equiv_pos_site_id
 _symmetry_equiv_pos_as_xyz
  1  'x, y, z'
loop_
 _atom_site_type_symbol
 _atom_site_label
 _atom_site_symmetry_multiplicity
 _atom_site_fract_x
 _atom_site_fract_y
 _atom_site_fract_z
 _atom_site_occupancy
  Cu  Cu0  1  0.98285688  0.98846439  0.99908802  1
  Cu  Cu1  1  0.50873299  0.52140234  0.98819819  1
  Cu  Cu2  1  0.35047712  0.01153561  0.33424598  1
  Cu  Cu3  1  0.82460001  0.47859766  0.34513481  1
  Cu  Cu4  1  0.16666700  0.50000000  0.66666700  1
  Cu  Cu5  1  0.66666700  0.00000000  0.66666700  1
  O  O6  1  0.62608334  0.18575098  0.44228764  1
  O  O7  1  0.70725066  0.81424902  0.89104536  1
  F  F8  1  0.29065701  0.20608593  0.08307278  1
  F  F9  1  0.04267599  0.79391407  0.25026022  1
  F  F10  1  0.78929937  0.29880079  0.08217601  1
  F  F11  1  0.54403363  0.70119921  0.25115699  1
  F  F12  1  0.12602311  0.28592882  0.41582219  1
  F  F13  1  0.36861086  0.79341746  0.57890907  1
  F  F14  1  0.88172471  0.70038741  0.57986840  1
  F  F15  1  0.45160929  0.29961259  0.75346460  1
  F  F16  1  0.20730989  0.71407118  0.91751081  1
  F  F17  1  0.96472214  0.20658254  0.75442393  1
