# generated using pymatgen
data_Sr(IO3)2
_symmetry_space_group_name_H-M   'P 1'
_cell_length_a   6.19671052
_cell_length_b   5.44760812
_cell_length_c   10.60791313
_cell_angle_alpha   90.00000000
_cell_angle_beta   90.56266230
_cell_angle_gamma   90.00000000
_symmetry_Int_Tables_number   1
_chemical_formula_structural   Sr(IO3)2
_chemical_formula_sum   'Sr2 I4 O12'
_cell_volume   358.07671455
_cell_formula_units_Z   2
loop_
 _symmetry_equiv_pos_site_id
 _symmetry_equiv_pos_as_xyz
  1  'x, y, z'
loop_
 _atom_site_type_symbol
 _atom_site_label
 _atom_site_symmetry_multiplicity
 _atom_site_fract_x
 _atom_site_fract_y
 _atom_site_fract_z
 _atom_site_occupancy
  Sr  Sr0  1  0.22440401  0.40327282  0.74209648  1
  Sr  Sr1  1  0.77559599  0.90327282  0.25790352  1
  I  I2  1  0.27523401  0.50553061  0.39531809  1
  I  I3  1  0.27007939  0.01360434  0.07272950  1
  I  I4  1  0.72992061  0.51360434  0.92727050  1
  I  I5  1  0.72476599  0.00553061  0.60468191  1
  O  O6  1  0.01500310  0.16179177  0.11437629  1
  O  O7  1  0.13267315  0.68821551  0.27598507  1
  O  O8  1  0.14731830  0.61646759  0.53895865  1
  O  O9  1  0.35360082  0.19397926  0.93601128  1
  O  O10  1  0.46394424  0.16139984  0.59565611  1
  O  O11  1  0.55189394  0.64648527  0.80665282  1
  O  O12  1  0.44810606  0.14648527  0.19334718  1
  O  O13  1  0.53605576  0.66139984  0.40434389  1
  O  O14  1  0.64639918  0.69397926  0.06398872  1
  O  O15  1  0.85268170  0.11646759  0.46104135  1
  O  O16  1  0.86732685  0.18821551  0.72401493  1
  O  O17  1  0.98499690  0.66179177  0.88562371  1
