# generated using pymatgen
data_SrSc2O4
_symmetry_space_group_name_H-M   'P 1'
_cell_length_a   5.50941678
_cell_length_b   5.50941678
_cell_length_c   10.68560000
_cell_angle_alpha   90.00000000
_cell_angle_beta   90.00000000
_cell_angle_gamma   33.87549903
_symmetry_Int_Tables_number   1
_chemical_formula_structural   SrSc2O4
_chemical_formula_sum   'Sr2 Sc4 O8'
_cell_volume   180.78793260
_cell_formula_units_Z   2
loop_
 _symmetry_equiv_pos_site_id
 _symmetry_equiv_pos_as_xyz
  1  'x, y, z'
loop_
 _atom_site_type_symbol
 _atom_site_label
 _atom_site_symmetry_multiplicity
 _atom_site_fract_x
 _atom_site_fract_y
 _atom_site_fract_z
 _atom_site_occupancy
  Sr  Sr0  1  0.10993354  0.10993354  0.25000000  1
  Sr  Sr1  1  0.89006646  0.89006646  0.75000000  1
  Sc  Sc2  1  0.36445151  0.36445151  0.42943835  1
  Sc  Sc3  1  0.63554849  0.63554849  0.57056165  1
  Sc  Sc4  1  0.36445151  0.36445151  0.07056165  1
  Sc  Sc5  1  0.63554849  0.63554849  0.92943835  1
  O  O6  1  0.00000000  0.00000000  0.00000000  1
  O  O7  1  0.00000000  0.00000000  0.50000000  1
  O  O8  1  0.26292130  0.26292130  0.60475732  1
  O  O9  1  0.43507980  0.43507980  0.25000000  1
  O  O10  1  0.56492020  0.56492020  0.75000000  1
  O  O11  1  0.73707870  0.73707870  0.39524268  1
  O  O12  1  0.26292130  0.26292130  0.89524268  1
  O  O13  1  0.73707870  0.73707870  0.10475732  1
