# generated using pymatgen
data_Mg(CoO2)2
_symmetry_space_group_name_H-M   'P 1'
_cell_length_a   5.95012539
_cell_length_b   5.95367805
_cell_length_c   17.88014065
_cell_angle_alpha   60.02165838
_cell_angle_beta   60.08418106
_cell_angle_gamma   60.12333747
_symmetry_Int_Tables_number   1
_chemical_formula_structural   Mg(CoO2)2
_chemical_formula_sum   'Mg6 Co12 O24'
_cell_volume   448.66055498
_cell_formula_units_Z   6
loop_
 _symmetry_equiv_pos_site_id
 _symmetry_equiv_pos_as_xyz
  1  'x, y, z'
loop_
 _atom_site_type_symbol
 _atom_site_label
 _atom_site_symmetry_multiplicity
 _atom_site_fract_x
 _atom_site_fract_y
 _atom_site_fract_z
 _atom_site_occupancy
  Mg  Mg0  1  0.12115847  0.12124987  0.04525090  1
  Mg  Mg1  1  0.12350022  0.12319037  0.37660388  1
  Mg  Mg2  1  0.49947852  0.49802183  0.33418613  1
  Mg  Mg3  1  0.12446726  0.12477834  0.70860215  1
  Mg  Mg4  1  0.49981045  0.50004392  0.00011608  1
  Mg  Mg5  1  0.87519105  0.87514095  0.62496505  1
  Co  Co6  1  0.49880536  0.49881989  0.16624720  1
  Co  Co7  1  0.49868442  0.00359347  0.16625284  1
  Co  Co8  1  0.50018209  0.49918971  0.49874484  1
  Co  Co9  1  0.00359021  0.49875063  0.16621820  1
  Co  Co10  1  0.49911495  0.00468379  0.49875715  1
  Co  Co11  1  0.50014555  0.50129077  0.66625355  1
  Co  Co12  1  0.87956043  0.87940398  0.28728700  1
  Co  Co13  1  0.49962991  0.49956736  0.83424981  1
  Co  Co14  1  0.00410796  0.50009639  0.49897315  1
  Co  Co15  1  0.49956202  0.99855409  0.83395526  1
  Co  Co16  1  0.99843945  0.49940183  0.83404758  1
  Co  Co17  1  0.87628793  0.87600041  0.95725069  1
  O  O18  1  0.25447976  0.25463083  0.09156918  1
  O  O19  1  0.25834999  0.25794924  0.24164797  1
  O  O20  1  0.25463781  0.71611489  0.09149897  1
  O  O21  1  0.71600633  0.25475956  0.09154590  1
  O  O22  1  0.25132902  0.24605531  0.42780066  1
  O  O23  1  0.28071849  0.74550656  0.24272112  1
  O  O24  1  0.25859526  0.25786415  0.57474981  1
  O  O25  1  0.74594075  0.28059703  0.24265493  1
  O  O26  1  0.74168542  0.74205985  0.09152346  1
  O  O27  1  0.24646854  0.71803373  0.42810868  1
  O  O28  1  0.71921817  0.24997650  0.42814854  1
  O  O29  1  0.74546742  0.74558044  0.24270551  1
  O  O30  1  0.27229545  0.27216740  0.74806691  1
  O  O31  1  0.28982362  0.72637791  0.58499568  1
  O  O32  1  0.73031508  0.29077936  0.58470984  1
  O  O33  1  0.25845836  0.25836630  0.90806454  1
  O  O34  1  0.74266850  0.74393414  0.42403664  1
  O  O35  1  0.27294859  0.71151196  0.74736515  1
  O  O36  1  0.71122070  0.27358002  0.74744136  1
  O  O37  1  0.72565112  0.73053491  0.58491363  1
  O  O38  1  0.27776208  0.75126186  0.90624655  1
  O  O39  1  0.75128854  0.27759308  0.90638026  1
  O  O40  1  0.74097311  0.74115265  0.75902286  1
  O  O41  1  0.75198468  0.75183271  0.90612335  1
