# generated using pymatgen
data_K3BaPCO7
_symmetry_space_group_name_H-M   'P 1'
_cell_length_a   10.24431695
_cell_length_b   7.85202418
_cell_length_c   5.81913091
_cell_angle_alpha   90.00000000
_cell_angle_beta   91.23695208
_cell_angle_gamma   90.00000000
_symmetry_Int_Tables_number   1
_chemical_formula_structural   K3BaPCO7
_chemical_formula_sum   'K6 Ba2 P2 C2 O14'
_cell_volume   467.97380803
_cell_formula_units_Z   2
loop_
 _symmetry_equiv_pos_site_id
 _symmetry_equiv_pos_as_xyz
  1  'x, y, z'
loop_
 _atom_site_type_symbol
 _atom_site_label
 _atom_site_symmetry_multiplicity
 _atom_site_fract_x
 _atom_site_fract_y
 _atom_site_fract_z
 _atom_site_occupancy
  K  K0  1  0.08437052  0.25000000  0.76118480  1
  K  K1  1  0.25373868  0.00732236  0.25178181  1
  K  K2  1  0.25373868  0.49267764  0.25178181  1
  K  K3  1  0.74626132  0.50732236  0.74821819  1
  K  K4  1  0.74626132  0.99267764  0.74821819  1
  K  K5  1  0.91562948  0.75000000  0.23881520  1
  Ba  Ba6  1  0.37300004  0.75000000  0.76715329  1
  Ba  Ba7  1  0.62699996  0.25000000  0.23284671  1
  P  P8  1  0.40563538  0.25000000  0.70141553  1
  P  P9  1  0.59436462  0.75000000  0.29858447  1
  C  C10  1  0.05961751  0.75000000  0.73767039  1
  C  C11  1  0.94038249  0.25000000  0.26232961  1
  O  O12  1  0.06776083  0.25000000  0.27770538  1
  O  O13  1  0.11815448  0.75000000  0.93927558  1
  O  O14  1  0.12857265  0.75000000  0.55094577  1
  O  O15  1  0.33210004  0.08829839  0.78590072  1
  O  O16  1  0.33210004  0.41170161  0.78590072  1
  O  O17  1  0.40449734  0.25000000  0.43271929  1
  O  O18  1  0.44798763  0.75000000  0.21218982  1
  O  O19  1  0.55201237  0.25000000  0.78781018  1
  O  O20  1  0.59550266  0.75000000  0.56728071  1
  O  O21  1  0.66789996  0.58829839  0.21409928  1
  O  O22  1  0.66789996  0.91170161  0.21409928  1
  O  O23  1  0.87142735  0.25000000  0.44905423  1
  O  O24  1  0.88184552  0.25000000  0.06072442  1
  O  O25  1  0.93223917  0.75000000  0.72229462  1
