# generated using pymatgen
data_NaCu3O4
_symmetry_space_group_name_H-M   'P 1'
_cell_length_a   5.48114223
_cell_length_b   5.48120076
_cell_length_c   5.48144898
_cell_angle_alpha   89.99857569
_cell_angle_beta   89.99912478
_cell_angle_gamma   90.00034213
_symmetry_Int_Tables_number   1
_chemical_formula_structural   NaCu3O4
_chemical_formula_sum   'Na2 Cu6 O8'
_cell_volume   164.68049246
_cell_formula_units_Z   2
loop_
 _symmetry_equiv_pos_site_id
 _symmetry_equiv_pos_as_xyz
  1  'x, y, z'
loop_
 _atom_site_type_symbol
 _atom_site_label
 _atom_site_symmetry_multiplicity
 _atom_site_fract_x
 _atom_site_fract_y
 _atom_site_fract_z
 _atom_site_occupancy
  Na  Na0  1  0.99998088  0.00001076  0.00000441  1
  Na  Na1  1  0.50001899  0.49998905  0.49999507  1
  Cu  Cu2  1  0.99998977  0.49999483  0.24999859  1
  Cu  Cu3  1  0.99998857  0.49999353  0.75000148  1
  Cu  Cu4  1  0.25000419  0.00000798  0.49999831  1
  Cu  Cu5  1  0.50000790  0.24999750  0.00000181  1
  Cu  Cu6  1  0.50001273  0.75000054  0.00000621  1
  Cu  Cu7  1  0.74999618  0.00000549  0.49999491  1
  O  O8  1  0.24999415  0.24995764  0.25004810  1
  O  O9  1  0.25003964  0.75004135  0.25000229  1
  O  O10  1  0.24997593  0.24997523  0.74995194  1
  O  O11  1  0.25002231  0.75002494  0.74999703  1
  O  O12  1  0.75000620  0.25001776  0.24998832  1
  O  O13  1  0.75002280  0.25003519  0.75001190  1
  O  O14  1  0.74996170  0.74998212  0.24994307  1
  O  O15  1  0.74997806  0.74996610  0.75005656  1
