# generated using pymatgen
data_Bi3O4F
_symmetry_space_group_name_H-M   'P 1'
_cell_length_a   9.08894947
_cell_length_b   5.85408164
_cell_length_c   5.76543756
_cell_angle_alpha   90.00000000
_cell_angle_beta   80.93159823
_cell_angle_gamma   90.00000000
_symmetry_Int_Tables_number   1
_chemical_formula_structural   Bi3O4F
_chemical_formula_sum   'Bi6 O8 F2'
_cell_volume   302.92996052
_cell_formula_units_Z   2
loop_
 _symmetry_equiv_pos_site_id
 _symmetry_equiv_pos_as_xyz
  1  'x, y, z'
loop_
 _atom_site_type_symbol
 _atom_site_label
 _atom_site_symmetry_multiplicity
 _atom_site_fract_x
 _atom_site_fract_y
 _atom_site_fract_z
 _atom_site_occupancy
  Bi  Bi0  1  0.19306047  0.29961058  0.86192119  1
  Bi  Bi1  1  0.19306047  0.70038942  0.36192119  1
  Bi  Bi2  1  0.50000000  0.80303725  0.75000000  1
  Bi  Bi3  1  0.50000000  0.19696275  0.25000000  1
  Bi  Bi4  1  0.80693953  0.29961058  0.63807881  1
  Bi  Bi5  1  0.80693953  0.70038942  0.13807881  1
  O  O6  1  0.30037477  0.43758755  0.52845370  1
  O  O7  1  0.30037477  0.56241245  0.02845370  1
  O  O8  1  0.36210387  0.07583841  0.95841234  1
  O  O9  1  0.36210387  0.92416159  0.45841234  1
  O  O10  1  0.63789613  0.07583841  0.54158766  1
  O  O11  1  0.63789613  0.92416159  0.04158766  1
  O  O12  1  0.69962523  0.43758755  0.97154630  1
  O  O13  1  0.69962523  0.56241245  0.47154630  1
  F  F14  1  0.00000000  0.62260379  0.75000000  1
  F  F15  1  0.00000000  0.37739621  0.25000000  1
