# generated using pymatgen
data_La3Mn3O10
_symmetry_space_group_name_H-M   'P 1'
_cell_length_a   5.45732534
_cell_length_b   5.45531341
_cell_length_c   22.85851252
_cell_angle_alpha   96.96690994
_cell_angle_beta   89.49606154
_cell_angle_gamma   61.13215639
_symmetry_Int_Tables_number   1
_chemical_formula_structural   La3Mn3O10
_chemical_formula_sum   'La9 Mn9 O30'
_cell_volume   589.78575587
_cell_formula_units_Z   3
loop_
 _symmetry_equiv_pos_site_id
 _symmetry_equiv_pos_as_xyz
  1  'x, y, z'
loop_
 _atom_site_type_symbol
 _atom_site_label
 _atom_site_symmetry_multiplicity
 _atom_site_fract_x
 _atom_site_fract_y
 _atom_site_fract_z
 _atom_site_occupancy
  La  La0  1  0.74771953  0.49863382  0.74838425  1
  La  La1  1  0.95309543  0.09668118  0.14288205  1
  La  La2  1  0.54747909  0.90427098  0.35941953  1
  La  La3  1  0.65176194  0.69914595  0.04371653  1
  La  La4  1  0.34604603  0.30163455  0.95813944  1
  La  La5  1  0.04364278  0.90619218  0.85953524  1
  La  La6  1  0.44548023  0.10036341  0.64493204  1
  La  La7  1  0.15688959  0.69242314  0.53972841  1
  La  La8  1  0.24728832  0.50860873  0.25334987  1
  Mn  Mn9  1  0.69410352  0.60368306  0.89946566  1
  Mn  Mn10  1  0.80380802  0.39340515  0.59627861  1
  Mn  Mn11  1  0.90200454  0.19929952  0.30244619  1
  Mn  Mn12  1  0.60009521  0.80144375  0.20086990  1
  Mn  Mn13  1  0.39783441  0.20262845  0.80009088  1
  Mn  Mn14  1  0.49937648  0.00150049  0.49728799  1
  Mn  Mn15  1  0.09668271  0.80177953  0.69997409  1
  Mn  Mn16  1  0.19519797  0.60443769  0.40176882  1
  Mn  Mn17  1  0.30587288  0.39629632  0.10128032  1
  O  O18  1  0.87711157  0.78982695  0.45776942  1
  O  O19  1  0.81150612  0.94385844  0.24737277  1
  O  O20  1  0.78541822  0.84803347  0.94459634  1
  O  O21  1  0.00539125  0.45807564  0.34324281  1
  O  O22  1  0.90029670  0.62178531  0.13793976  1
  O  O23  1  0.81668010  0.35521656  0.95480368  1
  O  O24  1  0.57624335  0.84598617  0.83539949  1
  O  O25  1  0.96536952  0.05744555  0.63750607  1
  O  O26  1  0.63464485  0.74055388  0.56095770  1
  O  O27  1  0.77194652  0.45562722  0.23540735  1
  O  O28  1  0.61739959  0.33479478  0.84627446  1
  O  O29  1  0.47676168  0.59359950  0.66201727  1
  O  O30  1  0.39811051  0.75137748  0.44979577  1
  O  O31  1  0.29740210  0.98500324  0.26337102  1
  O  O32  1  0.65952794  0.20714754  0.06333766  1
  O  O33  1  0.34015005  0.79321482  0.93737938  1
  O  O34  1  0.70548081  0.01893649  0.73721638  1
  O  O35  1  0.58345239  0.25090228  0.55554631  1
  O  O36  1  0.52415562  0.40282320  0.33798576  1
  O  O37  1  0.38443016  0.66826384  0.15358604  1
  O  O38  1  0.22518320  0.54835939  0.76431636  1
  O  O39  1  0.36778983  0.26474045  0.44234079  1
  O  O40  1  0.42283254  0.15298079  0.16477188  1
  O  O41  1  0.04776354  0.91298261  0.35386456  1
  O  O42  1  0.18338282  0.64472239  0.04583390  1
  O  O43  1  0.09791136  0.38136526  0.86285915  1
  O  O44  1  0.99538303  0.54419470  0.65272025  1
  O  O45  1  0.21346174  0.15429716  0.05564560  1
  O  O46  1  0.18813727  0.06512322  0.75056345  1
  O  O47  1  0.14214692  0.19618276  0.54602579  1
