# generated using pymatgen
data_B8O
_symmetry_space_group_name_H-M   'P 1'
_cell_length_a   5.14194538
_cell_length_b   9.09969782
_cell_length_c   9.09963346
_cell_angle_alpha   71.37468279
_cell_angle_beta   87.86157199
_cell_angle_gamma   87.86076862
_symmetry_Int_Tables_number   1
_chemical_formula_structural   B8O
_chemical_formula_sum   'B48 O6'
_cell_volume   403.04817992
_cell_formula_units_Z   6
loop_
 _symmetry_equiv_pos_site_id
 _symmetry_equiv_pos_as_xyz
  1  'x, y, z'
loop_
 _atom_site_type_symbol
 _atom_site_label
 _atom_site_symmetry_multiplicity
 _atom_site_fract_x
 _atom_site_fract_y
 _atom_site_fract_z
 _atom_site_occupancy
  B  B0  1  0.12259404  0.10080355  0.10081894  1
  B  B1  1  0.66447437  0.00035487  0.00038127  1
  B  B2  1  0.16455146  0.99630239  0.50309341  1
  B  B3  1  0.33006043  0.99631631  0.66864499  1
  B  B4  1  0.83110046  0.00040557  0.16684283  1
  B  B5  1  0.36117574  0.10211493  0.33834565  1
  B  B6  1  0.33141056  0.16703982  0.50081391  1
  B  B7  1  0.83109640  0.16681909  0.00042405  1
  B  B8  1  0.36118723  0.33832770  0.10213965  1
  B  B9  1  0.62237272  0.10206448  0.59922402  1
  B  B10  1  0.14014543  0.16214872  0.89932998  1
  B  B11  1  0.64252705  0.17641921  0.39361354  1
  B  B12  1  0.16304683  0.33157806  0.49761419  1
  B  B13  1  0.16455079  0.50306775  0.99632357  1
  B  B14  1  0.14159236  0.40084093  0.66176124  1
  B  B15  1  0.64253792  0.39359831  0.17644488  1
  B  B16  1  0.33141602  0.50079817  0.16705980  1
  B  B17  1  0.16304716  0.49759590  0.33159759  1
  B  B18  1  0.85989306  0.10068616  0.83787146  1
  B  B19  1  0.33528097  0.49986973  0.49989188  1
  B  B20  1  0.33005192  0.66862236  0.99633121  1
  B  B21  1  0.37767488  0.40079004  0.89796116  1
  B  B22  1  0.85993617  0.39366978  0.39368932  1
  B  B23  1  0.85845506  0.33825831  0.59917944  1
  B  B24  1  0.62237043  0.59921039  0.10207689  1
  B  B25  1  0.14010092  0.60632831  0.60635232  1
  B  B26  1  0.14158293  0.66173887  0.40086427  1
  B  B27  1  0.66999427  0.33137825  0.00371017  1
  B  B28  1  0.66475600  0.50012764  0.50015390  1
  B  B29  1  0.14015617  0.89931124  0.16217860  1
  B  B30  1  0.83699557  0.50240248  0.66844532  1
  B  B31  1  0.66863362  0.49920191  0.83298168  1
  B  B32  1  0.35750653  0.60640155  0.82359479  1
  B  B33  1  0.85844525  0.59915719  0.33828124  1
  B  B34  1  0.83549535  0.49693463  0.00371771  1
  B  B35  1  0.83698770  0.66842045  0.50242991  1
  B  B36  1  0.37767158  0.89793598  0.40082075  1
  B  B37  1  0.85990168  0.83785040  0.10071514  1
  B  B38  1  0.35751930  0.82358166  0.60643083  1
  B  B39  1  0.63885621  0.66167508  0.89789978  1
  B  B40  1  0.66863440  0.83295990  0.49923129  1
  B  B41  1  0.16895304  0.83318210  0.99962210  1
  B  B42  1  0.63887022  0.89788668  0.66170001  1
  B  B43  1  0.66998943  0.00368349  0.33140160  1
  B  B44  1  0.16895151  0.99959495  0.83320614  1
  B  B45  1  0.83549694  0.00369844  0.49695637  1
  B  B46  1  0.33557397  0.99964478  0.99966844  1
  B  B47  1  0.87745386  0.89919967  0.89922978  1
  O  O48  1  0.23916080  0.19042747  0.19045221  1
  O  O49  1  0.25897789  0.31060352  0.81010163  1
  O  O50  1  0.74107384  0.18991584  0.68941517  1
  O  O51  1  0.25896666  0.81008424  0.31062937  1
  O  O52  1  0.74107278  0.68939555  0.18993684  1
  O  O53  1  0.76087412  0.80957423  0.80959580  1
