# generated using pymatgen
data_B5PH4Cl
_symmetry_space_group_name_H-M   'P 1'
_cell_length_a   13.61457097
_cell_length_b   12.67229281
_cell_length_c   13.94752437
_cell_angle_alpha   90.00000000
_cell_angle_beta   90.00000000
_cell_angle_gamma   90.00000000
_symmetry_Int_Tables_number   1
_chemical_formula_structural   B5PH4Cl
_chemical_formula_sum   'B80 P16 H64 Cl16'
_cell_volume   2406.33611084
_cell_formula_units_Z   16
loop_
 _symmetry_equiv_pos_site_id
 _symmetry_equiv_pos_as_xyz
  1  'x, y, z'
loop_
 _atom_site_type_symbol
 _atom_site_label
 _atom_site_symmetry_multiplicity
 _atom_site_fract_x
 _atom_site_fract_y
 _atom_site_fract_z
 _atom_site_occupancy
  B  B0  1  0.00635123  0.81175697  0.36652985  1
  B  B1  1  0.00635123  0.68824303  0.86652985  1
  B  B2  1  0.01321638  0.18319552  0.07648555  1
  B  B3  1  0.01321638  0.31680448  0.57648555  1
  B  B4  1  0.02066411  0.79655948  0.49134384  1
  B  B5  1  0.02066411  0.70344052  0.99134384  1
  B  B6  1  0.07221429  0.82888194  0.01900076  1
  B  B7  1  0.07221429  0.67111806  0.51900076  1
  B  B8  1  0.09703327  0.60087149  0.41163908  1
  B  B9  1  0.09703327  0.89912851  0.91163908  1
  B  B10  1  0.11031394  0.87196608  0.42917081  1
  B  B11  1  0.11031394  0.62803392  0.92917081  1
  B  B12  1  0.14692694  0.71476543  0.02239679  1
  B  B13  1  0.14692694  0.78523457  0.52239679  1
  B  B14  1  0.19328037  0.67164380  0.34681896  1
  B  B15  1  0.19328037  0.82835620  0.84681896  1
  B  B16  1  0.19403936  0.66627379  0.47278376  1
  B  B17  1  0.19403936  0.83372621  0.97278376  1
  B  B18  1  0.22051060  0.78946410  0.41762159  1
  B  B19  1  0.22051060  0.71053590  0.91762159  1
  B  B20  1  0.27948940  0.28946410  0.41762159  1
  B  B21  1  0.27948940  0.21053590  0.91762159  1
  B  B22  1  0.30596064  0.16627379  0.47278376  1
  B  B23  1  0.30596064  0.33372621  0.97278376  1
  B  B24  1  0.30671963  0.17164380  0.34681896  1
  B  B25  1  0.30671963  0.32835620  0.84681896  1
  B  B26  1  0.35307306  0.28523457  0.52239679  1
  B  B27  1  0.35307306  0.21476543  0.02239679  1
  B  B28  1  0.38968606  0.37196608  0.42917081  1
  B  B29  1  0.38968606  0.12803392  0.92917081  1
  B  B30  1  0.40296673  0.10087149  0.41163908  1
  B  B31  1  0.40296673  0.39912851  0.91163908  1
  B  B32  1  0.42778571  0.17111806  0.51900076  1
  B  B33  1  0.42778571  0.32888194  0.01900076  1
  B  B34  1  0.47933589  0.29655948  0.49134384  1
  B  B35  1  0.47933589  0.20344052  0.99134384  1
  B  B36  1  0.48678362  0.68319552  0.07648555  1
  B  B37  1  0.48678362  0.81680448  0.57648555  1
  B  B38  1  0.49364877  0.31175697  0.36652985  1
  B  B39  1  0.49364877  0.18824303  0.86652985  1
  B  B40  1  0.50635123  0.81175697  0.13347015  1
  B  B41  1  0.50635123  0.68824303  0.63347015  1
  B  B42  1  0.51321638  0.18319552  0.42351445  1
  B  B43  1  0.51321638  0.31680448  0.92351445  1
  B  B44  1  0.52066411  0.70344052  0.50865616  1
  B  B45  1  0.52066411  0.79655948  0.00865616  1
  B  B46  1  0.57221429  0.67111806  0.98099924  1
  B  B47  1  0.57221429  0.82888194  0.48099924  1
  B  B48  1  0.59703327  0.60087149  0.08836092  1
  B  B49  1  0.59703327  0.89912851  0.58836092  1
  B  B50  1  0.61031394  0.62803392  0.57082919  1
  B  B51  1  0.61031394  0.87196608  0.07082919  1
  B  B52  1  0.64692694  0.78523457  0.97760321  1
  B  B53  1  0.64692694  0.71476543  0.47760321  1
  B  B54  1  0.69327937  0.67164380  0.15318104  1
  B  B55  1  0.69327937  0.82835620  0.65318104  1
  B  B56  1  0.69403936  0.66627379  0.02721624  1
  B  B57  1  0.69403936  0.83372621  0.52721624  1
  B  B58  1  0.72051060  0.71053590  0.58237841  1
  B  B59  1  0.72051060  0.78946410  0.08237841  1
  B  B60  1  0.77948940  0.21053590  0.58237841  1
  B  B61  1  0.77948940  0.28946410  0.08237841  1
  B  B62  1  0.80596064  0.16627379  0.02721624  1
  B  B63  1  0.80596064  0.33372621  0.52721624  1
  B  B64  1  0.80672063  0.17164380  0.15318104  1
  B  B65  1  0.80672063  0.32835620  0.65318104  1
  B  B66  1  0.85307306  0.28523457  0.97760321  1
  B  B67  1  0.85307306  0.21476543  0.47760321  1
  B  B68  1  0.88968606  0.12803392  0.57082919  1
  B  B69  1  0.88968606  0.37196608  0.07082919  1
  B  B70  1  0.90296673  0.10087149  0.08836092  1
  B  B71  1  0.90296673  0.39912851  0.58836092  1
  B  B72  1  0.92778571  0.17111806  0.98099924  1
  B  B73  1  0.92778571  0.32888194  0.48099924  1
  B  B74  1  0.97933589  0.20344052  0.50865616  1
  B  B75  1  0.97933589  0.29655948  0.00865616  1
  B  B76  1  0.98678362  0.81680448  0.92351445  1
  B  B77  1  0.98678362  0.68319552  0.42351445  1
  B  B78  1  0.99364877  0.18824303  0.63347015  1
  B  B79  1  0.99364877  0.31175697  0.13347015  1
  P  P80  1  0.04729114  0.67214216  0.29132859  1
  P  P81  1  0.04729114  0.82785784  0.79132859  1
  P  P82  1  0.14543840  0.82151304  0.29610655  1
  P  P83  1  0.14543840  0.67848696  0.79610655  1
  P  P84  1  0.35456160  0.32151304  0.29610655  1
  P  P85  1  0.35456160  0.17848696  0.79610655  1
  P  P86  1  0.45270886  0.17214216  0.29132859  1
  P  P87  1  0.45270886  0.32785784  0.79132859  1
  P  P88  1  0.54729114  0.67214216  0.20867141  1
  P  P89  1  0.54729114  0.82785784  0.70867141  1
  P  P90  1  0.64543840  0.67848696  0.70389345  1
  P  P91  1  0.64543840  0.82151304  0.20389345  1
  P  P92  1  0.85456160  0.17848696  0.70389345  1
  P  P93  1  0.85456160  0.32151304  0.20389345  1
  P  P94  1  0.95270886  0.17214216  0.20867141  1
  P  P95  1  0.95270886  0.32785784  0.70867141  1
  H  H96  1  0.03724259  0.15929500  0.45839317  1
  H  H97  1  0.03724259  0.34070500  0.95839317  1
  H  H98  1  0.04911756  0.62389192  0.58965542  1
  H  H99  1  0.04911756  0.87610808  0.08965542  1
  H  H100  1  0.09355668  0.14533032  0.07639005  1
  H  H101  1  0.09355668  0.35466968  0.57639005  1
  H  H102  1  0.09250163  0.50726374  0.40343323  1
  H  H103  1  0.09250163  0.99273626  0.90343323  1
  H  H104  1  0.11448038  0.96601491  0.43313442  1
  H  H105  1  0.11448038  0.53398509  0.93313442  1
  H  H106  1  0.17842136  0.67913950  0.09544476  1
  H  H107  1  0.17842136  0.82086050  0.59544476  1
  H  H108  1  0.19884239  0.17376803  0.91405940  1
  H  H109  1  0.19884239  0.32623197  0.41405940  1
  H  H110  1  0.24114158  0.11633308  0.50829017  1
  H  H111  1  0.24114158  0.38366692  0.00829017  1
  H  H112  1  0.25885842  0.61633308  0.50829017  1
  H  H113  1  0.25885842  0.88366692  0.00829017  1
  H  H114  1  0.30115761  0.82623197  0.41405940  1
  H  H115  1  0.30115761  0.67376803  0.91405940  1
  H  H116  1  0.32157864  0.17913950  0.09544476  1
  H  H117  1  0.32157864  0.32086050  0.59544476  1
  H  H118  1  0.38551962  0.46601491  0.43313442  1
  H  H119  1  0.38551962  0.03398509  0.93313442  1
  H  H120  1  0.40749837  0.00726374  0.40343323  1
  H  H121  1  0.40749837  0.49273626  0.90343323  1
  H  H122  1  0.40644332  0.64533032  0.07639005  1
  H  H123  1  0.40644332  0.85466968  0.57639005  1
  H  H124  1  0.45088244  0.37610808  0.08965542  1
  H  H125  1  0.45088244  0.12389192  0.58965542  1
  H  H126  1  0.46275741  0.65929500  0.45839317  1
  H  H127  1  0.46275741  0.84070500  0.95839317  1
  H  H128  1  0.53724259  0.15929500  0.04160683  1
  H  H129  1  0.53724259  0.34070500  0.54160683  1
  H  H130  1  0.54911756  0.62389192  0.91034458  1
  H  H131  1  0.54911756  0.87610808  0.41034558  1
  H  H132  1  0.59355668  0.14533032  0.42360995  1
  H  H133  1  0.59355668  0.35466968  0.92360995  1
  H  H134  1  0.59250163  0.50726374  0.09656677  1
  H  H135  1  0.59250163  0.99273626  0.59656677  1
  H  H136  1  0.61448038  0.53398509  0.56686558  1
  H  H137  1  0.61448038  0.96601491  0.06686558  1
  H  H138  1  0.67842136  0.82086050  0.90455524  1
  H  H139  1  0.67842136  0.67913950  0.40455524  1
  H  H140  1  0.69884239  0.17376803  0.58594060  1
  H  H141  1  0.69884239  0.32623197  0.08594060  1
  H  H142  1  0.74114158  0.11633308  0.99170983  1
  H  H143  1  0.74114158  0.38366692  0.49170983  1
  H  H144  1  0.75885842  0.61633308  0.99170983  1
  H  H145  1  0.75885842  0.88366692  0.49170983  1
  H  H146  1  0.80115761  0.67376803  0.58594060  1
  H  H147  1  0.80115761  0.82623197  0.08594060  1
  H  H148  1  0.82157864  0.32086050  0.90455524  1
  H  H149  1  0.82157864  0.17913950  0.40455524  1
  H  H150  1  0.88551962  0.03398509  0.56686558  1
  H  H151  1  0.88551962  0.46601491  0.06686558  1
  H  H152  1  0.90749837  0.00726374  0.09656677  1
  H  H153  1  0.90749837  0.49273626  0.59656677  1
  H  H154  1  0.90644332  0.85466968  0.92360995  1
  H  H155  1  0.90644332  0.64533032  0.42360995  1
  H  H156  1  0.95088244  0.12389192  0.91034458  1
  H  H157  1  0.95088244  0.37610808  0.41034558  1
  H  H158  1  0.96275741  0.65929500  0.04160683  1
  H  H159  1  0.96275741  0.84070500  0.54160683  1
  Cl  Cl160  1  0.08842692  0.38719122  0.18925276  1
  Cl  Cl161  1  0.08842692  0.11280878  0.68925276  1
  Cl  Cl162  1  0.21853203  0.10695848  0.27251424  1
  Cl  Cl163  1  0.21853203  0.39304152  0.77251424  1
  Cl  Cl164  1  0.28146797  0.60695848  0.27251424  1
  Cl  Cl165  1  0.28146797  0.89304152  0.77251424  1
  Cl  Cl166  1  0.41157308  0.88719122  0.18925276  1
  Cl  Cl167  1  0.41157308  0.61280878  0.68925276  1
  Cl  Cl168  1  0.58842692  0.38719122  0.31074724  1
  Cl  Cl169  1  0.58842692  0.11280878  0.81074724  1
  Cl  Cl170  1  0.71853203  0.10695848  0.22748576  1
  Cl  Cl171  1  0.71853203  0.39304152  0.72748576  1
  Cl  Cl172  1  0.78146797  0.60695848  0.22748576  1
  Cl  Cl173  1  0.78146797  0.89304152  0.72748576  1
  Cl  Cl174  1  0.91157308  0.61280878  0.81074724  1
  Cl  Cl175  1  0.91157308  0.88719122  0.31074724  1
