# generated using pymatgen
data_Mn3CrNi2(PO4)6
_symmetry_space_group_name_H-M   'P 1'
_cell_length_a   8.43377676
_cell_length_b   8.43377665
_cell_length_c   8.43377692
_cell_angle_alpha   60.73739389
_cell_angle_beta   60.73739995
_cell_angle_gamma   60.73739347
_symmetry_Int_Tables_number   1
_chemical_formula_structural   Mn3CrNi2(PO4)6
_chemical_formula_sum   'Mn3 Cr1 Ni2 P6 O24'
_cell_volume   431.23905336
_cell_formula_units_Z   1
loop_
 _symmetry_equiv_pos_site_id
 _symmetry_equiv_pos_as_xyz
  1  'x, y, z'
loop_
 _atom_site_type_symbol
 _atom_site_label
 _atom_site_symmetry_multiplicity
 _atom_site_fract_x
 _atom_site_fract_y
 _atom_site_fract_z
 _atom_site_occupancy
  Mn  Mn0  1  0.14173933  0.14173933  0.14173933  1
  Mn  Mn1  1  0.35844385  0.35844385  0.35844385  1
  Mn  Mn2  1  0.64202746  0.64202746  0.64202746  1
  Cr  Cr3  1  0.85960228  0.85960228  0.85960228  1
  Ni  Ni4  1  0.99985907  0.99985907  0.99985907  1
  Ni  Ni5  1  0.50058466  0.50058466  0.50058466  1
  P  P6  1  0.04213126  0.74964883  0.45700009  1
  P  P7  1  0.45700009  0.04213126  0.74964883  1
  P  P8  1  0.74964883  0.45700009  0.04213126  1
  P  P9  1  0.25021378  0.54133760  0.96016509  1
  P  P10  1  0.54133760  0.96016509  0.25021378  1
  P  P11  1  0.96016509  0.25021378  0.54133760  1
  O  O12  1  0.11995837  0.31451657  0.50422026  1
  O  O13  1  0.31451657  0.50422026  0.11995837  1
  O  O14  1  0.06037079  0.90988072  0.25543356  1
  O  O15  1  0.50422026  0.11995837  0.31451657  1
  O  O16  1  0.00937359  0.81163305  0.61390756  1
  O  O17  1  0.24290698  0.58310938  0.44404185  1
  O  O18  1  0.25543356  0.06037079  0.90988072  1
  O  O19  1  0.44404185  0.24290698  0.58310938  1
  O  O20  1  0.18925584  0.38291179  0.99098700  1
  O  O21  1  0.58310938  0.44404185  0.24290698  1
  O  O22  1  0.08953794  0.74092019  0.94561489  1
  O  O23  1  0.38291179  0.99098700  0.18925584  1
  O  O24  1  0.61390756  0.00937359  0.81163305  1
  O  O25  1  0.90988072  0.25543356  0.06037079  1
  O  O26  1  0.41378204  0.55450517  0.76002970  1
  O  O27  1  0.81163305  0.61390756  0.00937359  1
  O  O28  1  0.55450517  0.76002970  0.41378204  1
  O  O29  1  0.74092019  0.94561489  0.08953794  1
  O  O30  1  0.76002970  0.41378204  0.55450517  1
  O  O31  1  0.99098700  0.18925584  0.38291179  1
  O  O32  1  0.48775559  0.88332765  0.68926822  1
  O  O33  1  0.94561489  0.08953794  0.74092019  1
  O  O34  1  0.68926822  0.48775559  0.88332765  1
  O  O35  1  0.88332765  0.68926822  0.48775559  1
