# generated using pymatgen
data_Mn2CoO6
_symmetry_space_group_name_H-M   'P 1'
_cell_length_a   6.53457324
_cell_length_b   2.89797927
_cell_length_c   5.85914692
_cell_angle_alpha   90.48271038
_cell_angle_beta   103.97930181
_cell_angle_gamma   76.74019936
_symmetry_Int_Tables_number   1
_chemical_formula_structural   Mn2CoO6
_chemical_formula_sum   'Mn2 Co1 O6'
_cell_volume   104.66866888
_cell_formula_units_Z   1
loop_
 _symmetry_equiv_pos_site_id
 _symmetry_equiv_pos_as_xyz
  1  'x, y, z'
loop_
 _atom_site_type_symbol
 _atom_site_label
 _atom_site_symmetry_multiplicity
 _atom_site_fract_x
 _atom_site_fract_y
 _atom_site_fract_z
 _atom_site_occupancy
  Mn  Mn0  1  0.00199805  0.99774010  0.00193939  1
  Mn  Mn1  1  0.66532284  0.66649512  0.66301443  1
  Co  Co2  1  0.33397542  0.33278840  0.33201514  1
  O  O3  1  0.02828870  0.48824527  0.22503718  1
  O  O4  1  0.35354644  0.82687721  0.54626812  1
  O  O5  1  0.68767690  0.15832761  0.88735520  1
  O  O6  1  0.31403467  0.83933243  0.11752841  1
  O  O7  1  0.63959489  0.17626678  0.43986476  1
  O  O8  1  0.97919609  0.50555309  0.77750937  1
