# generated using pymatgen
data_ZnCu2(TeO4)2
_symmetry_space_group_name_H-M   'P 1'
_cell_length_a   6.51780321
_cell_length_b   8.60304524
_cell_length_c   13.20673432
_cell_angle_alpha   90.00000000
_cell_angle_beta   95.22205300
_cell_angle_gamma   90.00000000
_symmetry_Int_Tables_number   1
_chemical_formula_structural   ZnCu2(TeO4)2
_chemical_formula_sum   'Zn4 Cu8 Te8 O32'
_cell_volume   737.46697293
_cell_formula_units_Z   4
loop_
 _symmetry_equiv_pos_site_id
 _symmetry_equiv_pos_as_xyz
  1  'x, y, z'
loop_
 _atom_site_type_symbol
 _atom_site_label
 _atom_site_symmetry_multiplicity
 _atom_site_fract_x
 _atom_site_fract_y
 _atom_site_fract_z
 _atom_site_occupancy
  Zn  Zn0  1  0.11209731  0.14542197  0.04531806  1
  Zn  Zn1  1  0.88790269  0.85457803  0.95468194  1
  Zn  Zn2  1  0.88790269  0.64542197  0.45468194  1
  Zn  Zn3  1  0.11209731  0.35457803  0.54531806  1
  Cu  Cu4  1  0.73393001  0.18781032  0.88228899  1
  Cu  Cu5  1  0.38043455  0.06174831  0.62632494  1
  Cu  Cu6  1  0.61956545  0.93825169  0.37367506  1
  Cu  Cu7  1  0.26606999  0.81218968  0.11771101  1
  Cu  Cu8  1  0.73393001  0.31218968  0.38228899  1
  Cu  Cu9  1  0.38043455  0.43825169  0.12632494  1
  Cu  Cu10  1  0.26606999  0.68781032  0.61771101  1
  Cu  Cu11  1  0.61956545  0.56174831  0.87367506  1
  Te  Te12  1  0.08986253  0.45205428  0.84355971  1
  Te  Te13  1  0.08986253  0.04794572  0.34355971  1
  Te  Te14  1  0.64599832  0.11077590  0.14045329  1
  Te  Te15  1  0.91013747  0.95205428  0.65644029  1
  Te  Te16  1  0.35400168  0.88922410  0.85954671  1
  Te  Te17  1  0.35400168  0.61077590  0.35954671  1
  Te  Te18  1  0.64599832  0.38922410  0.64045329  1
  Te  Te19  1  0.91013747  0.54794572  0.15644029  1
  O  O20  1  0.02912880  0.24279462  0.40079284  1
  O  O21  1  0.65936815  0.02256685  0.59297277  1
  O  O22  1  0.19233165  0.57225150  0.49285378  1
  O  O23  1  0.80766835  0.07225150  0.00714622  1
  O  O24  1  0.02912880  0.25720538  0.90079284  1
  O  O25  1  0.97087120  0.75720538  0.59920716  1
  O  O26  1  0.08430805  0.10822400  0.61040589  1
  O  O27  1  0.53467595  0.91031951  0.14927843  1
  O  O28  1  0.53467595  0.58968049  0.64927843  1
  O  O29  1  0.32834903  0.87365051  0.69629206  1
  O  O30  1  0.67165097  0.37365051  0.80370794  1
  O  O31  1  0.46532405  0.08968049  0.85072157  1
  O  O32  1  0.91569195  0.89177600  0.38959411  1
  O  O33  1  0.90710825  0.54230504  0.29664654  1
  O  O34  1  0.39820539  0.28043500  0.58628460  1
  O  O35  1  0.39820539  0.21956500  0.08628460  1
  O  O36  1  0.09289175  0.04230504  0.20335346  1
  O  O37  1  0.46532405  0.41031951  0.35072157  1
  O  O38  1  0.09289175  0.45769496  0.70335346  1
  O  O39  1  0.80766835  0.42774850  0.50714622  1
  O  O40  1  0.65936815  0.47743315  0.09297277  1
  O  O41  1  0.67165097  0.12634949  0.30370794  1
  O  O42  1  0.97087120  0.74279462  0.09920716  1
  O  O43  1  0.08430805  0.39177600  0.11040589  1
  O  O44  1  0.19233165  0.92774850  0.99285378  1
  O  O45  1  0.60179461  0.78043500  0.91371540  1
  O  O46  1  0.34063185  0.97743315  0.40702723  1
  O  O47  1  0.34063185  0.52256685  0.90702723  1
  O  O48  1  0.91569195  0.60822400  0.88959411  1
  O  O49  1  0.60179461  0.71956500  0.41371540  1
  O  O50  1  0.32834903  0.62634949  0.19629206  1
  O  O51  1  0.90710825  0.95769496  0.79664654  1
