# generated using pymatgen
data_Li4Fe3Co3(SbO8)2
_symmetry_space_group_name_H-M   'P 1'
_cell_length_a   5.88328416
_cell_length_b   5.88595210
_cell_length_c   9.59533746
_cell_angle_alpha   89.99765177
_cell_angle_beta   91.03594527
_cell_angle_gamma   120.01777967
_symmetry_Int_Tables_number   1
_chemical_formula_structural   Li4Fe3Co3(SbO8)2
_chemical_formula_sum   'Li4 Fe3 Co3 Sb2 O16'
_cell_volume   287.64386598
_cell_formula_units_Z   1
loop_
 _symmetry_equiv_pos_site_id
 _symmetry_equiv_pos_as_xyz
  1  'x, y, z'
loop_
 _atom_site_type_symbol
 _atom_site_label
 _atom_site_symmetry_multiplicity
 _atom_site_fract_x
 _atom_site_fract_y
 _atom_site_fract_z
 _atom_site_occupancy
  Li  Li0  1  0.32301487  0.66148972  0.90523125  1
  Li  Li1  1  0.01145334  0.00578311  0.99233714  1
  Li  Li2  1  0.01507469  0.00754239  0.49035650  1
  Li  Li3  1  0.65796269  0.32900466  0.39877502  1
  Fe  Fe4  1  0.66199569  0.83100047  0.21413540  1
  Fe  Fe5  1  0.83192669  0.66142881  0.71423160  1
  Fe  Fe6  1  0.83191485  0.17052220  0.71423271  1
  Co  Co7  1  0.17213596  0.82999796  0.21410905  1
  Co  Co8  1  0.17213592  0.34216142  0.21411354  1
  Co  Co9  1  0.34688739  0.17344712  0.71494637  1
  Sb  Sb10  1  0.33096626  0.66548987  0.48511311  1
  Sb  Sb11  1  0.66456592  0.33229591  0.99151592  1
  O  O12  1  0.17054846  0.83777412  0.59748736  1
  O  O13  1  0.03382615  0.51689660  0.33209077  1
  O  O14  1  0.32274298  0.66140237  0.11146449  1
  O  O15  1  0.01271213  0.00634019  0.30363832  1
  O  O16  1  0.01645927  0.00824992  0.80446181  1
  O  O17  1  0.17055196  0.33276564  0.59748687  1
  O  O18  1  0.47043883  0.96303023  0.34192083  1
  O  O19  1  0.47042641  0.50742021  0.34192898  1
  O  O20  1  0.32862728  0.16435035  0.10274340  1
  O  O21  1  0.67219463  0.83611255  0.59054360  1
  O  O22  1  0.50571533  0.47298540  0.84326513  1
  O  O23  1  0.50569442  0.03273496  0.84328571  1
  O  O24  1  0.66101586  0.33052042  0.60625949  1
  O  O25  1  0.83953192  0.67423637  0.09607387  1
  O  O26  1  0.95994687  0.47998539  0.85000975  1
  O  O27  1  0.83953024  0.16533163  0.09608303  1
