# generated using pymatgen
data_Li2(NiO2)3
_symmetry_space_group_name_H-M   'P 1'
_cell_length_a   6.46716081
_cell_length_b   18.85605948
_cell_length_c   5.62118192
_cell_angle_alpha   86.03490527
_cell_angle_beta   64.51873702
_cell_angle_gamma   85.91584955
_symmetry_Int_Tables_number   1
_chemical_formula_structural   Li2(NiO2)3
_chemical_formula_sum   'Li12 Ni18 O36'
_cell_volume   616.66088932
_cell_formula_units_Z   6
loop_
 _symmetry_equiv_pos_site_id
 _symmetry_equiv_pos_as_xyz
  1  'x, y, z'
loop_
 _atom_site_type_symbol
 _atom_site_label
 _atom_site_symmetry_multiplicity
 _atom_site_fract_x
 _atom_site_fract_y
 _atom_site_fract_z
 _atom_site_occupancy
  Li  Li0  1  0.16348419  0.33334273  0.57892443  1
  Li  Li1  1  0.40001899  0.44735773  0.70625392  1
  Li  Li2  1  0.49965687  0.00114363  0.75318889  1
  Li  Li3  1  0.06921951  0.78159198  0.00240129  1
  Li  Li4  1  0.16779287  0.33343340  0.09191432  1
  Li  Li5  1  0.26905941  0.88604302  0.16398137  1
  Li  Li6  1  0.83381479  0.66514162  0.90717873  1
  Li  Li7  1  0.93213002  0.21840328  0.96534730  1
  Li  Li8  1  0.50224922  0.99930194  0.24876371  1
  Li  Li9  1  0.59830034  0.55113890  0.29112315  1
  Li  Li10  1  0.73009529  0.11425336  0.37079520  1
  Li  Li11  1  0.83374501  0.66932410  0.42765688  1
  Ni  Ni12  1  0.10533894  0.55541060  0.55829970  1
  Ni  Ni13  1  0.21760586  0.11232891  0.61016180  1
  Ni  Ni14  1  0.33410263  0.66638890  0.66644871  1
  Ni  Ni15  1  0.45205531  0.22076369  0.72035988  1
  Ni  Ni16  1  0.11751419  0.55407398  0.05407783  1
  Ni  Ni17  1  0.56286611  0.77806456  0.77414967  1
  Ni  Ni18  1  0.66508749  0.33364547  0.83439777  1
  Ni  Ni19  1  0.22784697  0.11038165  0.10448082  1
  Ni  Ni20  1  0.33075364  0.66778181  0.16767877  1
  Ni  Ni21  1  0.78277218  0.88794904  0.88983960  1
  Ni  Ni22  1  0.88428272  0.44567049  0.94405572  1
  Ni  Ni23  1  0.44018808  0.22186246  0.22637354  1
  Ni  Ni24  1  0.55081395  0.77944082  0.28027081  1
  Ni  Ni25  1  0.66710823  0.33322232  0.33377563  1
  Ni  Ni26  1  0.77408585  0.88948334  0.39299231  1
  Ni  Ni27  1  0.89610463  0.44468748  0.43793857  1
  Ni  Ni28  1  0.99841226  0.00185437  0.49809764  1
  Ni  Ni29  1  0.00081713  0.99939567  0.00006012  1
  O  O30  1  0.00767906  0.11094766  0.96761876  1
  O  O31  1  0.00693374  0.10337131  0.46244311  1
  O  O32  1  0.10818588  0.45223392  0.58621166  1
  O  O33  1  0.99372582  0.89983354  0.52810963  1
  O  O34  1  0.08823022  0.65327880  0.54232065  1
  O  O35  1  0.22431521  0.01243665  0.63045804  1
  O  O36  1  0.22225261  0.21300831  0.58488566  1
  O  O37  1  0.43823327  0.11247616  0.74079339  1
  O  O38  1  0.32787301  0.55885657  0.68708770  1
  O  O39  1  0.44789795  0.33300793  0.69048682  1
  O  O40  1  0.34266987  0.77147703  0.64632681  1
  O  O41  1  0.10565455  0.44501366  0.07773046  1
  O  O42  1  0.99409941  0.88964023  0.03823875  1
  O  O43  1  0.57662558  0.68014340  0.79667253  1
  O  O44  1  0.11728112  0.66773554  0.02385658  1
  O  O45  1  0.56397052  0.88124881  0.75510347  1
  O  O46  1  0.23498228  0.99985964  0.11271745  1
  O  O47  1  0.66039708  0.23148135  0.87718955  1
  O  O48  1  0.23491548  0.22176504  0.07002168  1
  O  O49  1  0.67641900  0.43658685  0.79200734  1
  O  O50  1  0.77970801  0.78610448  0.91539459  1
  O  O51  1  0.43939644  0.11848947  0.25505849  1
  O  O52  1  0.76686935  0.98790390  0.88722901  1
  O  O53  1  0.32348631  0.56153643  0.20624552  1
  O  O54  1  0.88441344  0.33290725  0.97367479  1
  O  O55  1  0.42487454  0.31973610  0.22663601  1
  O  O56  1  0.89693041  0.55479603  0.92015962  1
  O  O57  1  0.34252543  0.77612176  0.12679688  1
  O  O58  1  0.54602577  0.66638031  0.31031753  1
  O  O59  1  0.56269112  0.88734149  0.23902511  1
  O  O60  1  0.66005148  0.22173614  0.36043394  1
  O  O61  1  0.77373837  0.00151046  0.36452721  1
  O  O62  1  0.67355868  0.44379258  0.30959899  1
  O  O63  1  0.76963508  0.77862041  0.41392020  1
  O  O64  1  0.90641308  0.34611896  0.44843562  1
  O  O65  1  0.89421817  0.54673259  0.41278338  1
