# generated using pymatgen
data_Ti3CoSn2(PO4)6
_symmetry_space_group_name_H-M   'P 1'
_cell_length_a   9.05123889
_cell_length_b   8.65796916
_cell_length_c   8.65796898
_cell_angle_alpha   59.99999394
_cell_angle_beta   61.42717379
_cell_angle_gamma   61.42717320
_symmetry_Int_Tables_number   1
_chemical_formula_structural   Ti3CoSn2(PO4)6
_chemical_formula_sum   'Ti3 Co1 Sn2 P6 O24'
_cell_volume   489.85122536
_cell_formula_units_Z   1
loop_
 _symmetry_equiv_pos_site_id
 _symmetry_equiv_pos_as_xyz
  1  'x, y, z'
loop_
 _atom_site_type_symbol
 _atom_site_label
 _atom_site_symmetry_multiplicity
 _atom_site_fract_x
 _atom_site_fract_y
 _atom_site_fract_z
 _atom_site_occupancy
  Ti  Ti0  1  0.05630861  0.64789713  0.64789713  1
  Ti  Ti1  1  0.43395221  0.85534893  0.85534893  1
  Ti  Ti2  1  0.95445363  0.34851512  0.34851512  1
  Co  Co3  1  0.54987790  0.15004037  0.15004037  1
  Sn  Sn4  1  0.96269363  0.01243512  0.01243512  1
  Sn  Sn5  1  0.50768044  0.49743985  0.49743985  1
  P  P6  1  0.25518012  0.24910893  0.53727339  1
  P  P7  1  0.25518012  0.95843756  0.24910893  1
  P  P8  1  0.25518012  0.53727339  0.95843756  1
  P  P9  1  0.74961258  0.46594969  0.03772723  1
  P  P10  1  0.74961258  0.03772723  0.74671050  1
  P  P11  1  0.74961258  0.74671050  0.46594969  1
  O  O12  1  0.08432592  0.12922819  0.28412977  1
  O  O13  1  0.08432592  0.50231612  0.12922819  1
  O  O14  1  0.08432592  0.28412977  0.50231612  1
  O  O15  1  0.26763207  0.07557147  0.72106364  1
  O  O16  1  0.42279852  0.22229042  0.37555307  1
  O  O17  1  0.22596092  0.42201632  0.57428372  1
  O  O18  1  0.26763207  0.93573282  0.07557147  1
  O  O19  1  0.22596092  0.77773804  0.42201632  1
  O  O20  1  0.58000578  0.62935298  0.00309237  1
  O  O21  1  0.22596092  0.57428372  0.77773804  1
  O  O22  1  0.74527567  0.28138503  0.05655943  1
  O  O23  1  0.58000578  0.00309237  0.78754788  1
  O  O24  1  0.42279852  0.97935799  0.22229042  1
  O  O25  1  0.26763207  0.72106364  0.93573282  1
  O  O26  1  0.76271609  0.44379807  0.22187011  1
  O  O27  1  0.42279852  0.37555307  0.97935799  1
  O  O28  1  0.76271609  0.22187011  0.57161472  1
  O  O29  1  0.74527567  0.05655943  0.91678087  1
  O  O30  1  0.76271609  0.57161472  0.44379807  1
  O  O31  1  0.58000578  0.78754788  0.62935298  1
  O  O32  1  0.74527567  0.91678087  0.28138503  1
  O  O33  1  0.91816887  0.69987161  0.50639207  1
  O  O34  1  0.91816887  0.50639207  0.87556745  1
  O  O35  1  0.91816887  0.87556745  0.69987161  1
