# generated using pymatgen
data_Li6V3P8O29
_symmetry_space_group_name_H-M   'P 1'
_cell_length_a   9.80343510
_cell_length_b   9.85072906
_cell_length_c   13.86376812
_cell_angle_alpha   90.12022810
_cell_angle_beta   90.47266459
_cell_angle_gamma   59.88071641
_symmetry_Int_Tables_number   1
_chemical_formula_structural   Li6V3P8O29
_chemical_formula_sum   'Li12 V6 P16 O58'
_cell_volume   1158.02867288
_cell_formula_units_Z   2
loop_
 _symmetry_equiv_pos_site_id
 _symmetry_equiv_pos_as_xyz
  1  'x, y, z'
loop_
 _atom_site_type_symbol
 _atom_site_label
 _atom_site_symmetry_multiplicity
 _atom_site_fract_x
 _atom_site_fract_y
 _atom_site_fract_z
 _atom_site_occupancy
  Li  Li0  1  0.77159757  0.90581540  0.55834987  1
  Li  Li1  1  0.67280289  0.66576714  0.88374692  1
  Li  Li2  1  0.76571022  0.32987454  0.06516852  1
  Li  Li3  1  0.33154773  0.90087187  0.06529641  1
  Li  Li4  1  0.68257496  0.22864767  0.43816796  1
  Li  Li5  1  0.32326125  0.77242756  0.55827799  1
  Li  Li6  1  0.66360162  0.09892361  0.94056766  1
  Li  Li7  1  0.23356968  0.66114543  0.94174140  1
  Li  Li8  1  0.09491553  0.67572727  0.43786049  1
  Li  Li9  1  0.22537176  0.09673221  0.44044402  1
  Li  Li10  1  0.10126966  0.23661183  0.94013228  1
  Li  Li11  1  0.99158265  0.98027925  0.00621915  1
  V  V12  1  0.56706751  0.43304641  0.25187654  1
  V  V13  1  0.43106863  0.56593828  0.74744109  1
  V  V14  1  0.56729822  0.00201555  0.74834627  1
  V  V15  1  0.43332387  0.00187566  0.25172393  1
  V  V16  1  0.99603901  0.56643113  0.24563523  1
  V  V17  1  0.00002562  0.43313865  0.74628577  1
  P  P18  1  0.91345136  0.77463129  0.84302290  1
  P  P19  1  0.77166025  0.91219474  0.34115817  1
  P  P20  1  0.91458367  0.31729030  0.34327405  1
  P  P21  1  0.66510589  0.66511895  0.12624509  1
  P  P22  1  0.66481870  0.66949002  0.62664504  1
  P  P23  1  0.77464645  0.31494863  0.84340370  1
  P  P24  1  0.68309474  0.23069479  0.65635444  1
  P  P25  1  0.31760008  0.90862453  0.84263770  1
  P  P26  1  0.68361000  0.08916978  0.15613971  1
  P  P27  1  0.32029602  0.76936496  0.34159038  1
  P  P28  1  0.22592182  0.68463238  0.15734365  1
  P  P29  1  0.33183127  0.33489243  0.37234466  1
  P  P30  1  0.33293264  0.33449553  0.87388276  1
  P  P31  1  0.08562995  0.68115039  0.65632597  1
  P  P32  1  0.22814144  0.08782687  0.65734978  1
  P  P33  1  0.08580940  0.22828746  0.15736148  1
  O  O34  1  0.99711211  0.75758656  0.56481022  1
  O  O35  1  0.91743690  0.74854032  0.34231164  1
  O  O36  1  0.77115870  0.01298468  0.06494219  1
  O  O37  1  0.74292888  0.91980429  0.84181991  1
  O  O38  1  0.89923054  0.62603242  0.83437931  1
  O  O39  1  0.81164630  0.66904041  0.17032093  1
  O  O40  1  0.90409852  0.47603537  0.32629031  1
  O  O41  1  0.00263613  0.22427129  0.06513268  1
  O  O42  1  0.92216987  0.33190635  0.84389166  1
  O  O43  1  0.67311145  0.81568185  0.66728932  1
  O  O44  1  0.61992792  0.90271475  0.32194954  1
  O  O45  1  0.81235744  0.52323759  0.67614352  1
  O  O46  1  0.66656978  0.66299327  0.01744839  1
  O  O47  1  0.66428953  0.67026793  0.51944501  1
  O  O48  1  0.67599774  0.51018904  0.16383730  1
  O  O49  1  0.48189143  0.89128391  0.83112399  1
  O  O50  1  0.51257396  0.81195201  0.16349384  1
  O  O51  1  0.74725618  0.33631863  0.34173763  1
  O  O52  1  0.79159297  0.20987240  0.74995377  1
  O  O53  1  0.75229526  0.24369727  0.56489991  1
  O  O54  1  0.77154755  0.22727939  0.93249454  1
  O  O55  1  0.62673292  0.47899312  0.83115218  1
  O  O56  1  0.51248404  0.67377659  0.66731691  1
  O  O57  1  0.66096277  0.25716555  0.16149015  1
  O  O58  1  0.48089048  0.62020100  0.32396021  1
  O  O59  1  0.33790539  0.91672644  0.34329553  1
  O  O60  1  0.79276834  0.00036695  0.24944156  1
  O  O61  1  0.75377445  0.00356666  0.43194947  1
  O  O62  1  0.24698301  0.99504878  0.56730381  1
  O  O63  1  0.66514567  0.08275280  0.65977907  1
  O  O64  1  0.52220066  0.38145375  0.67922850  1
  O  O65  1  0.33750519  0.74180651  0.84133667  1
  O  O66  1  0.48626856  0.32653579  0.33187002  1
  O  O67  1  0.38160740  0.53012043  0.16986627  1
  O  O68  1  0.22462557  0.77487099  0.06746261  1
  O  O69  1  0.24313874  0.75569785  0.43163610  1
  O  O70  1  0.20905147  0.79474632  0.24951593  1
  O  O71  1  0.24952125  0.66961621  0.65784903  1
  O  O72  1  0.48593451  0.18873510  0.83378399  1
  O  O73  1  0.52755655  0.09245321  0.16956467  1
  O  O74  1  0.32363780  0.48804717  0.83379733  1
  O  O75  1  0.33113718  0.33287785  0.98172264  1
  O  O76  1  0.33338001  0.33524874  0.48023085  1
  O  O77  1  0.18352732  0.48560411  0.32964089  1
  O  O78  1  0.38299824  0.09139136  0.67865740  1
  O  O79  1  0.32558947  0.18683901  0.33255473  1
  O  O80  1  0.08353425  0.66280487  0.15985739  1
  O  O81  1  0.99244676  0.79402110  0.74590372  1
  O  O82  1  0.00591422  0.78448954  0.92686350  1
  O  O83  1  0.10319913  0.51988175  0.67454475  1
  O  O84  1  0.18363410  0.32996975  0.83149359  1
  O  O85  1  0.09582921  0.37765791  0.16834332  1
  O  O86  1  0.25417527  0.08106678  0.16038934  1
  O  O87  1  0.23048574  0.99648789  0.93232848  1
  O  O88  1  0.20998529  0.99678519  0.75000273  1
  O  O89  1  0.08718971  0.25189549  0.65867207  1
  O  O90  1  0.00903407  0.22817561  0.42896154  1
  O  O91  1  0.99432408  0.20990761  0.24619845  1
