# generated using pymatgen
data_Mn13Fe11O32
_symmetry_space_group_name_H-M   'P 1'
_cell_length_a   6.16525083
_cell_length_b   6.06801790
_cell_length_c   20.52926149
_cell_angle_alpha   98.20481539
_cell_angle_beta   100.27053790
_cell_angle_gamma   60.69731590
_symmetry_Int_Tables_number   1
_chemical_formula_structural   Mn13Fe11O32
_chemical_formula_sum   'Mn13 Fe11 O32'
_cell_volume   657.63768651
_cell_formula_units_Z   1
loop_
 _symmetry_equiv_pos_site_id
 _symmetry_equiv_pos_as_xyz
  1  'x, y, z'
loop_
 _atom_site_type_symbol
 _atom_site_label
 _atom_site_symmetry_multiplicity
 _atom_site_fract_x
 _atom_site_fract_y
 _atom_site_fract_z
 _atom_site_occupancy
  Mn  Mn0  1  0.68711308  0.68822018  0.06253809  1
  Mn  Mn1  1  0.35012989  0.33975543  0.03109583  1
  Mn  Mn2  1  0.21370993  0.71924936  0.15647458  1
  Mn  Mn3  1  0.74512370  0.74921788  0.25096596  1
  Mn  Mn4  1  0.00361287  0.99797884  0.00051125  1
  Mn  Mn5  1  0.44237630  0.43828212  0.31153404  1
  Mn  Mn6  1  0.83737011  0.84774457  0.53140417  1
  Mn  Mn7  1  0.97379007  0.46825064  0.40602542  1
  Mn  Mn8  1  0.50038692  0.49927982  0.49996191  1
  Mn  Mn9  1  0.93057592  0.94236353  0.81226054  1
  Mn  Mn10  1  0.18388713  0.18952116  0.56198875  1
  Mn  Mn11  1  0.59375000  0.59375000  0.78125000  1
  Mn  Mn12  1  0.25692408  0.24513647  0.75023946  1
  Fe  Fe13  1  0.71822563  0.21779406  0.15680793  1
  Fe  Fe14  1  0.21515219  0.22106219  0.15623359  1
  Fe  Fe15  1  0.46927437  0.96970594  0.40569207  1
  Fe  Fe16  1  0.97234781  0.96643781  0.40626641  1
  Fe  Fe17  1  0.09375000  0.09375000  0.28125000  1
  Fe  Fe18  1  0.72095374  0.71637204  0.65583737  1
  Fe  Fe19  1  0.22076533  0.71561954  0.65609658  1
  Fe  Fe20  1  0.72037774  0.21830701  0.65619466  1
  Fe  Fe21  1  0.46712226  0.96919299  0.90630534  1
  Fe  Fe22  1  0.96673467  0.47188046  0.90640342  1
  Fe  Fe23  1  0.46654626  0.47112796  0.90666263  1
  O  O24  1  0.36450854  0.91663555  0.21507237  1
  O  O25  1  0.90170362  0.94066527  0.21962245  1
  O  O26  1  0.52746708  0.49613652  0.09212156  1
  O  O27  1  0.05929045  0.52552879  0.10082538  1
  O  O28  1  0.50432575  0.06740018  0.09767317  1
  O  O29  1  0.26085086  0.81504265  0.34794389  1
  O  O30  1  0.40529548  0.41057599  0.20814378  1
  O  O31  1  0.92664914  0.37245735  0.21455611  1
  O  O32  1  0.78220452  0.77692401  0.35435622  1
  O  O33  1  0.02974231  0.02792194  0.10436364  1
  O  O34  1  0.12820955  0.66197121  0.46167462  1
  O  O35  1  0.66003292  0.69136348  0.47037844  1
  O  O36  1  0.28579638  0.24683473  0.34287755  1
  O  O37  1  0.82299146  0.27086445  0.34742763  1
  O  O38  1  0.91598580  0.89777928  0.70896557  1
  O  O39  1  0.15775769  0.15957806  0.45813636  1
  O  O40  1  0.00686243  0.57072992  0.59616547  1
  O  O41  1  0.52359691  0.53826150  0.60321172  1
  O  O42  1  0.68317425  0.12009982  0.46482683  1
  O  O43  1  0.43312963  0.86257180  0.71655847  1
  O  O44  1  0.88602782  0.41192067  0.71064393  1
  O  O45  1  0.43273652  0.41935272  0.71672003  1
  O  O46  1  0.00819618  0.01386525  0.59467597  1
  O  O47  1  0.55495433  0.02310818  0.60146538  1
  O  O48  1  0.30147218  0.77557933  0.85185607  1
  O  O49  1  0.75476348  0.76814728  0.84577997  1
  O  O50  1  0.75437037  0.32492820  0.84594153  1
  O  O51  1  0.66390309  0.64923850  0.95928828  1
  O  O52  1  0.18063757  0.61677008  0.96633453  1
  O  O53  1  0.27151420  0.28972072  0.85353443  1
  O  O54  1  0.63254567  0.16439182  0.96103462  1
  O  O55  1  0.17930382  0.17363475  0.96782403  1
