# generated using pymatgen
data_Li3Mn3(PO4)4
_symmetry_space_group_name_H-M   'P 1'
_cell_length_a   9.63087817
_cell_length_b   11.08334085
_cell_length_c   6.00365758
_cell_angle_alpha   90.00000000
_cell_angle_beta   90.00000000
_cell_angle_gamma   65.03253214
_symmetry_Int_Tables_number   1
_chemical_formula_structural   Li3Mn3(PO4)4
_chemical_formula_sum   'Li6 Mn6 P8 O32'
_cell_volume   580.95581817
_cell_formula_units_Z   2
loop_
 _symmetry_equiv_pos_site_id
 _symmetry_equiv_pos_as_xyz
  1  'x, y, z'
loop_
 _atom_site_type_symbol
 _atom_site_label
 _atom_site_symmetry_multiplicity
 _atom_site_fract_x
 _atom_site_fract_y
 _atom_site_fract_z
 _atom_site_occupancy
  Li  Li0  1  0.99868450  0.48660225  0.02698882  1
  Li  Li1  1  0.34818325  0.27254147  0.25712640  1
  Li  Li2  1  0.48737323  0.01589695  0.01001575  1
  Li  Li3  1  0.49868450  0.48660225  0.47301118  1
  Li  Li4  1  0.84818325  0.27254147  0.24287360  1
  Li  Li5  1  0.98737323  0.01589695  0.48998425  1
  Mn  Mn6  1  0.12855788  0.22649147  0.75705037  1
  Mn  Mn7  1  0.16860896  0.71639922  0.75194487  1
  Mn  Mn8  1  0.62855788  0.22649147  0.74294963  1
  Mn  Mn9  1  0.37946163  0.78631056  0.24729318  1
  Mn  Mn10  1  0.66860896  0.71639922  0.74805513  1
  Mn  Mn11  1  0.87946163  0.78631056  0.25270682  1
  P  P12  1  0.16965249  0.09449751  0.23788921  1
  P  P13  1  0.25301433  0.40437316  0.74693469  1
  P  P14  1  0.23762043  0.59755861  0.24600736  1
  P  P15  1  0.66965249  0.09449751  0.26211079  1
  P  P16  1  0.34170572  0.90241664  0.74279305  1
  P  P17  1  0.75301433  0.40437316  0.75306531  1
  P  P18  1  0.73762043  0.59755861  0.25399264  1
  P  P19  1  0.84170572  0.90241664  0.75720695  1
  O  O20  1  0.06610276  0.16473356  0.03093811  1
  O  O21  1  0.06697290  0.15741827  0.44520629  1
  O  O22  1  0.31734470  0.04754044  0.75152092  1
  O  O23  1  0.32373414  0.09954564  0.23273069  1
  O  O24  1  0.06821699  0.61765255  0.24022328  1
  O  O25  1  0.21185012  0.34213443  0.95633314  1
  O  O26  1  0.21222241  0.32714611  0.55811728  1
  O  O27  1  0.13757284  0.55553396  0.74961414  1
  O  O28  1  0.35099325  0.45401124  0.25518454  1
  O  O29  1  0.27024953  0.67714449  0.04974368  1
  O  O30  1  0.27242912  0.67142147  0.45134883  1
  O  O31  1  0.41648456  0.39280245  0.73331089  1
  O  O32  1  0.19023028  0.88547762  0.74139832  1
  O  O33  1  0.19061128  0.94391531  0.24426239  1
  O  O34  1  0.56697290  0.15741827  0.05479371  1
  O  O35  1  0.56610276  0.16473356  0.46906189  1
  O  O36  1  0.81734470  0.04754044  0.74847908  1
  O  O37  1  0.44644024  0.82701699  0.54380512  1
  O  O38  1  0.44837844  0.83097363  0.94709321  1
  O  O39  1  0.82373414  0.09954564  0.26726931  1
  O  O40  1  0.56821699  0.61765255  0.25977672  1
  O  O41  1  0.71185012  0.34213443  0.54366686  1
  O  O42  1  0.71222241  0.32714611  0.94188272  1
  O  O43  1  0.63757284  0.55553396  0.75038586  1
  O  O44  1  0.85099325  0.45401124  0.24481546  1
  O  O45  1  0.77242912  0.67142147  0.04865117  1
  O  O46  1  0.77024953  0.67714449  0.45025632  1
  O  O47  1  0.91648456  0.39280245  0.76668911  1
  O  O48  1  0.69023028  0.88547762  0.75860168  1
  O  O49  1  0.69061128  0.94391531  0.25573761  1
  O  O50  1  0.94837844  0.83097363  0.55290679  1
  O  O51  1  0.94644024  0.82701699  0.95619488  1
