# generated using pymatgen
data_MnFeCo(PO4)3
_symmetry_space_group_name_H-M   'P 1'
_cell_length_a   9.87103435
_cell_length_b   5.97461267
_cell_length_c   14.61498747
_cell_angle_alpha   90.00000000
_cell_angle_beta   90.04988440
_cell_angle_gamma   90.00000000
_symmetry_Int_Tables_number   1
_chemical_formula_structural   MnFeCo(PO4)3
_chemical_formula_sum   'Mn4 Fe4 Co4 P12 O48'
_cell_volume   861.92742855
_cell_formula_units_Z   4
loop_
 _symmetry_equiv_pos_site_id
 _symmetry_equiv_pos_as_xyz
  1  'x, y, z'
loop_
 _atom_site_type_symbol
 _atom_site_label
 _atom_site_symmetry_multiplicity
 _atom_site_fract_x
 _atom_site_fract_y
 _atom_site_fract_z
 _atom_site_occupancy
  Mn  Mn0  1  0.21670565  0.75000000  0.81279427  1
  Mn  Mn1  1  0.22073963  0.75000000  0.14805278  1
  Mn  Mn2  1  0.28271121  0.25000000  0.31393645  1
  Mn  Mn3  1  0.71742718  0.75000000  0.02005070  1
  Fe  Fe4  1  0.22316171  0.75000000  0.48781806  1
  Fe  Fe5  1  0.27449216  0.25000000  0.65495567  1
  Fe  Fe6  1  0.27711314  0.25000000  0.98717739  1
  Fe  Fe7  1  0.72553969  0.75000000  0.34483410  1
  Co  Co8  1  0.73280293  0.75000000  0.67438840  1
  Co  Co9  1  0.77276131  0.25000000  0.51086003  1
  Co  Co10  1  0.77526575  0.25000000  0.17865285  1
  Co  Co11  1  0.77747323  0.25000000  0.84730567  1
  P  P12  1  0.09777926  0.25000000  0.13955622  1
  P  P13  1  0.09437826  0.25000000  0.80528905  1
  P  P14  1  0.09674169  0.25000000  0.47236539  1
  P  P15  1  0.39997090  0.75000000  0.97348491  1
  P  P16  1  0.40315118  0.75000000  0.64053424  1
  P  P17  1  0.40165509  0.75000000  0.30564848  1
  P  P18  1  0.59790404  0.25000000  0.02802042  1
  P  P19  1  0.60234196  0.25000000  0.69685968  1
  P  P20  1  0.59744952  0.25000000  0.35980692  1
  P  P21  1  0.90198260  0.75000000  0.52891735  1
  P  P22  1  0.90247288  0.75000000  0.19270966  1
  P  P23  1  0.90033645  0.75000000  0.85897915  1
  O  O24  1  0.05443724  0.75000000  0.21512043  1
  O  O25  1  0.05279238  0.75000000  0.88279588  1
  O  O26  1  0.05263719  0.75000000  0.55323945  1
  O  O27  1  0.11733013  0.25000000  0.24334430  1
  O  O28  1  0.11829174  0.25000000  0.57614557  1
  O  O29  1  0.11725661  0.25000000  0.90833107  1
  O  O30  1  0.16777958  0.04552228  0.42577114  1
  O  O31  1  0.16777958  0.45447772  0.42577114  1
  O  O32  1  0.17173746  0.05158678  0.08950151  1
  O  O33  1  0.17173746  0.44841322  0.08950151  1
  O  O34  1  0.17243182  0.05186480  0.75601959  1
  O  O35  1  0.17243182  0.44813520  0.75601959  1
  O  O36  1  0.32903747  0.54945215  0.59205661  1
  O  O37  1  0.32903747  0.95054785  0.59205661  1
  O  O38  1  0.32888379  0.54572717  0.92701936  1
  O  O39  1  0.32888379  0.95427283  0.92701936  1
  O  O40  1  0.32803560  0.54878198  0.25742328  1
  O  O41  1  0.32803560  0.95121802  0.25742328  1
  O  O42  1  0.38102812  0.75000000  0.40934820  1
  O  O43  1  0.38349444  0.75000000  0.07866962  1
  O  O44  1  0.38171267  0.75000000  0.74491997  1
  O  O45  1  0.44781607  0.25000000  0.05350220  1
  O  O46  1  0.44954607  0.25000000  0.71515518  1
  O  O47  1  0.44584605  0.25000000  0.38510107  1
  O  O48  1  0.55293849  0.75000000  0.95224003  1
  O  O49  1  0.55616648  0.75000000  0.62123235  1
  O  O50  1  0.55303039  0.75000000  0.28226839  1
  O  O51  1  0.61704878  0.25000000  0.25514887  1
  O  O52  1  0.61687898  0.25000000  0.92450627  1
  O  O53  1  0.62521654  0.25000000  0.59148687  1
  O  O54  1  0.67342404  0.05094265  0.07815841  1
  O  O55  1  0.67342404  0.44905735  0.07815841  1
  O  O56  1  0.67066629  0.04724552  0.40764089  1
  O  O57  1  0.67066629  0.45275448  0.40764089  1
  O  O58  1  0.67340835  0.04872915  0.74550699  1
  O  O59  1  0.67340835  0.45127085  0.74550699  1
  O  O60  1  0.82985189  0.54903256  0.24183085  1
  O  O61  1  0.82985189  0.95096744  0.24183085  1
  O  O62  1  0.82721618  0.54913345  0.57753852  1
  O  O63  1  0.82721618  0.95086655  0.57753852  1
  O  O64  1  0.82947813  0.54425065  0.90540960  1
  O  O65  1  0.82947813  0.95574935  0.90540960  1
  O  O66  1  0.88171503  0.75000000  0.75424956  1
  O  O67  1  0.88144230  0.75000000  0.42522433  1
  O  O68  1  0.88416445  0.75000000  0.08788630  1
  O  O69  1  0.94202595  0.25000000  0.45188069  1
  O  O70  1  0.94499998  0.25000000  0.11842888  1
  O  O71  1  0.94538629  0.25000000  0.77792818  1
