# generated using pymatgen
data_Mn(CoO3)2
_symmetry_space_group_name_H-M   'P 1'
_cell_length_a   6.44796842
_cell_length_b   2.88017628
_cell_length_c   5.77149267
_cell_angle_alpha   90.00000216
_cell_angle_beta   103.69591153
_cell_angle_gamma   77.09472953
_symmetry_Int_Tables_number   1
_chemical_formula_structural   Mn(CoO3)2
_chemical_formula_sum   'Mn1 Co2 O6'
_cell_volume   101.34758887
_cell_formula_units_Z   1
loop_
 _symmetry_equiv_pos_site_id
 _symmetry_equiv_pos_as_xyz
  1  'x, y, z'
loop_
 _atom_site_type_symbol
 _atom_site_label
 _atom_site_symmetry_multiplicity
 _atom_site_fract_x
 _atom_site_fract_y
 _atom_site_fract_z
 _atom_site_occupancy
  Mn  Mn0  1  0.33333300  0.33333300  0.33333300  1
  Co  Co1  1  0.99722770  0.00138565  0.99754284  1
  Co  Co2  1  0.66943930  0.66528035  0.66912416  1
  O  O3  1  0.01721250  0.49139425  0.21663478  1
  O  O4  1  0.35985216  0.82007392  0.56059920  1
  O  O5  1  0.68983635  0.15508232  0.88766016  1
  O  O6  1  0.30681384  0.84659308  0.10606680  1
  O  O7  1  0.64945450  0.17527275  0.45003222  1
  O  O8  1  0.97683065  0.51158468  0.77900584  1
