# generated using pymatgen
data_Li2CrPO4F
_symmetry_space_group_name_H-M   'P 1'
_cell_length_a   13.15328657
_cell_length_b   5.13729167
_cell_length_c   13.23913314
_cell_angle_alpha   90.00000000
_cell_angle_beta   119.56099682
_cell_angle_gamma   90.00000000
_symmetry_Int_Tables_number   1
_chemical_formula_structural   Li2CrPO4F
_chemical_formula_sum   'Li16 Cr8 P8 O32 F8'
_cell_volume   778.14928473
_cell_formula_units_Z   8
loop_
 _symmetry_equiv_pos_site_id
 _symmetry_equiv_pos_as_xyz
  1  'x, y, z'
loop_
 _atom_site_type_symbol
 _atom_site_label
 _atom_site_symmetry_multiplicity
 _atom_site_fract_x
 _atom_site_fract_y
 _atom_site_fract_z
 _atom_site_occupancy
  Li  Li0  1  0.17113416  0.74404134  0.83031039  1
  Li  Li1  1  0.17246477  0.74391077  0.59122081  1
  Li  Li2  1  0.32753523  0.24391077  0.90877919  1
  Li  Li3  1  0.17244516  0.71900781  0.32978247  1
  Li  Li4  1  0.32886584  0.24404134  0.66968961  1
  Li  Li5  1  0.08604287  0.26459161  0.16983357  1
  Li  Li6  1  0.41395713  0.76459161  0.33016643  1
  Li  Li7  1  0.67244516  0.78099219  0.82978247  1
  Li  Li8  1  0.32755484  0.21900781  0.17021753  1
  Li  Li9  1  0.58604287  0.23540839  0.66983357  1
  Li  Li10  1  0.91395713  0.73540839  0.83016643  1
  Li  Li11  1  0.67113416  0.75595866  0.33031039  1
  Li  Li12  1  0.82755484  0.28099219  0.67021753  1
  Li  Li13  1  0.67246477  0.75608923  0.09122081  1
  Li  Li14  1  0.82753523  0.25608923  0.40877919  1
  Li  Li15  1  0.82886584  0.25595966  0.16968961  1
  Cr  Cr16  1  0.09930810  0.29143519  0.67449115  1
  Cr  Cr17  1  0.40069190  0.79143519  0.82550885  1
  Cr  Cr18  1  0.32731099  0.22157813  0.39796990  1
  Cr  Cr19  1  0.17268901  0.72157813  0.10203010  1
  Cr  Cr20  1  0.82731099  0.27842187  0.89796990  1
  Cr  Cr21  1  0.67268901  0.77842187  0.60203010  1
  Cr  Cr22  1  0.59930810  0.20856481  0.17449115  1
  Cr  Cr23  1  0.90069190  0.70856481  0.32550885  1
  P  P24  1  0.08381285  0.22996088  0.91599354  1
  P  P25  1  0.08833514  0.22033689  0.42089771  1
  P  P26  1  0.58833514  0.27966311  0.92089771  1
  P  P27  1  0.41618715  0.72996088  0.58400646  1
  P  P28  1  0.58381285  0.27003912  0.41599354  1
  P  P29  1  0.41166486  0.72033689  0.07910229  1
  P  P30  1  0.91166486  0.77966311  0.57910229  1
  P  P31  1  0.91618715  0.77003912  0.08400646  1
  O  O32  1  0.07637990  0.92695842  0.91244003  1
  O  O33  1  0.03777068  0.66967378  0.64540626  1
  O  O34  1  0.14755175  0.32937259  0.85118927  1
  O  O35  1  0.08536251  0.91697235  0.42131668  1
  O  O36  1  0.15133155  0.32952906  0.54714758  1
  O  O37  1  0.34866845  0.82952906  0.95285242  1
  O  O38  1  0.15657717  0.31807314  0.35976451  1
  O  O39  1  0.04149633  0.64967273  0.14373556  1
  O  O40  1  0.35244825  0.82937259  0.64881073  1
  O  O41  1  0.46222932  0.16967378  0.85459374  1
  O  O42  1  0.58536251  0.58302765  0.92131668  1
  O  O43  1  0.34647130  0.82979216  0.45630830  1
  O  O44  1  0.42362010  0.42695842  0.58755997  1
  O  O45  1  0.15352870  0.32979216  0.04369170  1
  O  O46  1  0.65657717  0.18192686  0.85976451  1
  O  O47  1  0.54149633  0.85032727  0.64373556  1
  O  O48  1  0.45850367  0.14967373  0.35626444  1
  O  O49  1  0.34342283  0.81807314  0.14023549  1
  O  O50  1  0.84647130  0.67020784  0.95630830  1
  O  O51  1  0.57637990  0.57304158  0.41244003  1
  O  O52  1  0.65352870  0.17020784  0.54369170  1
  O  O53  1  0.41463749  0.41697235  0.07868332  1
  O  O54  1  0.53777068  0.83032622  0.14540626  1
  O  O55  1  0.64755175  0.17062741  0.35118927  1
  O  O56  1  0.95850367  0.35032627  0.85626444  1
  O  O57  1  0.84342283  0.68192686  0.64023549  1
  O  O58  1  0.65133155  0.17047094  0.04714758  1
  O  O59  1  0.84866845  0.67047094  0.45285242  1
  O  O60  1  0.91463749  0.08302765  0.57868332  1
  O  O61  1  0.85244825  0.67062741  0.14881073  1
  O  O62  1  0.96222932  0.33032622  0.35459374  1
  O  O63  1  0.92362010  0.07304158  0.08755997  1
  F  F64  1  0.21275567  0.99338227  0.73064744  1
  F  F65  1  0.28724433  0.49338227  0.76935256  1
  F  F66  1  0.21118737  0.00447939  0.22313805  1
  F  F67  1  0.28881263  0.50447939  0.27686195  1
  F  F68  1  0.71118737  0.49552061  0.72313805  1
  F  F69  1  0.78881263  0.99552061  0.77686195  1
  F  F70  1  0.71275567  0.50661773  0.23064744  1
  F  F71  1  0.78724433  0.00661773  0.26935256  1
