# generated using pymatgen
data_Na5MnHO4
_symmetry_space_group_name_H-M   'P 1'
_cell_length_a   10.09625223
_cell_length_b   10.36104672
_cell_length_c   12.14891514
_cell_angle_alpha   90.00000000
_cell_angle_beta   90.00000000
_cell_angle_gamma   90.00000000
_symmetry_Int_Tables_number   1
_chemical_formula_structural   Na5MnHO4
_chemical_formula_sum   'Na40 Mn8 H8 O32'
_cell_volume   1270.87056903
_cell_formula_units_Z   8
loop_
 _symmetry_equiv_pos_site_id
 _symmetry_equiv_pos_as_xyz
  1  'x, y, z'
loop_
 _atom_site_type_symbol
 _atom_site_label
 _atom_site_symmetry_multiplicity
 _atom_site_fract_x
 _atom_site_fract_y
 _atom_site_fract_z
 _atom_site_occupancy
  Na  Na0  1  0.98923548  0.58779751  0.20890639  1
  Na  Na1  1  0.98923548  0.91220249  0.20890639  1
  Na  Na2  1  0.06998440  0.06340994  0.41729979  1
  Na  Na3  1  0.06998440  0.43659006  0.41729979  1
  Na  Na4  1  0.08080010  0.75000000  0.44616061  1
  Na  Na5  1  0.11780868  0.25000000  0.98297011  1
  Na  Na6  1  0.12348526  0.56392257  0.99078774  1
  Na  Na7  1  0.12348526  0.93607743  0.99078774  1
  Na  Na8  1  0.21597100  0.57681645  0.67028538  1
  Na  Na9  1  0.21597100  0.92318355  0.67028538  1
  Na  Na10  1  0.28402900  0.07681645  0.17028538  1
  Na  Na11  1  0.28402900  0.42318355  0.17028538  1
  Na  Na12  1  0.37651474  0.06392257  0.49078774  1
  Na  Na13  1  0.37651474  0.43607743  0.49078774  1
  Na  Na14  1  0.38219132  0.75000000  0.48297011  1
  Na  Na15  1  0.41919990  0.25000000  0.94616061  1
  Na  Na16  1  0.43001560  0.56340994  0.91729979  1
  Na  Na17  1  0.43001560  0.93659006  0.91729979  1
  Na  Na18  1  0.51076452  0.08779751  0.70890639  1
  Na  Na19  1  0.51076452  0.41220249  0.70890639  1
  Na  Na20  1  0.48923548  0.58779751  0.29109361  1
  Na  Na21  1  0.48923548  0.91220249  0.29109361  1
  Na  Na22  1  0.56998440  0.06340994  0.08270021  1
  Na  Na23  1  0.56998440  0.43659006  0.08270021  1
  Na  Na24  1  0.58080010  0.75000000  0.05383939  1
  Na  Na25  1  0.61780868  0.25000000  0.51702989  1
  Na  Na26  1  0.62348526  0.56392257  0.50921226  1
  Na  Na27  1  0.62348526  0.93607743  0.50921226  1
  Na  Na28  1  0.71597100  0.57681645  0.82971462  1
  Na  Na29  1  0.71597100  0.92318355  0.82971462  1
  Na  Na30  1  0.78402900  0.07681645  0.32971462  1
  Na  Na31  1  0.78402900  0.42318355  0.32971462  1
  Na  Na32  1  0.87651474  0.06392257  0.00921226  1
  Na  Na33  1  0.87651474  0.43607743  0.00921226  1
  Na  Na34  1  0.88219132  0.75000000  0.01702989  1
  Na  Na35  1  0.91919990  0.25000000  0.55383939  1
  Na  Na36  1  0.93001560  0.93659006  0.58270021  1
  Na  Na37  1  0.93001560  0.56340994  0.58270021  1
  Na  Na38  1  0.01076452  0.08779751  0.79109361  1
  Na  Na39  1  0.01076452  0.41220249  0.79109361  1
  Mn  Mn40  1  0.01229802  0.25000000  0.20682581  1
  Mn  Mn41  1  0.20387684  0.25000000  0.62510272  1
  Mn  Mn42  1  0.29612316  0.75000000  0.12510272  1
  Mn  Mn43  1  0.48770198  0.75000000  0.70682581  1
  Mn  Mn44  1  0.51229802  0.25000000  0.29317419  1
  Mn  Mn45  1  0.70387684  0.25000000  0.87489728  1
  Mn  Mn46  1  0.79612316  0.75000000  0.37489728  1
  Mn  Mn47  1  0.98770198  0.75000000  0.79317419  1
  H  H48  1  0.23190636  0.62545558  0.31130332  1
  H  H49  1  0.23190636  0.87454442  0.31130332  1
  H  H50  1  0.26809364  0.12545558  0.81130332  1
  H  H51  1  0.26809364  0.37454442  0.81130332  1
  H  H52  1  0.73190636  0.62545558  0.18869668  1
  H  H53  1  0.73190636  0.87454442  0.18869668  1
  H  H54  1  0.76809364  0.12545558  0.68869668  1
  H  H55  1  0.76809364  0.37454442  0.68869668  1
  O  O56  1  0.06210059  0.75000000  0.64257198  1
  O  O57  1  0.06430813  0.40664207  0.12174252  1
  O  O58  1  0.06430813  0.09335793  0.12174252  1
  O  O59  1  0.09077005  0.40650972  0.60841576  1
  O  O60  1  0.09077005  0.09349028  0.60841576  1
  O  O61  1  0.10089364  0.75000000  0.11250760  1
  O  O62  1  0.24279356  0.07978904  0.87884035  1
  O  O63  1  0.24279356  0.42021096  0.87884035  1
  O  O64  1  0.25720644  0.57978904  0.37884035  1
  O  O65  1  0.25720644  0.92021096  0.37884035  1
  O  O66  1  0.39910636  0.25000000  0.61250760  1
  O  O67  1  0.40922995  0.59349028  0.10841576  1
  O  O68  1  0.40922995  0.90650972  0.10841576  1
  O  O69  1  0.43569187  0.59335793  0.62174252  1
  O  O70  1  0.43569187  0.90664207  0.62174252  1
  O  O71  1  0.43789941  0.25000000  0.14257198  1
  O  O72  1  0.56210059  0.75000000  0.85742802  1
  O  O73  1  0.56430813  0.09335793  0.37825748  1
  O  O74  1  0.56430813  0.40664207  0.37825748  1
  O  O75  1  0.59077005  0.09349028  0.89158424  1
  O  O76  1  0.59077005  0.40650972  0.89158424  1
  O  O77  1  0.60089364  0.75000000  0.38749240  1
  O  O78  1  0.74279356  0.07978904  0.62115965  1
  O  O79  1  0.74279356  0.42021096  0.62115965  1
  O  O80  1  0.75720644  0.57978904  0.12115965  1
  O  O81  1  0.75720644  0.92021096  0.12115965  1
  O  O82  1  0.89910636  0.25000000  0.88749240  1
  O  O83  1  0.90922995  0.90650972  0.39158424  1
  O  O84  1  0.90922995  0.59349028  0.39158424  1
  O  O85  1  0.93569187  0.90664207  0.87825748  1
  O  O86  1  0.93569187  0.59335793  0.87825748  1
  O  O87  1  0.93789941  0.25000000  0.35742802  1
