# generated using pymatgen
data_MnFeCo(PO4)3
_symmetry_space_group_name_H-M   'P 1'
_cell_length_a   9.85938067
_cell_length_b   5.95645680
_cell_length_c   14.54896432
_cell_angle_alpha   90.00000000
_cell_angle_beta   90.12350786
_cell_angle_gamma   90.00000000
_symmetry_Int_Tables_number   1
_chemical_formula_structural   MnFeCo(PO4)3
_chemical_formula_sum   'Mn4 Fe4 Co4 P12 O48'
_cell_volume   854.41467878
_cell_formula_units_Z   4
loop_
 _symmetry_equiv_pos_site_id
 _symmetry_equiv_pos_as_xyz
  1  'x, y, z'
loop_
 _atom_site_type_symbol
 _atom_site_label
 _atom_site_symmetry_multiplicity
 _atom_site_fract_x
 _atom_site_fract_y
 _atom_site_fract_z
 _atom_site_occupancy
  Mn  Mn0  1  0.21742396  0.75000000  0.14741278  1
  Mn  Mn1  1  0.21573890  0.75000000  0.48063762  1
  Mn  Mn2  1  0.28374727  0.25000000  0.31396854  1
  Mn  Mn3  1  0.28457237  0.25000000  0.64653912  1
  Fe  Fe4  1  0.22301307  0.75000000  0.82069326  1
  Fe  Fe5  1  0.27437711  0.25000000  0.98778053  1
  Fe  Fe6  1  0.72853737  0.75000000  0.00968439  1
  Fe  Fe7  1  0.72698916  0.75000000  0.34542156  1
  Co  Co8  1  0.72293121  0.75000000  0.68076059  1
  Co  Co9  1  0.77915837  0.25000000  0.51765276  1
  Co  Co10  1  0.77237645  0.25000000  0.17991187  1
  Co  Co11  1  0.77346327  0.25000000  0.84285539  1
  P  P12  1  0.09830516  0.25000000  0.47253599  1
  P  P13  1  0.09621593  0.25000000  0.13967901  1
  P  P14  1  0.09795179  0.25000000  0.80552114  1
  P  P15  1  0.40075112  0.75000000  0.97345982  1
  P  P16  1  0.40034970  0.75000000  0.30647012  1
  P  P17  1  0.40204750  0.75000000  0.63926555  1
  P  P18  1  0.60067733  0.25000000  0.02791740  1
  P  P19  1  0.59876527  0.25000000  0.36285234  1
  P  P20  1  0.59757650  0.25000000  0.69413747  1
  P  P21  1  0.90333000  0.75000000  0.19329689  1
  P  P22  1  0.90243577  0.75000000  0.52876043  1
  P  P23  1  0.90174870  0.75000000  0.86036082  1
  O  O24  1  0.05566769  0.75000000  0.21747874  1
  O  O25  1  0.05397055  0.75000000  0.55240807  1
  O  O26  1  0.05225297  0.75000000  0.88456954  1
  O  O27  1  0.11935293  0.25000000  0.24352830  1
  O  O28  1  0.12010104  0.25000000  0.57725077  1
  O  O29  1  0.11742212  0.25000000  0.91009439  1
  O  O30  1  0.17121624  0.04836868  0.42461175  1
  O  O31  1  0.17121624  0.45163132  0.42461175  1
  O  O32  1  0.17137307  0.05065590  0.09032824  1
  O  O33  1  0.17137307  0.44934410  0.09032824  1
  O  O34  1  0.16959978  0.04593657  0.75892630  1
  O  O35  1  0.16959978  0.45406343  0.75892630  1
  O  O36  1  0.32628892  0.54856528  0.92534672  1
  O  O37  1  0.32628892  0.95143472  0.92534672  1
  O  O38  1  0.32800287  0.54826654  0.25779692  1
  O  O39  1  0.32800287  0.95173346  0.25779692  1
  O  O40  1  0.32985062  0.54856188  0.59088623  1
  O  O41  1  0.32985062  0.95143812  0.59088623  1
  O  O42  1  0.38220035  0.75000000  0.74321026  1
  O  O43  1  0.37992963  0.75000000  0.07820919  1
  O  O44  1  0.37895751  0.75000000  0.41094606  1
  O  O45  1  0.44898830  0.25000000  0.04922398  1
  O  O46  1  0.44651446  0.25000000  0.38493948  1
  O  O47  1  0.44583126  0.25000000  0.71849923  1
  O  O48  1  0.55125160  0.75000000  0.95229952  1
  O  O49  1  0.55186964  0.75000000  0.28563377  1
  O  O50  1  0.55578688  0.75000000  0.61644576  1
  O  O51  1  0.61778283  0.25000000  0.25707393  1
  O  O52  1  0.61408603  0.25000000  0.58945757  1
  O  O53  1  0.62214808  0.25000000  0.92333134  1
  O  O54  1  0.67396613  0.04694494  0.07591494  1
  O  O55  1  0.67396613  0.45305506  0.07591494  1
  O  O56  1  0.67050877  0.04807359  0.74307636  1
  O  O57  1  0.67050877  0.45192641  0.74307636  1
  O  O58  1  0.67202106  0.04741205  0.40965339  1
  O  O59  1  0.67202106  0.45258795  0.40965339  1
  O  O60  1  0.82964443  0.54942613  0.24222614  1
  O  O61  1  0.82964443  0.95057387  0.24222614  1
  O  O62  1  0.82876071  0.54591849  0.57651026  1
  O  O63  1  0.82876071  0.95408151  0.57651026  1
  O  O64  1  0.82751700  0.54971884  0.90863846  1
  O  O65  1  0.82751700  0.95028116  0.90863846  1
  O  O66  1  0.88206566  0.75000000  0.75500328  1
  O  O67  1  0.88582882  0.75000000  0.08931456  1
  O  O68  1  0.88290160  0.75000000  0.42495947  1
  O  O69  1  0.94658226  0.25000000  0.44960429  1
  O  O70  1  0.94495014  0.25000000  0.11632095  1
  O  O71  1  0.94370121  0.25000000  0.78416575  1
