# generated using pymatgen
data_Li4Mn3Co3(SbO8)2
_symmetry_space_group_name_H-M   'P 1'
_cell_length_a   5.88105499
_cell_length_b   5.84326876
_cell_length_c   9.63745800
_cell_angle_alpha   89.99890320
_cell_angle_beta   92.02062180
_cell_angle_gamma   119.78266925
_symmetry_Int_Tables_number   1
_chemical_formula_structural   Li4Mn3Co3(SbO8)2
_chemical_formula_sum   'Li4 Mn3 Co3 Sb2 O16'
_cell_volume   287.20545315
_cell_formula_units_Z   1
loop_
 _symmetry_equiv_pos_site_id
 _symmetry_equiv_pos_as_xyz
  1  'x, y, z'
loop_
 _atom_site_type_symbol
 _atom_site_label
 _atom_site_symmetry_multiplicity
 _atom_site_fract_x
 _atom_site_fract_y
 _atom_site_fract_z
 _atom_site_occupancy
  Li  Li0  1  0.31965766  0.65987110  0.90758611  1
  Li  Li1  1  0.00869849  0.00435152  0.99212262  1
  Li  Li2  1  0.02072455  0.01037074  0.48945111  1
  Li  Li3  1  0.66415803  0.33204774  0.39793355  1
  Mn  Mn4  1  0.66474267  0.83229735  0.21226567  1
  Mn  Mn5  1  0.83382047  0.66365112  0.71320016  1
  Mn  Mn6  1  0.83380901  0.17023346  0.71319550  1
  Co  Co7  1  0.17157929  0.83041725  0.21443143  1
  Co  Co8  1  0.17155569  0.34117260  0.21443196  1
  Co  Co9  1  0.34344907  0.17174824  0.71620053  1
  Sb  Sb10  1  0.33614814  0.66806663  0.48397010  1
  Sb  Sb11  1  0.65670048  0.32836912  0.99007487  1
  O  O12  1  0.18027797  0.84279598  0.59339993  1
  O  O13  1  0.03455366  0.51730403  0.33105695  1
  O  O14  1  0.32900550  0.66449949  0.11689551  1
  O  O15  1  0.00661672  0.00331489  0.30163514  1
  O  O16  1  0.01127541  0.00566606  0.80221751  1
  O  O17  1  0.18020516  0.33746637  0.59339527  1
  O  O18  1  0.47047276  0.96632653  0.34375819  1
  O  O19  1  0.47043283  0.50405410  0.34379260  1
  O  O20  1  0.32557299  0.16279791  0.10453338  1
  O  O21  1  0.68333889  0.84166765  0.58869374  1
  O  O22  1  0.49108703  0.46544347  0.84717592  1
  O  O23  1  0.49114965  0.02572292  0.84717396  1
  O  O24  1  0.66035709  0.33021774  0.61568415  1
  O  O25  1  0.84282767  0.67393172  0.09245503  1
  O  O26  1  0.95491364  0.47751040  0.84864885  1
  O  O27  1  0.84286549  0.16898290  0.09245925  1
