# generated using pymatgen
data_HoZn(NiO3)2
_symmetry_space_group_name_H-M   'P 1'
_cell_length_a   5.11871542
_cell_length_b   5.39029300
_cell_length_c   7.43469060
_cell_angle_alpha   89.98989196
_cell_angle_beta   89.99680431
_cell_angle_gamma   89.99735346
_symmetry_Int_Tables_number   1
_chemical_formula_structural   HoZn(NiO3)2
_chemical_formula_sum   'Ho2 Zn2 Ni4 O12'
_cell_volume   205.13333958
_cell_formula_units_Z   2
loop_
 _symmetry_equiv_pos_site_id
 _symmetry_equiv_pos_as_xyz
  1  'x, y, z'
loop_
 _atom_site_type_symbol
 _atom_site_label
 _atom_site_symmetry_multiplicity
 _atom_site_fract_x
 _atom_site_fract_y
 _atom_site_fract_z
 _atom_site_occupancy
  Ho  Ho0  1  0.01827050  0.92659012  0.75001611  1
  Ho  Ho1  1  0.51814249  0.57337772  0.25003176  1
  Zn  Zn2  1  0.47595902  0.44157535  0.74997063  1
  Zn  Zn3  1  0.97585346  0.05846828  0.25002078  1
  Ni  Ni4  1  0.99802345  0.49312248  0.00013477  1
  Ni  Ni5  1  0.99802408  0.49311593  0.49983291  1
  Ni  Ni6  1  0.49805336  0.00685974  0.50014255  1
  Ni  Ni7  1  0.49803017  0.00687158  0.99983323  1
  O  O8  1  0.10685795  0.44068734  0.25000230  1
  O  O9  1  0.20824005  0.21222888  0.93090480  1
  O  O10  1  0.20820966  0.21222379  0.56905409  1
  O  O11  1  0.31193158  0.69091848  0.94064469  1
  O  O12  1  0.31164211  0.69072588  0.55929650  1
  O  O13  1  0.36297600  0.96721566  0.24972309  1
  O  O14  1  0.60698341  0.05932366  0.75026656  1
  O  O15  1  0.70833589  0.28776883  0.43099419  1
  O  O16  1  0.70800198  0.28772679  0.06909412  1
  O  O17  1  0.81174461  0.80925954  0.05936908  1
  O  O18  1  0.81168153  0.80912220  0.44066141  1
  O  O19  1  0.86303773  0.53281774  0.75000941  1
