# generated using pymatgen
data_V6O5F19
_symmetry_space_group_name_H-M   'P 1'
_cell_length_a   5.59869751
_cell_length_b   5.37474421
_cell_length_c   15.02954291
_cell_angle_alpha   89.71077370
_cell_angle_beta   100.25422697
_cell_angle_gamma   93.00887740
_symmetry_Int_Tables_number   1
_chemical_formula_structural   V6O5F19
_chemical_formula_sum   'V6 O5 F19'
_cell_volume   444.42099370
_cell_formula_units_Z   1
loop_
 _symmetry_equiv_pos_site_id
 _symmetry_equiv_pos_as_xyz
  1  'x, y, z'
loop_
 _atom_site_type_symbol
 _atom_site_label
 _atom_site_symmetry_multiplicity
 _atom_site_fract_x
 _atom_site_fract_y
 _atom_site_fract_z
 _atom_site_occupancy
  V  V0  1  0.04214078  0.96288909  0.00267024  1
  V  V1  1  0.15158835  0.51055977  0.33493824  1
  V  V2  1  0.26434941  0.02871228  0.66270736  1
  V  V3  1  0.53443214  0.45789739  0.99683117  1
  V  V4  1  0.60820491  0.03892002  0.32931759  1
  V  V5  1  0.77477213  0.48354410  0.66540201  1
  O  O6  1  0.02325979  0.19563147  0.63986070  1
  O  O7  1  0.36880290  0.20754358  0.30843688  1
  O  O8  1  0.52538191  0.29877841  0.64359137  1
  O  O9  1  0.71235740  0.23907031  0.98368501  1
  O  O10  1  0.26527638  0.77945865  0.01589595  1
  F  F11  1  0.22447091  0.26364175  0.97224113  1
  F  F12  1  0.14417008  0.72195346  0.69097944  1
  F  F13  1  0.05700040  0.09093120  0.11226955  1
  F  F14  1  0.22774477  0.40000214  0.44708045  1
  F  F15  1  0.39000152  0.09217594  0.77734422  1
  F  F16  1  0.13027573  0.56890199  0.21786775  1
  F  F17  1  0.32126208  0.92180516  0.55747715  1
  F  F18  1  0.45992258  0.58744361  0.88738208  1
  F  F19  1  0.46263457  0.72407877  0.35560840  1
  F  F20  1  0.65821895  0.76852719  0.69549362  1
  F  F21  1  0.51741563  0.44349103  0.11347242  1
  F  F22  1  0.72387335  0.07433175  0.44550086  1
  F  F23  1  0.90380161  0.40463860  0.77720928  1
  F  F24  1  0.64760932  0.91760723  0.22440758  1
  F  F25  1  0.81802956  0.57499349  0.55590945  1
  F  F26  1  0.91613916  0.93658803  0.88621659  1
  F  F27  1  0.84983384  0.29858442  0.31119904  1
  F  F28  1  0.78521106  0.72734005  0.02768432  1
  F  F29  1  0.99181979  0.77996012  0.36132212  1
