# generated using pymatgen
data_VO2F
_symmetry_space_group_name_H-M   'P 1'
_cell_length_a   5.17387641
_cell_length_b   13.00701203
_cell_length_c   5.17387724
_cell_angle_alpha   89.99999911
_cell_angle_beta   119.99999879
_cell_angle_gamma   89.99999735
_symmetry_Int_Tables_number   1
_chemical_formula_structural   VO2F
_chemical_formula_sum   'V6 O12 F6'
_cell_volume   301.53681915
_cell_formula_units_Z   6
loop_
 _symmetry_equiv_pos_site_id
 _symmetry_equiv_pos_as_xyz
  1  'x, y, z'
loop_
 _atom_site_type_symbol
 _atom_site_label
 _atom_site_symmetry_multiplicity
 _atom_site_fract_x
 _atom_site_fract_y
 _atom_site_fract_z
 _atom_site_occupancy
  V  V0  1  0.04339696  0.49778406  0.97395704  1
  V  V1  1  0.94830449  0.99754186  0.98590205  1
  V  V2  1  0.59722709  0.83111706  0.28993704  1
  V  V3  1  0.34743095  0.66420886  0.62906844  1
  V  V4  1  0.70426456  0.33087586  0.38502851  1
  V  V5  1  0.35937696  0.16445006  0.73610691  1
  O  O6  1  0.41372370  0.75288293  0.99924696  1
  O  O7  1  0.33408604  0.41954993  0.08114274  1
  O  O8  1  0.33951427  0.91847429  0.24753992  1
  O  O9  1  0.24505988  0.58345737  0.33896247  1
  O  O10  1  0.57469265  0.25180729  0.99381873  1
  O  O11  1  0.99437053  0.25012437  0.57276440  1
  O  O12  1  0.76056960  0.91679037  0.08827312  1
  O  O13  1  0.08579308  0.58514129  0.75864035  1
  O  O14  1  0.58341349  0.74922262  0.58777522  1
  O  O15  1  0.25219026  0.08621693  0.91961030  1
  O  O16  1  0.74555878  0.41588962  0.66230527  1
  O  O17  1  0.67102773  0.08255662  0.74991951  1
  F  F18  1  0.00902675  0.75004498  0.42215885  1
  F  F19  1  0.07979910  0.08337798  0.32430725  1
  F  F20  1  0.40993760  0.25059188  0.40211692  1
  F  F21  1  0.91117515  0.41671098  0.25353490  1
  F  F22  1  0.93121608  0.91725888  0.67448768  1
  F  F23  1  0.65884632  0.58392488  0.92339540  1
