# generated using pymatgen
data_Li4Ti2V5O12
_symmetry_space_group_name_H-M   'P 1'
_cell_length_a   5.13011691
_cell_length_b   9.07716499
_cell_length_c   9.99241378
_cell_angle_alpha   89.99999959
_cell_angle_beta   101.54424216
_cell_angle_gamma   90.00000237
_symmetry_Int_Tables_number   1
_chemical_formula_structural   Li4Ti2V5O12
_chemical_formula_sum   'Li8 Ti4 V10 O24'
_cell_volume   455.90278561
_cell_formula_units_Z   2
loop_
 _symmetry_equiv_pos_site_id
 _symmetry_equiv_pos_as_xyz
  1  'x, y, z'
loop_
 _atom_site_type_symbol
 _atom_site_label
 _atom_site_symmetry_multiplicity
 _atom_site_fract_x
 _atom_site_fract_y
 _atom_site_fract_z
 _atom_site_occupancy
  Li  Li0  1  0.75548961  0.08224604  0.50790625  1
  Li  Li1  1  0.25710180  0.41242743  0.99743017  1
  Li  Li2  1  0.50209297  0.41809432  0.74715113  1
  Li  Li3  1  0.74249091  0.42139321  0.50956418  1
  Li  Li4  1  0.74451039  0.58224604  0.99209375  1
  Li  Li5  1  0.99790703  0.91809432  0.75284887  1
  Li  Li6  1  0.24289820  0.91242743  0.50256983  1
  Li  Li7  1  0.75750909  0.92139321  0.99043582  1
  Ti  Ti8  1  0.01138237  0.24519049  0.75960135  1
  Ti  Ti9  1  0.49493007  0.24810756  0.25163930  1
  Ti  Ti10  1  0.00506993  0.74810756  0.24836070  1
  Ti  Ti11  1  0.48861763  0.74519049  0.74039865  1
  V  V12  1  0.00266335  0.08377128  0.24497418  1
  V  V13  1  0.49565375  0.07780965  0.74851256  1
  V  V14  1  0.25328072  0.25908157  0.50761819  1
  V  V15  1  0.75047383  0.24924967  0.00177954  1
  V  V16  1  0.99928412  0.42475209  0.25603666  1
  V  V17  1  0.00434625  0.57780965  0.75148744  1
  V  V18  1  0.49733665  0.58377228  0.25502582  1
  V  V19  1  0.24671928  0.75908157  0.99238181  1
  V  V20  1  0.74952617  0.74924967  0.49822046  1
  V  V21  1  0.50071588  0.92475209  0.24396334  1
  O  O22  1  0.12322323  0.09319448  0.63559642  1
  O  O23  1  0.38337602  0.09378986  0.37182082  1
  O  O24  1  0.37799605  0.24852695  0.86725667  1
  O  O25  1  0.85860166  0.09370144  0.86717045  1
  O  O26  1  0.62306906  0.09840033  0.12682680  1
  O  O27  1  0.12425081  0.25852356  0.13403019  1
  O  O28  1  0.10004594  0.40410479  0.64365084  1
  O  O29  1  0.63727203  0.24024097  0.63867211  1
  O  O30  1  0.86703957  0.24883692  0.36815744  1
  O  O31  1  0.39554657  0.40400059  0.36922651  1
  O  O32  1  0.61088576  0.40953972  0.13050519  1
  O  O33  1  0.88801310  0.40151109  0.87555537  1
  O  O34  1  0.37677677  0.59319448  0.86440358  1
  O  O35  1  0.11662398  0.59378986  0.12817918  1
  O  O36  1  0.12200395  0.74852695  0.63274333  1
  O  O37  1  0.64139834  0.59370144  0.63282955  1
  O  O38  1  0.37574919  0.75852356  0.36596981  1
  O  O39  1  0.87693094  0.59840033  0.37317320  1
  O  O40  1  0.86272797  0.74024097  0.86132789  1
  O  O41  1  0.10445343  0.90400059  0.13077349  1
  O  O42  1  0.39995406  0.90410479  0.85634916  1
  O  O43  1  0.63296043  0.74883692  0.13184256  1
  O  O44  1  0.61198690  0.90151109  0.62444463  1
  O  O45  1  0.88911424  0.90953972  0.36949481  1
