# generated using pymatgen
data_Na4NiO4
_symmetry_space_group_name_H-M   'P 1'
_cell_length_a   8.67682569
_cell_length_b   5.70572210
_cell_length_c   5.71073774
_cell_angle_alpha   68.22670782
_cell_angle_beta   108.32778019
_cell_angle_gamma   99.33762755
_symmetry_Int_Tables_number   1
_chemical_formula_structural   Na4NiO4
_chemical_formula_sum   'Na8 Ni2 O8'
_cell_volume   248.90236567
_cell_formula_units_Z   2
loop_
 _symmetry_equiv_pos_site_id
 _symmetry_equiv_pos_as_xyz
  1  'x, y, z'
loop_
 _atom_site_type_symbol
 _atom_site_label
 _atom_site_symmetry_multiplicity
 _atom_site_fract_x
 _atom_site_fract_y
 _atom_site_fract_z
 _atom_site_occupancy
  Na  Na0  1  0.17520875  0.01149735  0.63840144  1
  Na  Na1  1  0.14558993  0.52022227  0.10914435  1
  Na  Na2  1  0.31915597  0.54677504  0.67708398  1
  Na  Na3  1  0.34966129  0.03589322  0.20919542  1
  Na  Na4  1  0.56847167  0.02626059  0.75392891  1
  Na  Na5  1  0.73049045  0.53070528  0.91888770  1
  Na  Na6  1  0.76215055  0.02169617  0.39629835  1
  Na  Na7  1  0.92783645  0.52501334  0.56850811  1
  Ni  Ni8  1  0.50297599  0.55852522  0.30996827  1
  Ni  Ni9  1  0.99213266  0.99582133  0.00790660  1
  O  O10  1  0.13169595  0.25369763  0.86639322  1
  O  O11  1  0.10838716  0.79876466  0.32737003  1
  O  O12  1  0.38637987  0.75701286  0.99110388  1
  O  O13  1  0.36508998  0.30094443  0.45365531  1
  O  O14  1  0.55095890  0.75252992  0.52399123  1
  O  O15  1  0.67681058  0.42067633  0.31709121  1
  O  O16  1  0.94268244  0.80322529  0.79340692  1
  O  O17  1  0.81944940  0.13671808  0.99970807  1
