# generated using pymatgen
data_Li7Cr7P6(O8F)3
_symmetry_space_group_name_H-M   'P 1'
_cell_length_a   13.58250148
_cell_length_b   13.57341271
_cell_length_c   6.61473661
_cell_angle_alpha   90.13958317
_cell_angle_beta   88.74399731
_cell_angle_gamma   60.10266950
_symmetry_Int_Tables_number   1
_chemical_formula_structural   Li7Cr7P6(O8F)3
_chemical_formula_sum   'Li14 Cr14 P12 O48 F6'
_cell_volume   1056.82822842
_cell_formula_units_Z   2
loop_
 _symmetry_equiv_pos_site_id
 _symmetry_equiv_pos_as_xyz
  1  'x, y, z'
loop_
 _atom_site_type_symbol
 _atom_site_label
 _atom_site_symmetry_multiplicity
 _atom_site_fract_x
 _atom_site_fract_y
 _atom_site_fract_z
 _atom_site_occupancy
  Li  Li0  1  0.26069135  0.92180946  0.25794979  1
  Li  Li1  1  0.18241328  0.73951588  0.75120393  1
  Li  Li2  1  0.50550295  0.87391951  0.75789681  1
  Li  Li3  1  0.12619341  0.37848733  0.25728373  1
  Li  Li4  1  0.07943762  0.18130282  0.75848043  1
  Li  Li5  1  0.38053689  0.49404219  0.25708796  1
  Li  Li6  1  0.33244299  0.33339441  0.44229314  1
  Li  Li7  1  0.66604932  0.66636211  0.94199588  1
  Li  Li8  1  0.62033095  0.50617796  0.75530168  1
  Li  Li9  1  0.92123836  0.81809056  0.24466710  1
  Li  Li10  1  0.87484969  0.61947930  0.75579604  1
  Li  Li11  1  0.49349620  0.12580982  0.25491875  1
  Li  Li12  1  0.81919776  0.26070072  0.25120748  1
  Li  Li13  1  0.73915544  0.07942413  0.74422651  1
  Cr  Cr14  1  0.12498524  0.57946778  0.01126169  1
  Cr  Cr15  1  0.12531810  0.57899549  0.51350836  1
  Cr  Cr16  1  0.42197383  0.70359450  0.51250219  1
  Cr  Cr17  1  0.41982609  0.70507017  0.01510934  1
  Cr  Cr18  1  0.70540660  0.87465580  0.01098263  1
  Cr  Cr19  1  0.70317432  0.87482028  0.50817820  1
  Cr  Cr20  1  0.00027535  0.99997291  0.00348703  1
  Cr  Cr21  1  0.00065263  0.99983756  0.50349871  1
  Cr  Cr22  1  0.29744094  0.12619021  0.01198087  1
  Cr  Cr23  1  0.29379903  0.12482604  0.51440382  1
  Cr  Cr24  1  0.58158222  0.29303287  0.50934600  1
  Cr  Cr25  1  0.57583766  0.29799741  0.00754006  1
  Cr  Cr26  1  0.87472134  0.41807192  0.01103655  1
  Cr  Cr27  1  0.87298623  0.42514149  0.50972770  1
  P  P28  1  0.24681902  0.93454127  0.76517038  1
  P  P29  1  0.18143985  0.75350120  0.25875259  1
  P  P30  1  0.48705654  0.88482811  0.26651678  1
  P  P31  1  0.11515306  0.37183501  0.76724296  1
  P  P32  1  0.37184850  0.51243126  0.76372950  1
  P  P33  1  0.06623110  0.18092355  0.25977182  1
  P  P34  1  0.93474203  0.81832636  0.74534135  1
  P  P35  1  0.62874409  0.48709522  0.26094514  1
  P  P36  1  0.88352854  0.62844154  0.26102376  1
  P  P37  1  0.51224268  0.11642984  0.75974388  1
  P  P38  1  0.81876553  0.24708547  0.74464406  1
  P  P39  1  0.75276336  0.06542526  0.23773454  1
  O  O40  1  0.11355193  0.01182652  0.78045567  1
  O  O41  1  0.12537463  0.88660101  0.27584929  1
  O  O42  1  0.00362480  0.68526009  0.73502716  1
  O  O43  1  0.37233487  0.99939739  0.24524676  1
  O  O44  1  0.27658246  0.85760261  0.57485698  1
  O  O45  1  0.13428515  0.72571442  0.06935227  1
  O  O46  1  0.28396838  0.86372262  0.96001523  1
  O  O47  1  0.14904819  0.71372524  0.45473788  1
  O  O48  1  0.31425335  0.68945444  0.23921418  1
  O  O49  1  0.99898217  0.37327617  0.75034331  1
  O  O50  1  0.54731867  0.88826375  0.46022232  1
  O  O51  1  0.11350706  0.43552742  0.96240162  1
  O  O52  1  0.45750714  0.78898320  0.28501720  1
  O  O53  1  0.13454271  0.42444511  0.57277596  1
  O  O54  1  0.56045773  0.86492755  0.07128491  1
  O  O55  1  0.68874288  0.99633337  0.23488781  1
  O  O56  1  0.24695876  0.54099401  0.78359375  1
  O  O57  1  0.37033625  0.62799712  0.74028507  1
  O  O58  1  0.98930423  0.12348107  0.25866799  1
  O  O59  1  0.21003910  0.24620897  0.78035483  1
  O  O60  1  0.13580031  0.14374955  0.45550861  1
  O  O61  1  0.43484489  0.45326613  0.95835036  1
  O  O62  1  0.14434482  0.13662310  0.06918077  1
  O  O63  1  0.57484887  0.55983265  0.07161937  1
  O  O64  1  0.42711642  0.43825339  0.57027338  1
  O  O65  1  0.85947640  0.86314891  0.55797118  1
  O  O66  1  0.56638886  0.54853797  0.46014679  1
  O  O67  1  0.86349112  0.85216349  0.94443659  1
  O  O68  1  0.78689854  0.75319313  0.27988450  1
  O  O69  1  0.01126040  0.87582633  0.74817047  1
  O  O70  1  0.62778679  0.37229461  0.24066832  1
  O  O71  1  0.75510102  0.45604319  0.26991756  1
  O  O72  1  0.31072617  0.00320433  0.74559168  1
  O  O73  1  0.43903463  0.13463709  0.57153733  1
  O  O74  1  0.86541036  0.57280171  0.07047770  1
  O  O75  1  0.54159340  0.21266705  0.77435164  1
  O  O76  1  0.88713146  0.56555743  0.45826700  1
  O  O77  1  0.45191781  0.11397597  0.95924679  1
  O  O78  1  0.99726468  0.63080744  0.23665363  1
  O  O79  1  0.68632119  0.31080167  0.74185337  1
  O  O80  1  0.85692053  0.27785884  0.94323270  1
  O  O81  1  0.71952000  0.13533788  0.43792329  1
  O  O82  1  0.86177712  0.28334877  0.55714354  1
  O  O83  1  0.71832537  0.14320978  0.05173933  1
  O  O84  1  0.62773838  0.00207713  0.73533012  1
  O  O85  1  0.99837540  0.31296925  0.25122874  1
  O  O86  1  0.87502366  0.11382819  0.73022937  1
  O  O87  1  0.88578582  0.98846175  0.22549873  1
  F  F88  1  0.24893716  0.47905913  0.29826187  1
  F  F89  1  0.52076938  0.72710240  0.79889981  1
  F  F90  1  0.72868126  0.75121600  0.79701720  1
  F  F91  1  0.27348799  0.24782858  0.29438949  1
  F  F92  1  0.47870279  0.27195188  0.29183339  1
  F  F93  1  0.74972551  0.52346747  0.78486907  1
