# generated using pymatgen
data_Zn(CoO2)2
_symmetry_space_group_name_H-M   'P 1'
_cell_length_a   5.95566646
_cell_length_b   5.95045856
_cell_length_c   18.00997170
_cell_angle_alpha   60.07426072
_cell_angle_beta   60.04183483
_cell_angle_gamma   60.32927629
_symmetry_Int_Tables_number   1
_chemical_formula_structural   Zn(CoO2)2
_chemical_formula_sum   'Zn6 Co12 O24'
_cell_volume   452.82486094
_cell_formula_units_Z   6
loop_
 _symmetry_equiv_pos_site_id
 _symmetry_equiv_pos_as_xyz
  1  'x, y, z'
loop_
 _atom_site_type_symbol
 _atom_site_label
 _atom_site_symmetry_multiplicity
 _atom_site_fract_x
 _atom_site_fract_y
 _atom_site_fract_z
 _atom_site_occupancy
  Zn  Zn0  1  0.12354927  0.12344663  0.04330110  1
  Zn  Zn1  1  0.12289115  0.12258808  0.37708224  1
  Zn  Zn2  1  0.49878943  0.49906744  0.33411252  1
  Zn  Zn3  1  0.12439682  0.12353906  0.70916355  1
  Zn  Zn4  1  0.50057857  0.49943337  0.00007539  1
  Zn  Zn5  1  0.87560817  0.87513211  0.62470221  1
  Co  Co6  1  0.49932225  0.49933653  0.16671761  1
  Co  Co7  1  0.49918914  0.00099314  0.16679506  1
  Co  Co8  1  0.49933359  0.49900018  0.50030099  1
  Co  Co9  1  0.00112736  0.49906314  0.16678775  1
  Co  Co10  1  0.49788644  0.00334041  0.49949993  1
  Co  Co11  1  0.50233563  0.50373686  0.66428251  1
  Co  Co12  1  0.87679744  0.87653024  0.28959227  1
  Co  Co13  1  0.50089625  0.50059191  0.83292105  1
  Co  Co14  1  0.00261710  0.49749880  0.49983397  1
  Co  Co15  1  0.50179570  0.00047414  0.83277006  1
  Co  Co16  1  0.00145856  0.50244105  0.83228621  1
  Co  Co17  1  0.87549464  0.87770037  0.95664553  1
  O  O18  1  0.25223472  0.25254247  0.09270194  1
  O  O19  1  0.25747133  0.25720291  0.24227568  1
  O  O20  1  0.25317939  0.71733364  0.09241112  1
  O  O21  1  0.71751197  0.25327051  0.09240367  1
  O  O22  1  0.24797898  0.24810459  0.42810088  1
  O  O23  1  0.27851878  0.74731398  0.24179222  1
  O  O24  1  0.25838918  0.26048636  0.57513142  1
  O  O25  1  0.74762312  0.27854690  0.24171645  1
  O  O26  1  0.74258252  0.74283056  0.09091042  1
  O  O27  1  0.24891065  0.71747380  0.42768617  1
  O  O28  1  0.71775619  0.24920744  0.42747923  1
  O  O29  1  0.74924701  0.74858985  0.24110074  1
  O  O30  1  0.26744287  0.26669312  0.75098233  1
  O  O31  1  0.28215455  0.74005179  0.57887356  1
  O  O32  1  0.73993898  0.28145976  0.57869649  1
  O  O33  1  0.25586020  0.26274408  0.90704680  1
  O  O34  1  0.74180252  0.74056503  0.42470876  1
  O  O35  1  0.26223664  0.71632330  0.75372488  1
  O  O36  1  0.71449370  0.26525301  0.75372387  1
  O  O37  1  0.73508002  0.73675887  0.58138575  1
  O  O38  1  0.28166619  0.74665528  0.90701212  1
  O  O39  1  0.75095922  0.28035009  0.90658871  1
  O  O40  1  0.74425877  0.73779612  0.75939895  1
  O  O41  1  0.74863802  0.74853407  0.90727887  1
