# generated using pymatgen
data_Li2TiVO4
_symmetry_space_group_name_H-M   'P 1'
_cell_length_a   5.18157980
_cell_length_b   6.02492062
_cell_length_c   7.92219955
_cell_angle_alpha   78.14479229
_cell_angle_beta   102.62565999
_cell_angle_gamma   106.68135639
_symmetry_Int_Tables_number   1
_chemical_formula_structural   Li2TiVO4
_chemical_formula_sum   'Li6 Ti3 V3 O12'
_cell_volume   228.47341272
_cell_formula_units_Z   3
loop_
 _symmetry_equiv_pos_site_id
 _symmetry_equiv_pos_as_xyz
  1  'x, y, z'
loop_
 _atom_site_type_symbol
 _atom_site_label
 _atom_site_symmetry_multiplicity
 _atom_site_fract_x
 _atom_site_fract_y
 _atom_site_fract_z
 _atom_site_occupancy
  Li  Li0  1  0.49975373  0.83164286  0.16828972  1
  Li  Li1  1  0.99339313  0.67021971  0.33476263  1
  Li  Li2  1  0.49998819  0.49995670  0.49998979  1
  Li  Li3  1  0.00667324  0.32982080  0.66523138  1
  Li  Li4  1  0.50027049  0.16840256  0.83171276  1
  Li  Li5  1  0.99993092  0.99996455  0.99999375  1
  Ti  Ti6  1  0.49991303  0.67183450  0.82871452  1
  Ti  Ti7  1  0.50010502  0.32831942  0.17116337  1
  Ti  Ti8  1  0.50002195  0.99975202  0.50024461  1
  V  V9  1  0.00029228  0.82925542  0.67037130  1
  V  V10  1  -0.00029649  0.17080576  0.32957092  1
  V  V11  1  -0.00002491  0.49997659  0.00003020  1
  O  O12  1  0.25903966  0.81341567  0.91647328  1
  O  O13  1  0.73562434  0.98816236  0.74785549  1
  O  O14  1  0.73936615  0.84791210  0.42381690  1
  O  O15  1  0.26482424  0.67271810  0.59003139  1
  O  O16  1  0.26483502  0.34791840  0.92405169  1
  O  O17  1  0.74061555  0.50740880  0.76348492  1
  O  O18  1  0.25929297  0.49262539  0.23645504  1
  O  O19  1  0.73518538  0.65189943  0.07610136  1
  O  O20  1  0.73464665  0.32702518  0.40969538  1
  O  O21  1  0.26064186  0.15203310  0.57627226  1
  O  O22  1  0.26488384  0.01228895  0.25220648  1
  O  O23  1  0.74106076  0.18663663  0.08347888  1
