# generated using pymatgen
data_MnFeCo(PO4)3
_symmetry_space_group_name_H-M   'P 1'
_cell_length_a   9.88691789
_cell_length_b   5.96539040
_cell_length_c   14.60070580
_cell_angle_alpha   90.00000000
_cell_angle_beta   90.00000000
_cell_angle_gamma   90.00000000
_symmetry_Int_Tables_number   1
_chemical_formula_structural   MnFeCo(PO4)3
_chemical_formula_sum   'Mn4 Fe4 Co4 P12 O48'
_cell_volume   861.13977358
_cell_formula_units_Z   4
loop_
 _symmetry_equiv_pos_site_id
 _symmetry_equiv_pos_as_xyz
  1  'x, y, z'
loop_
 _atom_site_type_symbol
 _atom_site_label
 _atom_site_symmetry_multiplicity
 _atom_site_fract_x
 _atom_site_fract_y
 _atom_site_fract_z
 _atom_site_occupancy
  Mn  Mn0  1  0.21737143  0.75000000  0.48033686  1
  Mn  Mn1  1  0.28262857  0.25000000  0.98033686  1
  Mn  Mn2  1  0.71769818  0.75000000  0.35238686  1
  Mn  Mn3  1  0.78230182  0.25000000  0.85238686  1
  Fe  Fe4  1  0.22659865  0.75000000  0.82176899  1
  Fe  Fe5  1  0.27340135  0.25000000  0.32176899  1
  Fe  Fe6  1  0.72529508  0.75000000  0.67681923  1
  Fe  Fe7  1  0.77470492  0.25000000  0.17681923  1
  Co  Co8  1  0.21931797  0.75000000  0.15133046  1
  Co  Co9  1  0.28068203  0.25000000  0.65133046  1
  Co  Co10  1  0.72993706  0.75000000  0.01038480  1
  Co  Co11  1  0.77006294  0.25000000  0.51038480  1
  P  P12  1  0.09854146  0.25000000  0.13839941  1
  P  P13  1  0.09483951  0.25000000  0.47553606  1
  P  P14  1  0.09978597  0.25000000  0.80533850  1
  P  P15  1  0.40021403  0.75000000  0.30533850  1
  P  P16  1  0.40145854  0.75000000  0.63839941  1
  P  P17  1  0.40516049  0.75000000  0.97553606  1
  P  P18  1  0.59969978  0.25000000  0.02691264  1
  P  P19  1  0.59681559  0.25000000  0.36142207  1
  P  P20  1  0.59920856  0.25000000  0.69521207  1
  P  P21  1  0.90079144  0.75000000  0.19521207  1
  P  P22  1  0.90030022  0.75000000  0.52691264  1
  P  P23  1  0.90318441  0.75000000  0.86142207  1
  O  O24  1  0.05179413  0.75000000  0.21788563  1
  O  O25  1  0.05333068  0.75000000  0.54781774  1
  O  O26  1  0.05353078  0.75000000  0.88501309  1
  O  O27  1  0.11860142  0.25000000  0.24226501  1
  O  O28  1  0.11464835  0.25000000  0.57840880  1
  O  O29  1  0.11900295  0.25000000  0.91058936  1
  O  O30  1  0.17261882  0.04393880  0.09213398  1
  O  O31  1  0.17013808  0.05226428  0.42401694  1
  O  O32  1  0.17160278  0.04751223  0.75767973  1
  O  O33  1  0.17261882  0.45606120  0.09213398  1
  O  O34  1  0.17013808  0.44773572  0.42401694  1
  O  O35  1  0.17160278  0.45248777  0.75767973  1
  O  O36  1  0.32839722  0.54751223  0.25767973  1
  O  O37  1  0.32738118  0.54393880  0.59213398  1
  O  O38  1  0.32986192  0.55226428  0.92401694  1
  O  O39  1  0.32839722  0.95248777  0.25767973  1
  O  O40  1  0.32738118  0.95606120  0.59213398  1
  O  O41  1  0.32986192  0.94773572  0.92401694  1
  O  O42  1  0.38535165  0.75000000  0.07840880  1
  O  O43  1  0.38099705  0.75000000  0.41058936  1
  O  O44  1  0.38139858  0.75000000  0.74226501  1
  O  O45  1  0.44666932  0.25000000  0.04781774  1
  O  O46  1  0.44646922  0.25000000  0.38501309  1
  O  O47  1  0.44820587  0.25000000  0.71788563  1
  O  O48  1  0.55275049  0.75000000  0.28449116  1
  O  O49  1  0.55124414  0.75000000  0.61384143  1
  O  O50  1  0.55717539  0.75000000  0.95148199  1
  O  O51  1  0.61875722  0.25000000  0.25837024  1
  O  O52  1  0.62145960  0.25000000  0.58946445  1
  O  O53  1  0.61815283  0.25000000  0.92174949  1
  O  O54  1  0.67054059  0.04958225  0.07631498  1
  O  O55  1  0.67199607  0.05011844  0.41108363  1
  O  O56  1  0.67195859  0.04526350  0.74015607  1
  O  O57  1  0.67054059  0.45041775  0.07631498  1
  O  O58  1  0.67199607  0.44988156  0.41108363  1
  O  O59  1  0.67195859  0.45473650  0.74015607  1
  O  O60  1  0.82804141  0.54526350  0.24015607  1
  O  O61  1  0.82945941  0.54958225  0.57631498  1
  O  O62  1  0.82800393  0.55011844  0.91108363  1
  O  O63  1  0.82804141  0.95473650  0.24015607  1
  O  O64  1  0.82945941  0.95041775  0.57631498  1
  O  O65  1  0.82800393  0.94988156  0.91108363  1
  O  O66  1  0.87854040  0.75000000  0.08946445  1
  O  O67  1  0.88184717  0.75000000  0.42174949  1
  O  O68  1  0.88124278  0.75000000  0.75837024  1
  O  O69  1  0.94875586  0.25000000  0.11384143  1
  O  O70  1  0.94282461  0.25000000  0.45148199  1
  O  O71  1  0.94724951  0.25000000  0.78449116  1
