# generated using pymatgen
data_Li4Fe3Cu3(SbO8)2
_symmetry_space_group_name_H-M   'P 1'
_cell_length_a   5.97985163
_cell_length_b   5.96076868
_cell_length_c   9.73722511
_cell_angle_alpha   89.99738058
_cell_angle_beta   89.60489983
_cell_angle_gamma   119.88977465
_symmetry_Int_Tables_number   1
_chemical_formula_structural   Li4Fe3Cu3(SbO8)2
_chemical_formula_sum   'Li4 Fe3 Cu3 Sb2 O16'
_cell_volume   300.90263601
_cell_formula_units_Z   1
loop_
 _symmetry_equiv_pos_site_id
 _symmetry_equiv_pos_as_xyz
  1  'x, y, z'
loop_
 _atom_site_type_symbol
 _atom_site_label
 _atom_site_symmetry_multiplicity
 _atom_site_fract_x
 _atom_site_fract_y
 _atom_site_fract_z
 _atom_site_occupancy
  Li  Li0  1  0.32115150  0.66049881  0.90599058  1
  Li  Li1  1  0.99925387  0.99941465  0.99048645  1
  Li  Li2  1  0.00944069  0.00485148  0.48746142  1
  Li  Li3  1  0.67199168  0.33603587  0.40384021  1
  Fe  Fe4  1  0.66051607  0.83027438  0.21330731  1
  Fe  Fe5  1  0.83009460  0.66053758  0.71382757  1
  Fe  Fe6  1  0.83019945  0.16973723  0.71377978  1
  Cu  Cu7  1  0.17355710  0.83274731  0.21331898  1
  Cu  Cu8  1  0.17355358  0.34092075  0.21335055  1
  Cu  Cu9  1  0.34193344  0.17095714  0.71216918  1
  Sb  Sb10  1  0.33859003  0.66938780  0.48650900  1
  Sb  Sb11  1  0.66051364  0.33020539  0.98694008  1
  O  O12  1  0.16223456  0.82943377  0.59287719  1
  O  O13  1  0.04215494  0.52134185  0.34464994  1
  O  O14  1  0.32660605  0.66338873  0.11327298  1
  O  O15  1  0.00836796  0.00405880  0.29765633  1
  O  O16  1  0.00750688  0.00375234  0.80139105  1
  O  O17  1  0.16218605  0.33298564  0.59283812  1
  O  O18  1  0.49536759  0.97053879  0.34958934  1
  O  O19  1  0.49478466  0.52439231  0.34937876  1
  O  O20  1  0.32260026  0.16117559  0.09308958  1
  O  O21  1  0.66824928  0.83411676  0.59648699  1
  O  O22  1  0.51557662  0.48439793  0.84669942  1
  O  O23  1  0.51581949  0.03110797  0.84676360  1
  O  O24  1  0.66558776  0.33290425  0.60854206  1
  O  O25  1  0.82073037  0.66338871  0.09311417  1
  O  O26  1  0.96021598  0.48010981  0.84727305  1
  O  O27  1  0.82121292  0.15763737  0.09323629  1
