# generated using pymatgen
data_Li5Mn3Cr2O10
_symmetry_space_group_name_H-M   'P 1'
_cell_length_a   5.21127824
_cell_length_b   5.20124467
_cell_length_c   7.89875050
_cell_angle_alpha   69.39658036
_cell_angle_beta   110.04174004
_cell_angle_gamma   99.65086045
_symmetry_Int_Tables_number   1
_chemical_formula_structural   Li5Mn3Cr2O10
_chemical_formula_sum   'Li5 Mn3 Cr2 O10'
_cell_volume   187.99735502
_cell_formula_units_Z   1
loop_
 _symmetry_equiv_pos_site_id
 _symmetry_equiv_pos_as_xyz
  1  'x, y, z'
loop_
 _atom_site_type_symbol
 _atom_site_label
 _atom_site_symmetry_multiplicity
 _atom_site_fract_x
 _atom_site_fract_y
 _atom_site_fract_z
 _atom_site_occupancy
  Li  Li0  1  0.19605732  0.50635760  0.41718390  1
  Li  Li1  1  0.38955511  0.49901729  0.77573054  1
  Li  Li2  1  0.50158147  0.99836852  0.49999238  1
  Li  Li3  1  0.78676145  0.49167639  0.57829484  1
  Li  Li4  1  0.60822937  0.49752304  0.22167621  1
  Mn  Mn5  1  0.00219429  0.49870406  0.99965737  1
  Mn  Mn6  1  0.69752188  0.99861696  0.89510327  1
  Mn  Mn7  1  0.30684144  0.99850256  0.10510514  1
  Cr  Cr8  1  0.10276719  0.00268078  0.69333006  1
  Cr  Cr9  1  0.90046661  0.99521549  0.30643389  1
  O  O10  1  0.07646744  0.23094942  0.85594777  1
  O  O11  1  0.13319456  0.76489088  0.55012008  1
  O  O12  1  0.32622337  0.75369960  0.95909114  1
  O  O13  1  0.23221168  0.23617703  0.23040980  1
  O  O14  1  0.45328024  0.22030761  0.66383820  1
  O  O15  1  0.55038190  0.77752354  0.33590016  1
  O  O16  1  0.77192399  0.76190973  0.76957049  1
  O  O17  1  0.67848402  0.24349810  0.04042822  1
  O  O18  1  0.86723898  0.23211341  0.44967444  1
  O  O19  1  0.92888667  0.76541698  0.14521511  1
