# generated using pymatgen
data_Mn4OF6
_symmetry_space_group_name_H-M   'P 1'
_cell_length_a   7.28538126
_cell_length_b   7.28538126
_cell_length_c   5.25067744
_cell_angle_alpha   90.00000000
_cell_angle_beta   90.00000000
_cell_angle_gamma   90.00000000
_symmetry_Int_Tables_number   1
_chemical_formula_structural   Mn4OF6
_chemical_formula_sum   'Mn8 O2 F12'
_cell_volume   278.68905188
_cell_formula_units_Z   2
loop_
 _symmetry_equiv_pos_site_id
 _symmetry_equiv_pos_as_xyz
  1  'x, y, z'
loop_
 _atom_site_type_symbol
 _atom_site_label
 _atom_site_symmetry_multiplicity
 _atom_site_fract_x
 _atom_site_fract_y
 _atom_site_fract_z
 _atom_site_occupancy
  Mn  Mn0  1  0.00075946  0.25000000  0.55301880  1
  Mn  Mn1  1  0.25000000  0.00075946  0.05301880  1
  Mn  Mn2  1  0.25000000  0.49924054  0.05301880  1
  Mn  Mn3  1  0.49924054  0.25000000  0.55301880  1
  Mn  Mn4  1  0.50075946  0.75000000  0.44698120  1
  Mn  Mn5  1  0.75000000  0.50075946  0.94698120  1
  Mn  Mn6  1  0.75000000  0.99924054  0.94698120  1
  Mn  Mn7  1  0.99924054  0.75000000  0.44698120  1
  O  O8  1  0.25000000  0.75000000  0.25000000  1
  O  O9  1  0.75000000  0.25000000  0.75000000  1
  F  F10  1  0.04029397  0.95970603  0.75000000  1
  F  F11  1  0.04029397  0.54029397  0.75000000  1
  F  F12  1  0.25000000  0.25000000  0.83254173  1
  F  F13  1  0.25000000  0.25000000  0.33254173  1
  F  F14  1  0.45970603  0.54029397  0.75000000  1
  F  F15  1  0.45970603  0.95970603  0.75000000  1
  F  F16  1  0.54029397  0.04029397  0.25000000  1
  F  F17  1  0.54029397  0.45970603  0.25000000  1
  F  F18  1  0.75000000  0.75000000  0.16745827  1
  F  F19  1  0.75000000  0.75000000  0.66745827  1
  F  F20  1  0.95970603  0.04029397  0.25000000  1
  F  F21  1  0.95970603  0.45970603  0.25000000  1
