# generated using pymatgen
data_Na2LiMnPCO7
_symmetry_space_group_name_H-M   'P 1'
_cell_length_a   5.23658938
_cell_length_b   6.86461109
_cell_length_c   8.81598487
_cell_angle_alpha   89.99988793
_cell_angle_beta   93.36118996
_cell_angle_gamma   90.00004654
_symmetry_Int_Tables_number   1
_chemical_formula_structural   Na2LiMnPCO7
_chemical_formula_sum   'Na4 Li2 Mn2 P2 C2 O14'
_cell_volume   316.36436941
_cell_formula_units_Z   2
loop_
 _symmetry_equiv_pos_site_id
 _symmetry_equiv_pos_as_xyz
  1  'x, y, z'
loop_
 _atom_site_type_symbol
 _atom_site_label
 _atom_site_symmetry_multiplicity
 _atom_site_fract_x
 _atom_site_fract_y
 _atom_site_fract_z
 _atom_site_occupancy
  Na  Na0  1  0.27416443  0.99419939  0.74724780  1
  Na  Na1  1  0.27415644  0.50580060  0.74724367  1
  Na  Na2  1  0.72583897  0.49419715  0.25275226  1
  Na  Na3  1  0.72583619  0.00580089  0.25275094  1
  Li  Li4  1  0.87083157  0.25000206  0.88172328  1
  Li  Li5  1  0.12916185  0.74999600  0.11827844  1
  Mn  Mn6  1  0.78997354  0.75000078  0.64260694  1
  Mn  Mn7  1  0.21002730  0.24999969  0.35739044  1
  P  P8  1  0.71170434  0.24999989  0.59355425  1
  P  P9  1  0.28829861  0.75000138  0.40643954  1
  C  C10  1  0.75601207  0.74999759  0.94504934  1
  C  C11  1  0.24399143  0.25000002  0.05497739  1
  O  O12  1  0.26475108  0.25000293  0.90935823  1
  O  O13  1  0.98671008  0.75000117  0.89383489  1
  O  O14  1  0.55832901  0.74999831  0.85008718  1
  O  O15  1  0.79946750  0.06982309  0.69136717  1
  O  O16  1  0.79946233  0.43017746  0.69136808  1
  O  O17  1  0.17330692  0.75000274  0.56482925  1
  O  O18  1  0.41387380  0.24999655  0.57016009  1
  O  O19  1  0.58613422  0.75000334  0.42984050  1
  O  O20  1  0.82669949  0.25000382  0.43517839  1
  O  O21  1  0.20054113  0.56982232  0.30863955  1
  O  O22  1  0.20053409  0.93017301  0.30863398  1
  O  O23  1  0.44165004  0.24999574  0.14991320  1
  O  O24  1  0.01328722  0.25000202  0.10616339  1
  O  O25  1  0.73525436  0.74999408  0.09063081  1
