# generated using pymatgen
data_Na6CoO4
_symmetry_space_group_name_H-M   'P 1'
_cell_length_a   7.65694203
_cell_length_b   7.65721649
_cell_length_c   5.89483681
_cell_angle_alpha   89.99947208
_cell_angle_beta   90.00026719
_cell_angle_gamma   120.00118161
_symmetry_Int_Tables_number   1
_chemical_formula_structural   Na6CoO4
_chemical_formula_sum   'Na12 Co2 O8'
_cell_volume   299.31158881
_cell_formula_units_Z   2
loop_
 _symmetry_equiv_pos_site_id
 _symmetry_equiv_pos_as_xyz
  1  'x, y, z'
loop_
 _atom_site_type_symbol
 _atom_site_label
 _atom_site_symmetry_multiplicity
 _atom_site_fract_x
 _atom_site_fract_y
 _atom_site_fract_z
 _atom_site_occupancy
  Na  Na0  1  0.14241147  0.85759835  0.53640493  1
  Na  Na1  1  0.07445036  0.53723575  0.86816821  1
  Na  Na2  1  0.14240447  0.28482306  0.53640551  1
  Na  Na3  1  0.46277340  0.92555442  0.86814662  1
  Na  Na4  1  0.46276949  0.53723521  0.86814639  1
  Na  Na5  1  0.28483120  0.14242628  0.03640333  1
  Na  Na6  1  0.71516880  0.85759508  0.53640333  1
  Na  Na7  1  0.53722660  0.46278102  0.36814662  1
  Na  Na8  1  0.53723051  0.07446572  0.36814639  1
  Na  Na9  1  0.85758853  0.71518788  0.03640493  1
  Na  Na10  1  0.92554964  0.46278539  0.36816821  1
  Na  Na11  1  0.85759553  0.14241859  0.03640551  1
  Co  Co12  1  0.33333640  0.66667671  0.25829004  1
  Co  Co13  1  0.66666360  0.33333930  0.75829004  1
  O  O14  1  0.18940960  0.81062751  0.14555435  1
  O  O15  1  0.33330444  0.66667079  0.59528295  1
  O  O16  1  0.18940749  0.37879459  0.14556883  1
  O  O17  1  0.62120710  0.81061054  0.14553883  1
  O  O18  1  0.37879290  0.18940244  0.64553883  1
  O  O19  1  0.81059040  0.62121891  0.64555435  1
  O  O20  1  0.66669556  0.33336635  0.09528295  1
  O  O21  1  0.81059251  0.18938710  0.64556883  1
