# generated using pymatgen
data_Li7V3P8O29
_symmetry_space_group_name_H-M   'P 1'
_cell_length_a   9.79223842
_cell_length_b   9.81314070
_cell_length_c   13.83506704
_cell_angle_alpha   89.88522728
_cell_angle_beta   90.08632319
_cell_angle_gamma   60.09603024
_symmetry_Int_Tables_number   1
_chemical_formula_structural   Li7V3P8O29
_chemical_formula_sum   'Li14 V6 P16 O58'
_cell_volume   1152.44088655
_cell_formula_units_Z   2
loop_
 _symmetry_equiv_pos_site_id
 _symmetry_equiv_pos_as_xyz
  1  'x, y, z'
loop_
 _atom_site_type_symbol
 _atom_site_label
 _atom_site_symmetry_multiplicity
 _atom_site_fract_x
 _atom_site_fract_y
 _atom_site_fract_z
 _atom_site_occupancy
  Li  Li0  1  0.90021263  0.76366868  0.06232590  1
  Li  Li1  1  0.76518397  0.89873285  0.56151859  1
  Li  Li2  1  0.89982719  0.33596289  0.56185279  1
  Li  Li3  1  0.76412147  0.33661841  0.06200044  1
  Li  Li4  1  0.33964385  0.89785228  0.06125072  1
  Li  Li5  1  0.66035311  0.23785762  0.43833453  1
  Li  Li6  1  0.33930414  0.76236286  0.56132166  1
  Li  Li7  1  0.66027485  0.10252173  0.93855426  1
  Li  Li8  1  0.23521952  0.66427928  0.93915309  1
  Li  Li9  1  0.09973332  0.66405155  0.43782862  1
  Li  Li10  1  0.23520558  0.10064327  0.43896227  1
  Li  Li11  1  0.09981028  0.23583146  0.93803887  1
  Li  Li12  1  -0.00001539  0.00017059  -0.00018907  1
  Li  Li13  1  0.00010254  -0.00034126  0.50028710  1
  V  V14  1  0.56385876  0.43568241  0.24990903  1
  V  V15  1  0.43633350  0.56161699  0.75074177  1
  V  V16  1  0.56574755  0.99929411  0.74923213  1
  V  V17  1  0.43498778  0.00169920  0.25150064  1
  V  V18  1  -0.00045909  0.56430415  0.24979259  1
  V  V19  1  0.99970738  0.43561390  0.74987951  1
  P  P20  1  0.91252456  0.77522786  0.84303471  1
  P  P21  1  0.77429405  0.91380098  0.34362056  1
  P  P22  1  0.91211331  0.31239200  0.34303122  1
  P  P23  1  0.66384808  0.66794740  0.12738901  1
  P  P24  1  0.66402616  0.66806563  0.62749271  1
  P  P25  1  0.77423111  0.31198630  0.84379797  1
  P  P26  1  0.68592123  0.22589340  0.65741995  1
  P  P27  1  0.31447721  0.91120941  0.84341918  1
  P  P28  1  0.68545123  0.08851743  0.15684264  1
  P  P29  1  0.31429845  0.77394133  0.34289626  1
  P  P30  1  0.22624883  0.68769522  0.15631626  1
  P  P31  1  0.33568256  0.33236313  0.37251126  1
  P  P32  1  0.33614536  0.33160435  0.87302698  1
  P  P33  1  0.08777306  0.68770713  0.65630795  1
  P  P34  1  0.22605155  0.08611571  0.65626795  1
  P  P35  1  0.08763815  0.22484742  0.15640567  1
  O  O36  1  -0.00009214  0.78365077  0.56666584  1
  O  O37  1  0.91883302  0.75110722  0.34520958  1
  O  O38  1  0.77631860  0.00003139  0.06752123  1
  O  O39  1  0.74341587  0.92267616  0.83978261  1
  O  O40  1  0.90639435  0.62538664  0.83570192  1
  O  O41  1  0.80820939  0.67875268  0.16488408  1
  O  O42  1  0.90613988  0.46847335  0.33541708  1
  O  O43  1  0.00034699  0.21630507  0.06685856  1
  O  O44  1  0.91921908  0.33031680  0.84501935  1
  O  O45  1  0.67571867  0.81196816  0.66929524  1
  O  O46  1  0.62021407  0.90952802  0.32852383  1
  O  O47  1  0.80780397  0.51287124  0.66489583  1
  O  O48  1  0.65495248  0.66768426  0.01912788  1
  O  O49  1  0.65375004  0.67721236  0.51944000  1
  O  O50  1  0.67392404  0.51230986  0.17008196  1
  O  O51  1  0.47044271  0.90950922  0.83021778  1
  O  O52  1  0.51180047  0.81232427  0.17173097  1
  O  O53  1  0.74402989  0.33292027  0.34080136  1
  O  O54  1  0.79454668  0.20305597  0.75054015  1
  O  O55  1  0.77521702  0.22444353  0.56749826  1
  O  O56  1  0.76996545  0.22434783  0.93372352  1
  O  O57  1  0.62140338  0.47027988  0.82977334  1
  O  O58  1  0.51094396  0.67434095  0.67201250  1
  O  O59  1  0.66463790  0.25474928  0.15710323  1
  O  O60  1  0.47159127  0.62148956  0.32998242  1
  O  O61  1  0.33646403  0.91870679  0.34367044  1
  O  O62  1  0.79327017  0.00256655  0.25039053  1
  O  O63  1  0.76995952  0.00544061  0.43344963  1
  O  O64  1  0.22976032  0.99483289  0.56632605  1
  O  O65  1  0.66314152  0.08104862  0.65713528  1
  O  O66  1  0.52891829  0.37990835  0.66797606  1
  O  O67  1  0.33580723  0.74513329  0.84406297  1
  O  O68  1  0.49027597  0.32181795  0.32957636  1
  O  O69  1  0.38133033  0.53057293  0.17043567  1
  O  O70  1  0.22976173  0.77558113  0.06645722  1
  O  O71  1  0.22441145  0.77543999  0.43250869  1
  O  O72  1  0.20653334  0.79570454  0.24923376  1
  O  O73  1  0.25422194  0.66853536  0.65837709  1
  O  O74  1  0.48894162  0.19012351  0.82954895  1
  O  O75  1  0.52937641  0.08979494  0.16845294  1
  O  O76  1  0.32644599  0.48830842  0.82890897  1
  O  O77  1  0.34396869  0.33495155  0.98086883  1
  O  O78  1  0.34511598  0.32165350  0.48066012  1
  O  O79  1  0.19235473  0.48665871  0.33507093  1
  O  O80  1  0.38127326  0.08837131  0.67178025  1
  O  O81  1  0.32492405  0.18677650  0.32978574  1
  O  O82  1  0.08161354  0.66908122  0.15481010  1
  O  O83  1  -0.00019303  0.79666744  0.74994158  1
  O  O84  1  -0.00136272  0.78446688  0.93308291  1
  O  O85  1  0.09307629  0.53181778  0.66481614  1
  O  O86  1  0.19163604  0.32212172  0.83496665  1
  O  O87  1  0.09343325  0.37497538  0.16478229  1
  O  O88  1  0.25476029  0.07806184  0.15961228  1
  O  O89  1  0.22335964  0.00031112  0.93266374  1
  O  O90  1  0.20765160  0.99772821  0.74944523  1
  O  O91  1  0.08129128  0.24918736  0.65436806  1
  O  O92  1  0.99881685  0.21671748  0.43287221  1
  O  O93  1  -0.00016345  0.20347074  0.25008009  1
