# generated using pymatgen
data_Li2MnF6
_symmetry_space_group_name_H-M   'P 1'
_cell_length_a   8.47621180
_cell_length_b   8.46784345
_cell_length_c   10.12806156
_cell_angle_alpha   85.82743185
_cell_angle_beta   94.75446072
_cell_angle_gamma   118.60718994
_symmetry_Int_Tables_number   1
_chemical_formula_structural   Li2MnF6
_chemical_formula_sum   'Li12 Mn6 F36'
_cell_volume   635.55012975
_cell_formula_units_Z   6
loop_
 _symmetry_equiv_pos_site_id
 _symmetry_equiv_pos_as_xyz
  1  'x, y, z'
loop_
 _atom_site_type_symbol
 _atom_site_label
 _atom_site_symmetry_multiplicity
 _atom_site_fract_x
 _atom_site_fract_y
 _atom_site_fract_z
 _atom_site_occupancy
  Li  Li0  1  0.14512819  0.47430345  0.45600998  1
  Li  Li1  1  0.31299416  0.37607033  0.96366063  1
  Li  Li2  1  0.37737253  0.33362035  0.53040769  1
  Li  Li3  1  0.28486264  0.99222751  0.76910622  1
  Li  Li4  1  0.70599041  0.98439534  0.22949132  1
  Li  Li5  1  0.80521347  0.81321438  0.74598257  1
  Li  Li6  1  0.67110027  0.63983411  0.03608002  1
  Li  Li7  1  0.45694173  0.11140146  0.04994942  1
  Li  Li8  1  0.87154360  0.54677826  0.55254522  1
  Li  Li9  1  0.64556694  0.04752176  0.56508367  1
  Li  Li10  1  0.00764956  0.72559699  0.27368135  1
  Li  Li11  1  0.95139580  0.35690159  0.06076953  1
  Mn  Mn12  1  0.33276051  0.66497200  0.70714382  1
  Mn  Mn13  1  0.00532017  0.00407579  0.49696243  1
  Mn  Mn14  1  0.33434004  0.66375389  0.20647241  1
  Mn  Mn15  1  0.99918736  0.99737245  0.00018672  1
  Mn  Mn16  1  0.66725385  0.33632412  0.79708430  1
  Mn  Mn17  1  0.66503913  0.33190278  0.29576837  1
  F  F18  1  0.06624968  0.92710651  0.66111415  1
  F  F19  1  0.07459184  0.92599407  0.15598665  1
  F  F20  1  0.11140664  0.58492323  0.60987230  1
  F  F21  1  0.26011127  0.76069021  0.82947108  1
  F  F22  1  0.11509490  0.58605545  0.11332913  1
  F  F23  1  0.23523440  0.72934449  0.33359146  1
  F  F24  1  0.08463101  0.23313756  0.55350943  1
  F  F25  1  0.41550353  0.88618911  0.61709607  1
  F  F26  1  0.24872259  0.45137818  0.80181553  1
  F  F27  1  0.08548964  0.23041723  0.05582239  1
  F  F28  1  0.42495205  0.88944618  0.12277681  1
  F  F29  1  0.25096852  0.44714647  0.29862851  1
  F  F30  1  0.39175862  0.56561177  0.57236243  1
  F  F31  1  0.23175228  0.08034415  0.93849250  1
  F  F32  1  0.55648148  0.74118660  0.79196062  1
  F  F33  1  0.42378010  0.58277163  0.07694496  1
  F  F34  1  0.23142397  0.08918335  0.44390478  1
  F  F35  1  0.55082860  0.75111992  0.29966076  1
  F  F36  1  0.44644444  0.24606743  0.69943926  1
  F  F37  1  0.78067594  0.92263650  0.56786080  1
  F  F38  1  0.57322540  0.40799437  0.92995095  1
  F  F39  1  0.45252562  0.25105631  0.19933998  1
  F  F40  1  0.77777386  0.92134954  0.06858538  1
  F  F41  1  0.59603949  0.41770314  0.42786316  1
  F  F42  1  0.74970386  0.55782001  0.70506931  1
  F  F43  1  0.57574843  0.11575397  0.88422211  1
  F  F44  1  0.90224082  0.76887489  0.93704158  1
  F  F45  1  0.75703681  0.55105054  0.19881726  1
  F  F46  1  0.59471950  0.11691595  0.38704106  1
  F  F47  1  0.93378716  0.77387825  0.43780889  1
  F  F48  1  0.75413061  0.26792058  0.66378275  1
  F  F49  1  0.87844921  0.41380140  0.89287596  1
  F  F50  1  0.73844003  0.23554291  0.16505119  1
  F  F51  1  0.89145364  0.42636949  0.38697407  1
  F  F52  1  0.92435588  0.05926853  0.84179840  1
  F  F53  1  0.92109983  0.06626850  0.34124766  1
