# generated using pymatgen
data_Li6V3P8O29
_symmetry_space_group_name_H-M   'P 1'
_cell_length_a   9.76431029
_cell_length_b   9.77661579
_cell_length_c   13.94781663
_cell_angle_alpha   90.25449751
_cell_angle_beta   90.59325754
_cell_angle_gamma   60.14676372
_symmetry_Int_Tables_number   1
_chemical_formula_structural   Li6V3P8O29
_chemical_formula_sum   'Li12 V6 P16 O58'
_cell_volume   1154.73925269
_cell_formula_units_Z   2
loop_
 _symmetry_equiv_pos_site_id
 _symmetry_equiv_pos_as_xyz
  1  'x, y, z'
loop_
 _atom_site_type_symbol
 _atom_site_label
 _atom_site_symmetry_multiplicity
 _atom_site_fract_x
 _atom_site_fract_y
 _atom_site_fract_z
 _atom_site_occupancy
  Li  Li0  1  0.76424024  0.90210398  0.55850622  1
  Li  Li1  1  0.68756608  0.65760435  0.88937477  1
  Li  Li2  1  0.76772643  0.32448364  0.06126306  1
  Li  Li3  1  0.32577740  0.90620091  0.06328126  1
  Li  Li4  1  0.66365061  0.23872782  0.43789817  1
  Li  Li5  1  0.33066949  0.76637331  0.56138919  1
  Li  Li6  1  0.66522238  0.10020811  0.94068153  1
  Li  Li7  1  0.23519768  0.66198694  0.94229234  1
  Li  Li8  1  0.09680836  0.66849993  0.43729760  1
  Li  Li9  1  0.23536622  0.10227923  0.44078602  1
  Li  Li10  1  0.99750633  0.99800309  0.00049284  1
  Li  Li11  1  0.98504177  0.05542181  0.50949023  1
  V  V12  1  0.56820395  0.43371803  0.25098590  1
  V  V13  1  0.43394772  0.56379136  0.74684173  1
  V  V14  1  0.56503030  0.00026281  0.75014464  1
  V  V15  1  0.43197900  0.00182434  0.24918846  1
  V  V16  1  0.99882580  0.56405278  0.24652678  1
  V  V17  1  0.00207334  0.43346722  0.75153958  1
  P  P18  1  0.91546214  0.78194574  0.84119606  1
  P  P19  1  0.77443404  0.91266756  0.33900634  1
  P  P20  1  0.91935867  0.30585496  0.34329946  1
  P  P21  1  0.66381232  0.66622609  0.12876522  1
  P  P22  1  0.66827082  0.66811654  0.63013919  1
  P  P23  1  0.77697661  0.31395410  0.84107737  1
  P  P24  1  0.68755219  0.22517416  0.65550039  1
  P  P25  1  0.31788823  0.90457158  0.84558018  1
  P  P26  1  0.68597727  0.08801534  0.15473823  1
  P  P27  1  0.31620104  0.77268326  0.34330957  1
  P  P28  1  0.22542688  0.68477662  0.15961573  1
  P  P29  1  0.33441189  0.33409416  0.36979337  1
  P  P30  1  0.33419105  0.33588139  0.87151818  1
  P  P31  1  0.08227711  0.68725721  0.65327673  1
  P  P32  1  0.22082902  0.08569483  0.66191580  1
  P  P33  1  0.08067007  0.22151035  0.15516588  1
  O  O34  1  0.99693858  0.77435114  0.56267949  1
  O  O35  1  0.91842532  0.74471151  0.34039070  1
  O  O36  1  0.77282801  0.01510472  0.06408520  1
  O  O37  1  0.74314163  0.92491171  0.84194905  1
  O  O38  1  0.90416792  0.62966791  0.83695092  1
  O  O39  1  0.80402097  0.67486676  0.17559386  1
  O  O40  1  0.92535712  0.45946060  0.33140914  1
  O  O41  1  0.99528488  0.20137571  0.07145013  1
  O  O42  1  0.91905057  0.33862062  0.84276649  1
  O  O43  1  0.67655837  0.81574944  0.67076456  1
  O  O44  1  0.61839991  0.91012652  0.32467452  1
  O  O45  1  0.80974351  0.52333552  0.68104448  1
  O  O46  1  0.66228314  0.66293077  0.02082986  1
  O  O47  1  0.66948455  0.67237736  0.52346237  1
  O  O48  1  0.67544087  0.50924496  0.16663272  1
  O  O49  1  0.48131115  0.89156727  0.83059661  1
  O  O50  1  0.50732680  0.81075108  0.16596735  1
  O  O51  1  0.74661603  0.33877983  0.34278705  1
  O  O52  1  0.79545265  0.20652793  0.74800308  1
  O  O53  1  0.77401151  0.21353676  0.56469346  1
  O  O54  1  0.76972776  0.22761236  0.92887989  1
  O  O55  1  0.62600908  0.47774193  0.82718482  1
  O  O56  1  0.51141574  0.67702665  0.66759706  1
  O  O57  1  0.66091678  0.25843354  0.16227654  1
  O  O58  1  0.47427825  0.61970121  0.32867619  1
  O  O59  1  0.33771489  0.91899627  0.34343854  1
  O  O60  1  0.79706338  0.99786795  0.24695357  1
  O  O61  1  0.77153169  0.00207155  0.42857058  1
  O  O62  1  0.21852534  -0.00011553  0.57131848  1
  O  O63  1  0.66103186  0.08184538  0.66100049  1
  O  O64  1  0.53192009  0.38231087  0.66693877  1
  O  O65  1  0.34177063  0.73531929  0.84018183  1
  O  O66  1  0.49109010  0.32111092  0.32961625  1
  O  O67  1  0.38058651  0.52979967  0.17206507  1
  O  O68  1  0.21903615  0.77462529  0.07030379  1
  O  O69  1  0.23077024  0.77033832  0.43253839  1
  O  O70  1  0.20544801  0.79578893  0.25114287  1
  O  O71  1  0.24897569  0.66943325  0.65718291  1
  O  O72  1  0.48532498  0.18663834  0.83322120  1
  O  O73  1  0.53032421  0.08880423  0.16811371  1
  O  O74  1  0.32892988  0.48740388  0.82710822  1
  O  O75  1  0.33374993  0.34523261  0.97797852  1
  O  O76  1  0.33897147  0.33006292  0.47713017  1
  O  O77  1  0.19046986  0.48907615  0.32992395  1
  O  O78  1  0.38099111  0.08128387  0.67502825  1
  O  O79  1  0.32235928  0.18862692  0.32953817  1
  O  O80  1  0.08316001  0.65727345  0.16455096  1
  O  O81  1  0.98717409  0.80120384  0.74159852  1
  O  O82  1  0.01147800  0.79580112  0.92099345  1
  O  O83  1  0.08821435  0.52974745  0.66727616  1
  O  O84  1  0.18712906  0.33682122  0.82405016  1
  O  O85  1  0.08089063  0.37710303  0.16564239  1
  O  O86  1  0.25367331  0.07976832  0.16095520  1
  O  O87  1  0.23521541  0.98205858  0.93615673  1
  O  O88  1  0.20704854  0.99349371  0.75369442  1
  O  O89  1  0.08199869  0.25225848  0.66377119  1
  O  O90  1  0.00865108  0.20377780  0.42732561  1
  O  O91  1  0.99755499  0.20111156  0.24941490  1
