# generated using pymatgen
data_Mg(MoO2)2
_symmetry_space_group_name_H-M   'P 1'
_cell_length_a   6.39424172
_cell_length_b   6.33981141
_cell_length_c   19.12792103
_cell_angle_alpha   59.44662826
_cell_angle_beta   58.66822463
_cell_angle_gamma   60.64613552
_symmetry_Int_Tables_number   1
_chemical_formula_structural   Mg(MoO2)2
_chemical_formula_sum   'Mg6 Mo12 O24'
_cell_volume   542.81840199
_cell_formula_units_Z   6
loop_
 _symmetry_equiv_pos_site_id
 _symmetry_equiv_pos_as_xyz
  1  'x, y, z'
loop_
 _atom_site_type_symbol
 _atom_site_label
 _atom_site_symmetry_multiplicity
 _atom_site_fract_x
 _atom_site_fract_y
 _atom_site_fract_z
 _atom_site_occupancy
  Mg  Mg0  1  0.11389342  0.12696802  0.04558649  1
  Mg  Mg1  1  0.12724397  0.12137930  0.37811761  1
  Mg  Mg2  1  0.49838626  0.49846540  0.33596289  1
  Mg  Mg3  1  0.12860716  0.12062477  0.70775367  1
  Mg  Mg4  1  0.49121202  0.49849598  0.00497026  1
  Mg  Mg5  1  0.88262777  0.87378786  0.62196893  1
  Mo  Mo6  1  0.49207425  0.50980313  0.16561213  1
  Mo  Mo7  1  0.49006936  0.01189694  0.16748498  1
  Mo  Mo8  1  0.50904637  0.49759513  0.49701361  1
  Mo  Mo9  1  0.99450311  0.50756346  0.16705304  1
  Mo  Mo10  1  0.50901251  0.00152624  0.49705485  1
  Mo  Mo11  1  0.50415267  0.49681531  0.66539598  1
  Mo  Mo12  1  0.88428872  0.88294258  0.28595793  1
  Mo  Mo13  1  0.49806788  0.49431463  0.83410189  1
  Mo  Mo14  1  0.01415441  0.49459270  0.49860166  1
  Mo  Mo15  1  0.49872957  0.99337243  0.83369649  1
  Mo  Mo16  1  0.99726270  0.49452675  0.83388599  1
  Mo  Mo17  1  0.87821945  0.88221856  0.95337779  1
  O  O18  1  0.24745248  0.26083141  0.08830983  1
  O  O19  1  0.24360914  0.26709728  0.24331730  1
  O  O20  1  0.25708940  0.73500059  0.08449924  1
  O  O21  1  0.71967684  0.27320799  0.08375044  1
  O  O22  1  0.26672205  0.24990479  0.41978238  1
  O  O23  1  0.28019953  0.72771926  0.25497126  1
  O  O24  1  0.26239309  0.25146967  0.57550548  1
  O  O25  1  0.72187312  0.28646563  0.24485317  1
  O  O26  1  0.74152694  0.75551076  0.09358158  1
  O  O27  1  0.27083400  0.72651576  0.41806939  1
  O  O28  1  0.73472907  0.26471167  0.41396205  1
  O  O29  1  0.72738773  0.76305034  0.24433987  1
  O  O30  1  0.25622265  0.24562733  0.75516983  1
  O  O31  1  0.27886778  0.73378576  0.58183155  1
  O  O32  1  0.74282478  0.26809294  0.58075136  1
  O  O33  1  0.24928767  0.25133340  0.91073198  1
  O  O34  1  0.76754433  0.73369333  0.42356936  1
  O  O35  1  0.26079130  0.72242089  0.75401209  1
  O  O36  1  0.72960208  0.25416571  0.75252750  1
  O  O37  1  0.74778055  0.74362934  0.57915934  1
  O  O38  1  0.27232091  0.72618616  0.91754129  1
  O  O39  1  0.72283732  0.27590070  0.91844417  1
  O  O40  1  0.74787999  0.73714565  0.75742932  1
  O  O41  1  0.73899667  0.73964446  0.91029505  1
