# generated using pymatgen
data_V6O11F
_symmetry_space_group_name_H-M   'P 1'
_cell_length_a   7.12327832
_cell_length_b   5.50719822
_cell_length_c   5.50719822
_cell_angle_alpha   74.03874694
_cell_angle_beta   71.99374237
_cell_angle_gamma   71.99374237
_symmetry_Int_Tables_number   1
_chemical_formula_structural   V6O11F
_chemical_formula_sum   'V6 O11 F1'
_cell_volume   191.51549669
_cell_formula_units_Z   1
loop_
 _symmetry_equiv_pos_site_id
 _symmetry_equiv_pos_as_xyz
  1  'x, y, z'
loop_
 _atom_site_type_symbol
 _atom_site_label
 _atom_site_symmetry_multiplicity
 _atom_site_fract_x
 _atom_site_fract_y
 _atom_site_fract_z
 _atom_site_occupancy
  V  V0  1  0.83333300  0.67223489  0.66109811  1
  V  V1  1  0.66181599  0.31737661  0.35063958  1
  V  V2  1  0.33333300  0.69472924  0.63860376  1
  V  V3  1  0.15125914  0.33004459  0.36366602  1
  V  V4  1  0.51540686  0.96966698  0.00328841  1
  V  V5  1  0.00485001  0.98269442  0.01595739  1
  O  O6  1  0.66248234  0.04400290  0.63456946  1
  O  O7  1  0.96229102  0.23561784  0.22743646  1
  O  O8  1  0.62302875  0.57287245  0.57131908  1
  O  O9  1  0.30406222  0.90153806  0.89027274  1
  O  O10  1  0.70437598  0.10589754  0.09771516  1
  O  O11  1  0.04363825  0.76201492  0.76046055  1
  O  O12  1  0.36260478  0.44306126  0.43179494  1
  O  O13  1  0.00709980  0.28822788  0.69167093  1
  O  O14  1  0.65956720  0.64166207  0.04510512  1
  O  O15  1  0.33333300  0.97818054  0.35515246  1
  O  O16  1  0.00418366  0.69876354  0.28933010  1
  F  F17  1  0.33333300  0.36141328  0.97192072  1
