# generated using pymatgen
data_Li3Cr(BO3)2
_symmetry_space_group_name_H-M   'P 1'
_cell_length_a   5.26296843
_cell_length_b   8.70554584
_cell_length_c   9.65537863
_cell_angle_alpha   89.99989492
_cell_angle_beta   92.76796429
_cell_angle_gamma   89.99969071
_symmetry_Int_Tables_number   1
_chemical_formula_structural   Li3Cr(BO3)2
_chemical_formula_sum   'Li12 Cr4 B8 O24'
_cell_volume   441.86447906
_cell_formula_units_Z   4
loop_
 _symmetry_equiv_pos_site_id
 _symmetry_equiv_pos_as_xyz
  1  'x, y, z'
loop_
 _atom_site_type_symbol
 _atom_site_label
 _atom_site_symmetry_multiplicity
 _atom_site_fract_x
 _atom_site_fract_y
 _atom_site_fract_z
 _atom_site_occupancy
  Li  Li0  1  0.12515244  0.95751437  0.64766141  1
  Li  Li1  1  0.18352582  0.65215528  0.62375522  1
  Li  Li2  1  0.31810619  0.15441057  0.87572750  1
  Li  Li3  1  0.19087129  0.96923701  0.11361521  1
  Li  Li4  1  0.37505171  0.45790805  0.84733828  1
  Li  Li5  1  0.30939992  0.46958356  0.38079508  1
  Li  Li6  1  0.69087019  0.53075894  0.61361340  1
  Li  Li7  1  0.62514796  0.54248999  0.14765341  1
  Li  Li8  1  0.80939703  0.03041575  0.88079836  1
  Li  Li9  1  0.68352558  0.84783132  0.12375514  1
  Li  Li10  1  0.81810477  0.34558729  0.37572376  1
  Li  Li11  1  0.87505994  0.04208787  0.34733713  1
  Cr  Cr12  1  0.11101092  0.29013835  0.12449901  1
  Cr  Cr13  1  0.61107645  0.20988403  0.62448749  1
  Cr  Cr14  1  0.39001184  0.78989517  0.37583850  1
  Cr  Cr15  1  0.88998644  0.71009821  0.87577442  1
  B  B16  1  0.16701939  0.30485669  0.61807405  1
  B  B17  1  0.16472447  0.64301603  0.13481301  1
  B  B18  1  0.33392957  0.80521142  0.88219325  1
  B  B19  1  0.33578516  0.14205286  0.36589430  1
  B  B20  1  0.66472525  0.85699466  0.63481583  1
  B  B21  1  0.66699014  0.19513579  0.11807284  1
  B  B22  1  0.83578329  0.35794988  0.86589425  1
  B  B23  1  0.83394246  0.69478359  0.38218952  1
  O  O24  1  0.08211212  0.32507015  0.91541494  1
  O  O25  1  0.13497343  0.91064899  0.89289114  1
  O  O26  1  0.08329061  0.65595078  0.40971304  1
  O  O27  1  0.25169124  0.65908101  0.84356973  1
  O  O28  1  0.16595887  0.26228993  0.33261052  1
  O  O29  1  0.24933659  0.15870850  0.65684409  1
  O  O30  1  0.23954276  0.99666935  0.34742014  1
  O  O31  1  0.26020390  0.49744874  0.15439958  1
  O  O32  1  0.36591549  0.41054542  0.60838398  1
  O  O33  1  0.33478103  0.76318640  0.16757124  1
  O  O34  1  0.41873157  0.82405945  0.58483349  1
  O  O35  1  0.41774604  0.15645990  0.09035158  1
  O  O36  1  0.58328439  0.84404817  0.90970478  1
  O  O37  1  0.58212593  0.17493366  0.41541796  1
  O  O38  1  0.66596330  0.23771456  0.83260621  1
  O  O39  1  0.63498443  0.58934755  0.39290166  1
  O  O40  1  0.73952966  0.50333048  0.84740663  1
  O  O41  1  0.76020650  0.00255117  0.65439581  1
  O  O42  1  0.75169641  0.84091809  0.34357454  1
  O  O43  1  0.83478105  0.73681259  0.66754807  1
  O  O44  1  0.74930895  0.34129648  0.15685065  1
  O  O45  1  0.91776848  0.34355807  0.59034821  1
  O  O46  1  0.86590862  0.08945823  0.10839051  1
  O  O47  1  0.91872741  0.67593668  0.08480510  1
