# generated using pymatgen
data_Li3Fe4(BO3)4
_symmetry_space_group_name_H-M   'P 1'
_cell_length_a   5.25396062
_cell_length_b   5.24686335
_cell_length_c   20.27961697
_cell_angle_alpha   88.60893981
_cell_angle_beta   89.98070411
_cell_angle_gamma   60.16279188
_symmetry_Int_Tables_number   1
_chemical_formula_structural   Li3Fe4(BO3)4
_chemical_formula_sum   'Li6 Fe8 B8 O24'
_cell_volume   484.75154932
_cell_formula_units_Z   2
loop_
 _symmetry_equiv_pos_site_id
 _symmetry_equiv_pos_as_xyz
  1  'x, y, z'
loop_
 _atom_site_type_symbol
 _atom_site_label
 _atom_site_symmetry_multiplicity
 _atom_site_fract_x
 _atom_site_fract_y
 _atom_site_fract_z
 _atom_site_occupancy
  Li  Li0  1  0.34342952  0.67510116  0.91887101  1
  Li  Li1  1  0.32608150  0.65283666  0.16962096  1
  Li  Li2  1  0.35205057  0.67027199  0.41878500  1
  Li  Li3  1  0.64950203  0.34160358  0.79026671  1
  Li  Li4  1  0.66160757  0.34105194  0.54643998  1
  Li  Li5  1  0.66849471  0.34314142  0.04769511  1
  Fe  Fe6  1  0.99847195  0.67653790  0.80898074  1
  Fe  Fe7  1  0.98797282  0.67507898  0.30840260  1
  Fe  Fe8  1  0.67374352  0.00766601  0.93512150  1
  Fe  Fe9  1  0.68371652  0.00383288  0.43455852  1
  Fe  Fe10  1  0.32379198  0.98937232  0.56084143  1
  Fe  Fe11  1  0.32432238  0.00621385  0.05953648  1
  Fe  Fe12  1  0.00753766  0.32978018  0.68237547  1
  Fe  Fe13  1  0.99135363  0.32101057  0.18683435  1
  B  B14  1  0.00094294  0.33760696  0.93640399  1
  B  B15  1  0.00782795  0.33302434  0.43620087  1
  B  B16  1  0.33316581  0.00462449  0.81018453  1
  B  B17  1  0.32833431  0.00712377  0.31272710  1
  B  B18  1  0.66681297  -0.00064385  0.68588179  1
  B  B19  1  0.65827271  0.00008191  0.18595485  1
  B  B20  1  0.99528861  0.66709625  0.56094899  1
  B  B21  1  0.99686692  0.67139602  0.06156841  1
  O  O22  1  0.07303397  0.25356520  0.78737803  1
  O  O23  1  0.09722388  0.27517984  0.29101674  1
  O  O24  1  0.25450580  0.06961141  0.95082344  1
  O  O25  1  0.01912189  0.58470775  0.91663350  1
  O  O26  1  0.26272107  0.07116275  0.45253951  1
  O  O27  1  0.02653370  0.57833302  0.41347733  1
  O  O28  1  0.57738487  0.03150435  0.82549466  1
  O  O29  1  0.26524004  0.64400656  0.55767331  1
  O  O30  1  0.59761621  0.98181888  0.32896665  1
  O  O31  1  0.26671130  0.65735918  0.06761404  1
  O  O32  1  0.34649064  0.73556990  0.81849300  1
  O  O33  1  0.29245639  0.76618119  0.32049375  1
  O  O34  1  0.69522107  0.24538432  0.69018448  1
  O  O35  1  0.64748752  0.26534516  0.18147264  1
  O  O36  1  0.72774644  0.35862149  0.94281956  1
  O  O37  1  0.40237733  0.02315488  0.66647961  1
  O  O38  1  0.73606186  0.35515268  0.44458756  1
  O  O39  1  0.41660666  0.97247578  0.16909184  1
  O  O40  1  0.96919327  0.41941162  0.58160536  1
  O  O41  1  0.97864114  0.42052937  0.07723809  1
  O  O42  1  0.74091976  0.92665738  0.54280403  1
  O  O43  1  0.74653238  0.93193373  0.04196452  1
  O  O44  1  0.90145368  0.72542052  0.70395396  1
  O  O45  1  0.92373854  0.74605468  0.20747100  1
