# generated using pymatgen
data_LiVOF3
_symmetry_space_group_name_H-M   'P 1'
_cell_length_a   5.38249275
_cell_length_b   5.11670420
_cell_length_c   12.35354792
_cell_angle_alpha   90.00000000
_cell_angle_beta   71.54068826
_cell_angle_gamma   90.00000000
_symmetry_Int_Tables_number   1
_chemical_formula_structural   LiVOF3
_chemical_formula_sum   'Li4 V4 O4 F12'
_cell_volume   322.71943756
_cell_formula_units_Z   4
loop_
 _symmetry_equiv_pos_site_id
 _symmetry_equiv_pos_as_xyz
  1  'x, y, z'
loop_
 _atom_site_type_symbol
 _atom_site_label
 _atom_site_symmetry_multiplicity
 _atom_site_fract_x
 _atom_site_fract_y
 _atom_site_fract_z
 _atom_site_occupancy
  Li  Li0  1  0.00357406  0.16570937  0.74694003  1
  Li  Li1  1  0.00357406  0.83429063  0.24694003  1
  Li  Li2  1  0.49559084  0.32280267  0.74597057  1
  Li  Li3  1  0.49559084  0.67719733  0.24597057  1
  V  V4  1  0.02224662  0.52444652  0.50591483  1
  V  V5  1  0.02224662  0.47555348  0.00591483  1
  V  V6  1  0.51411710  0.99805743  0.48702506  1
  V  V7  1  0.51411710  0.00194257  0.98702506  1
  O  O8  1  0.26135618  0.70079954  0.53407644  1
  O  O9  1  0.26135618  0.29920046  0.03407644  1
  O  O10  1  0.64221994  0.09917886  0.85164361  1
  O  O11  1  0.64221994  0.90082114  0.35164361  1
  F  F12  1  0.13578910  0.38463546  0.84440936  1
  F  F13  1  0.22286676  0.80048506  0.95895066  1
  F  F14  1  0.13578910  0.61536454  0.34440936  1
  F  F15  1  0.22286676  0.19951494  0.45895066  1
  F  F16  1  0.35425746  0.11688507  0.64985794  1
  F  F17  1  0.35425746  0.88311493  0.14985794  1
  F  F18  1  0.72714420  0.67448211  0.96909045  1
  F  F19  1  0.72714420  0.32551789  0.46909045  1
  F  F20  1  0.76604459  0.81553620  0.54846814  1
  F  F21  1  0.85479414  0.38659965  0.65765192  1
  F  F22  1  0.76604459  0.18446380  0.04846814  1
  F  F23  1  0.85479414  0.61340035  0.15765192  1
