# generated using pymatgen
data_Al15Fe9O32
_symmetry_space_group_name_H-M   'P 1'
_cell_length_a   5.85404244
_cell_length_b   5.85072815
_cell_length_c   19.34653465
_cell_angle_alpha   99.07019855
_cell_angle_beta   89.56378436
_cell_angle_gamma   120.44059139
_symmetry_Int_Tables_number   1
_chemical_formula_structural   Al15Fe9O32
_chemical_formula_sum   'Al15 Fe9 O32'
_cell_volume   562.10810964
_cell_formula_units_Z   1
loop_
 _symmetry_equiv_pos_site_id
 _symmetry_equiv_pos_as_xyz
  1  'x, y, z'
loop_
 _atom_site_type_symbol
 _atom_site_label
 _atom_site_symmetry_multiplicity
 _atom_site_fract_x
 _atom_site_fract_y
 _atom_site_fract_z
 _atom_site_occupancy
  Al  Al0  1  0.37500000  0.75000000  0.12500000  1
  Al  Al1  1  0.12386678  0.75063592  0.37579464  1
  Al  Al2  1  0.50141721  0.99685534  0.99930213  1
  Al  Al3  1  0.24858279  0.50314466  0.25069787  1
  Al  Al4  1  0.87500000  0.25000000  0.12500000  1
  Al  Al5  1  0.62443898  0.75038466  0.37544777  1
  Al  Al6  1  0.12406496  0.25028672  0.37535403  1
  Al  Al7  1  0.00009864  0.00043406  0.50027319  1
  Al  Al8  1  0.12556102  0.74961534  0.87455223  1
  Al  Al9  1  0.87500000  0.75000000  0.62500000  1
  Al  Al10  1  0.37500000  0.25000000  0.62500000  1
  Al  Al11  1  0.62613322  0.74936408  0.87420536  1
  Al  Al12  1  0.87500000  0.25000000  0.62500000  1
  Al  Al13  1  0.74990136  0.49956594  0.74972681  1
  Al  Al14  1  0.62593504  0.24971328  0.87464597  1
  Fe  Fe15  1  0.84454823  0.68772819  0.03169933  1
  Fe  Fe16  1  0.37500000  0.25000000  0.12500000  1
  Fe  Fe17  1  0.90545177  0.81227181  0.21830067  1
  Fe  Fe18  1  0.34327628  0.68877881  0.53195375  1
  Fe  Fe19  1  0.59299896  0.18931646  0.28207435  1
  Fe  Fe20  1  0.40672372  0.81122119  0.71804625  1
  Fe  Fe21  1  0.65718259  0.31146277  0.46835302  1
  Fe  Fe22  1  0.09281741  0.18853723  0.78164698  1
  Fe  Fe23  1  0.15700104  0.31068354  0.96792565  1
  O  O24  1  0.23224643  0.88982722  0.06504945  1
  O  O25  1  0.66982688  0.89612411  0.06560105  1
  O  O26  1  0.18839402  0.38472739  0.07418179  1
  O  O27  1  0.08017312  0.60387589  0.18439895  1
  O  O28  1  0.51775357  0.61017278  0.18495055  1
  O  O29  1  0.07542268  0.16725829  0.18495674  1
  O  O30  1  0.67457732  0.33274171  0.06504326  1
  O  O31  1  0.41749460  0.83837423  0.31752208  1
  O  O32  1  0.16724895  0.89920011  0.56595716  1
  O  O33  1  0.41629525  0.39933692  0.31681394  1
  O  O34  1  0.56160598  0.11527261  0.17581821  1
  O  O35  1  0.30642250  0.61840351  0.42640330  1
  O  O36  1  0.94157951  0.88227564  0.32450126  1
  O  O37  1  0.82953869  0.66389697  0.43390045  1
  O  O38  1  0.26986402  0.10359220  0.43358551  1
  O  O39  1  0.02001940  0.60304682  0.68316047  1
  O  O40  1  0.72998060  0.89695318  0.56683953  1
  O  O41  1  0.97892293  0.39911065  0.31712578  1
  O  O42  1  0.17007709  0.33671626  0.56681247  1
  O  O43  1  0.05710309  0.11779130  0.67598801  1
  O  O44  1  0.69289691  0.38220870  0.57401199  1
  O  O45  1  0.83239046  0.10086846  0.43441523  1
  O  O46  1  0.44357750  0.88159649  0.82359670  1
  O  O47  1  0.58275105  0.60079989  0.68404284  1
  O  O48  1  0.57992291  0.16328374  0.68318753  1
  O  O49  1  0.33250540  0.66162577  0.93247792  1
  O  O50  1  0.48013598  0.39640780  0.81641449  1
  O  O51  1  0.92046131  0.83610303  0.81609955  1
  O  O52  1  0.91760954  0.39913154  0.81558477  1
  O  O53  1  0.80842049  0.61772436  0.92549874  1
  O  O54  1  0.33370475  0.10066308  0.93318606  1
  O  O55  1  0.77107707  0.10088935  0.93287422  1
