# generated using pymatgen
data_Bi3P3O13
_symmetry_space_group_name_H-M   'P 1'
_cell_length_a   7.05798483
_cell_length_b   8.10812247
_cell_length_c   11.49472071
_cell_angle_alpha   95.42949342
_cell_angle_beta   90.00000000
_cell_angle_gamma   90.00000000
_symmetry_Int_Tables_number   1
_chemical_formula_structural   Bi3P3O13
_chemical_formula_sum   'Bi6 P6 O26'
_cell_volume   654.85711430
_cell_formula_units_Z   2
loop_
 _symmetry_equiv_pos_site_id
 _symmetry_equiv_pos_as_xyz
  1  'x, y, z'
loop_
 _atom_site_type_symbol
 _atom_site_label
 _atom_site_symmetry_multiplicity
 _atom_site_fract_x
 _atom_site_fract_y
 _atom_site_fract_z
 _atom_site_occupancy
  Bi  Bi0  1  0.25000000  0.35849651  0.21099784  1
  Bi  Bi1  1  0.75000000  0.64150349  0.78900216  1
  Bi  Bi2  1  0.25000000  0.78997834  0.45050831  1
  Bi  Bi3  1  0.50000000  -0.00000000  -0.00000000  1
  Bi  Bi4  1  0.75000000  0.21002166  0.54949169  1
  Bi  Bi5  1  -0.00000000  -0.00000000  -0.00000000  1
  P  P6  1  0.25000000  0.21973680  0.48882324  1
  P  P7  1  0.75000000  0.78026320  0.51117676  1
  P  P8  1  0.25000000  0.74970070  0.77106239  1
  P  P9  1  0.75000000  0.25029930  0.22893761  1
  P  P10  1  0.75000000  0.31560708  0.87864744  1
  P  P11  1  0.25000000  0.68439292  0.12135256  1
  O  O12  1  0.75000000  0.35298499  0.74474900  1
  O  O13  1  0.57240596  0.76296018  0.43394754  1
  O  O14  1  0.25000000  0.81517840  0.65106825  1
  O  O15  1  0.56696266  0.22223199  0.90473162  1
  O  O16  1  0.75000000  0.63368498  0.59338517  1
  O  O17  1  0.75000000  0.87005171  0.91121598  1
  O  O18  1  0.25000000  0.36631502  0.40661483  1
  O  O19  1  0.06696266  0.77776801  0.09526838  1
  O  O20  1  0.25000000  0.05273622  0.40754626  1
  O  O21  1  0.75000000  0.94726378  0.59245374  1
  O  O22  1  0.07363470  0.64495110  0.79494721  1
  O  O23  1  0.25000000  0.12994829  0.08878402  1
  O  O24  1  0.57363470  0.35504890  0.20505279  1
  O  O25  1  0.75000000  0.49508878  0.94162484  1
  O  O26  1  0.75000000  0.18482160  0.34893175  1
  O  O27  1  0.43303734  0.77776801  0.09526838  1
  O  O28  1  0.92759404  0.76296018  0.43394754  1
  O  O29  1  0.42759404  0.23703982  0.56605246  1
  O  O30  1  0.42636530  0.64495110  0.79494721  1
  O  O31  1  0.25000000  0.64701501  0.25525100  1
  O  O32  1  0.75000000  0.09331337  0.13087617  1
  O  O33  1  0.25000000  0.90668663  0.86912383  1
  O  O34  1  0.92636530  0.35504890  0.20505279  1
  O  O35  1  0.93303734  0.22223199  0.90473162  1
  O  O36  1  0.07240596  0.23703982  0.56605246  1
  O  O37  1  0.25000000  0.50491122  0.05837516  1
