# generated using pymatgen
data_Mn11Cu7O24
_symmetry_space_group_name_H-M   'P 1'
_cell_length_a   6.06400736
_cell_length_b   10.56528440
_cell_length_c   8.35604567
_cell_angle_alpha   113.16250709
_cell_angle_beta   89.80344650
_cell_angle_gamma   71.38472555
_symmetry_Int_Tables_number   1
_chemical_formula_structural   Mn11Cu7O24
_chemical_formula_sum   'Mn11 Cu7 O24'
_cell_volume   461.31119710
_cell_formula_units_Z   1
loop_
 _symmetry_equiv_pos_site_id
 _symmetry_equiv_pos_as_xyz
  1  'x, y, z'
loop_
 _atom_site_type_symbol
 _atom_site_label
 _atom_site_symmetry_multiplicity
 _atom_site_fract_x
 _atom_site_fract_y
 _atom_site_fract_z
 _atom_site_occupancy
  Mn  Mn0  1  0.24730706  0.49809061  0.12253106  1
  Mn  Mn1  1  0.07782662  0.83310636  0.29060656  1
  Mn  Mn2  1  0.58440044  0.33287848  0.29057899  1
  Mn  Mn3  1  0.74928212  0.49889282  0.62362919  1
  Mn  Mn4  1  0.91566342  0.16768894  0.45784121  1
  Mn  Mn5  1  0.58584644  0.83298866  0.79067593  1
  Mn  Mn6  1  0.74956587  0.00046241  0.62439723  1
  Mn  Mn7  1  0.25047638  -0.00012514  0.62331266  1
  Mn  Mn8  1  0.41465364  0.66591678  0.95686895  1
  Mn  Mn9  1  0.91491744  0.66674259  0.95758474  1
  Mn  Mn10  1  0.42257177  0.16683974  0.95728012  1
  Cu  Cu11  1  -0.00027398  0.00362216  0.00224765  1
  Cu  Cu12  1  0.66574551  0.66210808  0.33133979  1
  Cu  Cu13  1  0.08442982  0.33302633  0.29090110  1
  Cu  Cu14  1  0.49750897  0.00307375  0.24835451  1
  Cu  Cu15  1  0.16804408  0.66267365  0.57850819  1
  Cu  Cu16  1  0.32674797  0.33351971  0.66468293  1
  Cu  Cu17  1  0.84118874  0.33325496  0.91836262  1
  O  O18  1  0.59782014  0.82092328  0.02296565  1
  O  O19  1  0.08510969  0.81690129  0.04428304  1
  O  O20  1  0.93338873  0.65950227  0.19076730  1
  O  O21  1  0.38789498  0.66439339  0.19364071  1
  O  O22  1  0.11719850  0.33177104  0.04509835  1
  O  O23  1  0.56495179  0.33523769  0.05295684  1
  O  O24  1  0.42170813  0.18252659  0.20179283  1
  O  O25  1  0.06393408  0.84434683  0.53265298  1
  O  O26  1  0.26622171  0.48565798  0.35263403  1
  O  O27  1  0.90266445  0.18039933  0.22818394  1
  O  O28  1  0.74555014  0.48323629  0.37896781  1
  O  O29  1  0.57842940  0.85030530  0.55904168  1
  O  O30  1  0.60166286  0.32788835  0.52589978  1
  O  O31  1  0.05244857  0.33323493  0.53656265  1
  O  O32  1  0.22646319  0.00610343  0.38861311  1
  O  O33  1  0.43761514  0.66093638  0.71818861  1
  O  O34  1  0.77055226  0.00208934  0.38751677  1
  O  O35  1  0.89552868  0.67007693  0.72138847  1
  O  O36  1  0.92244101  0.14865930  0.68812383  1
  O  O37  1  0.74461064  0.51768621  0.87282856  1
  O  O38  1  0.43751625  0.15405830  0.71421343  1
  O  O39  1  0.23098247  0.51272815  0.89257594  1
  O  O40  1  0.73268794  0.00508787  0.86244546  1
  O  O41  1  0.27676493  0.99888066  0.86223779  1
