# generated using pymatgen
data_Mn(CoO3)2
_symmetry_space_group_name_H-M   'P 1'
_cell_length_a   4.95741545
_cell_length_b   4.95043115
_cell_length_c   9.62844064
_cell_angle_alpha   90.00000000
_cell_angle_beta   90.00000000
_cell_angle_gamma   60.04659429
_symmetry_Int_Tables_number   1
_chemical_formula_structural   Mn(CoO3)2
_chemical_formula_sum   'Mn2 Co4 O12'
_cell_volume   204.73337536
_cell_formula_units_Z   2
loop_
 _symmetry_equiv_pos_site_id
 _symmetry_equiv_pos_as_xyz
  1  'x, y, z'
loop_
 _atom_site_type_symbol
 _atom_site_label
 _atom_site_symmetry_multiplicity
 _atom_site_fract_x
 _atom_site_fract_y
 _atom_site_fract_z
 _atom_site_occupancy
  Mn  Mn0  1  0.00000000  0.00000000  0.00000000  1
  Mn  Mn1  1  0.00000000  0.50000000  0.50000000  1
  Co  Co2  1  0.33337304  0.33331298  0.00000000  1
  Co  Co3  1  0.33337304  0.83331298  0.50000000  1
  Co  Co4  1  0.66662696  0.16668702  0.50000000  1
  Co  Co5  1  0.66662696  0.66668702  0.00000000  1
  O  O6  1  0.00000000  0.16113380  0.59882659  1
  O  O7  1  1.00000000  0.33886620  0.09882659  1
  O  O8  1  0.00000000  0.66113380  0.90117341  1
  O  O9  1  0.33849639  -0.00002730  0.90120358  1
  O  O10  1  1.00000000  0.83886620  0.40117341  1
  O  O11  1  0.33849639  0.16153091  0.40120358  1
  O  O12  1  0.33849639  0.49997270  0.59879642  1
  O  O13  1  0.33849639  0.66153091  0.09879642  1
  O  O14  1  0.66150361  0.00002730  0.09879642  1
  O  O15  1  0.66150361  0.33846909  0.90120358  1
  O  O16  1  0.66150361  0.50002730  0.40120358  1
  O  O17  1  0.66150361  0.83846909  0.59879642  1
