# generated using pymatgen
data_Li6V3P8O29
_symmetry_space_group_name_H-M   'P 1'
_cell_length_a   9.78730832
_cell_length_b   9.79022653
_cell_length_c   13.97841691
_cell_angle_alpha   90.00736854
_cell_angle_beta   90.35553514
_cell_angle_gamma   59.99203567
_symmetry_Int_Tables_number   1
_chemical_formula_structural   Li6V3P8O29
_chemical_formula_sum   'Li12 V6 P16 O58'
_cell_volume   1159.84204455
_cell_formula_units_Z   2
loop_
 _symmetry_equiv_pos_site_id
 _symmetry_equiv_pos_as_xyz
  1  'x, y, z'
loop_
 _atom_site_type_symbol
 _atom_site_label
 _atom_site_symmetry_multiplicity
 _atom_site_fract_x
 _atom_site_fract_y
 _atom_site_fract_z
 _atom_site_occupancy
  Li  Li0  1  0.76356645  0.89801474  0.55633199  1
  Li  Li1  1  0.90235516  0.33164295  0.55784917  1
  Li  Li2  1  0.76394490  0.33549199  0.06171309  1
  Li  Li3  1  0.33668898  0.89901225  0.06270700  1
  Li  Li4  1  0.66330934  0.23568159  0.43732792  1
  Li  Li5  1  0.33541112  0.76268659  0.55954461  1
  Li  Li6  1  0.66464154  0.09809818  0.94043440  1
  Li  Li7  1  0.23642923  0.66159365  0.94367957  1
  Li  Li8  1  0.23606641  0.09939217  0.43830947  1
  Li  Li9  1  0.09765058  0.23398258  0.94217807  1
  Li  Li10  1  0.98859653  0.95766721  0.01540122  1
  Li  Li11  1  0.01152772  0.94627178  0.48468226  1
  V  V12  1  0.56411559  0.43730674  0.25149490  1
  V  V13  1  0.43140165  0.56774032  0.75013893  1
  V  V14  1  0.56860719  0.99910693  0.74984149  1
  V  V15  1  0.43585491  0.00155072  0.24858453  1
  V  V16  1  0.99995313  0.56616559  0.24997529  1
  V  V17  1  0.00003683  0.43839475  0.75000889  1
  P  P18  1  0.91847913  0.77663616  0.84405597  1
  P  P19  1  0.77835684  0.91305399  0.33950158  1
  P  P20  1  0.91494363  0.31099951  0.34246493  1
  P  P21  1  0.66818807  0.66377914  0.13125592  1
  P  P22  1  0.66447294  0.66773331  0.63055860  1
  P  P23  1  0.77322654  0.31490999  0.84156604  1
  P  P24  1  0.68435854  0.22881779  0.65689242  1
  P  P25  1  0.31566046  0.91318492  0.84311012  1
  P  P26  1  0.68705180  0.09072266  0.15578653  1
  P  P27  1  0.31294002  0.77776986  0.34421406  1
  P  P28  1  0.22165924  0.69139369  0.16047270  1
  P  P29  1  0.33174411  0.33208378  0.36872779  1
  P  P30  1  0.33554293  0.33221460  0.86943161  1
  P  P31  1  0.08149597  0.69512254  0.65593048  1
  P  P32  1  0.22675977  0.08809616  0.65844075  1
  P  P33  1  0.08501415  0.22593508  0.15753710  1
  O  O34  1  0.99235469  0.79647958  0.57184125  1
  O  O35  1  0.91783199  0.74694340  0.33859402  1
  O  O36  1  0.77599871  0.01428690  0.06576676  1
  O  O37  1  0.74638762  0.91808059  0.84165336  1
  O  O38  1  0.92070014  0.61921799  0.83301339  1
  O  O39  1  0.81133975  0.66879482  0.17840872  1
  O  O40  1  0.91295269  0.46669832  0.33257830  1
  O  O41  1  0.99856587  0.21969201  0.06874182  1
  O  O42  1  0.91912954  0.33769079  0.84133481  1
  O  O43  1  0.67855832  0.81115119  0.67019630  1
  O  O44  1  0.61992740  0.91625789  0.32795821  1
  O  O45  1  0.80842143  0.51296605  0.67238203  1
  O  O46  1  0.66825845  0.65562494  0.02484351  1
  O  O47  1  0.66198686  0.66815688  0.52358216  1
  O  O48  1  0.67771007  0.50942914  0.17397210  1
  O  O49  1  0.47313704  0.90802978  0.82851453  1
  O  O50  1  0.51329917  0.81011627  0.16951693  1
  O  O51  1  0.74540313  0.33494730  0.34196544  1
  O  O52  1  0.79541451  0.20605042  0.74907021  1
  O  O53  1  0.76916197  0.23057118  0.56740958  1
  O  O54  1  0.77207347  0.22811840  0.93052967  1
  O  O55  1  0.61925314  0.47232440  0.82721165  1
  O  O56  1  0.50913245  0.68064364  0.67175492  1
  O  O57  1  0.65784048  0.26203820  0.16001422  1
  O  O58  1  0.46710656  0.62068093  0.33348738  1
  O  O59  1  0.34212745  0.91988631  0.34007023  1
  O  O60  1  0.79650977  0.00417171  0.24790214  1
  O  O61  1  0.78173519  0.00038695  0.42910432  1
  O  O62  1  0.22785755  0.00014985  0.56946796  1
  O  O63  1  0.66383203  0.08153064  0.65768005  1
  O  O64  1  0.52686643  0.38113746  0.67147146  1
  O  O65  1  0.33616811  0.74537890  0.84232470  1
  O  O66  1  0.48674074  0.32331833  0.33051472  1
  O  O67  1  0.38013964  0.53632622  0.17194033  1
  O  O68  1  0.21812035  0.78224160  0.07090405  1
  O  O69  1  0.22409595  0.79010494  0.43423900  1
  O  O70  1  0.20350690  0.80062693  0.25210619  1
  O  O71  1  0.25361134  0.66443702  0.65833075  1
  O  O72  1  0.49085131  0.18976174  0.82824206  1
  O  O73  1  0.53296905  0.08764009  0.16639179  1
  O  O74  1  0.32146452  0.48969263  0.82979377  1
  O  O75  1  0.33795546  0.33018928  0.97640656  1
  O  O76  1  0.33172299  0.32397279  0.47513327  1
  O  O77  1  0.18866972  0.48014068  0.32157021  1
  O  O78  1  0.38071491  0.09156703  0.67277252  1
  O  O79  1  0.32231862  0.18707529  0.32604444  1
  O  O80  1  0.08218045  0.66471863  0.16138561  1
  O  O81  1  -0.00000350  0.79888608  0.75000108  1
  O  O82  1  0.00762904  0.78880223  0.92815911  1
  O  O83  1  0.07917616  0.53998657  0.66692551  1
  O  O84  1  0.19157032  0.32137020  0.82760458  1
  O  O85  1  0.08703578  0.37963161  0.16744247  1
  O  O86  1  0.25450510  0.08037360  0.15808623  1
  O  O87  1  0.23088845  0.99975594  0.93260034  1
  O  O88  1  0.20458354  0.00145692  0.75093954  1
  O  O89  1  0.08086083  0.25677489  0.65868878  1
  O  O90  1  0.00141399  0.21832199  0.43125927  1
  O  O91  1  0.99996392  0.20142202  0.25000631  1
