# generated using pymatgen
data_Mn6OF11
_symmetry_space_group_name_H-M   'P 1'
_cell_length_a   4.94266864
_cell_length_b   5.88019910
_cell_length_c   16.26292272
_cell_angle_alpha   90.00000000
_cell_angle_beta   89.70931873
_cell_angle_gamma   90.00000000
_symmetry_Int_Tables_number   1
_chemical_formula_structural   Mn6OF11
_chemical_formula_sum   'Mn12 O2 F22'
_cell_volume   472.65748133
_cell_formula_units_Z   2
loop_
 _symmetry_equiv_pos_site_id
 _symmetry_equiv_pos_as_xyz
  1  'x, y, z'
loop_
 _atom_site_type_symbol
 _atom_site_label
 _atom_site_symmetry_multiplicity
 _atom_site_fract_x
 _atom_site_fract_y
 _atom_site_fract_z
 _atom_site_occupancy
  Mn  Mn0  1  0.99688817  0.17033979  0.41382538  1
  Mn  Mn1  1  0.01192198  0.83526443  0.24459514  1
  Mn  Mn2  1  0.00000000  0.20806023  0.08333300  1
  Mn  Mn3  1  0.00311183  0.17033979  0.75284162  1
  Mn  Mn4  1  0.00000000  0.83066281  0.58333300  1
  Mn  Mn5  1  0.98807802  0.83526443  0.92207186  1
  Mn  Mn6  1  0.50000000  0.33000739  0.58333300  1
  Mn  Mn7  1  0.51414354  0.33900434  0.92449892  1
  Mn  Mn8  1  0.48585646  0.33900434  0.24216808  1
  Mn  Mn9  1  0.50000000  0.63333899  0.08333300  1
  Mn  Mn10  1  0.50228117  0.66752468  0.41459507  1
  Mn  Mn11  1  0.49771883  0.66752468  0.75207193  1
  O  O12  1  0.28137672  0.39999219  0.13702693  1
  O  O13  1  0.71862328  0.39999219  0.02964007  1
  F  F14  1  0.23607439  0.10697921  0.30377635  1
  F  F15  1  0.22950561  0.10469906  0.64185489  1
  F  F16  1  0.21759796  0.11416434  0.97405949  1
  F  F17  1  0.24823387  0.87886849  0.13198706  1
  F  F18  1  0.23166566  0.89587347  0.47294884  1
  F  F19  1  0.22088387  0.88984539  0.80929485  1
  F  F20  1  0.26558232  0.60528020  0.30657918  1
  F  F21  1  0.26712950  0.39456040  0.47336149  1
  F  F22  1  0.26925039  0.60361857  0.64212317  1
  F  F23  1  0.28566523  0.38315834  0.81343421  1
  F  F24  1  0.27018614  0.60979190  0.97008310  1
  F  F25  1  0.72981386  0.60979190  0.19658390  1
  F  F26  1  0.71433477  0.38315834  0.35323179  1
  F  F27  1  0.73074961  0.60361857  0.52454383  1
  F  F28  1  0.73441768  0.60528020  0.86008782  1
  F  F29  1  0.73287050  0.39456040  0.69330551  1
  F  F30  1  0.78240204  0.11416434  0.19260751  1
  F  F31  1  0.77049439  0.10469906  0.52481211  1
  F  F32  1  0.77911613  0.88984539  0.35737115  1
  F  F33  1  0.75176613  0.87886849  0.03467894  1
  F  F34  1  0.76392561  0.10697921  0.86289065  1
  F  F35  1  0.76833434  0.89587347  0.69371716  1
