# generated using pymatgen
data_V6O5F19
_symmetry_space_group_name_H-M   'P 1'
_cell_length_a   5.55645260
_cell_length_b   5.39191645
_cell_length_c   14.85956233
_cell_angle_alpha   89.48299932
_cell_angle_beta   100.64274025
_cell_angle_gamma   92.89731295
_symmetry_Int_Tables_number   1
_chemical_formula_structural   V6O5F19
_chemical_formula_sum   'V6 O5 F19'
_cell_volume   436.97386529
_cell_formula_units_Z   1
loop_
 _symmetry_equiv_pos_site_id
 _symmetry_equiv_pos_as_xyz
  1  'x, y, z'
loop_
 _atom_site_type_symbol
 _atom_site_label
 _atom_site_symmetry_multiplicity
 _atom_site_fract_x
 _atom_site_fract_y
 _atom_site_fract_z
 _atom_site_occupancy
  V  V0  1  0.04652257  0.96502000  0.00378247  1
  V  V1  1  0.13979714  0.56218926  0.33925584  1
  V  V2  1  0.27525078  0.03761355  0.66255014  1
  V  V3  1  0.53503594  0.45727746  0.99642864  1
  V  V4  1  0.67983284  0.05419496  0.32753559  1
  V  V5  1  0.81822100  0.51179056  0.66806056  1
  O  O6  1  0.03429369  0.20508042  0.64233573  1
  O  O7  1  0.69991552  0.23204147  0.97931965  1
  O  O8  1  0.27959760  0.79481068  0.02104535  1
  O  O9  1  0.87587888  0.28566570  0.31257588  1
  O  O10  1  0.96248923  0.78401985  0.35694427  1
  F  F11  1  0.21294417  0.27360524  0.97276390  1
  F  F12  1  0.13028494  0.72277945  0.69120407  1
  F  F13  1  0.04312634  0.09038914  0.11363697  1
  F  F14  1  0.21565940  0.40257488  0.44517661  1
  F  F15  1  0.39217306  0.07404723  0.78041044  1
  F  F16  1  0.11592678  0.55840554  0.21892703  1
  F  F17  1  0.30456261  0.91072944  0.55606564  1
  F  F18  1  0.45257446  0.59288518  0.88654930  1
  F  F19  1  0.39430261  0.20366535  0.30697963  1
  F  F20  1  0.51481397  0.29843072  0.64263782  1
  F  F21  1  0.44704579  0.71342483  0.35571714  1
  F  F22  1  0.65622364  0.78239666  0.69223732  1
  F  F23  1  0.52148814  0.43386189  0.11459051  1
  F  F24  1  0.71300133  0.04997240  0.44813382  1
  F  F25  1  0.88928113  0.39940700  0.78156061  1
  F  F26  1  0.62735983  0.89977660  0.22051179  1
  F  F27  1  0.80342648  0.56340677  0.54943540  1
  F  F28  1  0.92302973  0.92616239  0.88574901  1
  F  F29  1  0.79594141  0.71437641  0.02787884  1
