# generated using pymatgen
data_Ti(Sn2O5)2
_symmetry_space_group_name_H-M   'P 1'
_cell_length_a   4.79742174
_cell_length_b   13.55407606
_cell_length_c   5.76088212
_cell_angle_alpha   101.33793483
_cell_angle_beta   90.06671938
_cell_angle_gamma   89.95622431
_symmetry_Int_Tables_number   1
_chemical_formula_structural   Ti(Sn2O5)2
_chemical_formula_sum   'Ti2 Sn8 O20'
_cell_volume   367.28845095
_cell_formula_units_Z   2
loop_
 _symmetry_equiv_pos_site_id
 _symmetry_equiv_pos_as_xyz
  1  'x, y, z'
loop_
 _atom_site_type_symbol
 _atom_site_label
 _atom_site_symmetry_multiplicity
 _atom_site_fract_x
 _atom_site_fract_y
 _atom_site_fract_z
 _atom_site_occupancy
  Ti  Ti0  1  0.99952327  0.39846032  0.79872951  1
  Ti  Ti1  1  0.00047673  0.00153968  0.00127049  1
  Sn  Sn2  1  0.49975960  0.39946091  0.29919361  1
  Sn  Sn3  1  0.50024040  0.00053909  0.50080639  1
  Sn  Sn4  1  0.50000000  0.20000000  0.90000000  1
  Sn  Sn5  1  0.50169421  0.59732805  0.70075778  1
  Sn  Sn6  1  0.49830579  0.80267195  0.09924222  1
  Sn  Sn7  1  0.00036316  0.80160703  0.60345338  1
  Sn  Sn8  1  0.00000000  0.20000000  0.40000000  1
  Sn  Sn9  1  0.99963684  0.59839297  0.19654662  1
  O  O10  1  0.81049044  0.26639443  0.72335359  1
  O  O11  1  0.81005558  0.86827745  0.92490421  1
  O  O12  1  0.81008459  0.05781161  0.30393034  1
  O  O13  1  0.80973406  0.45617914  0.10134939  1
  O  O14  1  0.80700653  0.66060796  0.51704463  1
  O  O15  1  0.70546083  0.06164895  0.81697541  1
  O  O16  1  0.70607424  0.45876244  0.61625595  1
  O  O17  1  0.68991161  0.86108761  0.42129720  1
  O  O18  1  0.69383651  0.66155988  0.01672435  1
  O  O19  1  0.68965031  0.25932087  0.22127387  1
  O  O20  1  0.29453917  0.33835105  0.98302459  1
  O  O21  1  0.30616349  0.73844012  0.78327565  1
  O  O22  1  0.31034969  0.14067913  0.57872613  1
  O  O23  1  0.29392576  0.94123756  0.18374405  1
  O  O24  1  0.31008939  0.53891239  0.37870280  1
  O  O25  1  0.18950956  0.13360557  0.07664641  1
  O  O26  1  0.19026594  0.94382086  0.69865061  1
  O  O27  1  0.18994442  0.53172255  0.87509579  1
  O  O28  1  0.18991541  0.34218839  0.49606966  1
  O  O29  1  0.19299347  0.73939204  0.28295537  1
