# generated using pymatgen
data_V2P2O7
_symmetry_space_group_name_H-M   'P 1'
_cell_length_a   5.43438456
_cell_length_b   10.42047912
_cell_length_c   4.53984286
_cell_angle_alpha   90.00000000
_cell_angle_beta   96.52947307
_cell_angle_gamma   90.00000000
_symmetry_Int_Tables_number   1
_chemical_formula_structural   V2P2O7
_chemical_formula_sum   'V4 P4 O14'
_cell_volume   255.41867399
_cell_formula_units_Z   2
loop_
 _symmetry_equiv_pos_site_id
 _symmetry_equiv_pos_as_xyz
  1  'x, y, z'
loop_
 _atom_site_type_symbol
 _atom_site_label
 _atom_site_symmetry_multiplicity
 _atom_site_fract_x
 _atom_site_fract_y
 _atom_site_fract_z
 _atom_site_occupancy
  V  V0  1  0.08280658  0.15642440  0.40558492  1
  V  V1  1  0.41719342  0.65642440  0.59441508  1
  V  V2  1  0.58280658  0.34357560  0.40558492  1
  V  V3  1  0.91719342  0.84357560  0.59441508  1
  P  P4  1  0.15139349  0.39009697  0.85950245  1
  P  P5  1  0.34860651  0.89009697  0.14049755  1
  P  P6  1  0.65139349  0.10990303  0.85950245  1
  P  P7  1  0.84860651  0.60990303  0.14049755  1
  O  O8  1  0.03581030  0.67467323  0.37325772  1
  O  O9  1  0.00000000  0.50000000  0.00000000  1
  O  O10  1  0.13714290  0.95514068  0.28439200  1
  O  O11  1  0.25020757  0.80055836  0.88532115  1
  O  O12  1  0.24979243  0.30055836  0.11467885  1
  O  O13  1  0.36285710  0.45514068  0.71560800  1
  O  O14  1  0.46418970  0.17467323  0.62674228  1
  O  O15  1  0.53581030  0.82532677  0.37325772  1
  O  O16  1  0.50000000  0.00000000  0.00000000  1
  O  O17  1  0.63714290  0.54485932  0.28439200  1
  O  O18  1  0.75020757  0.69944164  0.88532115  1
  O  O19  1  0.74979243  0.19944164  0.11467885  1
  O  O20  1  0.86285710  0.04485932  0.71560800  1
  O  O21  1  0.96418970  0.32532677  0.62674228  1
