# generated using pymatgen
data_Li7Ti12NbO30
_symmetry_space_group_name_H-M   'P 1'
_cell_length_a   5.14075304
_cell_length_b   23.75401753
_cell_length_c   5.14083823
_cell_angle_alpha   96.21771085
_cell_angle_beta   60.00105625
_cell_angle_gamma   96.21453415
_symmetry_Int_Tables_number   1
_chemical_formula_structural   Li7Ti12NbO30
_chemical_formula_sum   'Li7 Ti12 Nb1 O30'
_cell_volume   539.40082359
_cell_formula_units_Z   1
loop_
 _symmetry_equiv_pos_site_id
 _symmetry_equiv_pos_as_xyz
  1  'x, y, z'
loop_
 _atom_site_type_symbol
 _atom_site_label
 _atom_site_symmetry_multiplicity
 _atom_site_fract_x
 _atom_site_fract_y
 _atom_site_fract_z
 _atom_site_occupancy
  Li  Li0  1  0.02588541  0.07781542  0.02591335  1
  Li  Li1  1  0.24579967  0.73739390  0.24573910  1
  Li  Li2  1  0.60844233  0.82552851  0.60846841  1
  Li  Li3  1  0.39102266  0.17298612  0.39090515  1
  Li  Li4  1  0.52629078  0.57905445  0.52636716  1
  Li  Li5  1  0.97389251  0.92180422  0.97392094  1
  Li  Li6  1  0.89017192  0.67062322  0.89028706  1
  Ti  Ti7  1  0.10508720  0.31507145  0.10517347  1
  Ti  Ti8  1  0.16207782  0.48645157  0.16232568  1
  Ti  Ti9  1  0.20390380  0.61180182  0.20393666  1
  Ti  Ti10  1  0.06520369  0.19544457  0.06506332  1
  Ti  Ti11  1  0.29601963  0.88832870  0.29612390  1
  Ti  Ti12  1  0.66233771  0.98678304  0.66218550  1
  Ti  Ti13  1  0.33835547  0.01489845  0.33817421  1
  Ti  Ti14  1  0.43258698  0.29763530  0.43269355  1
  Ti  Ti15  1  0.56631274  0.69894569  0.56636478  1
  Ti  Ti16  1  0.70451945  0.11346286  0.70438363  1
  Ti  Ti17  1  0.79787027  0.39345948  0.79800416  1
  Ti  Ti18  1  0.83809600  0.51445179  0.83822893  1
  Nb  Nb19  1  0.93226890  0.79656921  0.93209363  1
  O  O20  1  0.00614351  0.95288285  0.35083794  1
  O  O21  1  0.01592217  0.15037596  0.37477806  1
  O  O22  1  0.59585998  0.95288964  0.00597428  1
  O  O23  1  0.14909993  0.54931852  0.49537712  1
  O  O24  1  0.35099975  0.95290241  0.59575851  1
  O  O25  1  0.25488744  0.74993239  0.62511548  1
  O  O26  1  0.11211912  0.34897687  0.45738263  1
  O  O27  1  0.06799644  0.45062047  0.87610685  1
  O  O28  1  0.24428388  0.85132235  0.98516795  1
  O  O29  1  0.32768513  0.25465138  0.16389962  1
  O  O30  1  0.50792077  0.65133974  0.26355058  1
  O  O31  1  0.62166964  0.85131191  0.24416985  1
  O  O32  1  0.50651380  0.45059689  0.06803083  1
  O  O33  1  0.26342956  0.65137937  0.88000548  1
  O  O34  1  0.16368626  0.25465854  0.76334270  1
  O  O35  1  0.86976912  0.74988495  0.25459574  1
  O  O36  1  0.77976038  0.34895317  0.11203837  1
  O  O37  1  0.49525660  0.54931717  0.90486652  1
  O  O38  1  0.37489163  0.15038857  0.75952953  1
  O  O39  1  0.45723290  0.34895733  0.77979937  1
  O  O40  1  0.62523415  0.74993289  0.86970739  1
  O  O41  1  0.75971973  0.15035846  0.01584303  1
  O  O42  1  0.90469477  0.54930220  0.14937778  1
  O  O43  1  0.87995998  0.65138953  0.50798823  1
  O  O44  1  0.76319523  0.25465995  0.32787269  1
  O  O45  1  0.64829048  0.04986599  0.40670513  1
  O  O46  1  0.87606311  0.45059434  0.50657053  1
  O  O47  1  0.40680489  0.04988145  0.99479159  1
  O  O48  1  0.98520082  0.85132112  0.62164991  1
  O  O49  1  0.99487689  0.04985385  0.64822369  1
