# generated using pymatgen
data_Li15Ti11Nb5O42
_symmetry_space_group_name_H-M   'P 1'
_cell_length_a   5.13792983
_cell_length_b   5.13793073
_cell_length_c   33.16918408
_cell_angle_alpha   89.99998925
_cell_angle_beta   89.99989410
_cell_angle_gamma   120.00003749
_symmetry_Int_Tables_number   1
_chemical_formula_structural   Li15Ti11Nb5O42
_chemical_formula_sum   'Li15 Ti11 Nb5 O42'
_cell_volume   758.30107166
_cell_formula_units_Z   1
loop_
 _symmetry_equiv_pos_site_id
 _symmetry_equiv_pos_as_xyz
  1  'x, y, z'
loop_
 _atom_site_type_symbol
 _atom_site_label
 _atom_site_symmetry_multiplicity
 _atom_site_fract_x
 _atom_site_fract_y
 _atom_site_fract_z
 _atom_site_occupancy
  Li  Li0  1  0.33332658  0.66668075  0.19900582  1
  Li  Li1  1  0.99999403  0.99999708  0.05378397  1
  Li  Li2  1  0.00000625  0.00000168  0.26085076  1
  Li  Li3  1  0.99999951  0.00000042  0.44612688  1
  Li  Li4  1  0.99999874  0.99999561  0.55348768  1
  Li  Li5  1  0.00000073  0.00000306  0.71954387  1
  Li  Li6  1  0.00000017  0.99999906  0.78045460  1
  Li  Li7  1  0.99999485  0.99999640  0.94645745  1
  Li  Li8  1  0.33335533  0.66667494  0.87128587  1
  Li  Li9  1  0.33335757  0.66668047  0.37239147  1
  Li  Li10  1  0.33335453  0.66667497  0.69856547  1
  Li  Li11  1  0.66664046  0.33331810  0.30306054  1
  Li  Li12  1  0.66664243  0.33331896  0.80141698  1
  Li  Li13  1  0.66663820  0.33331669  0.62868172  1
  Li  Li14  1  0.66667248  0.33331500  0.12689738  1
  Ti  Ti15  1  0.33333353  0.66666339  0.08065428  1
  Ti  Ti16  1  0.33333017  0.66666459  0.98993592  1
  Ti  Ti17  1  0.33333585  0.66666659  0.48986989  1
  Ti  Ti18  1  0.33332369  0.66665952  0.58034880  1
  Ti  Ti19  1  0.33333945  0.66665701  0.28608021  1
  Ti  Ti20  1  0.33332140  0.66665279  0.78313583  1
  Ti  Ti21  1  0.66665895  0.33332829  0.71693827  1
  Ti  Ti22  1  0.66666423  0.33332665  0.51007976  1
  Ti  Ti23  1  0.66667102  0.33333472  0.41925579  1
  Ti  Ti24  1  0.66666426  0.33333320  0.01015292  1
  Ti  Ti25  1  0.66666688  0.33332830  0.91973665  1
  Nb  Nb26  1  0.00000576  0.99999063  0.14554602  1
  Nb  Nb27  1  0.00000948  0.00000480  0.35420614  1
  Nb  Nb28  1  0.99999191  0.99999227  0.64393214  1
  Nb  Nb29  1  0.99999541  0.99999507  0.85607808  1
  Nb  Nb30  1  0.66668795  0.33334605  0.21661756  1
  O  O31  1  0.00432147  0.62476503  0.25039646  1
  O  O32  1  0.03641394  0.70705991  0.10734933  1
  O  O33  1  0.04881053  0.71443807  0.81999890  1
  O  O34  1  0.02174508  0.63268550  0.53443671  1
  O  O35  1  0.99989581  0.36251677  0.74998852  1
  O  O36  1  0.29621901  0.96538284  0.60710347  1
  O  O37  1  0.29301027  0.95483117  0.32017460  1
  O  O38  1  0.02178681  0.38917838  0.03448979  1
  O  O39  1  0.03461192  0.33084023  0.60710480  1
  O  O40  1  0.04515768  0.33816912  0.32017358  1
  O  O41  1  0.36738883  0.97821072  0.03449045  1
  O  O42  1  0.61094668  0.97825429  0.53443660  1
  O  O43  1  0.28556573  0.33437736  0.81999898  1
  O  O44  1  0.29292715  0.32935142  0.10734802  1
  O  O45  1  0.36731262  0.38904970  0.53443691  1
  O  O46  1  0.66561673  0.95118899  0.82000034  1
  O  O47  1  0.67063683  0.96356992  0.10734750  1
  O  O48  1  0.37525303  0.37955895  0.25039864  1
  O  O49  1  0.32986154  0.29314115  0.39224009  1
  O  O50  1  0.33429237  0.28560419  0.68000069  1
  O  O51  1  0.38899069  0.36714925  0.96554199  1
  O  O52  1  0.61081929  0.63260473  0.03449102  1
  O  O53  1  0.66181745  0.70698452  0.32017580  1
  O  O54  1  0.66915787  0.70377180  0.60710314  1
  O  O55  1  0.63748600  0.63738144  0.74998900  1
  O  O56  1  0.33080263  0.03468122  0.89292224  1
  O  O57  1  0.33923431  0.03884334  0.17847375  1
  O  O58  1  0.63260624  0.61075335  0.46541966  1
  O  O59  1  0.70387768  0.66920195  0.89292351  1
  O  O60  1  0.36263339  0.00011968  0.74999014  1
  O  O61  1  0.69959402  0.66076570  0.17847495  1
  O  O62  1  0.38924936  0.02185234  0.46541983  1
  O  O63  1  0.63284604  0.02184170  0.96554131  1
  O  O64  1  0.95131686  0.66571202  0.68000314  1
  O  O65  1  0.62045295  0.99569612  0.25039798  1
  O  O66  1  0.96327719  0.67013325  0.39223974  1
  O  O67  1  0.97815821  0.61100415  0.96554107  1
  O  O68  1  0.71438962  0.04868936  0.68000199  1
  O  O69  1  0.70685800  0.03672510  0.39224030  1
  O  O70  1  0.97814876  0.36739775  0.46542012  1
  O  O71  1  0.96116481  0.30041051  0.17847444  1
  O  O72  1  0.96532481  0.29612792  0.89292180  1
