# generated using pymatgen
data_BaMgSnF7
_symmetry_space_group_name_H-M   'P 1'
_cell_length_a   5.80196423
_cell_length_b   9.96785136
_cell_length_c   10.37032397
_cell_angle_alpha   90.00000000
_cell_angle_beta   90.00000000
_cell_angle_gamma   92.66311866
_symmetry_Int_Tables_number   1
_chemical_formula_structural   BaMgSnF7
_chemical_formula_sum   'Ba4 Mg4 Sn4 F28'
_cell_volume   599.10042661
_cell_formula_units_Z   4
loop_
 _symmetry_equiv_pos_site_id
 _symmetry_equiv_pos_as_xyz
  1  'x, y, z'
loop_
 _atom_site_type_symbol
 _atom_site_label
 _atom_site_symmetry_multiplicity
 _atom_site_fract_x
 _atom_site_fract_y
 _atom_site_fract_z
 _atom_site_occupancy
  Ba  Ba0  1  0.27126614  0.49530762  0.32621098  1
  Ba  Ba1  1  0.72873386  0.00469238  0.82621098  1
  Ba  Ba2  1  0.72873386  0.50469238  0.67378902  1
  Ba  Ba3  1  0.27126614  0.99530762  0.17378902  1
  Mg  Mg4  1  0.69426158  0.80688809  0.38899912  1
  Mg  Mg5  1  0.30573842  0.69311191  0.88899912  1
  Mg  Mg6  1  0.69426158  0.30688809  0.11100088  1
  Mg  Mg7  1  0.30573842  0.19311191  0.61100088  1
  Sn  Sn8  1  0.19844871  0.81745489  0.60017992  1
  Sn  Sn9  1  0.80155129  0.18254511  0.39982008  1
  Sn  Sn10  1  0.19844871  0.31745489  0.89982008  1
  Sn  Sn11  1  0.80155129  0.68254511  0.10017992  1
  F  F12  1  0.14388809  0.12532349  0.45098649  1
  F  F13  1  0.38403449  0.38301019  0.07288670  1
  F  F14  1  0.48469139  0.75353825  0.72239837  1
  F  F15  1  0.51530861  0.24646175  0.27760163  1
  F  F16  1  0.90500423  0.37918491  0.45986943  1
  F  F17  1  0.24190636  0.51139934  0.79901200  1
  F  F18  1  0.02793157  0.75518808  0.78547514  1
  F  F19  1  0.09499577  0.12081509  0.95986943  1
  F  F20  1  0.38403449  0.88301019  0.42711330  1
  F  F21  1  0.51530861  0.74646175  0.22239837  1
  F  F22  1  0.14388809  0.62532349  0.04901351  1
  F  F23  1  0.85611191  0.87467651  0.54901351  1
  F  F24  1  0.97206843  0.74481192  0.28547514  1
  F  F25  1  0.40726412  0.86544158  0.96380474  1
  F  F26  1  0.09499577  0.62081509  0.54013057  1
  F  F27  1  0.90500423  0.87918491  0.04013057  1
  F  F28  1  0.97206843  0.24481192  0.21452486  1
  F  F29  1  0.85611191  0.37467651  0.95098649  1
  F  F30  1  0.59273588  0.63455842  0.46380474  1
  F  F31  1  0.61596551  0.61698981  0.92711330  1
  F  F32  1  0.59273588  0.13455842  0.03619526  1
  F  F33  1  0.02793157  0.25518808  0.71452486  1
  F  F34  1  0.40726412  0.36544158  0.53619526  1
  F  F35  1  0.75809364  0.98860066  0.29901200  1
  F  F36  1  0.75809364  0.48860066  0.20098800  1
  F  F37  1  0.24190636  0.01139934  0.70098800  1
  F  F38  1  0.61596551  0.11698981  0.57288670  1
  F  F39  1  0.48469139  0.25353825  0.77760163  1
