# generated using pymatgen
data_P4WO12
_symmetry_space_group_name_H-M   'P 1'
_cell_length_a   7.64300710
_cell_length_b   7.64564693
_cell_length_c   10.08010461
_cell_angle_alpha   85.07649686
_cell_angle_beta   68.27868902
_cell_angle_gamma   113.46679194
_symmetry_Int_Tables_number   1
_chemical_formula_structural   P4WO12
_chemical_formula_sum   'P8 W2 O24'
_cell_volume   482.79262576
_cell_formula_units_Z   2
loop_
 _symmetry_equiv_pos_site_id
 _symmetry_equiv_pos_as_xyz
  1  'x, y, z'
loop_
 _atom_site_type_symbol
 _atom_site_label
 _atom_site_symmetry_multiplicity
 _atom_site_fract_x
 _atom_site_fract_y
 _atom_site_fract_z
 _atom_site_occupancy
  P  P0  1  0.28345367  0.26198274  0.96850271  1
  P  P1  1  0.73049893  0.25197986  0.53116123  1
  P  P2  1  0.99511803  0.65656035  0.31478741  1
  P  P3  1  0.26949503  0.74801918  0.46884013  1
  P  P4  1  0.71655564  0.73801786  0.03149424  1
  P  P5  1  0.47148265  0.30982768  0.18520055  1
  P  P6  1  0.52852287  0.69017334  0.81479633  1
  P  P7  1  0.00487507  0.34343642  0.68521606  1
  W  W8  1  0.99999943  0.00000203  0.49999861  1
  W  W9  1  0.00000135  0.49999813  0.00000080  1
  O  O10  1  0.49332338  0.46861950  0.84809860  1
  O  O11  1  0.95188263  0.35032105  0.84403856  1
  O  O12  1  0.04811270  0.64967060  0.15596524  1
  O  O13  1  0.12188777  0.33052296  0.06024541  1
  O  O14  1  0.10935828  0.81808980  0.56040193  1
  O  O15  1  0.18307414  0.65824383  0.34850352  1
  O  O16  1  0.04358543  0.17032371  0.64969011  1
  O  O17  1  0.21134279  0.54360338  0.57781992  1
  O  O18  1  0.37929906  0.21126965  0.07729601  1
  O  O19  1  0.49741558  0.87617060  0.39693264  1
  O  O20  1  0.50668505  0.53138310  0.15189583  1
  O  O21  1  0.30552191  0.20365914  0.34384374  1
  O  O22  1  0.31984684  0.69328693  0.85012616  1
  O  O23  1  0.77310114  0.89404333  0.10337315  1
  O  O24  1  0.22690216  0.10595869  0.89662566  1
  O  O25  1  0.89063666  0.18191294  0.43959813  1
  O  O26  1  0.69447725  0.79634443  0.65615237  1
  O  O27  1  0.87812337  0.66948094  0.93975301  1
  O  O28  1  0.50257507  0.12382482  0.60306673  1
  O  O29  1  0.62071356  0.78873240  0.92269631  1
  O  O30  1  0.78864571  0.45639806  0.42218957  1
  O  O31  1  0.95641332  0.82967832  0.35030759  1
  O  O32  1  0.81691530  0.34174944  0.65150241  1
  O  O33  1  0.68015724  0.30671179  0.14987431  1
