# generated using pymatgen
data_Na2DyPCO7
_symmetry_space_group_name_H-M   'P 1'
_cell_length_a   9.27597110
_cell_length_b   7.01046720
_cell_length_c   5.22862402
_cell_angle_alpha   90.00000000
_cell_angle_beta   90.87174942
_cell_angle_gamma   90.00000000
_symmetry_Int_Tables_number   1
_chemical_formula_structural   Na2DyPCO7
_chemical_formula_sum   'Na4 Dy2 P2 C2 O14'
_cell_volume   339.97226787
_cell_formula_units_Z   2
loop_
 _symmetry_equiv_pos_site_id
 _symmetry_equiv_pos_as_xyz
  1  'x, y, z'
loop_
 _atom_site_type_symbol
 _atom_site_label
 _atom_site_symmetry_multiplicity
 _atom_site_fract_x
 _atom_site_fract_y
 _atom_site_fract_z
 _atom_site_occupancy
  Na  Na0  1  0.20975109  0.49848517  0.23201715  1
  Na  Na1  1  0.20975109  0.00151483  0.23201715  1
  Na  Na2  1  0.79024891  0.50151483  0.76798285  1
  Na  Na3  1  0.79024891  0.99848517  0.76798285  1
  Dy  Dy4  1  0.36948856  0.75000000  0.77616776  1
  Dy  Dy5  1  0.63051144  0.25000000  0.22383224  1
  P  P6  1  0.41753365  0.25000000  0.70573257  1
  P  P7  1  0.58246635  0.75000000  0.29426743  1
  C  C8  1  0.07214497  0.75000000  0.73155870  1
  C  C9  1  0.92785503  0.25000000  0.26844130  1
  O  O10  1  0.06242535  0.25000000  0.30005614  1
  O  O11  1  0.13634116  0.75000000  0.95822718  1
  O  O12  1  0.16266450  0.75000000  0.53641104  1
  O  O13  1  0.34661577  0.06857071  0.81522027  1
  O  O14  1  0.34661577  0.43142929  0.81522027  1
  O  O15  1  0.41683761  0.75000000  0.21960161  1
  O  O16  1  0.40829992  0.25000000  0.40711203  1
  O  O17  1  0.59170008  0.75000000  0.59288797  1
  O  O18  1  0.58316239  0.25000000  0.78039839  1
  O  O19  1  0.65338423  0.56857071  0.18477973  1
  O  O20  1  0.65338423  0.93142929  0.18477973  1
  O  O21  1  0.83733550  0.25000000  0.46358896  1
  O  O22  1  0.86365884  0.25000000  0.04177282  1
  O  O23  1  0.93757465  0.75000000  0.69994386  1
