# generated using pymatgen
data_Ca5Mn4O9
_symmetry_space_group_name_H-M   'P 1'
_cell_length_a   3.32966895
_cell_length_b   8.79483994
_cell_length_c   8.72088390
_cell_angle_alpha   68.85421876
_cell_angle_beta   100.96723670
_cell_angle_gamma   101.00418707
_symmetry_Int_Tables_number   1
_chemical_formula_structural   Ca5Mn4O9
_chemical_formula_sum   'Ca5 Mn4 O9'
_cell_volume   231.74181257
_cell_formula_units_Z   1
loop_
 _symmetry_equiv_pos_site_id
 _symmetry_equiv_pos_as_xyz
  1  'x, y, z'
loop_
 _atom_site_type_symbol
 _atom_site_label
 _atom_site_symmetry_multiplicity
 _atom_site_fract_x
 _atom_site_fract_y
 _atom_site_fract_z
 _atom_site_occupancy
  Ca  Ca0  1  0.67358701  0.66896206  0.67614182  1
  Ca  Ca1  1  0.00459296  0.32538276  0.67633469  1
  Ca  Ca2  1  0.00362655  0.66901356  0.32759563  1
  Ca  Ca3  1  0.33737345  0.33466213  0.32824582  1
  Ca  Ca4  1  0.66856636  0.00260829  0.32804093  1
  Mn  Mn5  1  0.33201388  0.99930899  0.66895517  1
  Mn  Mn6  1  0.33386430  0.66969160  0.99981158  1
  Mn  Mn7  1  0.66839509  0.33410049  0.00105634  1
  Mn  Mn8  1  0.99143265  0.99908924  0.99527781  1
  O  O9  1  0.83191451  0.83921579  0.83752086  1
  O  O10  1  0.17149986  0.49620877  0.84786367  1
  O  O11  1  0.17333539  0.83782008  0.50362079  1
  O  O12  1  0.49975291  0.15583985  0.84172439  1
  O  O13  1  0.50543894  0.49958016  0.50053319  1
  O  O14  1  0.50048931  0.83519188  0.15554898  1
  O  O15  1  0.83913822  0.16071267  0.50557431  1
  O  O16  1  0.83641485  0.50479686  0.15545339  1
  O  O17  1  0.16749777  0.17208381  0.15447863  1
