# generated using pymatgen
data_Li3Mn4(PO4)6
_symmetry_space_group_name_H-M   'P 1'
_cell_length_a   8.25768402
_cell_length_b   8.52593659
_cell_length_c   12.04415110
_cell_angle_alpha   89.76252834
_cell_angle_beta   89.43877259
_cell_angle_gamma   90.04070632
_symmetry_Int_Tables_number   1
_chemical_formula_structural   Li3Mn4(PO4)6
_chemical_formula_sum   'Li6 Mn8 P12 O48'
_cell_volume   847.91411911
_cell_formula_units_Z   2
loop_
 _symmetry_equiv_pos_site_id
 _symmetry_equiv_pos_as_xyz
  1  'x, y, z'
loop_
 _atom_site_type_symbol
 _atom_site_label
 _atom_site_symmetry_multiplicity
 _atom_site_fract_x
 _atom_site_fract_y
 _atom_site_fract_z
 _atom_site_occupancy
  Li  Li0  1  0.07320089  0.09055343  0.30163639  1
  Li  Li1  1  0.19536821  0.79873905  0.82916520  1
  Li  Li2  1  0.42317174  0.60757545  0.19494416  1
  Li  Li3  1  0.57718736  0.39994801  0.80389926  1
  Li  Li4  1  0.92282453  0.50622966  0.33680781  1
  Li  Li5  1  0.91667177  0.90174952  0.69193655  1
  Mn  Mn6  1  0.25478960  0.03085138  0.10720428  1
  Mn  Mn7  1  0.25500888  0.52908770  0.39695201  1
  Mn  Mn8  1  0.25626234  0.97064637  0.61183615  1
  Mn  Mn9  1  0.24519761  0.46416186  0.88590887  1
  Mn  Mn10  1  0.75262439  0.53082064  0.11204536  1
  Mn  Mn11  1  0.74280500  0.02989763  0.38466599  1
  Mn  Mn12  1  0.75489585  0.46663381  0.60710290  1
  Mn  Mn13  1  0.74827259  0.97344325  0.89392971  1
  P  P14  1  0.03811914  0.24617477  0.50618351  1
  P  P15  1  0.11342626  0.38522336  0.14685015  1
  P  P16  1  0.11148607  0.11332444  0.85077090  1
  P  P17  1  0.38980684  0.88284746  0.36199203  1
  P  P18  1  0.38535616  0.61169817  0.64571826  1
  P  P19  1  0.46654172  0.75069169  0.99250590  1
  P  P20  1  0.53980465  0.25094309  0.00725700  1
  P  P21  1  0.61283401  0.38466311  0.34910232  1
  P  P22  1  0.60984387  0.11355931  0.64617699  1
  P  P23  1  0.88332269  0.88514998  0.14463000  1
  P  P24  1  0.88861235  0.61819150  0.86153939  1
  P  P25  1  0.96227020  0.75251804  0.49432522  1
  O  O26  1  0.06224857  0.88763096  0.10949373  1
  O  O27  1  0.05902519  0.87775741  0.55823409  1
  O  O28  1  0.06084368  0.67079530  0.39998816  1
  O  O29  1  0.06884527  0.58487483  0.82613213  1
  O  O30  1  0.12448338  0.20611219  0.16731349  1
  O  O31  1  0.14116152  0.41813725  0.02322817  1
  O  O32  1  0.09603543  0.36508584  0.41444814  1
  O  O33  1  0.11958292  0.00534699  0.74417263  1
  O  O34  1  0.16170541  0.28138716  0.81620308  1
  O  O35  1  0.19264260  0.16878603  0.55172261  1
  O  O36  1  0.22852982  0.48213816  0.22176708  1
  O  O37  1  0.26626227  0.97200799  0.29458092  1
  O  O38  1  0.22390277  0.03845004  0.93435488  1
  O  O39  1  0.26895598  0.55443868  0.55351163  1
  O  O40  1  0.31731164  0.67274900  0.93673119  1
  O  O41  1  0.32192233  0.77441633  0.68667993  1
  O  O42  1  0.40244983  0.85588604  0.08623184  1
  O  O43  1  0.37464620  0.90595516  0.48828715  1
  O  O44  1  0.38186353  0.70016811  0.34133413  1
  O  O45  1  0.37054867  0.50101404  0.74906444  1
  O  O46  1  0.43880767  0.17598770  0.09973550  1
  O  O47  1  0.43582834  0.38668494  0.39382718  1
  O  O48  1  0.43347933  0.07032741  0.67903620  1
  O  O49  1  0.44378193  0.37387129  0.93717719  1
  O  O50  1  0.55694636  0.62007899  0.05692123  1
  O  O51  1  0.56389380  0.92453494  0.32320009  1
  O  O52  1  0.56236184  0.61089547  0.60836927  1
  O  O53  1  0.56655917  0.82776150  0.89877673  1
  O  O54  1  0.61626626  0.48705208  0.24110282  1
  O  O55  1  0.62329707  0.29327333  0.66633958  1
  O  O56  1  0.64470172  0.08161192  0.52346092  1
  O  O57  1  0.59975480  0.14011903  0.91365285  1
  O  O58  1  0.65901268  0.21582381  0.31549538  1
  O  O59  1  0.69277876  0.33185594  0.05227498  1
  O  O60  1  0.73626231  0.45158859  0.42993854  1
  O  O61  1  0.76943353  0.94487693  0.05155653  1
  O  O62  1  0.72491363  0.01792168  0.72251299  1
  O  O63  1  0.76944428  0.52571078  0.79357388  1
  O  O64  1  0.81361369  0.82947657  0.44100428  1
  O  O65  1  0.82428664  0.72091423  0.18458072  1
  O  O66  1  0.86844225  0.99458914  0.24817025  1
  O  O67  1  0.90185360  0.64164395  0.58684627  1
  O  O68  1  0.87300677  0.59241931  0.98731636  1
  O  O69  1  0.88409292  0.80122264  0.83971185  1
  O  O70  1  0.93681479  0.43118463  0.18284835  1
  O  O71  1  0.93798511  0.31937804  0.59943013  1
  O  O72  1  0.94407461  0.12636236  0.43405934  1
  O  O73  1  0.93078436  0.11607859  0.88765787  1
