# generated using pymatgen
data_Li3Mn2P2(CO7)2
_symmetry_space_group_name_H-M   'P 1'
_cell_length_a   9.40746040
_cell_length_b   8.20153494
_cell_length_c   8.27185490
_cell_angle_alpha   75.86405696
_cell_angle_beta   73.82844699
_cell_angle_gamma   107.60812114
_symmetry_Int_Tables_number   1
_chemical_formula_structural   Li3Mn2P2(CO7)2
_chemical_formula_sum   'Li6 Mn4 P4 C4 O28'
_cell_volume   545.34133546
_cell_formula_units_Z   2
loop_
 _symmetry_equiv_pos_site_id
 _symmetry_equiv_pos_as_xyz
  1  'x, y, z'
loop_
 _atom_site_type_symbol
 _atom_site_label
 _atom_site_symmetry_multiplicity
 _atom_site_fract_x
 _atom_site_fract_y
 _atom_site_fract_z
 _atom_site_occupancy
  Li  Li0  1  0.75155620  0.99339259  0.49679354  1
  Li  Li1  1  0.74594034  0.76404925  0.25575128  1
  Li  Li2  1  0.73011873  0.47415494  0.97720034  1
  Li  Li3  1  0.26988127  0.52584506  0.02279966  1
  Li  Li4  1  0.25405966  0.23595075  0.74424872  1
  Li  Li5  1  0.24844380  0.00660741  0.50320646  1
  Mn  Mn6  1  0.66720115  0.31170431  0.44079298  1
  Mn  Mn7  1  0.66712556  0.81998810  0.93347442  1
  Mn  Mn8  1  0.33287444  0.18001190  0.06652558  1
  Mn  Mn9  1  0.33279885  0.68829569  0.55920702  1
  P  P10  1  0.58024223  0.05712955  0.20950818  1
  P  P11  1  0.57706822  0.54562613  0.69539776  1
  P  P12  1  0.41975777  0.94287045  0.79049182  1
  P  P13  1  0.42293178  0.45437387  0.30460224  1
  C  C14  1  0.95048185  0.49207519  0.24981526  1
  C  C15  1  0.95234345  0.99197312  0.75135989  1
  C  C16  1  0.04765655  0.00802688  0.24864011  1
  C  C17  1  0.04951815  0.50792481  0.75018474  1
  O  O18  1  0.89274328  0.85815575  0.90810964  1
  O  O19  1  0.89671925  0.35102909  0.39971626  1
  O  O20  1  0.89902010  0.91699362  0.33770996  1
  O  O21  1  0.82717523  0.52964995  0.22571686  1
  O  O22  1  0.90864825  0.42222887  0.85616924  1
  O  O23  1  0.83911942  0.02003369  0.70047523  1
  O  O24  1  0.67184217  0.95999902  0.11795388  1
  O  O25  1  0.67488555  0.46391574  0.58099390  1
  O  O26  1  0.67836108  0.63171706  0.79114133  1
  O  O27  1  0.69009570  0.16237746  0.29333588  1
  O  O28  1  0.59041222  0.59994113  0.16625572  1
  O  O29  1  0.54583954  0.69540832  0.56392293  1
  O  O30  1  0.54396441  0.19815850  0.08060198  1
  O  O31  1  0.58624955  0.08042454  0.64072441  1
  O  O32  1  0.41375045  0.91957546  0.35927559  1
  O  O33  1  0.45603559  0.80184150  0.91939802  1
  O  O34  1  0.45416046  0.30459168  0.43607707  1
  O  O35  1  0.40958778  0.40005887  0.83374428  1
  O  O36  1  0.30990430  0.83762254  0.70666412  1
  O  O37  1  0.32511445  0.53608426  0.41900610  1
  O  O38  1  0.32163892  0.36828294  0.20885867  1
  O  O39  1  0.32815783  0.04000098  0.88204612  1
  O  O40  1  0.16088058  0.97996631  0.29952477  1
  O  O41  1  0.09135175  0.57777113  0.14383076  1
  O  O42  1  0.17282477  0.47035005  0.77428314  1
  O  O43  1  0.10097990  0.08300638  0.66229004  1
  O  O44  1  0.10725672  0.14184425  0.09189036  1
  O  O45  1  0.10328075  0.64897091  0.60028374  1
