# generated using pymatgen
data_Na2Mn2O3
_symmetry_space_group_name_H-M   'P 1'
_cell_length_a   6.19043533
_cell_length_b   6.34398373
_cell_length_c   5.93851458
_cell_angle_alpha   90.00000000
_cell_angle_beta   116.36509300
_cell_angle_gamma   90.00000000
_symmetry_Int_Tables_number   1
_chemical_formula_structural   Na2Mn2O3
_chemical_formula_sum   'Na4 Mn4 O6'
_cell_volume   208.95876738
_cell_formula_units_Z   2
loop_
 _symmetry_equiv_pos_site_id
 _symmetry_equiv_pos_as_xyz
  1  'x, y, z'
loop_
 _atom_site_type_symbol
 _atom_site_label
 _atom_site_symmetry_multiplicity
 _atom_site_fract_x
 _atom_site_fract_y
 _atom_site_fract_z
 _atom_site_occupancy
  Na  Na0  1  0.21468702  0.64881809  0.92546544  1
  Na  Na1  1  0.21468702  0.85118191  0.42546544  1
  Na  Na2  1  0.78531298  0.14881809  0.57453456  1
  Na  Na3  1  0.78531298  0.35118191  0.07453456  1
  Mn  Mn4  1  0.31695349  0.37215809  0.54430342  1
  Mn  Mn5  1  0.68304651  0.87215809  0.95569658  1
  Mn  Mn6  1  0.31695349  0.12784191  0.04430342  1
  Mn  Mn7  1  0.68304651  0.62784191  0.45569658  1
  O  O8  1  0.00000000  0.50000000  0.50000000  1
  O  O9  1  0.00000000  0.00000000  0.00000000  1
  O  O10  1  0.41561531  0.09805507  0.74780491  1
  O  O11  1  0.58438469  0.59805507  0.75219509  1
  O  O12  1  0.41561531  0.40194493  0.24780491  1
  O  O13  1  0.58438469  0.90194493  0.25219509  1
