# generated using pymatgen
data_LiFe2(SO4)3
_symmetry_space_group_name_H-M   'P 1'
_cell_length_a   8.70426729
_cell_length_b   8.70426729
_cell_length_c   8.70426742
_cell_angle_alpha   59.72724811
_cell_angle_beta   59.72724811
_cell_angle_gamma   59.72725225
_symmetry_Int_Tables_number   1
_chemical_formula_structural   LiFe2(SO4)3
_chemical_formula_sum   'Li2 Fe4 S6 O24'
_cell_volume   463.42886311
_cell_formula_units_Z   2
loop_
 _symmetry_equiv_pos_site_id
 _symmetry_equiv_pos_as_xyz
  1  'x, y, z'
loop_
 _atom_site_type_symbol
 _atom_site_label
 _atom_site_symmetry_multiplicity
 _atom_site_fract_x
 _atom_site_fract_y
 _atom_site_fract_z
 _atom_site_occupancy
  Li  Li0  1  0.00000000  0.00000000  0.00000000  1
  Li  Li1  1  0.50000000  0.50000000  0.50000000  1
  Fe  Fe2  1  0.35565786  0.35565786  0.35565786  1
  Fe  Fe3  1  0.14434214  0.14434214  0.14434214  1
  Fe  Fe4  1  0.64434214  0.64434214  0.64434214  1
  Fe  Fe5  1  0.85565786  0.85565786  0.85565786  1
  S  S6  1  0.04506735  0.75000000  0.45493265  1
  S  S7  1  0.54506735  0.95493265  0.25000000  1
  S  S8  1  0.25000000  0.54506735  0.95493265  1
  S  S9  1  0.75000000  0.45493265  0.04506735  1
  S  S10  1  0.45493265  0.04506735  0.75000000  1
  S  S11  1  0.95493265  0.25000000  0.54506735  1
  O  O12  1  0.05975253  0.90824778  0.27023410  1
  O  O13  1  0.09175222  0.72976590  0.94024747  1
  O  O14  1  0.49447235  0.89391687  0.69027957  1
  O  O15  1  0.60608313  0.00552765  0.80972043  1
  O  O16  1  0.22976590  0.59175222  0.44024747  1
  O  O17  1  0.55975253  0.77023410  0.40824778  1
  O  O18  1  0.72976590  0.94024747  0.09175222  1
  O  O19  1  0.99447235  0.19027957  0.39391687  1
  O  O20  1  0.30972043  0.50552765  0.10608313  1
  O  O21  1  0.10608313  0.30972043  0.50552765  1
  O  O22  1  0.19027957  0.39391687  0.99447235  1
  O  O23  1  0.40824778  0.55975253  0.77023410  1
  O  O24  1  0.59175222  0.44024747  0.22976590  1
  O  O25  1  0.89391687  0.69027957  0.49447235  1
  O  O26  1  0.80972043  0.60608313  0.00552765  1
  O  O27  1  0.00552765  0.80972043  0.60608313  1
  O  O28  1  0.69027957  0.49447235  0.89391687  1
  O  O29  1  0.27023410  0.05975253  0.90824778  1
  O  O30  1  0.44024747  0.22976590  0.59175222  1
  O  O31  1  0.77023410  0.40824778  0.55975253  1
  O  O32  1  0.50552765  0.10608313  0.30972043  1
  O  O33  1  0.39391687  0.99447235  0.19027957  1
  O  O34  1  0.90824778  0.27023410  0.05975253  1
  O  O35  1  0.94024747  0.09175222  0.72976590  1
