# generated using pymatgen
data_MgCo2(CuO4)2
_symmetry_space_group_name_H-M   'P 1'
_cell_length_a   6.45463020
_cell_length_b   8.30304422
_cell_length_c   11.71318091
_cell_angle_alpha   90.00000000
_cell_angle_beta   91.05165149
_cell_angle_gamma   90.00000000
_symmetry_Int_Tables_number   1
_chemical_formula_structural   MgCo2(CuO4)2
_chemical_formula_sum   'Mg4 Co8 Cu8 O32'
_cell_volume   627.63970133
_cell_formula_units_Z   4
loop_
 _symmetry_equiv_pos_site_id
 _symmetry_equiv_pos_as_xyz
  1  'x, y, z'
loop_
 _atom_site_type_symbol
 _atom_site_label
 _atom_site_symmetry_multiplicity
 _atom_site_fract_x
 _atom_site_fract_y
 _atom_site_fract_z
 _atom_site_occupancy
  Mg  Mg0  1  0.11506958  0.15914229  0.04744576  1
  Mg  Mg1  1  0.88493042  0.84085771  0.95255424  1
  Mg  Mg2  1  0.88493042  0.65914229  0.45255424  1
  Mg  Mg3  1  0.11506958  0.34085771  0.54744576  1
  Co  Co4  1  0.10385243  0.46453189  0.84275659  1
  Co  Co5  1  0.10385243  0.03546811  0.34275659  1
  Co  Co6  1  0.60928318  0.09114666  0.13273082  1
  Co  Co7  1  0.89614757  0.96453189  0.65724341  1
  Co  Co8  1  0.39071682  0.90885334  0.86726918  1
  Co  Co9  1  0.39071682  0.59114666  0.36726918  1
  Co  Co10  1  0.60928318  0.40885334  0.63273082  1
  Co  Co11  1  0.89614757  0.53546811  0.15724341  1
  Cu  Cu12  1  0.75787384  0.18885407  0.87800852  1
  Cu  Cu13  1  0.37736765  0.05953819  0.63187419  1
  Cu  Cu14  1  0.62263235  0.94046181  0.36812581  1
  Cu  Cu15  1  0.24212616  0.81114593  0.12199148  1
  Cu  Cu16  1  0.75787384  0.31114593  0.37800852  1
  Cu  Cu17  1  0.37736765  0.44046181  0.13187419  1
  Cu  Cu18  1  0.24212616  0.68885407  0.62199148  1
  Cu  Cu19  1  0.62263235  0.55953819  0.86812581  1
  O  O20  1  0.02896192  0.22933480  0.39500378  1
  O  O21  1  0.65275206  0.00945599  0.59965175  1
  O  O22  1  0.18803936  0.57606684  0.47728656  1
  O  O23  1  0.81196064  0.07606684  0.02271344  1
  O  O24  1  0.02896192  0.27066520  0.89500378  1
  O  O25  1  0.97103808  0.77066520  0.60499622  1
  O  O26  1  0.09423031  0.10844420  0.62094956  1
  O  O27  1  0.50758176  0.89781880  0.14149844  1
  O  O28  1  0.50758176  0.60218120  0.64149844  1
  O  O29  1  0.31790162  0.87045321  0.71655805  1
  O  O30  1  0.68209838  0.37045321  0.78344195  1
  O  O31  1  0.49241824  0.10218120  0.85850156  1
  O  O32  1  0.90576969  0.89155580  0.37905044  1
  O  O33  1  0.87279126  0.51990948  0.30078813  1
  O  O34  1  0.41406651  0.27129041  0.58343114  1
  O  O35  1  0.41406651  0.22870959  0.08343114  1
  O  O36  1  0.12720874  0.01990948  0.19921187  1
  O  O37  1  0.49241824  0.39781880  0.35850156  1
  O  O38  1  0.12720874  0.48009052  0.69921187  1
  O  O39  1  0.81196064  0.42393316  0.52271344  1
  O  O40  1  0.65275206  0.49054401  0.09965175  1
  O  O41  1  0.68209838  0.12954679  0.28344195  1
  O  O42  1  0.97103808  0.72933480  0.10499622  1
  O  O43  1  0.09423031  0.39155580  0.12094956  1
  O  O44  1  0.18803936  0.92393316  0.97728656  1
  O  O45  1  0.58593349  0.77129041  0.91656886  1
  O  O46  1  0.34724794  0.99054401  0.40034825  1
  O  O47  1  0.34724794  0.50945599  0.90034825  1
  O  O48  1  0.90576969  0.60844420  0.87905044  1
  O  O49  1  0.58593349  0.72870959  0.41656886  1
  O  O50  1  0.31790162  0.62954679  0.21655805  1
  O  O51  1  0.87279126  0.98009052  0.80078813  1
