# generated using pymatgen
data_Mn2V3P6WO24
_symmetry_space_group_name_H-M   'P 1'
_cell_length_a   8.73067613
_cell_length_b   8.72321791
_cell_length_c   8.72321745
_cell_angle_alpha   60.00000277
_cell_angle_beta   60.02826115
_cell_angle_gamma   60.02825946
_symmetry_Int_Tables_number   1
_chemical_formula_structural   Mn2V3P6WO24
_chemical_formula_sum   'Mn2 V3 P6 W1 O24'
_cell_volume   469.97168027
_cell_formula_units_Z   1
loop_
 _symmetry_equiv_pos_site_id
 _symmetry_equiv_pos_as_xyz
  1  'x, y, z'
loop_
 _atom_site_type_symbol
 _atom_site_label
 _atom_site_symmetry_multiplicity
 _atom_site_fract_x
 _atom_site_fract_y
 _atom_site_fract_z
 _atom_site_occupancy
  Mn  Mn0  1  0.01434092  0.99521936  0.99521936  1
  Mn  Mn1  1  0.50054387  0.49981871  0.49981871  1
  V  V2  1  0.07004040  0.64332020  0.64332020  1
  V  V3  1  0.43302036  0.85565988  0.85565988  1
  V  V4  1  0.92993393  0.35668902  0.35668902  1
  P  P5  1  0.24475015  0.25264092  0.54616039  1
  P  P6  1  0.24475015  0.95644854  0.25264092  1
  P  P7  1  0.24475015  0.54616039  0.95644854  1
  P  P8  1  0.74960320  0.46191598  0.04295073  1
  P  P9  1  0.74960320  0.04295073  0.74552909  1
  P  P10  1  0.74960320  0.74552909  0.46191598  1
  W  W11  1  0.56923138  0.14358921  0.14358921  1
  O  O12  1  0.07252136  0.11412343  0.31018470  1
  O  O13  1  0.07252136  0.50317052  0.11412343  1
  O  O14  1  0.07252136  0.31018470  0.50317052  1
  O  O15  1  0.23628124  0.08781958  0.73522411  1
  O  O16  1  0.42911993  0.18772964  0.38568373  1
  O  O17  1  0.26892839  0.41169804  0.55502782  1
  O  O18  1  0.23628124  0.94067607  0.08781958  1
  O  O19  1  0.26892839  0.76434575  0.41169804  1
  O  O20  1  0.56981109  0.61360477  0.00709331  1
  O  O21  1  0.26892839  0.55502782  0.76434575  1
  O  O22  1  0.75779817  0.26354783  0.06449986  1
  O  O23  1  0.56981109  0.00709331  0.80949082  1
  O  O24  1  0.42911993  0.99746570  0.18772964  1
  O  O25  1  0.23628124  0.73522411  0.94067607  1
  O  O26  1  0.73629413  0.43745569  0.23730936  1
  O  O27  1  0.42911993  0.38568373  0.99746570  1
  O  O28  1  0.73629413  0.23730936  0.58894081  1
  O  O29  1  0.75779817  0.06449986  0.91415414  1
  O  O30  1  0.73629413  0.58894081  0.43745569  1
  O  O31  1  0.56981109  0.80949082  0.61360477  1
  O  O32  1  0.75779817  0.91415414  0.26354783  1
  O  O33  1  0.92918870  0.69706097  0.48902767  1
  O  O34  1  0.92918870  0.48902767  0.88472267  1
  O  O35  1  0.92918870  0.88472267  0.69706097  1
