# generated using pymatgen
data_Li2MnPCO7
_symmetry_space_group_name_H-M   'P 1'
_cell_length_a   8.44994279
_cell_length_b   5.02429236
_cell_length_c   6.46020118
_cell_angle_alpha   90.08287733
_cell_angle_beta   89.16904078
_cell_angle_gamma   86.27564946
_symmetry_Int_Tables_number   1
_chemical_formula_structural   Li2MnPCO7
_chemical_formula_sum   'Li4 Mn2 P2 C2 O14'
_cell_volume   273.65893906
_cell_formula_units_Z   2
loop_
 _symmetry_equiv_pos_site_id
 _symmetry_equiv_pos_as_xyz
  1  'x, y, z'
loop_
 _atom_site_type_symbol
 _atom_site_label
 _atom_site_symmetry_multiplicity
 _atom_site_fract_x
 _atom_site_fract_y
 _atom_site_fract_z
 _atom_site_occupancy
  Li  Li0  1  0.26514835  0.25594399  0.03908604  1
  Li  Li1  1  0.26369301  0.25584957  0.46718504  1
  Li  Li2  1  0.73249636  0.74576988  0.53143710  1
  Li  Li3  1  0.89188524  0.22451768  0.76450052  1
  Mn  Mn4  1  0.33625531  0.80709153  0.75176804  1
  Mn  Mn5  1  0.67561766  0.19058806  0.24604300  1
  P  P6  1  0.41655076  0.73344366  0.25452039  1
  P  P7  1  0.58425883  0.28183940  0.74444716  1
  C  C8  1  0.04410069  0.70947763  0.74076442  1
  C  C9  1  0.95948690  0.27436372  0.25784781  1
  O  O10  1  0.06947301  0.95927286  0.75051478  1
  O  O11  1  0.10073493  0.34377011  0.25603167  1
  O  O12  1  0.17459343  0.54156830  0.75493430  1
  O  O13  1  0.32707603  0.84241585  0.06019422  1
  O  O14  1  0.31375049  0.84209619  0.44245174  1
  O  O15  1  0.41637372  0.16508779  0.75102174  1
  O  O16  1  0.43477296  0.42274826  0.25349060  1
  O  O17  1  0.55366566  0.58458851  0.71263127  1
  O  O18  1  0.58405749  0.84054097  0.26447613  1
  O  O19  1  0.68318692  0.21016631  0.93545505  1
  O  O20  1  0.69016355  0.15889031  0.56583164  1
  O  O21  1  0.83693987  0.45589873  0.26370762  1
  O  O22  1  0.91142012  0.61241185  0.71711175  1
  O  O23  1  0.91807570  0.03199584  0.25073398  1
