# generated using pymatgen
data_Li2TiS2O
_symmetry_space_group_name_H-M   'P 1'
_cell_length_a   6.46799994
_cell_length_b   12.62791575
_cell_length_c   5.55007665
_cell_angle_alpha   90.00000000
_cell_angle_beta   114.25146739
_cell_angle_gamma   90.00000000
_symmetry_Int_Tables_number   1
_chemical_formula_structural   Li2TiS2O
_chemical_formula_sum   'Li8 Ti4 S8 O4'
_cell_volume   413.31118852
_cell_formula_units_Z   4
loop_
 _symmetry_equiv_pos_site_id
 _symmetry_equiv_pos_as_xyz
  1  'x, y, z'
loop_
 _atom_site_type_symbol
 _atom_site_label
 _atom_site_symmetry_multiplicity
 _atom_site_fract_x
 _atom_site_fract_y
 _atom_site_fract_z
 _atom_site_occupancy
  Li  Li0  1  0.20843487  0.55759774  0.84211502  1
  Li  Li1  1  0.40275046  0.13763533  0.94988323  1
  Li  Li2  1  0.20843487  0.94240226  0.34211502  1
  Li  Li3  1  0.40275046  0.36236467  0.44988323  1
  Li  Li4  1  0.59724954  0.63763533  0.55011677  1
  Li  Li5  1  0.79156513  0.05759774  0.65788498  1
  Li  Li6  1  0.59724954  0.86236467  0.05011677  1
  Li  Li7  1  0.79156513  0.44240226  0.15788498  1
  Ti  Ti8  1  0.01859024  0.31935959  0.85019419  1
  Ti  Ti9  1  0.01859024  0.18064041  0.35019419  1
  Ti  Ti10  1  0.98140976  0.81935959  0.64980581  1
  Ti  Ti11  1  0.98140976  0.68064041  0.14980581  1
  S  S12  1  0.20921667  0.95056274  0.87453865  1
  S  S13  1  0.38082078  0.35794921  0.94614695  1
  S  S14  1  0.20921667  0.54943726  0.37453865  1
  S  S15  1  0.38082078  0.14205079  0.44614695  1
  S  S16  1  0.61917922  0.85794921  0.55385305  1
  S  S17  1  0.79078333  0.45056274  0.62546135  1
  S  S18  1  0.61917922  0.64205079  0.05385305  1
  S  S19  1  0.79078333  0.04943726  0.12546135  1
  O  O20  1  0.03007652  0.69393826  0.84142463  1
  O  O21  1  0.03007652  0.80606174  0.34142463  1
  O  O22  1  0.96992348  0.19393826  0.65857537  1
  O  O23  1  0.96992348  0.30606174  0.15857537  1
