# generated using pymatgen
data_Fe2HgO4
_symmetry_space_group_name_H-M   'P 1'
_cell_length_a   6.31133592
_cell_length_b   6.31133592
_cell_length_c   6.31133592
_cell_angle_alpha   60.00000000
_cell_angle_beta   60.00000000
_cell_angle_gamma   60.00000000
_symmetry_Int_Tables_number   1
_chemical_formula_structural   Fe2HgO4
_chemical_formula_sum   'Fe4 Hg2 O8'
_cell_volume   177.76607812
_cell_formula_units_Z   2
loop_
 _symmetry_equiv_pos_site_id
 _symmetry_equiv_pos_as_xyz
  1  'x, y, z'
loop_
 _atom_site_type_symbol
 _atom_site_label
 _atom_site_symmetry_multiplicity
 _atom_site_fract_x
 _atom_site_fract_y
 _atom_site_fract_z
 _atom_site_occupancy
  Fe  Fe0  1  0.50000000  0.50000000  0.00000000  1
  Fe  Fe1  1  0.50000000  0.00000000  0.50000000  1
  Fe  Fe2  1  0.00000000  0.50000000  0.50000000  1
  Fe  Fe3  1  0.50000000  0.50000000  0.50000000  1
  Hg  Hg4  1  0.12500000  0.12500000  0.12500000  1
  Hg  Hg5  1  0.87500000  0.87500000  0.87500000  1
  O  O6  1  0.26948741  0.26948741  0.26948741  1
  O  O7  1  0.69153878  0.26948741  0.26948741  1
  O  O8  1  0.26948741  0.69153878  0.26948741  1
  O  O9  1  0.26948741  0.26948741  0.69153878  1
  O  O10  1  0.73051259  0.73051259  0.30846122  1
  O  O11  1  0.73051259  0.30846122  0.73051259  1
  O  O12  1  0.73051259  0.73051259  0.73051259  1
  O  O13  1  0.30846122  0.73051259  0.73051259  1
