# generated using pymatgen
data_NaLi2FePCO7
_symmetry_space_group_name_H-M   'P 1'
_cell_length_a   8.59884525
_cell_length_b   6.61261158
_cell_length_c   5.05702104
_cell_angle_alpha   90.00000000
_cell_angle_beta   86.72162815
_cell_angle_gamma   90.00000000
_symmetry_Int_Tables_number   1
_chemical_formula_structural   NaLi2FePCO7
_chemical_formula_sum   'Na2 Li4 Fe2 P2 C2 O14'
_cell_volume   287.07580477
_cell_formula_units_Z   2
loop_
 _symmetry_equiv_pos_site_id
 _symmetry_equiv_pos_as_xyz
  1  'x, y, z'
loop_
 _atom_site_type_symbol
 _atom_site_label
 _atom_site_symmetry_multiplicity
 _atom_site_fract_x
 _atom_site_fract_y
 _atom_site_fract_z
 _atom_site_occupancy
  Na  Na0  1  0.25683348  0.00028595  0.25449624  1
  Na  Na1  1  0.74316652  0.50028595  0.74550376  1
  Li  Li2  1  0.08803475  0.25437479  0.75012215  1
  Li  Li3  1  0.27426028  0.47912872  0.24196585  1
  Li  Li4  1  0.72573972  0.97912872  0.75803415  1
  Li  Li5  1  0.91196525  0.75437479  0.24987785  1
  Fe  Fe6  1  0.34410130  0.74467261  0.78450732  1
  Fe  Fe7  1  0.65589870  0.24467261  0.21549268  1
  P  P8  1  0.40819204  0.24839239  0.70918536  1
  P  P9  1  0.59180796  0.74839239  0.29081464  1
  C  C10  1  0.04188496  0.75751491  0.71816349  1
  C  C11  1  0.95811504  0.25751491  0.28183651  1
  O  O12  1  0.10128805  0.27948803  0.34201505  1
  O  O13  1  0.08178358  0.75602029  0.96201532  1
  O  O14  1  0.14926533  0.73539696  0.52692457  1
  O  O15  1  0.30230936  0.06083519  0.77506360  1
  O  O16  1  0.31115253  0.43081103  0.82581538  1
  O  O17  1  0.43130751  0.27172947  0.40224946  1
  O  O18  1  0.43066813  0.73135066  0.17315053  1
  O  O19  1  0.56933187  0.23135066  0.82684947  1
  O  O20  1  0.56869249  0.77172947  0.59775054  1
  O  O21  1  0.69769064  0.56083519  0.22493640  1
  O  O22  1  0.68884747  0.93081103  0.17418462  1
  O  O23  1  0.85073467  0.23539696  0.47307543  1
  O  O24  1  0.91821642  0.25602029  0.03798468  1
  O  O25  1  0.89871195  0.77948803  0.65798495  1
