# generated using pymatgen
data_Li5V2Fe5O12
_symmetry_space_group_name_H-M   'P 1'
_cell_length_a   5.21045717
_cell_length_b   5.21045757
_cell_length_c   10.00733545
_cell_angle_alpha   84.87768668
_cell_angle_beta   95.12230908
_cell_angle_gamma   59.34487096
_symmetry_Int_Tables_number   1
_chemical_formula_structural   Li5V2Fe5O12
_chemical_formula_sum   'Li5 V2 Fe5 O12'
_cell_volume   229.88737975
_cell_formula_units_Z   1
loop_
 _symmetry_equiv_pos_site_id
 _symmetry_equiv_pos_as_xyz
  1  'x, y, z'
loop_
 _atom_site_type_symbol
 _atom_site_label
 _atom_site_symmetry_multiplicity
 _atom_site_fract_x
 _atom_site_fract_y
 _atom_site_fract_z
 _atom_site_occupancy
  Li  Li0  1  0.16569226  0.66932470  0.50315411  1
  Li  Li1  1  0.32212532  0.83866566  0.99579840  1
  Li  Li2  1  0.66932470  0.16569226  0.99684589  1
  Li  Li3  1  0.83866566  0.32212532  0.50420160  1
  Li  Li4  1  0.92417009  0.92417009  0.75000000  1
  V  V5  1  0.24995438  0.24995438  0.75000000  1
  V  V6  1  0.75261940  0.75261940  0.25000000  1
  Fe  Fe7  1  0.07953664  0.07953664  0.25000000  1
  Fe  Fe8  1  0.99647240  0.51160486  0.99610338  1
  Fe  Fe9  1  0.51160486  0.99647240  0.50389662  1
  Fe  Fe10  1  0.41781387  0.41781387  0.25000000  1
  Fe  Fe11  1  0.57864681  0.57864681  0.75000000  1
  O  O12  1  0.95887772  0.22734826  0.86374499  1
  O  O13  1  0.22734826  0.95887772  0.63625501  1
  O  O14  1  0.11043897  0.37460983  0.36450456  1
  O  O15  1  0.37460983  0.11043897  0.13549544  1
  O  O16  1  0.29977158  0.52004019  0.86755759  1
  O  O17  1  0.52004019  0.29977158  0.63244241  1
  O  O18  1  0.46154041  0.72248037  0.37062117  1
  O  O19  1  0.72248037  0.46154041  0.12937883  1
  O  O20  1  0.58776810  0.89550257  0.86056524  1
  O  O21  1  0.89550257  0.58776810  0.63943476  1
  O  O22  1  0.80978767  0.02520494  0.37105484  1
  O  O23  1  0.02520494  0.80978767  0.12894516  1
