# generated using pymatgen
data_Ba3GeO5
_symmetry_space_group_name_H-M   'P 1'
_cell_length_a   8.06502604
_cell_length_b   10.66783996
_cell_length_c   8.06502600
_cell_angle_alpha   112.21025815
_cell_angle_beta   59.99999574
_cell_angle_gamma   112.21025914
_symmetry_Int_Tables_number   1
_chemical_formula_structural   Ba3GeO5
_chemical_formula_sum   'Ba9 Ge3 O15'
_cell_volume   540.65732058
_cell_formula_units_Z   3
loop_
 _symmetry_equiv_pos_site_id
 _symmetry_equiv_pos_as_xyz
  1  'x, y, z'
loop_
 _atom_site_type_symbol
 _atom_site_label
 _atom_site_symmetry_multiplicity
 _atom_site_fract_x
 _atom_site_fract_y
 _atom_site_fract_z
 _atom_site_occupancy
  Ba  Ba0  1  0.00052338  0.99431988  0.49689875  1
  Ba  Ba1  1  0.49689875  0.99431988  0.00052338  1
  Ba  Ba2  1  0.49689875  0.99431988  0.49689875  1
  Ba  Ba3  1  0.24100239  0.66193411  0.71046536  1
  Ba  Ba4  1  0.28581915  0.32701025  0.28581915  1
  Ba  Ba5  1  0.71046536  0.66193411  0.24100239  1
  Ba  Ba6  1  0.28581915  0.32701025  0.75537296  1
  Ba  Ba7  1  0.75537296  0.32701025  0.28581915  1
  Ba  Ba8  1  0.71046536  0.66193411  0.71046536  1
  Ge  Ge9  1  0.21587682  0.64763045  0.21587682  1
  Ge  Ge10  1  0.99621187  0.98863460  0.99621187  1
  Ge  Ge11  1  0.77482696  0.32448188  0.77482696  1
  O  O12  1  0.15347032  0.46041197  0.15347032  1
  O  O13  1  0.03722239  0.38450124  0.67363992  1
  O  O14  1  0.35761211  0.71167810  0.35761211  1
  O  O15  1  0.13806973  0.05159653  0.13806973  1
  O  O16  1  0.67363992  0.38450124  0.03722239  1
  O  O17  1  0.35761211  0.71167810  0.99645487  1
  O  O18  1  0.60962495  0.82887586  0.60962495  1
  O  O19  1  0.49755422  0.49266166  0.49755422  1
  O  O20  1  0.13806973  0.05159653  0.77545606  1
  O  O21  1  0.38277927  0.14833682  0.38277927  1
  O  O22  1  0.67363992  0.38450124  0.67363992  1
  O  O23  1  0.77545606  0.05159653  0.13806973  1
  O  O24  1  0.99645487  0.71167810  0.35761211  1
  O  O25  1  0.93374224  0.80122572  0.93374224  1
  O  O26  1  0.71287424  0.13862171  0.71287424  1
