# generated using pymatgen
data_Li3Mn(BO3)2
_symmetry_space_group_name_H-M   'P 1'
_cell_length_a   9.26345258
_cell_length_b   6.16020181
_cell_length_c   10.02849430
_cell_angle_alpha   90.00000000
_cell_angle_beta   57.33812997
_cell_angle_gamma   90.00000000
_symmetry_Int_Tables_number   1
_chemical_formula_structural   Li3Mn(BO3)2
_chemical_formula_sum   'Li12 Mn4 B8 O24'
_cell_volume   481.77987150
_cell_formula_units_Z   4
loop_
 _symmetry_equiv_pos_site_id
 _symmetry_equiv_pos_as_xyz
  1  'x, y, z'
loop_
 _atom_site_type_symbol
 _atom_site_label
 _atom_site_symmetry_multiplicity
 _atom_site_fract_x
 _atom_site_fract_y
 _atom_site_fract_z
 _atom_site_occupancy
  Li  Li0  1  0.12491983  0.23782279  0.48732351  1
  Li  Li1  1  0.02583316  0.56478446  0.68506600  1
  Li  Li2  1  0.37508017  0.73782279  0.01267649  1
  Li  Li3  1  0.29886706  0.77497423  0.58034719  1
  Li  Li4  1  0.52583316  0.93521554  0.18506600  1
  Li  Li5  1  0.20113294  0.27497423  0.91965281  1
  Li  Li6  1  0.79886706  0.72502577  0.08034719  1
  Li  Li7  1  0.47416684  0.06478446  0.81493400  1
  Li  Li8  1  0.70113294  0.22502577  0.41965281  1
  Li  Li9  1  0.62491983  0.26217721  0.98732351  1
  Li  Li10  1  0.97416684  0.43521554  0.31493400  1
  Li  Li11  1  0.87508017  0.76217721  0.51267649  1
  Mn  Mn12  1  0.98252795  0.03314804  0.79044501  1
  Mn  Mn13  1  0.48252695  0.46685196  0.29044501  1
  Mn  Mn14  1  0.51747205  0.53314804  0.70955499  1
  Mn  Mn15  1  0.01747305  0.96685196  0.20955499  1
  B  B16  1  0.26574924  0.14686664  0.18108130  1
  B  B17  1  0.23425076  0.64686664  0.31891870  1
  B  B18  1  0.14082418  0.69900137  0.91441144  1
  B  B19  1  0.35917582  0.19900137  0.58558856  1
  B  B20  1  0.64082418  0.80099863  0.41441144  1
  B  B21  1  0.85917582  0.30099863  0.08558856  1
  B  B22  1  0.76574924  0.35313336  0.68108130  1
  B  B23  1  0.73425076  0.85313336  0.81891870  1
  O  O24  1  0.09201185  0.69190572  0.31969364  1
  O  O25  1  0.09920932  0.17045962  0.31373249  1
  O  O26  1  0.26217430  0.05410255  0.05309651  1
  O  O27  1  0.23782570  0.55410255  0.44690349  1
  O  O28  1  0.40079068  0.67045962  0.18626751  1
  O  O29  1  0.01184202  0.77441283  0.06361849  1
  O  O30  1  0.21651335  0.09536645  0.60121407  1
  O  O31  1  0.40798815  0.19190572  0.18030636  1
  O  O32  1  0.11277315  0.71870205  0.79456116  1
  O  O33  1  0.38722685  0.21870205  0.70543884  1
  O  O34  1  0.28348665  0.59536645  0.89878593  1
  O  O35  1  0.48815798  0.27441183  0.43638151  1
  O  O36  1  0.51184202  0.72558717  0.56361849  1
  O  O37  1  0.71651335  0.40463355  0.10121407  1
  O  O38  1  0.61277315  0.78129795  0.29456116  1
  O  O39  1  0.88722685  0.28129795  0.20543884  1
  O  O40  1  0.59201185  0.80809428  0.81969464  1
  O  O41  1  0.78348665  0.90463355  0.39878593  1
  O  O42  1  0.98815798  0.22558717  0.93638151  1
  O  O43  1  0.59920932  0.32954038  0.81373249  1
  O  O44  1  0.76217430  0.44589745  0.55309651  1
  O  O45  1  0.73782570  0.94589745  0.94690349  1
  O  O46  1  0.90079068  0.82954038  0.68626751  1
  O  O47  1  0.90798815  0.30809428  0.68030536  1
