# generated using pymatgen
data_Li2AlFeO4
_symmetry_space_group_name_H-M   'P 1'
_cell_length_a   10.95788426
_cell_length_b   5.10058631
_cell_length_c   6.45432160
_cell_angle_alpha   89.99992170
_cell_angle_beta   90.00002470
_cell_angle_gamma   90.00011235
_symmetry_Int_Tables_number   1
_chemical_formula_structural   Li2AlFeO4
_chemical_formula_sum   'Li8 Al4 Fe4 O16'
_cell_volume   360.74258345
_cell_formula_units_Z   4
loop_
 _symmetry_equiv_pos_site_id
 _symmetry_equiv_pos_as_xyz
  1  'x, y, z'
loop_
 _atom_site_type_symbol
 _atom_site_label
 _atom_site_symmetry_multiplicity
 _atom_site_fract_x
 _atom_site_fract_y
 _atom_site_fract_z
 _atom_site_occupancy
  Li  Li0  1  0.08748692  0.72179475  0.87011990  1
  Li  Li1  1  0.16725192  0.19255538  0.11762627  1
  Li  Li2  1  0.33275128  0.69255571  0.61762738  1
  Li  Li3  1  0.41251402  0.22179404  0.37012001  1
  Li  Li4  1  0.58748568  0.77820420  0.87012073  1
  Li  Li5  1  0.66725074  0.30744162  0.11762683  1
  Li  Li6  1  0.83274954  0.80744292  0.61762642  1
  Li  Li7  1  0.91251330  0.27820503  0.37012052  1
  Al  Al8  1  0.16617102  0.18468475  0.61771248  1
  Al  Al9  1  0.33383582  0.68467564  0.11771503  1
  Al  Al10  1  0.66616271  0.31532259  0.61771790  1
  Al  Al11  1  0.83382929  0.81531831  0.11771532  1
  Fe  Fe12  1  0.08623813  0.68689204  0.36539420  1
  Fe  Fe13  1  0.41375972  0.18689043  0.86540064  1
  Fe  Fe14  1  0.58624111  0.81310827  0.36539707  1
  Fe  Fe15  1  0.91376066  0.31311982  0.86539464  1
  O  O16  1  0.08494086  0.27485057  0.84691857  1
  O  O17  1  0.09497562  0.31204935  0.39017256  1
  O  O18  1  0.16036529  0.83424425  0.60487427  1
  O  O19  1  0.17891964  0.79327658  0.12927902  1
  O  O20  1  0.32107545  0.29327451  0.62927067  1
  O  O21  1  0.33963306  0.33424974  0.10487922  1
  O  O22  1  0.40502312  0.81204930  0.89017612  1
  O  O23  1  0.41505791  0.77485069  0.34691628  1
  O  O24  1  0.58494514  0.22515208  0.84691209  1
  O  O25  1  0.59497662  0.18795155  0.39017737  1
  O  O26  1  0.66036585  0.66575235  0.60487704  1
  O  O27  1  0.67892584  0.70672398  0.12927365  1
  O  O28  1  0.82108045  0.20672186  0.62927437  1
  O  O29  1  0.83963223  0.16575233  0.10487722  1
  O  O30  1  0.90502305  0.68794705  0.89017166  1
  O  O31  1  0.91505803  0.72514833  0.34691855  1
