# generated using pymatgen
data_Li2FeNi3O8
_symmetry_space_group_name_H-M   'P 1'
_cell_length_a   5.83713843
_cell_length_b   5.83713797
_cell_length_c   5.83713826
_cell_angle_alpha   59.24095696
_cell_angle_beta   59.24095961
_cell_angle_gamma   59.24095303
_symmetry_Int_Tables_number   1
_chemical_formula_structural   Li2FeNi3O8
_chemical_formula_sum   'Li2 Fe1 Ni3 O8'
_cell_volume   138.20078172
_cell_formula_units_Z   1
loop_
 _symmetry_equiv_pos_site_id
 _symmetry_equiv_pos_as_xyz
  1  'x, y, z'
loop_
 _atom_site_type_symbol
 _atom_site_label
 _atom_site_symmetry_multiplicity
 _atom_site_fract_x
 _atom_site_fract_y
 _atom_site_fract_z
 _atom_site_occupancy
  Li  Li0  1  0.12136182  0.12136182  0.12136182  1
  Li  Li1  1  0.87863818  0.87863818  0.87863818  1
  Fe  Fe2  1  0.50000000  0.50000000  0.50000000  1
  Ni  Ni3  1  0.00000000  0.50000000  0.50000000  1
  Ni  Ni4  1  0.50000000  0.00000000  0.50000000  1
  Ni  Ni5  1  0.50000000  0.50000000  0.00000000  1
  O  O6  1  0.26197854  0.26197854  0.26197854  1
  O  O7  1  0.25583485  0.25583485  0.70800949  1
  O  O8  1  0.25583485  0.70800949  0.25583485  1
  O  O9  1  0.70800949  0.25583485  0.25583485  1
  O  O10  1  0.29199051  0.74416515  0.74416515  1
  O  O11  1  0.74416515  0.29199051  0.74416515  1
  O  O12  1  0.74416515  0.74416515  0.29199051  1
  O  O13  1  0.73802146  0.73802146  0.73802146  1
