# generated using pymatgen
data_Li8Mn3Cr(PO4)6
_symmetry_space_group_name_H-M   'P 1'
_cell_length_a   9.26572074
_cell_length_b   8.45468264
_cell_length_c   8.40615555
_cell_angle_alpha   60.62766898
_cell_angle_beta   63.68897671
_cell_angle_gamma   91.01522810
_symmetry_Int_Tables_number   1
_chemical_formula_structural   Li8Mn3Cr(PO4)6
_chemical_formula_sum   'Li8 Mn3 Cr1 P6 O24'
_cell_volume   490.56703917
_cell_formula_units_Z   1
loop_
 _symmetry_equiv_pos_site_id
 _symmetry_equiv_pos_as_xyz
  1  'x, y, z'
loop_
 _atom_site_type_symbol
 _atom_site_label
 _atom_site_symmetry_multiplicity
 _atom_site_fract_x
 _atom_site_fract_y
 _atom_site_fract_z
 _atom_site_occupancy
  Li  Li0  1  0.86779555  0.26532160  0.80423902  1
  Li  Li1  1  0.90177216  0.94388683  0.36530190  1
  Li  Li2  1  0.85337930  0.66090943  0.07183330  1
  Li  Li3  1  0.59143604  0.79710597  0.67016921  1
  Li  Li4  1  0.40997339  0.20487833  0.32863447  1
  Li  Li5  1  0.14423095  0.33856823  0.93000665  1
  Li  Li6  1  0.09634206  0.05641893  0.63681129  1
  Li  Li7  1  0.13674399  0.73379791  0.19608710  1
  Mn  Mn8  1  0.96849083  0.64944115  0.68905901  1
  Mn  Mn9  1  0.43679113  0.15002025  0.71131103  1
  Mn  Mn10  1  0.56217653  0.85210571  0.28458656  1
  Cr  Cr11  1  0.03221834  0.34966893  0.31241803  1
  P  P12  1  0.75214279  0.95362276  0.78225464  1
  P  P13  1  0.75587254  0.54607250  0.50702173  1
  P  P14  1  0.76244480  0.25451227  0.19236882  1
  P  P15  1  0.23732324  0.74279476  0.80961262  1
  P  P16  1  0.24758636  0.44976151  0.49332986  1
  P  P17  1  0.24485688  0.05246681  0.21461292  1
  O  O18  1  0.89467283  0.15390229  0.63614746  1
  O  O19  1  0.81888602  0.50407725  0.66567495  1
  O  O20  1  0.81032543  0.83992281  0.67615638  1
  O  O21  1  0.90149853  0.55114292  0.30858228  1
  O  O22  1  0.90323536  0.21143142  0.25265566  1
  O  O23  1  0.73407681  0.74820678  0.42201122  1
  O  O24  1  0.58366649  0.97209526  0.79985094  1
  O  O25  1  0.59522047  0.39327968  0.62182202  1
  O  O26  1  0.82034557  0.47086112  0.01537971  1
  O  O27  1  0.75281095  0.13146256  0.10834317  1
  O  O28  1  0.59273603  0.20651579  0.38436940  1
  O  O29  1  0.74681931  0.85646438  0.99560895  1
  O  O30  1  0.25609131  0.14820650  0.99842094  1
  O  O31  1  0.40726164  0.79001002  0.61856961  1
  O  O32  1  0.24414303  0.86850940  0.89143276  1
  O  O33  1  0.17738546  0.52799959  0.98876867  1
  O  O34  1  0.40805479  0.60271478  0.38219536  1
  O  O35  1  0.41001140  0.03447436  0.20827555  1
  O  O36  1  0.27359239  0.24881729  0.56848432  1
  O  O37  1  0.09582650  0.78632738  0.74726421  1
  O  O38  1  0.10246529  0.43453280  0.69662794  1
  O  O39  1  0.18176114  0.16991314  0.31744355  1
  O  O40  1  0.18302024  0.49593082  0.33660669  1
  O  O41  1  0.10451711  0.85184679  0.35965013  1
