# generated using pymatgen
data_Y2W2O9
_symmetry_space_group_name_H-M   'P 1'
_cell_length_a   7.69069184
_cell_length_b   9.74941320
_cell_length_c   9.23948776
_cell_angle_alpha   90.00000000
_cell_angle_beta   108.43197331
_cell_angle_gamma   90.00000000
_symmetry_Int_Tables_number   1
_chemical_formula_structural   Y2W2O9
_chemical_formula_sum   'Y8 W8 O36'
_cell_volume   657.23480393
_cell_formula_units_Z   4
loop_
 _symmetry_equiv_pos_site_id
 _symmetry_equiv_pos_as_xyz
  1  'x, y, z'
loop_
 _atom_site_type_symbol
 _atom_site_label
 _atom_site_symmetry_multiplicity
 _atom_site_fract_x
 _atom_site_fract_y
 _atom_site_fract_z
 _atom_site_occupancy
  Y  Y0  1  0.22631186  0.94281085  0.65522823  1
  Y  Y1  1  0.29261319  0.55046115  0.57055878  1
  Y  Y2  1  0.22631186  0.55718915  0.15522823  1
  Y  Y3  1  0.29261319  0.94953885  0.07055878  1
  Y  Y4  1  0.70738681  0.05046115  0.92944122  1
  Y  Y5  1  0.77368814  0.44281085  0.84477177  1
  Y  Y6  1  0.70738681  0.44953885  0.42944122  1
  Y  Y7  1  0.77368814  0.05718915  0.34477177  1
  W  W8  1  0.06829437  0.25075437  0.73558892  1
  W  W9  1  0.06829437  0.24924563  0.23558892  1
  W  W10  1  0.57514948  0.72656972  0.96356340  1
  W  W11  1  0.42485052  0.22656972  0.53643660  1
  W  W12  1  0.57514948  0.77343028  0.46356340  1
  W  W13  1  0.42485052  0.27343028  0.03643660  1
  W  W14  1  0.93170563  0.75075437  0.76441108  1
  W  W15  1  0.93170563  0.74924563  0.26441108  1
  O  O16  1  0.00553894  0.61368737  0.90806988  1
  O  O17  1  0.06356143  0.91070053  0.85042170  1
  O  O18  1  0.10825134  0.71612901  0.66559982  1
  O  O19  1  0.00553894  0.88631263  0.40806988  1
  O  O20  1  0.06356143  0.58929947  0.35042170  1
  O  O21  1  0.22512292  0.38244075  0.91864003  1
  O  O22  1  0.26861988  0.13463956  0.86050404  1
  O  O23  1  0.10825134  0.78387099  0.16559982  1
  O  O24  1  0.25528497  0.32056007  0.63734943  1
  O  O25  1  0.22512292  0.11755925  0.41864003  1
  O  O26  1  0.44188813  0.89787126  0.89033306  1
  O  O27  1  0.26861988  0.36536044  0.36050404  1
  O  O28  1  0.49828321  0.59312016  0.81585238  1
  O  O29  1  0.25528497  0.17943993  0.13734943  1
  O  O30  1  0.40185523  0.79753652  0.56556111  1
  O  O31  1  0.59814477  0.29753652  0.93443889  1
  O  O32  1  0.50171679  0.09312016  0.68414762  1
  O  O33  1  0.44188813  0.60212874  0.39033306  1
  O  O34  1  0.55811187  0.39787126  0.60966694  1
  O  O35  1  0.49828321  0.90687984  0.31585238  1
  O  O36  1  0.40185523  0.70246348  0.06556111  1
  O  O37  1  0.59814477  0.20246348  0.43443889  1
  O  O38  1  0.74471503  0.82056007  0.86265057  1
  O  O39  1  0.50171679  0.40687984  0.18414762  1
  O  O40  1  0.73138012  0.63463956  0.63949596  1
  O  O41  1  0.55811187  0.10212874  0.10966694  1
  O  O42  1  0.77487708  0.88244075  0.58135997  1
  O  O43  1  0.74471503  0.67943993  0.36265057  1
  O  O44  1  0.89174866  0.21612901  0.83440018  1
  O  O45  1  0.73138012  0.86536044  0.13949596  1
  O  O46  1  0.77487708  0.61755925  0.08135997  1
  O  O47  1  0.93643857  0.41070053  0.64957830  1
  O  O48  1  0.99446106  0.11368737  0.59193012  1
  O  O49  1  0.89174866  0.28387099  0.33440018  1
  O  O50  1  0.93643857  0.08929947  0.14957830  1
  O  O51  1  0.99446106  0.38631263  0.09193012  1
