# generated using pymatgen
data_Mn2ZnO4
_symmetry_space_group_name_H-M   'P 1'
_cell_length_a   3.01639134
_cell_length_b   9.72080526
_cell_length_c   9.90275813
_cell_angle_alpha   89.99996873
_cell_angle_beta   90.00141711
_cell_angle_gamma   89.99737972
_symmetry_Int_Tables_number   1
_chemical_formula_structural   Mn2ZnO4
_chemical_formula_sum   'Mn8 Zn4 O16'
_cell_volume   290.36622577
_cell_formula_units_Z   4
loop_
 _symmetry_equiv_pos_site_id
 _symmetry_equiv_pos_as_xyz
  1  'x, y, z'
loop_
 _atom_site_type_symbol
 _atom_site_label
 _atom_site_symmetry_multiplicity
 _atom_site_fract_x
 _atom_site_fract_y
 _atom_site_fract_z
 _atom_site_occupancy
  Mn  Mn0  1  0.79473405  0.57044992  0.38421380  1
  Mn  Mn1  1  0.79475504  0.07045518  0.11578922  1
  Mn  Mn2  1  0.20524792  0.07045251  0.61578325  1
  Mn  Mn3  1  0.79473106  0.42955595  0.11578630  1
  Mn  Mn4  1  0.20526815  0.42955073  0.61578432  1
  Mn  Mn5  1  0.79475053  0.92953989  0.38421351  1
  Mn  Mn6  1  0.20526357  0.92954773  0.88421337  1
  Mn  Mn7  1  0.20526148  0.57044999  0.88421738  1
  Zn  Zn8  1  0.32501777  0.75000464  0.14608392  1
  Zn  Zn9  1  0.32505339  0.25000122  0.35391315  1
  Zn  Zn10  1  0.67494232  0.74999708  0.64608900  1
  Zn  Zn11  1  0.67497659  0.24999732  0.85391688  1
  O  O12  1  0.21083194  0.88702934  0.53043250  1
  O  O13  1  0.78916722  0.11296422  0.46956194  1
  O  O14  1  0.37488488  0.99999896  0.24999532  1
  O  O15  1  0.78921846  0.88703363  0.03043478  1
  O  O16  1  0.78916377  0.61296993  0.03043295  1
  O  O17  1  0.82295074  0.25000148  0.20731109  1
  O  O18  1  0.21080043  0.11296592  0.96956531  1
  O  O19  1  0.17706127  0.24999825  0.70731135  1
  O  O20  1  0.37488087  0.50000379  0.25000046  1
  O  O21  1  0.62511741  0.99999517  0.75000263  1
  O  O22  1  0.21081383  0.61296734  0.53043265  1
  O  O23  1  0.17704748  0.74999965  0.79269159  1
  O  O24  1  0.82293349  0.74999942  0.29268787  1
  O  O25  1  0.62511395  0.50000122  0.75000294  1
  O  O26  1  0.21081363  0.38703275  0.96956597  1
  O  O27  1  0.78919975  0.38703672  0.46956455  1
