# generated using pymatgen
data_Li2AlFeO4
_symmetry_space_group_name_H-M   'P 1'
_cell_length_a   6.25472686
_cell_length_b   11.13049139
_cell_length_c   5.07124858
_cell_angle_alpha   90.00000000
_cell_angle_beta   90.00000000
_cell_angle_gamma   90.00000000
_symmetry_Int_Tables_number   1
_chemical_formula_structural   Li2AlFeO4
_chemical_formula_sum   'Li8 Al4 Fe4 O16'
_cell_volume   353.05111402
_cell_formula_units_Z   4
loop_
 _symmetry_equiv_pos_site_id
 _symmetry_equiv_pos_as_xyz
  1  'x, y, z'
loop_
 _atom_site_type_symbol
 _atom_site_label
 _atom_site_symmetry_multiplicity
 _atom_site_fract_x
 _atom_site_fract_y
 _atom_site_fract_z
 _atom_site_occupancy
  Li  Li0  1  0.00025299  0.41389668  0.18000801  1
  Li  Li1  1  0.00025299  0.91389668  0.31999199  1
  Li  Li2  1  0.49974701  0.91389668  0.31999199  1
  Li  Li3  1  0.49974701  0.41389668  0.18000801  1
  Li  Li4  1  0.50025299  0.08610332  0.68000801  1
  Li  Li5  1  0.50025299  0.58610332  0.81999199  1
  Li  Li6  1  0.99974701  0.58610332  0.81999199  1
  Li  Li7  1  0.99974701  0.08610332  0.68000801  1
  Al  Al8  1  0.25000000  0.16540783  0.17157735  1
  Al  Al9  1  0.25000000  0.66540783  0.32842265  1
  Al  Al10  1  0.75000000  0.33459217  0.67157735  1
  Al  Al11  1  0.75000000  0.83459217  0.82842265  1
  Fe  Fe12  1  0.25000000  0.33297156  0.67367039  1
  Fe  Fe13  1  0.25000000  0.83297156  0.82632961  1
  Fe  Fe14  1  0.75000000  0.66702844  0.32632961  1
  Fe  Fe15  1  0.75000000  0.16702844  0.17367039  1
  O  O16  1  0.98839681  0.40924726  0.77774063  1
  O  O17  1  0.98839681  0.90924726  0.72225937  1
  O  O18  1  0.25000000  0.31608311  0.29810355  1
  O  O19  1  0.25000000  0.67441732  0.68064783  1
  O  O20  1  0.25000000  0.17441732  0.81935217  1
  O  O21  1  0.25000000  0.81608311  0.20189645  1
  O  O22  1  0.51160319  0.90924726  0.72225937  1
  O  O23  1  0.51160319  0.40924726  0.77774063  1
  O  O24  1  0.48839681  0.59075274  0.22225937  1
  O  O25  1  0.48839681  0.09075274  0.27774063  1
  O  O26  1  0.75000000  0.68391689  0.70189645  1
  O  O27  1  0.75000000  0.18391689  0.79810355  1
  O  O28  1  0.75000000  0.32558268  0.31935217  1
  O  O29  1  0.75000000  0.82558268  0.18064783  1
  O  O30  1  0.01160319  0.59075274  0.22225937  1
  O  O31  1  0.01160319  0.09075274  0.27774063  1
