# generated using pymatgen
data_LiMn2(PO4)2
_symmetry_space_group_name_H-M   'P 1'
_cell_length_a   13.36519888
_cell_length_b   8.66222006
_cell_length_c   8.66583512
_cell_angle_alpha   90.56063096
_cell_angle_beta   108.56136507
_cell_angle_gamma   108.49085933
_symmetry_Int_Tables_number   1
_chemical_formula_structural   LiMn2(PO4)2
_chemical_formula_sum   'Li6 Mn12 P12 O48'
_cell_volume   895.10830239
_cell_formula_units_Z   6
loop_
 _symmetry_equiv_pos_site_id
 _symmetry_equiv_pos_as_xyz
  1  'x, y, z'
loop_
 _atom_site_type_symbol
 _atom_site_label
 _atom_site_symmetry_multiplicity
 _atom_site_fract_x
 _atom_site_fract_y
 _atom_site_fract_z
 _atom_site_occupancy
  Li  Li0  1  0.13187667  0.12005019  0.14553406  1
  Li  Li1  1  0.50000000  0.00000000  0.00000000  1
  Li  Li2  1  0.00000000  0.50000000  0.50000000  1
  Li  Li3  1  0.74897827  0.24901071  0.25029560  1
  Li  Li4  1  0.25102173  0.75098929  0.74970440  1
  Li  Li5  1  0.86812333  0.87994981  0.85446594  1
  Mn  Mn6  1  0.07127746  0.00587736  0.68797497  1
  Mn  Mn7  1  0.18276094  0.56231341  0.24613805  1
  Mn  Mn8  1  0.37609396  0.11235139  0.64047551  1
  Mn  Mn9  1  0.12583175  0.39684995  0.85558340  1
  Mn  Mn10  1  0.57057801  0.50556310  0.18969264  1
  Mn  Mn11  1  0.32419327  0.93949517  0.25775461  1
  Mn  Mn12  1  0.67580673  0.06050483  0.74224539  1
  Mn  Mn13  1  0.42942199  0.49443690  0.81030736  1
  Mn  Mn14  1  0.62390604  0.88764861  0.35952449  1
  Mn  Mn15  1  0.87416825  0.60315005  0.14441660  1
  Mn  Mn16  1  0.81723906  0.43768659  0.75386195  1
  Mn  Mn17  1  0.92872254  0.99412264  0.31202503  1
  P  P18  1  0.18515733  0.31447374  0.53043544  1
  P  P19  1  0.37535149  0.66460421  0.08400367  1
  P  P20  1  0.12548272  0.83414411  0.41398658  1
  P  P21  1  0.31303640  0.18491628  0.96873045  1
  P  P22  1  0.56452800  0.21805412  0.43271930  1
  P  P23  1  0.06289434  0.71984096  0.93760234  1
  P  P24  1  0.93710566  0.28015904  0.06239766  1
  P  P25  1  0.43547200  0.78194588  0.56728070  1
  P  P26  1  0.68696360  0.81508372  0.03126955  1
  P  P27  1  0.87451728  0.16585589  0.58601342  1
  P  P28  1  0.62464851  0.33539579  0.91599633  1
  P  P29  1  0.81484267  0.68552626  0.46956456  1
  O  O30  1  0.05219251  0.37851797  0.04654485  1
  O  O31  1  0.09483464  0.13843473  0.49874438  1
  O  O32  1  0.30065571  0.12399024  0.13263628  1
  O  O33  1  0.18630964  0.36317184  0.35960367  1
  O  O34  1  0.26790554  0.53518061  0.09571732  1
  O  O35  1  0.01943981  0.84910655  0.28223785  1
  O  O36  1  0.40452944  0.36032325  0.00026073  1
  O  O37  1  0.15527611  0.75240282  0.11146301  1
  O  O38  1  0.11874572  0.65191664  0.39078567  1
  O  O39  1  0.15351214  0.43396273  0.62433006  1
  O  O40  1  0.44977016  0.12107383  0.44933589  1
  O  O41  1  0.19746739  0.20189700  0.87483400  1
  O  O42  1  0.29957308  0.29898330  0.63116422  1
  O  O43  1  0.34454953  0.06659564  0.87452729  1
  O  O44  1  0.59621030  0.12034538  0.31663858  1
  O  O45  1  0.09450764  0.62899347  0.81648213  1
  O  O46  1  0.63225579  0.35920672  0.09894760  1
  O  O47  1  0.38222324  0.84721832  0.10610156  1
  O  O48  1  0.13239935  0.85600580  0.59587210  1
  O  O49  1  0.34561677  0.75183795  0.38924886  1
  O  O50  1  0.23081646  0.96762119  0.39823661  1
  O  O51  1  0.48250752  0.65301223  0.21439270  1
  O  O52  1  0.56231680  0.38476895  0.37649112  1
  O  O53  1  0.05158601  0.88741526  0.88472515  1
  O  O54  1  0.94841399  0.11258474  0.11527485  1
  O  O55  1  0.43768320  0.61523105  0.62350888  1
  O  O56  1  0.76918354  0.03237881  0.60176339  1
  O  O57  1  0.51749248  0.34698777  0.78560730  1
  O  O58  1  0.65438323  0.24816205  0.61075114  1
  O  O59  1  0.86760065  0.14399420  0.40412790  1
  O  O60  1  0.61777676  0.15278168  0.89389844  1
  O  O61  1  0.36774421  0.64079328  0.90105240  1
  O  O62  1  0.90549236  0.37100653  0.18351787  1
  O  O63  1  0.65545047  0.93340436  0.12547271  1
  O  O64  1  0.40378970  0.87965462  0.68336142  1
  O  O65  1  0.70042692  0.70101670  0.36883578  1
  O  O66  1  0.80253261  0.79810300  0.12516600  1
  O  O67  1  0.55022984  0.87892617  0.55066411  1
  O  O68  1  0.84648786  0.56603727  0.37566994  1
  O  O69  1  0.88125428  0.34808336  0.60921433  1
  O  O70  1  0.84472389  0.24759718  0.88853699  1
  O  O71  1  0.59547056  0.63967675  0.99973927  1
  O  O72  1  0.98056019  0.15089345  0.71776215  1
  O  O73  1  0.73209446  0.46481839  0.90428268  1
  O  O74  1  0.81369036  0.63682816  0.64039633  1
  O  O75  1  0.69934429  0.87600976  0.86736372  1
  O  O76  1  0.90516536  0.86156527  0.50125562  1
  O  O77  1  0.94780749  0.62148203  0.95345515  1
