# generated using pymatgen
data_MnV4CuO12
_symmetry_space_group_name_H-M   'P 1'
_cell_length_a   6.82970194
_cell_length_b   6.82970215
_cell_length_c   6.03684180
_cell_angle_alpha   76.53579047
_cell_angle_beta   103.46421487
_cell_angle_gamma   95.71098756
_symmetry_Int_Tables_number   1
_chemical_formula_structural   MnV4CuO12
_chemical_formula_sum   'Mn1 V4 Cu1 O12'
_cell_volume   266.01599506
_cell_formula_units_Z   1
loop_
 _symmetry_equiv_pos_site_id
 _symmetry_equiv_pos_as_xyz
  1  'x, y, z'
loop_
 _atom_site_type_symbol
 _atom_site_label
 _atom_site_symmetry_multiplicity
 _atom_site_fract_x
 _atom_site_fract_y
 _atom_site_fract_z
 _atom_site_occupancy
  Mn  Mn0  1  0.91562846  0.91562846  0.25000000  1
  V  V1  1  0.20903171  0.61166041  0.76538570  1
  V  V2  1  0.38993043  0.78589135  0.27054442  1
  V  V3  1  0.61166041  0.20903171  0.73461430  1
  V  V4  1  0.78589135  0.38993043  0.22945558  1
  Cu  Cu5  1  0.08799850  0.08799850  0.75000000  1
  O  O6  1  0.04223089  0.80415078  0.65525750  1
  O  O7  1  0.09190183  0.37956196  0.78318680  1
  O  O8  1  0.20524269  0.95609628  0.17669307  1
  O  O9  1  0.36369421  0.64080406  0.55496332  1
  O  O10  1  0.37956196  0.09190183  0.71681320  1
  O  O11  1  0.35052397  0.63921349  0.04931041  1
  O  O12  1  0.64080406  0.36369421  0.94503668  1
  O  O13  1  0.62103627  0.90540270  0.28802310  1
  O  O14  1  0.63921349  0.35052397  0.45068959  1
  O  O15  1  0.80415078  0.04223089  0.84474250  1
  O  O16  1  0.90540270  0.62103627  0.21197690  1
  O  O17  1  0.95609628  0.20524269  0.32330693  1
