# generated using pymatgen
data_Na3VSiBO7
_symmetry_space_group_name_H-M   'P 1'
_cell_length_a   8.91609048
_cell_length_b   6.63342200
_cell_length_c   5.33966485
_cell_angle_alpha   90.00000000
_cell_angle_beta   88.46141829
_cell_angle_gamma   90.00000000
_symmetry_Int_Tables_number   1
_chemical_formula_structural   Na3VSiBO7
_chemical_formula_sum   'Na6 V2 Si2 B2 O14'
_cell_volume   315.69629785
_cell_formula_units_Z   2
loop_
 _symmetry_equiv_pos_site_id
 _symmetry_equiv_pos_as_xyz
  1  'x, y, z'
loop_
 _atom_site_type_symbol
 _atom_site_label
 _atom_site_symmetry_multiplicity
 _atom_site_fract_x
 _atom_site_fract_y
 _atom_site_fract_z
 _atom_site_occupancy
  Na  Na0  1  0.08393733  0.25000000  0.76081740  1
  Na  Na1  1  0.25316200  0.00356454  0.25365915  1
  Na  Na2  1  0.25316200  0.49643546  0.25365915  1
  Na  Na3  1  0.74683800  0.50356454  0.74634085  1
  Na  Na4  1  0.74683800  0.99643546  0.74634085  1
  Na  Na5  1  0.91606267  0.75000000  0.23918260  1
  V  V6  1  0.33894046  0.75000000  0.78956633  1
  V  V7  1  0.66105954  0.25000000  0.21043367  1
  Si  Si8  1  0.42721355  0.25000000  0.72091744  1
  Si  Si9  1  0.57278645  0.75000000  0.27908256  1
  B  B10  1  0.06564624  0.75000000  0.73719583  1
  B  B11  1  0.93435376  0.25000000  0.26280417  1
  O  O12  1  0.08121454  0.25000000  0.31329221  1
  O  O13  1  0.12910341  0.75000000  0.97279116  1
  O  O14  1  0.18159096  0.75000000  0.54671580  1
  O  O15  1  0.32363442  0.05252973  0.78684108  1
  O  O16  1  0.32363442  0.44747027  0.78684108  1
  O  O17  1  0.48302005  0.25000000  0.42464625  1
  O  O18  1  0.42076339  0.75000000  0.10832658  1
  O  O19  1  0.57923661  0.25000000  0.89167342  1
  O  O20  1  0.51697995  0.75000000  0.57535375  1
  O  O21  1  0.67636558  0.55252973  0.21315892  1
  O  O22  1  0.67636558  0.94747027  0.21315892  1
  O  O23  1  0.81840904  0.25000000  0.45328420  1
  O  O24  1  0.87089659  0.25000000  0.02720884  1
  O  O25  1  0.91878546  0.75000000  0.68670779  1
