# generated using pymatgen
data_LiMn2(PO4)2
_symmetry_space_group_name_H-M   'P 1'
_cell_length_a   12.58272442
_cell_length_b   9.11181354
_cell_length_c   8.68211628
_cell_angle_alpha   104.26034824
_cell_angle_beta   80.34333500
_cell_angle_gamma   74.74890108
_symmetry_Int_Tables_number   1
_chemical_formula_structural   LiMn2(PO4)2
_chemical_formula_sum   'Li6 Mn12 P12 O48'
_cell_volume   901.52635134
_cell_formula_units_Z   6
loop_
 _symmetry_equiv_pos_site_id
 _symmetry_equiv_pos_as_xyz
  1  'x, y, z'
loop_
 _atom_site_type_symbol
 _atom_site_label
 _atom_site_symmetry_multiplicity
 _atom_site_fract_x
 _atom_site_fract_y
 _atom_site_fract_z
 _atom_site_occupancy
  Li  Li0  1  0.12728243  0.86144010  0.01296528  1
  Li  Li1  1  0.00002065  0.49996701  0.49998901  1
  Li  Li2  1  0.25057338  0.24837978  0.49880500  1
  Li  Li3  1  0.49997288  0.00000739  0.50002099  1
  Li  Li4  1  0.74938279  0.75163726  0.50126895  1
  Li  Li5  1  0.87273890  0.13858483  0.98702417  1
  Mn  Mn6  1  0.03927693  0.89609189  0.61661255  1
  Mn  Mn7  1  0.24467581  0.49111193  0.26349698  1
  Mn  Mn8  1  0.13185532  0.48387042  0.93392212  1
  Mn  Mn9  1  0.37193095  0.00913503  0.06401449  1
  Mn  Mn10  1  0.46159831  0.60464686  0.38140893  1
  Mn  Mn11  1  0.26131016  0.00830130  0.72948394  1
  Mn  Mn12  1  0.73866899  0.99170864  0.27057340  1
  Mn  Mn13  1  0.53841423  0.39523426  0.61852182  1
  Mn  Mn14  1  0.62822166  0.99123854  0.93596845  1
  Mn  Mn15  1  0.86815116  0.51604694  0.06595986  1
  Mn  Mn16  1  0.75530379  0.50886534  0.73649292  1
  Mn  Mn17  1  0.96069220  0.10390447  0.38346995  1
  P  P18  1  0.10885328  0.23409996  0.12632899  1
  P  P19  1  0.25010984  0.88013817  0.34484737  1
  P  P20  1  0.01993952  0.27045400  0.70978016  1
  P  P21  1  0.24928458  0.62296632  0.65463277  1
  P  P22  1  0.60779868  0.73863063  0.13184434  1
  P  P23  1  0.47930817  0.23028275  0.29053242  1
  P  P24  1  0.52064358  0.76968855  0.70952274  1
  P  P25  1  0.39217541  0.26140372  0.86815973  1
  P  P26  1  0.75070635  0.37701063  0.34535569  1
  P  P27  1  0.98002904  0.72962256  0.29010871  1
  P  P28  1  0.74996142  0.11993634  0.65493955  1
  P  P29  1  0.89113056  0.76581140  0.87377570  1
  O  O30  1  0.04721770  0.35618566  0.04263936  1
  O  O31  1  0.11717935  0.92695802  0.40292236  1
  O  O32  1  0.09928194  0.63738406  0.16840242  1
  O  O33  1  0.02989606  0.13490098  0.16719961  1
  O  O34  1  0.27522595  0.90309170  0.17284810  1
  O  O35  1  0.00529827  0.27028749  0.53575889  1
  O  O36  1  0.13833257  0.32833673  0.27739916  1
  O  O37  1  0.29376870  0.98693776  0.46952702  1
  O  O38  1  0.28586481  0.38407311  -0.00042923  1
  O  O39  1  0.20031722  0.80436884  0.67538605  1
  O  O40  1  0.29993370  0.70100035  0.33091615  1
  O  O41  1  0.20594135  0.51694641  0.52939900  1
  O  O42  1  0.11472622  0.35094419  0.72493697  1
  O  O43  1  0.54725035  0.85786248  0.04548313  1
  O  O44  1  0.06504104  0.10516484  0.73709154  1
  O  O45  1  0.21335290  0.61176903  0.83145968  1
  O  O46  1  0.52641402  0.65039409  0.18623632  1
  O  O47  1  0.43195313  0.39710262  0.26842287  1
  O  O48  1  0.40205139  0.86547333  0.82881026  1
  O  O49  1  0.38292711  0.57361111  0.59409116  1
  O  O50  1  0.38501606  0.14929336  0.27434661  1
  O  O51  1  0.50488078  0.76929728  0.53424347  1
  O  O52  1  0.64049912  0.83265414  0.28053417  1
  O  O53  1  0.78468388  0.88961601  0.00471511  1
  O  O54  1  0.21522289  0.11043700  0.99534703  1
  O  O55  1  0.35952957  0.16733630  0.71945729  1
  O  O56  1  0.49507927  0.23066959  0.46576964  1
  O  O57  1  0.61488014  0.85052887  0.72537342  1
  O  O58  1  0.61700617  0.42640873  0.40594541  1
  O  O59  1  0.59782408  0.13471155  0.17149347  1
  O  O60  1  0.56803942  0.60283251  0.73158373  1
  O  O61  1  0.47354372  0.34970364  0.81390578  1
  O  O62  1  0.78657988  0.38818659  0.16879768  1
  O  O63  1  0.93494239  0.89490331  0.26294499  1
  O  O64  1  0.45274909  0.14172622  0.95474953  1
  O  O65  1  0.88538851  0.64905061  0.27511883  1
  O  O66  1  0.79408619  0.48299841  0.47051647  1
  O  O67  1  0.70006362  0.29906909  0.66901627  1
  O  O68  1  0.79970173  0.19558021  0.32457500  1
  O  O69  1  0.71423524  0.61585987  0.00050414  1
  O  O70  1  0.70623232  0.01307445  0.53040274  1
  O  O71  1  0.86165895  0.67167579  0.72267284  1
  O  O72  1  0.99453220  0.72970975  0.46435057  1
  O  O73  1  0.72508929  0.09684164  0.82679097  1
  O  O74  1  0.97014181  0.86500535  0.83296380  1
  O  O75  1  0.90083780  0.36257753  0.83144503  1
  O  O76  1  0.88292331  0.07312328  0.59682873  1
  O  O77  1  0.95264685  0.64411810  0.95727948  1
