# generated using pymatgen
data_Na3CoSiCO7
_symmetry_space_group_name_H-M   'P 1'
_cell_length_a   9.12812382
_cell_length_b   6.42675438
_cell_length_c   5.19482281
_cell_angle_alpha   90.00000000
_cell_angle_beta   88.74002121
_cell_angle_gamma   90.00000000
_symmetry_Int_Tables_number   1
_chemical_formula_structural   Na3CoSiCO7
_chemical_formula_sum   'Na6 Co2 Si2 C2 O14'
_cell_volume   304.67649048
_cell_formula_units_Z   2
loop_
 _symmetry_equiv_pos_site_id
 _symmetry_equiv_pos_as_xyz
  1  'x, y, z'
loop_
 _atom_site_type_symbol
 _atom_site_label
 _atom_site_symmetry_multiplicity
 _atom_site_fract_x
 _atom_site_fract_y
 _atom_site_fract_z
 _atom_site_occupancy
  Na  Na0  1  0.08439676  0.25000000  0.76108069  1
  Na  Na1  1  0.26098119  0.00381948  0.25225484  1
  Na  Na2  1  0.26098119  0.49618052  0.25225484  1
  Na  Na3  1  0.73901881  0.50381948  0.74774516  1
  Na  Na4  1  0.73901881  0.99618052  0.74774516  1
  Na  Na5  1  0.91560324  0.75000000  0.23891931  1
  Co  Co6  1  0.35726836  0.75000000  0.79493584  1
  Co  Co7  1  0.64273164  0.25000000  0.20506416  1
  Si  Si8  1  0.42119471  0.25000000  0.70009519  1
  Si  Si9  1  0.57880529  0.75000000  0.29990481  1
  C  C10  1  0.06126531  0.75000000  0.73020994  1
  C  C11  1  0.93873469  0.25000000  0.26979006  1
  O  O12  1  0.08066929  0.25000000  0.28193041  1
  O  O13  1  0.12315925  0.75000000  0.95364763  1
  O  O14  1  0.14153632  0.75000000  0.52214745  1
  O  O15  1  0.31727492  0.04589778  0.77378731  1
  O  O16  1  0.31727492  0.45410222  0.77378731  1
  O  O17  1  0.45105448  0.25000000  0.38513623  1
  O  O18  1  0.42432258  0.75000000  0.14951034  1
  O  O19  1  0.57567742  0.25000000  0.85048966  1
  O  O20  1  0.54894552  0.75000000  0.61486377  1
  O  O21  1  0.68272508  0.54589778  0.22621269  1
  O  O22  1  0.68272508  0.95410222  0.22621269  1
  O  O23  1  0.85846368  0.25000000  0.47785255  1
  O  O24  1  0.87684075  0.25000000  0.04635237  1
  O  O25  1  0.91933071  0.75000000  0.71806959  1
