# generated using pymatgen
data_Sr2CaI6
_symmetry_space_group_name_H-M   'P 1'
_cell_length_a   22.28518146
_cell_length_b   9.19257278
_cell_length_c   8.15302303
_cell_angle_alpha   90.00000000
_cell_angle_beta   90.00000000
_cell_angle_gamma   90.00000000
_symmetry_Int_Tables_number   1
_chemical_formula_structural   Sr2CaI6
_chemical_formula_sum   'Sr8 Ca4 I24'
_cell_volume   1670.21323511
_cell_formula_units_Z   4
loop_
 _symmetry_equiv_pos_site_id
 _symmetry_equiv_pos_as_xyz
  1  'x, y, z'
loop_
 _atom_site_type_symbol
 _atom_site_label
 _atom_site_symmetry_multiplicity
 _atom_site_fract_x
 _atom_site_fract_y
 _atom_site_fract_z
 _atom_site_occupancy
  Sr  Sr0  1  0.16200656  0.35361374  0.26512166  1
  Sr  Sr1  1  0.16200656  0.64638626  0.76512166  1
  Sr  Sr2  1  0.33799344  0.14638626  0.76512166  1
  Sr  Sr3  1  0.33799344  0.85361374  0.26512166  1
  Sr  Sr4  1  0.66200656  0.14638626  0.73487834  1
  Sr  Sr5  1  0.66200656  0.85361374  0.23487834  1
  Sr  Sr6  1  0.83799344  0.35361374  0.23487834  1
  Sr  Sr7  1  0.83799344  0.64638626  0.73487834  1
  Ca  Ca8  1  0.00000000  0.13880969  0.75000000  1
  Ca  Ca9  1  0.00000000  0.86119031  0.25000000  1
  Ca  Ca10  1  0.50000000  0.36119031  0.25000000  1
  Ca  Ca11  1  0.50000000  0.63880969  0.75000000  1
  I  I12  1  0.08069914  0.90469278  0.93772220  1
  I  I13  1  0.08069914  0.09530722  0.43772220  1
  I  I14  1  0.07995896  0.38000065  0.92710822  1
  I  I15  1  0.07995896  0.61999935  0.42710822  1
  I  I16  1  0.24281013  0.38237892  0.60198199  1
  I  I17  1  0.24281013  0.61762108  0.10198199  1
  I  I18  1  0.25718987  0.11762108  0.10198199  1
  I  I19  1  0.25718987  0.88237892  0.60198199  1
  I  I20  1  0.42004104  0.11999935  0.42710822  1
  I  I21  1  0.42004104  0.88000065  0.92710822  1
  I  I22  1  0.41930086  0.40469278  0.93772220  1
  I  I23  1  0.41930086  0.59530722  0.43772220  1
  I  I24  1  0.58069914  0.40469278  0.56227780  1
  I  I25  1  0.58069914  0.59530722  0.06227780  1
  I  I26  1  0.57995896  0.11999935  0.07289178  1
  I  I27  1  0.57995896  0.88000065  0.57289178  1
  I  I28  1  0.74281013  0.11762108  0.39801801  1
  I  I29  1  0.74281013  0.88237892  0.89801801  1
  I  I30  1  0.75718987  0.38237892  0.89801801  1
  I  I31  1  0.75718987  0.61762108  0.39801801  1
  I  I32  1  0.92004104  0.38000065  0.57289178  1
  I  I33  1  0.92004104  0.61999935  0.07289178  1
  I  I34  1  0.91930086  0.09530722  0.06227780  1
  I  I35  1  0.91930086  0.90469278  0.56227780  1
