# generated using pymatgen
data_Li2TiMn3O8
_symmetry_space_group_name_H-M   'P 1'
_cell_length_a   6.00954368
_cell_length_b   5.80688478
_cell_length_c   9.53965270
_cell_angle_alpha   89.95696276
_cell_angle_beta   90.02080056
_cell_angle_gamma   118.89058389
_symmetry_Int_Tables_number   1
_chemical_formula_structural   Li2TiMn3O8
_chemical_formula_sum   'Li4 Ti2 Mn6 O16'
_cell_volume   291.47082662
_cell_formula_units_Z   2
loop_
 _symmetry_equiv_pos_site_id
 _symmetry_equiv_pos_as_xyz
  1  'x, y, z'
loop_
 _atom_site_type_symbol
 _atom_site_label
 _atom_site_symmetry_multiplicity
 _atom_site_fract_x
 _atom_site_fract_y
 _atom_site_fract_z
 _atom_site_occupancy
  Li  Li0  1  0.31197556  0.65544057  0.89717000  1
  Li  Li1  1  0.98691924  0.99434906  0.99376260  1
  Li  Li2  1  0.01308076  0.00743082  0.49376260  1
  Li  Li3  1  0.68802444  0.34346401  0.39717000  1
  Ti  Ti4  1  0.36232805  0.68183624  0.49349872  1
  Ti  Ti5  1  0.63767195  0.31950819  0.99349872  1
  Mn  Mn6  1  0.16773319  0.83017129  0.21591216  1
  Mn  Mn7  1  0.17105453  0.33764040  0.21698438  1
  Mn  Mn8  1  0.65445350  0.82790048  0.21424424  1
  Mn  Mn9  1  0.34554650  0.17344698  0.71424424  1
  Mn  Mn10  1  0.83226681  0.66243810  0.71591216  1
  Mn  Mn11  1  0.82894547  0.16658587  0.71698438  1
  O  O12  1  0.20728555  0.85884136  0.58820959  1
  O  O13  1  0.05709744  0.52827225  0.34236905  1
  O  O14  1  0.33594183  0.66757027  0.11290723  1
  O  O15  1  0.98507857  0.99250333  0.30350604  1
  O  O16  1  0.01492143  0.00742476  0.80350604  1
  O  O17  1  0.20638271  0.34939123  0.58780897  1
  O  O18  1  0.51428046  0.97139721  0.34383832  1
  O  O19  1  0.51471396  0.54317807  0.34456188  1
  O  O20  1  0.31049908  0.15453008  0.09914683  1
  O  O21  1  0.68950092  0.84403100  0.59914683  1
  O  O22  1  0.48571954  0.45711674  0.84383832  1
  O  O23  1  0.48528604  0.02846311  0.84456188  1
  O  O24  1  0.66405818  0.33162844  0.61290723  1
  O  O25  1  0.79271445  0.65155681  0.08820959  1
  O  O26  1  0.94290256  0.47117481  0.84236905  1
  O  O27  1  0.79361729  0.14300852  0.08780897  1
