# generated using pymatgen
data_MnCoO4
_symmetry_space_group_name_H-M   'P 1'
_cell_length_a   2.89859467
_cell_length_b   5.75835477
_cell_length_c   9.91470172
_cell_angle_alpha   90.00000000
_cell_angle_beta   90.00000000
_cell_angle_gamma   59.82275343
_symmetry_Int_Tables_number   1
_chemical_formula_structural   MnCoO4
_chemical_formula_sum   'Mn2 Co2 O8'
_cell_volume   143.05984307
_cell_formula_units_Z   2
loop_
 _symmetry_equiv_pos_site_id
 _symmetry_equiv_pos_as_xyz
  1  'x, y, z'
loop_
 _atom_site_type_symbol
 _atom_site_label
 _atom_site_symmetry_multiplicity
 _atom_site_fract_x
 _atom_site_fract_y
 _atom_site_fract_z
 _atom_site_occupancy
  Mn  Mn0  1  -0.00000653  0.50002065  0.99996136  1
  Mn  Mn1  1  0.50000653  0.24997935  0.49996136  1
  Co  Co2  1  0.49990809  0.75007205  0.50002813  1
  Co  Co3  1  0.00009191  0.99992795  0.00002813  1
  O  O4  1  0.66040911  0.83944571  0.09510028  1
  O  O5  1  0.32824692  0.67188370  0.90379669  1
  O  O6  1  0.16028276  0.58953045  0.40481622  1
  O  O7  1  0.83959089  0.91055429  0.59510028  1
  O  O8  1  0.17175308  0.07811630  0.40379669  1
  O  O9  1  0.67164403  0.32823993  0.09629832  1
  O  O10  1  0.33971724  0.16046955  0.90481622  1
  O  O11  1  0.82835597  0.42176007  0.59629732  1
