# generated using pymatgen
data_TaZnBiO5
_symmetry_space_group_name_H-M   'P 1'
_cell_length_a   5.34502677
_cell_length_b   10.70510505
_cell_length_c   16.12970068
_cell_angle_alpha   90.00000000
_cell_angle_beta   90.00000000
_cell_angle_gamma   90.00000000
_symmetry_Int_Tables_number   1
_chemical_formula_structural   TaZnBiO5
_chemical_formula_sum   'Ta8 Zn8 Bi8 O40'
_cell_volume   922.92652177
_cell_formula_units_Z   8
loop_
 _symmetry_equiv_pos_site_id
 _symmetry_equiv_pos_as_xyz
  1  'x, y, z'
loop_
 _atom_site_type_symbol
 _atom_site_label
 _atom_site_symmetry_multiplicity
 _atom_site_fract_x
 _atom_site_fract_y
 _atom_site_fract_z
 _atom_site_occupancy
  Ta  Ta0  1  0.97513025  0.37333669  0.58793188  1
  Ta  Ta1  1  0.52486975  0.87333669  0.41206812  1
  Ta  Ta2  1  0.02486975  0.62666331  0.41206812  1
  Ta  Ta3  1  0.47513025  0.12666331  0.58793188  1
  Ta  Ta4  1  0.02486975  0.12666331  0.08793188  1
  Ta  Ta5  1  0.97513025  0.87333669  0.91206812  1
  Ta  Ta6  1  0.52486975  0.37333669  0.08793188  1
  Ta  Ta7  1  0.47513025  0.62666331  0.91206812  1
  Zn  Zn8  1  0.49687414  0.37070769  0.45279869  1
  Zn  Zn9  1  0.99687414  0.12929231  0.45279869  1
  Zn  Zn10  1  0.99687414  0.62929231  0.04720131  1
  Zn  Zn11  1  0.00312586  0.37070769  0.95279869  1
  Zn  Zn12  1  0.50312586  0.12929231  0.95279869  1
  Zn  Zn13  1  0.00312586  0.87070769  0.54720131  1
  Zn  Zn14  1  0.50312586  0.62929231  0.54720131  1
  Zn  Zn15  1  0.49687414  0.87070769  0.04720131  1
  Bi  Bi16  1  0.01590337  0.85623736  0.22106270  1
  Bi  Bi17  1  0.98409663  0.14376264  0.77893730  1
  Bi  Bi18  1  0.48409663  0.35623736  0.77893730  1
  Bi  Bi19  1  0.98409663  0.64376264  0.72106270  1
  Bi  Bi20  1  0.51590337  0.14376264  0.27893730  1
  Bi  Bi21  1  0.51590337  0.64376264  0.22106270  1
  Bi  Bi22  1  0.48409663  0.85623736  0.72106270  1
  Bi  Bi23  1  0.01590337  0.35623736  0.27893730  1
  O  O24  1  0.84864238  0.31083083  0.68929776  1
  O  O25  1  0.27734115  0.02975699  0.03798143  1
  O  O26  1  0.22265885  0.52975699  0.96201857  1
  O  O27  1  0.35620383  0.79560279  0.15179709  1
  O  O28  1  0.14379617  0.29560279  0.84820291  1
  O  O29  1  0.84864238  0.81083083  0.81070224  1
  O  O30  1  0.14379617  0.79560279  0.65179709  1
  O  O31  1  0.65135762  0.81083083  0.31070224  1
  O  O32  1  0.27734115  0.52975699  0.46201857  1
  O  O33  1  0.15135762  0.68916917  0.31070224  1
  O  O34  1  0.65135762  0.31083083  0.18929776  1
  O  O35  1  0.71806991  0.22371616  0.52673342  1
  O  O36  1  0.77734115  0.97024301  0.46201857  1
  O  O37  1  0.64379617  0.70439721  0.65179709  1
  O  O38  1  0.17477401  0.00331636  0.86798889  1
  O  O39  1  0.77734115  0.47024301  0.03798143  1
  O  O40  1  0.15135762  0.18916917  0.18929776  1
  O  O41  1  0.85620383  0.20439721  0.34820291  1
  O  O42  1  0.21806991  0.77628384  0.97326658  1
  O  O43  1  0.22265885  0.02975699  0.53798143  1
  O  O44  1  0.28193009  0.77628384  0.47326658  1
  O  O45  1  0.82522599  0.99668364  0.13201111  1
  O  O46  1  0.64379617  0.20439721  0.84820291  1
  O  O47  1  0.67477401  0.99668364  0.63201111  1
  O  O48  1  0.28193009  0.27628384  0.02673342  1
  O  O49  1  0.21806991  0.27628384  0.52673342  1
  O  O50  1  0.72265885  0.47024301  0.53798143  1
  O  O51  1  0.72265885  0.97024301  0.96201857  1
  O  O52  1  0.67477401  0.49668364  0.86798889  1
  O  O53  1  0.78193009  0.72371616  0.47326658  1
  O  O54  1  0.78193009  0.22371616  0.02673342  1
  O  O55  1  0.71806991  0.72371616  0.97326658  1
  O  O56  1  0.82522599  0.49668364  0.36798889  1
  O  O57  1  0.85620383  0.70439721  0.15179709  1
  O  O58  1  0.35620383  0.29560279  0.34820291  1
  O  O59  1  0.17477401  0.50331636  0.63201111  1
  O  O60  1  0.32522599  0.50331636  0.13201111  1
  O  O61  1  0.34864238  0.18916917  0.68929776  1
  O  O62  1  0.32522599  0.00331636  0.36798889  1
  O  O63  1  0.34864238  0.68916917  0.81070224  1
