# generated using pymatgen
data_Li6V3P8O29
_symmetry_space_group_name_H-M   'P 1'
_cell_length_a   9.80322003
_cell_length_b   9.79955593
_cell_length_c   13.95757527
_cell_angle_alpha   89.89330536
_cell_angle_beta   89.77697917
_cell_angle_gamma   59.92168165
_symmetry_Int_Tables_number   1
_chemical_formula_structural   Li6V3P8O29
_chemical_formula_sum   'Li12 V6 P16 O58'
_cell_volume   1160.29703612
_cell_formula_units_Z   2
loop_
 _symmetry_equiv_pos_site_id
 _symmetry_equiv_pos_as_xyz
  1  'x, y, z'
loop_
 _atom_site_type_symbol
 _atom_site_label
 _atom_site_symmetry_multiplicity
 _atom_site_fract_x
 _atom_site_fract_y
 _atom_site_fract_z
 _atom_site_occupancy
  Li  Li0  1  0.90816781  0.76403889  0.05903807  1
  Li  Li1  1  0.89956533  0.33559110  0.56222152  1
  Li  Li2  1  0.66049303  0.67886643  0.88361862  1
  Li  Li3  1  0.76767399  0.32223674  0.06019862  1
  Li  Li4  1  0.32425692  0.90713480  0.05842694  1
  Li  Li5  1  0.66214211  0.23555375  0.44390120  1
  Li  Li6  1  0.33662995  0.76095088  0.56402221  1
  Li  Li7  1  0.09652110  0.66591884  0.44128443  1
  Li  Li8  1  0.23414347  0.09751893  0.44213380  1
  Li  Li9  1  0.10150191  0.23452593  0.93878695  1
  Li  Li10  1  0.98647137  0.97092877  0.98684361  1
  Li  Li11  1  0.95720263  0.98936551  0.51505276  1
  V  V12  1  0.56509770  0.43405250  0.24822212  1
  V  V13  1  0.43512667  0.56050868  0.75596210  1
  V  V14  1  0.56623971  0.00008817  0.74726340  1
  V  V15  1  0.43851991  0.99883553  0.24993391  1
  V  V16  1  0.99943508  0.56871519  0.24977731  1
  V  V17  1  0.00160592  0.43785132  0.74650297  1
  P  P18  1  0.90778071  0.77951591  0.84178670  1
  P  P19  1  0.77571733  0.91817515  0.34397369  1
  P  P20  1  0.91195466  0.31579883  0.34185009  1
  P  P21  1  0.66869762  0.66526699  0.12676853  1
  P  P22  1  0.66080418  0.66694608  0.63083823  1
  P  P23  1  0.78045489  0.31489273  0.84375842  1
  P  P24  1  0.69121502  0.22458435  0.65976416  1
  P  P25  1  0.31354380  0.90990315  0.84255163  1
  P  P26  1  0.69420808  0.08203330  0.15529018  1
  P  P27  1  0.31529804  0.77099366  0.34402460  1
  P  P28  1  0.22341051  0.69334520  0.15798495  1
  P  P29  1  0.33105522  0.33496636  0.36900666  1
  P  P30  1  0.33401361  0.32659897  0.87027004  1
  P  P31  1  0.08786676  0.69163062  0.65756615  1
  P  P32  1  0.22751239  0.08589744  0.65638926  1
  P  P33  1  0.08910029  0.22816597  0.15817423  1
  O  O34  1  0.00920331  0.77960631  0.56728276  1
  O  O35  1  0.91554970  0.74633589  0.34245853  1
  O  O36  1  0.79681699  0.99516473  0.07149437  1
  O  O37  1  0.74131790  0.91945793  0.83765880  1
  O  O38  1  0.89747785  0.62688513  0.82852068  1
  O  O39  1  0.81178797  0.67799173  0.16575938  1
  O  O40  1  0.90862428  0.47339816  0.32671935  1
  O  O41  1  0.00381404  0.22763739  0.06843854  1
  O  O42  1  0.92461608  0.34017758  0.83917841  1
  O  O43  1  0.66575349  0.80928475  0.67730889  1
  O  O44  1  0.61708520  0.92105983  0.33217459  1
  O  O45  1  0.81093654  0.51189987  0.66818130  1
  O  O46  1  0.67004292  0.66478698  0.01866513  1
  O  O47  1  0.65232245  0.66782041  0.52405786  1
  O  O48  1  0.68049718  0.50979140  0.16604636  1
  O  O49  1  0.47639526  0.89772741  0.83318057  1
  O  O50  1  0.51359984  0.80922146  0.16700699  1
  O  O51  1  0.74435944  0.33809132  0.34140386  1
  O  O52  1  0.79897401  0.20882009  0.75188797  1
  O  O53  1  0.78550029  0.21661065  0.57018121  1
  O  O54  1  0.78816217  0.22749001  0.93359811  1
  O  O55  1  0.63005868  0.47964352  0.83313730  1
  O  O56  1  0.51044568  0.67158052  0.67569530  1
  O  O57  1  0.66168149  0.25518143  0.15955434  1
  O  O58  1  0.47321288  0.61682096  0.32648637  1
  O  O59  1  0.33880038  0.91592338  0.34111416  1
  O  O60  1  0.79793308  0.99987538  0.24996486  1
  O  O61  1  0.78656000  0.00710470  0.42819335  1
  O  O62  1  0.22170313  0.99694610  0.56873780  1
  O  O63  1  0.66597901  0.08428120  0.66205291  1
  O  O64  1  0.53806912  0.38286584  0.66841140  1
  O  O65  1  0.33586379  0.74435717  0.84217036  1
  O  O66  1  0.48735834  0.32373718  0.32933089  1
  O  O67  1  0.37987678  0.53823577  0.16731275  1
  O  O68  1  0.20731243  0.79910817  0.07598761  1
  O  O69  1  0.23404820  0.76786221  0.43544290  1
  O  O70  1  0.20052361  0.79149462  0.25690763  1
  O  O71  1  0.25803324  0.65886084  0.66106820  1
  O  O72  1  0.47570571  0.18123876  0.82154106  1
  O  O73  1  0.53941851  0.08071898  0.16694472  1
  O  O74  1  0.33992282  0.47206588  0.82596886  1
  O  O75  1  0.33308572  0.32202088  0.97661235  1
  O  O76  1  0.32782592  0.33687599  0.47619372  1
  O  O77  1  0.18738106  0.49166455  0.32885811  1
  O  O78  1  0.38085237  0.08827512  0.66446509  1
  O  O79  1  0.32117301  0.19014376  0.32821670  1
  O  O80  1  0.08205457  0.66252559  0.15976925  1
  O  O81  1  0.00133135  0.79559269  0.75057187  1
  O  O82  1  0.99139539  0.78039827  0.93173678  1
  O  O83  1  0.08274860  0.53666917  0.66795532  1
  O  O84  1  0.18270044  0.33105832  0.82839599  1
  O  O85  1  0.09332616  0.38032087  0.17256949  1
  O  O86  1  0.25794052  0.08190890  0.16034003  1
  O  O87  1  0.22255138  0.00240449  0.93056270  1
  O  O88  1  0.20665825  0.00152557  0.75051970  1
  O  O89  1  0.08124635  0.25377447  0.65682241  1
  O  O90  1  0.99908605  0.23112621  0.43175305  1
  O  O91  1  0.00007733  0.20566784  0.24997297  1
