# generated using pymatgen
data_CaSnAs2O7
_symmetry_space_group_name_H-M   'P 1'
_cell_length_a   7.91123334
_cell_length_b   9.47260867
_cell_length_c   9.97287924
_cell_angle_alpha   90.00000000
_cell_angle_beta   115.95091507
_cell_angle_gamma   90.00000000
_symmetry_Int_Tables_number   1
_chemical_formula_structural   CaSnAs2O7
_chemical_formula_sum   'Ca4 Sn4 As8 O28'
_cell_volume   672.01010730
_cell_formula_units_Z   4
loop_
 _symmetry_equiv_pos_site_id
 _symmetry_equiv_pos_as_xyz
  1  'x, y, z'
loop_
 _atom_site_type_symbol
 _atom_site_label
 _atom_site_symmetry_multiplicity
 _atom_site_fract_x
 _atom_site_fract_y
 _atom_site_fract_z
 _atom_site_occupancy
  Ca  Ca0  1  0.26369684  0.94649725  0.92278820  1
  Ca  Ca1  1  0.73630316  0.44649725  0.57721180  1
  Ca  Ca2  1  0.73630316  0.05350275  0.07721180  1
  Ca  Ca3  1  0.26369684  0.55350275  0.42278820  1
  Sn  Sn4  1  0.76079682  0.04759515  0.64412730  1
  Sn  Sn5  1  0.23920318  0.54759515  0.85587270  1
  Sn  Sn6  1  0.23920318  0.95240485  0.35587270  1
  Sn  Sn7  1  0.76079682  0.45240485  0.14412730  1
  As  As8  1  0.41530065  0.24388379  0.72504738  1
  As  As9  1  0.58469935  0.74388379  0.77495262  1
  As  As10  1  0.58469935  0.75611621  0.27495262  1
  As  As11  1  0.41530065  0.25611621  0.22504638  1
  As  As12  1  0.00360193  0.27577720  0.94067466  1
  As  As13  1  0.99639807  0.77577720  0.55932534  1
  As  As14  1  0.99639807  0.72422280  0.05932534  1
  As  As15  1  0.00360193  0.22422280  0.44067466  1
  O  O16  1  0.87473901  0.25909209  0.03845414  1
  O  O17  1  0.12526099  0.75909209  0.46154586  1
  O  O18  1  0.12526099  0.74090791  0.96154586  1
  O  O19  1  0.87473901  0.24090791  0.53845414  1
  O  O20  1  0.33134181  0.41261943  0.70561810  1
  O  O21  1  0.66865819  0.91261943  0.79438190  1
  O  O22  1  0.66865819  0.58738057  0.29438190  1
  O  O23  1  0.33134181  0.08738057  0.20561810  1
  O  O24  1  0.43579588  0.14067580  0.87202614  1
  O  O25  1  0.56420412  0.64067580  0.62797386  1
  O  O26  1  0.56420412  0.85932420  0.12797386  1
  O  O27  1  0.43579588  0.35932420  0.37202614  1
  O  O28  1  0.23549767  0.16206096  0.56171608  1
  O  O29  1  0.76450233  0.66206096  0.93828392  1
  O  O30  1  0.76450233  0.83793904  0.43828392  1
  O  O31  1  0.23549767  0.33793904  0.06171608  1
  O  O32  1  0.95531025  0.08712591  0.31969171  1
  O  O33  1  0.04468975  0.58712591  0.18030829  1
  O  O34  1  0.04468975  0.91287409  0.68030829  1
  O  O35  1  0.95531025  0.41287409  0.81969171  1
  O  O36  1  0.61350665  0.25637822  0.19621799  1
  O  O37  1  0.38649335  0.75637822  0.30378201  1
  O  O38  1  0.38649335  0.74362178  0.80378201  1
  O  O39  1  0.61350665  0.24362178  0.69621799  1
  O  O40  1  0.00988911  0.38541079  0.36238734  1
  O  O41  1  0.99011089  0.88541079  0.13761266  1
  O  O42  1  0.99011089  0.61458921  0.63761266  1
  O  O43  1  0.00988911  0.11458921  0.86238734  1
