# generated using pymatgen
data_Li3V(BO3)2
_symmetry_space_group_name_H-M   'P 1'
_cell_length_a   5.20277747
_cell_length_b   8.88594701
_cell_length_c   9.97274332
_cell_angle_alpha   90.00000000
_cell_angle_beta   90.94599229
_cell_angle_gamma   90.00000000
_symmetry_Int_Tables_number   1
_chemical_formula_structural   Li3V(BO3)2
_chemical_formula_sum   'Li12 V4 B8 O24'
_cell_volume   460.99308770
_cell_formula_units_Z   4
loop_
 _symmetry_equiv_pos_site_id
 _symmetry_equiv_pos_as_xyz
  1  'x, y, z'
loop_
 _atom_site_type_symbol
 _atom_site_label
 _atom_site_symmetry_multiplicity
 _atom_site_fract_x
 _atom_site_fract_y
 _atom_site_fract_z
 _atom_site_occupancy
  Li  Li0  1  0.15479831  0.97391973  0.66961438  1
  Li  Li1  1  0.16870464  0.65853190  0.62091084  1
  Li  Li2  1  0.17707398  0.98508309  0.10159699  1
  Li  Li3  1  0.33129536  0.15853190  0.87908916  1
  Li  Li4  1  0.32292602  0.48508309  0.39840301  1
  Li  Li5  1  0.34520169  0.47391973  0.83038562  1
  Li  Li6  1  0.65479831  0.52608027  0.16961438  1
  Li  Li7  1  0.67707398  0.51491691  0.60159699  1
  Li  Li8  1  0.66870464  0.84146810  0.12091084  1
  Li  Li9  1  0.82292602  0.01491691  0.89840301  1
  Li  Li10  1  0.83129536  0.34146810  0.37908916  1
  Li  Li11  1  0.84520169  0.02608027  0.33038562  1
  V  V12  1  0.14643169  0.32507816  0.12106884  1
  V  V13  1  0.35356831  0.82507816  0.37893116  1
  V  V14  1  0.64643169  0.17492184  0.62106884  1
  V  V15  1  0.85356831  0.67492184  0.87893116  1
  B  B16  1  0.16635607  0.32259481  0.62130863  1
  B  B17  1  0.16437822  0.66469503  0.13096346  1
  B  B18  1  0.33364393  0.82259481  0.87869137  1
  B  B19  1  0.33562178  0.16469503  0.36903654  1
  B  B20  1  0.66437822  0.83530497  0.63096346  1
  B  B21  1  0.66635607  0.17740519  0.12130863  1
  B  B22  1  0.83562178  0.33530497  0.86903654  1
  B  B23  1  0.83364393  0.67740519  0.37869137  1
  O  O24  1  0.09084293  0.32914061  0.91386744  1
  O  O25  1  0.09607330  0.66704213  0.40637234  1
  O  O26  1  0.17962189  0.94801020  0.88196213  1
  O  O27  1  0.21355914  0.02542851  0.35818108  1
  O  O28  1  0.19960735  0.29252552  0.33240772  1
  O  O29  1  0.22644915  0.68236666  0.84702299  1
  O  O30  1  0.27355085  0.18236666  0.65297701  1
  O  O31  1  0.30039265  0.79252652  0.16759228  1
  O  O32  1  0.28644086  0.52542851  0.14181892  1
  O  O33  1  0.32037811  0.44801020  0.61803787  1
  O  O34  1  0.40915707  0.82914061  0.58613256  1
  O  O35  1  0.40392670  0.16704213  0.09362766  1
  O  O36  1  0.59607330  0.83295787  0.90637234  1
  O  O37  1  0.59084293  0.17085939  0.41386744  1
  O  O38  1  0.67962189  0.55198980  0.38196213  1
  O  O39  1  0.71355914  0.47457149  0.85818108  1
  O  O40  1  0.69960735  0.20747348  0.83240772  1
  O  O41  1  0.72644915  0.81763334  0.34702299  1
  O  O42  1  0.77355085  0.31763334  0.15297701  1
  O  O43  1  0.80039265  0.70747348  0.66759228  1
  O  O44  1  0.78644086  0.97457149  0.64181892  1
  O  O45  1  0.82037811  0.05198980  0.11803787  1
  O  O46  1  0.90392670  0.33295787  0.59362766  1
  O  O47  1  0.90915707  0.67085939  0.08613256  1
