# generated using pymatgen
data_LiVNiO4
_symmetry_space_group_name_H-M   'P 1'
_cell_length_a   6.03136052
_cell_length_b   10.38384940
_cell_length_c   4.92463670
_cell_angle_alpha   90.00022217
_cell_angle_beta   90.00002347
_cell_angle_gamma   90.00001554
_symmetry_Int_Tables_number   1
_chemical_formula_structural   LiVNiO4
_chemical_formula_sum   'Li4 V4 Ni4 O16'
_cell_volume   308.42378811
_cell_formula_units_Z   4
loop_
 _symmetry_equiv_pos_site_id
 _symmetry_equiv_pos_as_xyz
  1  'x, y, z'
loop_
 _atom_site_type_symbol
 _atom_site_label
 _atom_site_symmetry_multiplicity
 _atom_site_fract_x
 _atom_site_fract_y
 _atom_site_fract_z
 _atom_site_occupancy
  Li  Li0  1  -0.00000038  0.00000156  0.99999862  1
  Li  Li1  1  0.99999097  0.49999806  0.50000011  1
  Li  Li2  1  0.50000067  0.00000169  0.99999871  1
  Li  Li3  1  0.50000944  0.49999817  0.50000000  1
  V  V4  1  0.25000042  0.09517468  0.43049643  1
  V  V5  1  0.24999999  0.59517071  0.06951163  1
  V  V6  1  0.75000027  0.40482554  0.93050618  1
  V  V7  1  0.74999978  0.90482750  0.56949889  1
  Ni  Ni8  1  0.24999971  0.26887347  0.99364530  1
  Ni  Ni9  1  0.24999925  0.76887282  0.50634734  1
  Ni  Ni10  1  0.74999972  0.23112580  0.49366227  1
  Ni  Ni11  1  0.74999835  0.73112515  0.00633367  1
  O  O12  1  0.02144707  0.16935036  0.27325281  1
  O  O13  1  0.02145210  0.66934631  0.22673942  1
  O  O14  1  0.25000089  0.44031582  0.20282277  1
  O  O15  1  0.25000022  0.09628523  0.78267695  1
  O  O16  1  0.25000051  0.59628008  0.71735408  1
  O  O17  1  0.24999974  0.94029847  0.29716919  1
  O  O18  1  0.47855373  0.16935005  0.27325209  1
  O  O19  1  0.47854783  0.66934623  0.22674037  1
  O  O20  1  0.52147117  0.83066006  0.72672411  1
  O  O21  1  0.52146527  0.33065894  0.77326883  1
  O  O22  1  0.74999986  0.55968666  0.79716987  1
  O  O23  1  0.75000019  0.05967109  0.70281669  1
  O  O24  1  0.75000010  0.40371876  0.28264388  1
  O  O25  1  0.74999977  0.90371726  0.21737597  1
  O  O26  1  0.97853520  0.33065953  0.77326930  1
  O  O27  1  0.97852814  0.83065998  0.72672455  1
