# generated using pymatgen
data_Na3Fe(BO3)2
_symmetry_space_group_name_H-M   'P 1'
_cell_length_a   5.55174353
_cell_length_b   9.57173323
_cell_length_c   10.48832418
_cell_angle_alpha   90.00000000
_cell_angle_beta   93.92810143
_cell_angle_gamma   90.00000000
_symmetry_Int_Tables_number   1
_chemical_formula_structural   Na3Fe(BO3)2
_chemical_formula_sum   'Na12 Fe4 B8 O24'
_cell_volume   556.03821263
_cell_formula_units_Z   4
loop_
 _symmetry_equiv_pos_site_id
 _symmetry_equiv_pos_as_xyz
  1  'x, y, z'
loop_
 _atom_site_type_symbol
 _atom_site_label
 _atom_site_symmetry_multiplicity
 _atom_site_fract_x
 _atom_site_fract_y
 _atom_site_fract_z
 _atom_site_occupancy
  Na  Na0  1  0.15438061  0.96787195  0.65528180  1
  Na  Na1  1  0.16466155  0.66039251  0.62490146  1
  Na  Na2  1  0.18782782  0.98868315  0.11225858  1
  Na  Na3  1  0.33533845  0.16039251  0.87509854  1
  Na  Na4  1  0.31217218  0.48868315  0.38774142  1
  Na  Na5  1  0.34561939  0.46787195  0.84471820  1
  Na  Na6  1  0.65438061  0.53212805  0.15528180  1
  Na  Na7  1  0.68782782  0.51131685  0.61225858  1
  Na  Na8  1  0.66466155  0.83960749  0.12490146  1
  Na  Na9  1  0.81217218  0.01131685  0.88774142  1
  Na  Na10  1  0.83533845  0.33960749  0.37509854  1
  Na  Na11  1  0.84561939  0.03212805  0.34471820  1
  Fe  Fe12  1  0.14520323  0.32096339  0.12517318  1
  Fe  Fe13  1  0.35479677  0.82096339  0.37482682  1
  Fe  Fe14  1  0.64520323  0.17903661  0.62517318  1
  Fe  Fe15  1  0.85479677  0.67903661  0.87482682  1
  B  B16  1  0.16902266  0.31181172  0.61801718  1
  B  B17  1  0.15502577  0.65263333  0.13243853  1
  B  B18  1  0.33097734  0.81181172  0.88198282  1
  B  B19  1  0.34497423  0.15263333  0.36756147  1
  B  B20  1  0.65502577  0.84736667  0.63243853  1
  B  B21  1  0.66902266  0.18818828  0.11801718  1
  B  B22  1  0.84497423  0.34736667  0.86756147  1
  B  B23  1  0.83097734  0.68818828  0.38198282  1
  O  O24  1  0.06632923  0.32458237  0.93316071  1
  O  O25  1  0.08183698  0.69652508  0.40775353  1
  O  O26  1  0.21156871  0.93618554  0.88661064  1
  O  O27  1  0.20628616  0.26319727  0.31788539  1
  O  O28  1  0.20419125  0.68829988  0.84970264  1
  O  O29  1  0.25799787  0.01541337  0.34748464  1
  O  O30  1  0.29580875  0.18829988  0.65029736  1
  O  O31  1  0.24200213  0.51541337  0.15251536  1
  O  O32  1  0.29371384  0.76319727  0.18211461  1
  O  O33  1  0.28843129  0.43618554  0.61338936  1
  O  O34  1  0.43367077  0.82458237  0.56683929  1
  O  O35  1  0.41816302  0.19652508  0.09224647  1
  O  O36  1  0.58183698  0.80347492  0.90775353  1
  O  O37  1  0.56632923  0.17541763  0.43316071  1
  O  O38  1  0.71156871  0.56381446  0.38661064  1
  O  O39  1  0.70628616  0.23680273  0.81788539  1
  O  O40  1  0.75799787  0.48458663  0.84748464  1
  O  O41  1  0.70419125  0.81170012  0.34970264  1
  O  O42  1  0.74200213  0.98458663  0.65251536  1
  O  O43  1  0.79580875  0.31170012  0.15029736  1
  O  O44  1  0.79371384  0.73680273  0.68211461  1
  O  O45  1  0.78843129  0.06381446  0.11338936  1
  O  O46  1  0.91816302  0.30347492  0.59224647  1
  O  O47  1  0.93367077  0.67541763  0.06683929  1
