# generated using pymatgen
data_Li2Cr3Ni(SO4)6
_symmetry_space_group_name_H-M   'P 1'
_cell_length_a   9.05026018
_cell_length_b   8.93145414
_cell_length_c   8.96618845
_cell_angle_alpha   55.91626006
_cell_angle_beta   55.42672798
_cell_angle_gamma   55.15093508
_symmetry_Int_Tables_number   1
_chemical_formula_structural   Li2Cr3Ni(SO4)6
_chemical_formula_sum   'Li2 Cr3 Ni1 S6 O24'
_cell_volume   458.86111959
_cell_formula_units_Z   1
loop_
 _symmetry_equiv_pos_site_id
 _symmetry_equiv_pos_as_xyz
  1  'x, y, z'
loop_
 _atom_site_type_symbol
 _atom_site_label
 _atom_site_symmetry_multiplicity
 _atom_site_fract_x
 _atom_site_fract_y
 _atom_site_fract_z
 _atom_site_occupancy
  Li  Li0  1  0.18210116  0.42591547  0.76581543  1
  Li  Li1  1  0.76522227  0.18349609  0.42805074  1
  Cr  Cr2  1  0.35653051  0.35673429  0.34613107  1
  Cr  Cr3  1  0.64138501  0.64397738  0.64508163  1
  Cr  Cr4  1  0.84634415  0.84963512  0.85338968  1
  Ni  Ni5  1  0.16230413  0.14804829  0.15568290  1
  S  S6  1  0.03593341  0.74702065  0.46448042  1
  S  S7  1  0.54106048  0.95384306  0.25637168  1
  S  S8  1  0.25117936  0.54934747  0.94825338  1
  S  S9  1  0.75646342  0.46447527  0.03335834  1
  S  S10  1  0.46077018  0.03610606  0.75527443  1
  S  S11  1  0.95152627  0.25049299  0.54737254  1
  O  O12  1  0.00052097  0.95507543  0.34458842  1
  O  O13  1  0.02599506  0.70697099  0.65886198  1
  O  O14  1  0.35395062  0.96859419  0.29092849  1
  O  O15  1  0.04574450  0.68421035  0.97654329  1
  O  O16  1  0.48978860  0.89617991  0.69390265  1
  O  O17  1  0.23222013  0.62059226  0.37737617  1
  O  O18  1  0.67413706  0.97964326  0.05024974  1
  O  O19  1  0.37927927  0.63653601  0.75200336  1
  O  O20  1  0.29623371  0.51654588  0.09843298  1
  O  O21  1  0.10082232  0.29465233  0.51550515  1
  O  O22  1  0.63399402  0.75703523  0.38211105  1
  O  O23  1  0.28095145  0.36309073  0.95295357  1
  O  O24  1  0.71791478  0.65640137  0.02254985  1
  O  O25  1  0.37521545  0.23722115  0.62944788  1
  O  O26  1  0.88917571  0.69666306  0.49501593  1
  O  O27  1  0.69426137  0.49177859  0.89590030  1
  O  O28  1  0.64210801  0.36933621  0.23279164  1
  O  O29  1  0.33917434  0.00313941  0.95924656  1
  O  O30  1  0.75321805  0.38127128  0.63485909  1
  O  O31  1  0.51987854  0.10339227  0.29960342  1
  O  O32  1  0.96577776  0.33821904  0.99315211  1
  O  O33  1  0.65632612  0.02372842  0.71138339  1
  O  O34  1  0.95765029  0.27783116  0.36245100  1
  O  O35  1  0.97514050  0.04600035  0.68217974  1
