# generated using pymatgen
data_LiTi2(PO4)3
_symmetry_space_group_name_H-M   'P 1'
_cell_length_a   9.05492461
_cell_length_b   8.99955834
_cell_length_c   9.00343448
_cell_angle_alpha   55.12988793
_cell_angle_beta   55.30880702
_cell_angle_gamma   55.61177665
_symmetry_Int_Tables_number   1
_chemical_formula_structural   LiTi2(PO4)3
_chemical_formula_sum   'Li2 Ti4 P6 O24'
_cell_volume   462.73378808
_cell_formula_units_Z   2
loop_
 _symmetry_equiv_pos_site_id
 _symmetry_equiv_pos_as_xyz
  1  'x, y, z'
loop_
 _atom_site_type_symbol
 _atom_site_label
 _atom_site_symmetry_multiplicity
 _atom_site_fract_x
 _atom_site_fract_y
 _atom_site_fract_z
 _atom_site_occupancy
  Li  Li0  1  0.72098491  0.22337229  0.47540871  1
  Li  Li1  1  0.76735356  0.04964397  0.26441333  1
  Ti  Ti2  1  0.33947617  0.36396100  0.35096541  1
  Ti  Ti3  1  0.15328383  0.14219816  0.13418644  1
  Ti  Ti4  1  0.64590074  0.64073635  0.65341028  1
  Ti  Ti5  1  0.86021652  0.85111991  0.86188594  1
  P  P6  1  0.02883736  0.75331069  0.46730953  1
  P  P7  1  0.53049257  0.96543314  0.25328710  1
  P  P8  1  0.24756266  0.53617676  0.96675796  1
  P  P9  1  0.74577714  0.46417167  0.03557013  1
  P  P10  1  0.47166421  0.02848421  0.74648157  1
  P  P11  1  0.97261092  0.24552903  0.53805320  1
  O  O12  1  0.00183738  0.78962039  0.62871713  1
  O  O13  1  0.10751642  0.90242729  0.26835587  1
  O  O14  1  0.10110788  0.73080628  0.89118774  1
  O  O15  1  0.36474038  0.00070800  0.21587047  1
  O  O16  1  0.48811623  0.83508787  0.77578103  1
  O  O17  1  0.17141499  0.54464805  0.47787035  1
  O  O18  1  0.22421261  0.51492494  0.16147291  1
  O  O19  1  0.52661880  0.81403742  0.45887308  1
  O  O20  1  0.20658031  0.37359087  0.99807543  1
  O  O21  1  0.72329194  0.88863889  0.10430237  1
  O  O22  1  0.16939250  0.21784959  0.51133824  1
  O  O23  1  0.45476437  0.52275752  0.82087248  1
  O  O24  1  0.53631235  0.47816896  0.18153482  1
  O  O25  1  0.83458573  0.79091466  0.47538806  1
  O  O26  1  0.27494642  0.11321040  0.89038308  1
  O  O27  1  0.79180764  0.61970702  0.00838914  1
  O  O28  1  0.49525028  0.17659300  0.53114947  1
  O  O29  1  0.77702546  0.47950705  0.84116773  1
  O  O30  1  0.82646630  0.45313343  0.53080641  1
  O  O31  1  0.52435164  0.15492942  0.22677885  1
  O  O32  1  0.63472027  0.01119087  0.77443374  1
  O  O33  1  0.87445428  0.25788288  0.13719376  1
  O  O34  1  0.89240194  0.09832173  0.73407894  1
  O  O35  1  0.98302231  0.21580727  0.37774928  1
