# generated using pymatgen
data_K2GaPCO7
_symmetry_space_group_name_H-M   'P 1'
_cell_length_a   9.68115119
_cell_length_b   6.75370519
_cell_length_c   5.48791225
_cell_angle_alpha   90.00000000
_cell_angle_beta   90.63858581
_cell_angle_gamma   90.00000000
_symmetry_Int_Tables_number   1
_chemical_formula_structural   K2GaPCO7
_chemical_formula_sum   'K4 Ga2 P2 C2 O14'
_cell_volume   358.79739859
_cell_formula_units_Z   2
loop_
 _symmetry_equiv_pos_site_id
 _symmetry_equiv_pos_as_xyz
  1  'x, y, z'
loop_
 _atom_site_type_symbol
 _atom_site_label
 _atom_site_symmetry_multiplicity
 _atom_site_fract_x
 _atom_site_fract_y
 _atom_site_fract_z
 _atom_site_occupancy
  K  K0  1  0.24092896  0.47429458  0.24343729  1
  K  K1  1  0.24092896  0.02570542  0.24343729  1
  K  K2  1  0.75907104  0.52570542  0.75656271  1
  K  K3  1  0.75907104  0.97429458  0.75656271  1
  Ga  Ga4  1  0.35814899  0.75000000  0.76684730  1
  Ga  Ga5  1  0.64185101  0.25000000  0.23315270  1
  P  P6  1  0.43464225  0.25000000  0.72266610  1
  P  P7  1  0.56535775  0.75000000  0.27733390  1
  C  C8  1  0.10335349  0.75000000  0.72938935  1
  C  C9  1  0.89664651  0.25000000  0.27061065  1
  O  O10  1  0.02483069  0.25000000  0.29309656  1
  O  O11  1  0.17121935  0.75000000  0.93942051  1
  O  O12  1  0.19005742  0.75000000  0.54286798  1
  O  O13  1  0.34535021  0.06223227  0.76060849  1
  O  O14  1  0.34535021  0.43776773  0.76060849  1
  O  O15  1  0.43863767  0.75000000  0.09905326  1
  O  O16  1  0.48609530  0.25000000  0.45084829  1
  O  O17  1  0.51390470  0.75000000  0.54915171  1
  O  O18  1  0.56136233  0.25000000  0.90094674  1
  O  O19  1  0.65464979  0.56223227  0.23939151  1
  O  O20  1  0.65464979  0.93776773  0.23939151  1
  O  O21  1  0.80994258  0.25000000  0.45713202  1
  O  O22  1  0.82878065  0.25000000  0.06057949  1
  O  O23  1  0.97516931  0.75000000  0.70690344  1
