# generated using pymatgen
data_Fe5Sn(PO4)6
_symmetry_space_group_name_H-M   'P 1'
_cell_length_a   8.54737137
_cell_length_b   8.68762125
_cell_length_c   8.68762136
_cell_angle_alpha   60.00000300
_cell_angle_beta   59.45570987
_cell_angle_gamma   59.45571048
_symmetry_Int_Tables_number   1
_chemical_formula_structural   Fe5Sn(PO4)6
_chemical_formula_sum   'Fe5 Sn1 P6 O24'
_cell_volume   452.37334638
_cell_formula_units_Z   1
loop_
 _symmetry_equiv_pos_site_id
 _symmetry_equiv_pos_as_xyz
  1  'x, y, z'
loop_
 _atom_site_type_symbol
 _atom_site_label
 _atom_site_symmetry_multiplicity
 _atom_site_fract_x
 _atom_site_fract_y
 _atom_site_fract_z
 _atom_site_occupancy
  Fe  Fe0  1  0.01265690  0.99578103  0.99578103  1
  Fe  Fe1  1  0.05856200  0.64714567  0.64714567  1
  Fe  Fe2  1  0.49737314  0.50087595  0.50087595  1
  Fe  Fe3  1  0.43372729  0.85542457  0.85542457  1
  Fe  Fe4  1  0.93745189  0.35418270  0.35418270  1
  Sn  Sn5  1  0.57048629  0.14317157  0.14317157  1
  P  P6  1  0.24948679  0.25277794  0.54770514  1
  P  P7  1  0.24948679  0.95003113  0.25277794  1
  P  P8  1  0.24948679  0.54770514  0.95003113  1
  P  P9  1  0.74597380  0.45939501  0.04777799  1
  P  P10  1  0.74597380  0.04777799  0.74685321  1
  P  P11  1  0.74597380  0.74685321  0.45939501  1
  O  O12  1  0.07256603  0.10780213  0.32140218  1
  O  O13  1  0.07256603  0.49822966  0.10780213  1
  O  O14  1  0.07256603  0.32140218  0.49822966  1
  O  O15  1  0.22626750  0.09533096  0.74308521  1
  O  O16  1  0.43789461  0.18425751  0.39407567  1
  O  O17  1  0.27813259  0.41075625  0.56075551  1
  O  O18  1  0.22626750  0.93531632  0.09533096  1
  O  O19  1  0.27813259  0.75035465  0.41075625  1
  O  O20  1  0.56382651  0.61059222  0.00561381  1
  O  O21  1  0.27813259  0.56075551  0.75035465  1
  O  O22  1  0.77655884  0.25778797  0.06231505  1
  O  O23  1  0.56382651  0.00561381  0.81996746  1
  O  O24  1  0.43789461  0.98377121  0.18425751  1
  O  O25  1  0.22626750  0.74308521  0.93531632  1
  O  O26  1  0.71700394  0.44317591  0.24907572  1
  O  O27  1  0.43789461  0.39407567  0.98377121  1
  O  O28  1  0.71700394  0.24907572  0.59074443  1
  O  O29  1  0.77655884  0.06231505  0.90333814  1
  O  O30  1  0.71700394  0.59074443  0.44317591  1
  O  O31  1  0.56382651  0.81996746  0.61059222  1
  O  O32  1  0.77655884  0.90333814  0.25778797  1
  O  O33  1  0.92887089  0.67672648  0.49998796  1
  O  O34  1  0.92887089  0.49998796  0.89441467  1
  O  O35  1  0.92887089  0.89441467  0.67672648  1
