# generated using pymatgen
data_Na3SiBiBO7
_symmetry_space_group_name_H-M   'P 1'
_cell_length_a   9.30122890
_cell_length_b   7.01833432
_cell_length_c   5.37527361
_cell_angle_alpha   90.00000000
_cell_angle_beta   90.50934896
_cell_angle_gamma   90.00000000
_symmetry_Int_Tables_number   1
_chemical_formula_structural   Na3SiBiBO7
_chemical_formula_sum   'Na6 Si2 Bi2 B2 O14'
_cell_volume   350.87934073
_cell_formula_units_Z   2
loop_
 _symmetry_equiv_pos_site_id
 _symmetry_equiv_pos_as_xyz
  1  'x, y, z'
loop_
 _atom_site_type_symbol
 _atom_site_label
 _atom_site_symmetry_multiplicity
 _atom_site_fract_x
 _atom_site_fract_y
 _atom_site_fract_z
 _atom_site_occupancy
  Na  Na0  1  0.07638116  0.25000000  0.75848627  1
  Na  Na1  1  0.24605375  0.00752217  0.25018842  1
  Na  Na2  1  0.24605375  0.49247783  0.25018842  1
  Na  Na3  1  0.75394625  0.50752217  0.74981158  1
  Na  Na4  1  0.75394625  0.99247783  0.74981158  1
  Na  Na5  1  0.92361884  0.75000000  0.24151373  1
  Si  Si6  1  0.41430362  0.25000000  0.70409435  1
  Si  Si7  1  0.58569638  0.75000000  0.29590565  1
  Bi  Bi8  1  0.34621663  0.75000000  0.77884644  1
  Bi  Bi9  1  0.65378337  0.25000000  0.22115356  1
  B  B10  1  0.05624241  0.75000000  0.73515073  1
  B  B11  1  0.94375759  0.25000000  0.26484927  1
  O  O12  1  0.08728916  0.25000000  0.29051769  1
  O  O13  1  0.12921856  0.75000000  0.96689092  1
  O  O14  1  0.14856700  0.75000000  0.52452599  1
  O  O15  1  0.31493389  0.06876500  0.79703672  1
  O  O16  1  0.31493389  0.43123500  0.79703672  1
  O  O17  1  0.42618095  0.25000000  0.39709261  1
  O  O18  1  0.42049291  0.75000000  0.18258131  1
  O  O19  1  0.57950709  0.25000000  0.81741869  1
  O  O20  1  0.57381905  0.75000000  0.60290739  1
  O  O21  1  0.68506611  0.56876500  0.20296328  1
  O  O22  1  0.68506611  0.93123500  0.20296328  1
  O  O23  1  0.85143300  0.25000000  0.47547401  1
  O  O24  1  0.87078144  0.25000000  0.03310908  1
  O  O25  1  0.91271084  0.75000000  0.70948231  1
