# generated using pymatgen
data_NaSb3O8
_symmetry_space_group_name_H-M   'P 1'
_cell_length_a   15.07201730
_cell_length_b   5.26309191
_cell_length_c   7.57499349
_cell_angle_alpha   90.00000000
_cell_angle_beta   78.47194501
_cell_angle_gamma   90.00000000
_symmetry_Int_Tables_number   1
_chemical_formula_structural   NaSb3O8
_chemical_formula_sum   'Na4 Sb12 O32'
_cell_volume   588.76771840
_cell_formula_units_Z   4
loop_
 _symmetry_equiv_pos_site_id
 _symmetry_equiv_pos_as_xyz
  1  'x, y, z'
loop_
 _atom_site_type_symbol
 _atom_site_label
 _atom_site_symmetry_multiplicity
 _atom_site_fract_x
 _atom_site_fract_y
 _atom_site_fract_z
 _atom_site_occupancy
  Na  Na0  1  0.07849619  0.76039070  0.65324227  1
  Na  Na1  1  0.42150381  0.26039070  0.84675773  1
  Na  Na2  1  0.57849619  0.73960930  0.15324227  1
  Na  Na3  1  0.92150381  0.23960930  0.34675773  1
  Sb  Sb4  1  0.16525183  0.26465726  0.81234495  1
  Sb  Sb5  1  0.08396623  0.76030694  0.15581922  1
  Sb  Sb6  1  0.16195414  0.26120702  0.32484405  1
  Sb  Sb7  1  0.33474817  0.76465726  0.68765505  1
  Sb  Sb8  1  0.33804586  0.76120702  0.17515595  1
  Sb  Sb9  1  0.41603377  0.26030694  0.34418078  1
  Sb  Sb10  1  0.58396623  0.73969306  0.65581922  1
  Sb  Sb11  1  0.66195414  0.23879298  0.82484405  1
  Sb  Sb12  1  0.66525183  0.23534274  0.31234495  1
  Sb  Sb13  1  0.83804586  0.73879298  0.67515595  1
  Sb  Sb14  1  0.91603377  0.23969306  0.84418078  1
  Sb  Sb15  1  0.83474817  0.73534274  0.18765505  1
  O  O16  1  0.03985269  0.11267715  0.83001709  1
  O  O17  1  0.10083830  0.58061654  0.92545659  1
  O  O18  1  0.05216987  0.45254744  0.30265148  1
  O  O19  1  0.09283736  0.94642395  0.38256431  1
  O  O20  1  0.15711704  0.39472030  0.56746538  1
  O  O21  1  0.21655743  0.93860076  0.69779212  1
  O  O22  1  0.15829773  0.09154016  0.06377619  1
  O  O23  1  0.28344257  0.43860076  0.80220788  1
  O  O24  1  0.21649050  0.58971141  0.19339014  1
  O  O25  1  0.34288296  0.89472030  0.93253462  1
  O  O26  1  0.28350950  0.08971141  0.30660986  1
  O  O27  1  0.34170227  0.59154016  0.43622381  1
  O  O28  1  0.39916170  0.08061654  0.57454341  1
  O  O29  1  0.46014731  0.61267715  0.66998291  1
  O  O30  1  0.40716264  0.44642395  0.11743569  1
  O  O31  1  0.55216987  0.04745256  0.80265148  1
  O  O32  1  0.44783013  0.95254744  0.19734852  1
  O  O33  1  0.59283736  0.55357605  0.88256431  1
  O  O34  1  0.53985269  0.38732285  0.33001709  1
  O  O35  1  0.60083830  0.91938346  0.42545659  1
  O  O36  1  0.65829773  0.40845984  0.56377619  1
  O  O37  1  0.71649050  0.91028859  0.69339014  1
  O  O38  1  0.65711704  0.10527970  0.06746538  1
  O  O39  1  0.78350950  0.41028859  0.80660986  1
  O  O40  1  0.71655743  0.56139924  0.19779212  1
  O  O41  1  0.84170227  0.90845984  0.93622381  1
  O  O42  1  0.78344257  0.06139924  0.30220788  1
  O  O43  1  0.84288296  0.60527970  0.43253462  1
  O  O44  1  0.90716264  0.05357605  0.61743569  1
  O  O45  1  0.94783013  0.54745256  0.69734852  1
  O  O46  1  0.89916170  0.41938346  0.07454341  1
  O  O47  1  0.96014731  0.88732285  0.16998291  1
