# generated using pymatgen
data_Na2LiMnPCO7
_symmetry_space_group_name_H-M   'P 1'
_cell_length_a   8.85783647
_cell_length_b   6.78351311
_cell_length_c   10.22579900
_cell_angle_alpha   90.05074463
_cell_angle_beta   89.31100259
_cell_angle_gamma   90.07583850
_symmetry_Int_Tables_number   1
_chemical_formula_structural   Na2LiMnPCO7
_chemical_formula_sum   'Na8 Li4 Mn4 P4 C4 O28'
_cell_volume   614.39494249
_cell_formula_units_Z   4
loop_
 _symmetry_equiv_pos_site_id
 _symmetry_equiv_pos_as_xyz
  1  'x, y, z'
loop_
 _atom_site_type_symbol
 _atom_site_label
 _atom_site_symmetry_multiplicity
 _atom_site_fract_x
 _atom_site_fract_y
 _atom_site_fract_z
 _atom_site_occupancy
  Na  Na0  1  0.08243596  0.25093039  0.87881691  1
  Na  Na1  1  0.08355260  0.25353859  0.37950853  1
  Na  Na2  1  0.25443089  0.00050015  0.62508758  1
  Na  Na3  1  0.25770723  0.99971197  0.12428595  1
  Na  Na4  1  0.25712168  0.50088910  0.12404025  1
  Na  Na5  1  0.74566476  0.50215284  0.87539731  1
  Na  Na6  1  0.74299950  0.50156454  0.37650261  1
  Na  Na7  1  0.74376498  0.99935700  0.37668043  1
  Li  Li8  1  0.27121888  0.47801547  0.61604033  1
  Li  Li9  1  0.73077207  0.98075224  0.88333172  1
  Li  Li10  1  0.91467903  0.74925113  0.62728338  1
  Li  Li11  1  0.90900324  0.75351737  0.12313089  1
  Mn  Mn12  1  0.35989298  0.74743438  0.88450810  1
  Mn  Mn13  1  0.36173932  0.74755602  0.39244561  1
  Mn  Mn14  1  0.64356949  0.24771552  0.61527991  1
  Mn  Mn15  1  0.64119325  0.24713519  0.10794682  1
  P  P16  1  0.41123530  0.24850568  0.84899366  1
  P  P17  1  0.41110255  0.24953408  0.35525265  1
  P  P18  1  0.59474889  0.74944943  0.65131590  1
  P  P19  1  0.59472103  0.74946734  0.14534631  1
  C  C20  1  0.04588095  0.75719413  0.86656412  1
  C  C21  1  0.05226039  0.74977475  0.36609451  1
  C  C22  1  0.94598853  0.25744786  0.63274704  1
  C  C23  1  0.94073063  0.24924964  0.13206069  1
  O  O24  1  0.09233049  0.27398376  0.64210165  1
  O  O25  1  0.08683575  0.24953959  0.14277955  1
  O  O26  1  0.08921089  0.74984360  0.98792799  1
  O  O27  1  0.09332692  0.75193463  0.48800704  1
  O  O28  1  0.14550813  0.74490530  0.77161811  1
  O  O29  1  0.15435232  0.74710911  0.27273318  1
  O  O30  1  0.31491434  0.06472084  0.88746713  1
  O  O31  1  0.32548324  0.43209693  0.90182217  1
  O  O32  1  0.31825340  0.06403584  0.39630030  1
  O  O33  1  0.31707674  0.43162127  0.40223274  1
  O  O34  1  0.42129104  0.26429260  0.69618485  1
  O  O35  1  0.43094771  0.73369585  0.59620941  1
  O  O36  1  0.42745556  0.25305623  0.20273460  1
  O  O37  1  0.43489173  0.75120054  0.08479798  1
  O  O38  1  0.57484936  0.23282322  0.90216105  1
  O  O39  1  0.57994816  0.76471433  0.80376412  1
  O  O40  1  0.57091862  0.25081574  0.41377561  1
  O  O41  1  0.57391412  0.75344191  0.29726198  1
  O  O42  1  0.69368931  0.56787083  0.61403203  1
  O  O43  1  0.68301762  0.93153743  0.59991259  1
  O  O44  1  0.68960800  0.56553028  0.10566959  1
  O  O45  1  0.69235084  0.92910463  0.09962254  1
  O  O46  1  0.86123829  0.24699317  0.73721673  1
  O  O47  1  0.85512752  0.24762407  0.23633333  1
  O  O48  1  0.88274374  0.25050090  0.51895549  1
  O  O49  1  0.87881891  0.25053533  0.01785487  1
  O  O50  1  0.90422148  0.77581185  0.83757071  1
  O  O51  1  0.91126560  0.75001440  0.33428846  1
