# generated using pymatgen
data_Mg3Fe4(WO4)6
_symmetry_space_group_name_H-M   'P 1'
_cell_length_a   7.13646217
_cell_length_b   8.46430039
_cell_length_c   10.32983155
_cell_angle_alpha   103.84380750
_cell_angle_beta   104.48958417
_cell_angle_gamma   101.46313760
_symmetry_Int_Tables_number   1
_chemical_formula_structural   Mg3Fe4(WO4)6
_chemical_formula_sum   'Mg3 Fe4 W6 O24'
_cell_volume   563.94804295
_cell_formula_units_Z   1
loop_
 _symmetry_equiv_pos_site_id
 _symmetry_equiv_pos_as_xyz
  1  'x, y, z'
loop_
 _atom_site_type_symbol
 _atom_site_label
 _atom_site_symmetry_multiplicity
 _atom_site_fract_x
 _atom_site_fract_y
 _atom_site_fract_z
 _atom_site_occupancy
  Mg  Mg0  1  -0.00000000  0.50000000  0.50000000  1
  Mg  Mg1  1  0.27061284  0.27249706  0.78454002  1
  Mg  Mg2  1  0.72938716  0.72750294  0.21545998  1
  Fe  Fe3  1  0.38232135  0.95950937  0.60637802  1
  Fe  Fe4  1  0.61767865  0.04049063  0.39362198  1
  Fe  Fe5  1  0.04694188  0.20032017  0.01386362  1
  Fe  Fe6  1  0.95305812  0.79967983  0.98613638  1
  W  W7  1  0.77718093  0.34382070  0.73036578  1
  W  W8  1  0.22281907  0.65617930  0.26963422  1
  W  W9  1  0.90011558  0.90308329  0.66551517  1
  W  W10  1  0.40596142  0.71894795  0.87790794  1
  W  W11  1  0.09988442  0.09691671  0.33448483  1
  W  W12  1  0.59403858  0.28105205  0.12209206  1
  O  O13  1  0.89565637  0.69078052  0.56633485  1
  O  O14  1  0.10434363  0.30921948  0.43366515  1
  O  O15  1  0.28522055  0.50320707  0.76074107  1
  O  O16  1  0.71477945  0.49679293  0.23925893  1
  O  O17  1  0.79041450  0.32720844  0.55338092  1
  O  O18  1  0.20958550  0.67279156  0.44661908  1
  O  O19  1  0.67148835  0.97646593  0.58565920  1
  O  O20  1  0.32851165  0.02353407  0.41434080  1
  O  O21  1  0.64060243  0.73121805  0.01249134  1
  O  O22  1  0.35939757  0.26878195  0.98750866  1
  O  O23  1  0.47363085  0.75915372  0.26796370  1
  O  O24  1  0.52636915  0.24084628  0.73203630  1
  O  O25  1  0.14610701  0.03750223  0.65853871  1
  O  O26  1  0.06729267  0.04565957  0.14027941  1
  O  O27  1  0.93270733  0.95434043  0.85972059  1
  O  O28  1  0.55328069  0.14572440  0.22824561  1
  O  O29  1  0.44671931  0.85427560  0.77175439  1
  O  O30  1  0.17398882  0.43704123  0.17866879  1
  O  O31  1  0.82601118  0.56295877  0.82133121  1
  O  O32  1  0.98846736  0.27746765  0.82545943  1
  O  O33  1  0.01153264  0.72253235  0.17454057  1
  O  O34  1  0.23341504  0.77793754  0.96653816  1
  O  O35  1  0.76658496  0.22206246  0.03346184  1
  O  O36  1  0.85389299  0.96249777  0.34146129  1
