# generated using pymatgen
data_Gd2V2O7
_symmetry_space_group_name_H-M   'P 1'
_cell_length_a   7.20387676
_cell_length_b   7.20405161
_cell_length_c   7.20389861
_cell_angle_alpha   60.00512448
_cell_angle_beta   60.00437655
_cell_angle_gamma   60.00519706
_symmetry_Int_Tables_number   1
_chemical_formula_structural   Gd2V2O7
_chemical_formula_sum   'Gd4 V4 O14'
_cell_volume   264.38932831
_cell_formula_units_Z   2
loop_
 _symmetry_equiv_pos_site_id
 _symmetry_equiv_pos_as_xyz
  1  'x, y, z'
loop_
 _atom_site_type_symbol
 _atom_site_label
 _atom_site_symmetry_multiplicity
 _atom_site_fract_x
 _atom_site_fract_y
 _atom_site_fract_z
 _atom_site_occupancy
  Gd  Gd0  1  0.50000053  0.50000255  0.99999750  1
  Gd  Gd1  1  0.50000255  0.00000069  0.49999828  1
  Gd  Gd2  1  0.00000083  0.49999583  0.49999897  1
  Gd  Gd3  1  0.50000446  0.49999628  0.50000027  1
  V  V4  1  -0.00000027  -0.00000131  0.00000243  1
  V  V5  1  0.49999881  0.00000158  0.99999878  1
  V  V6  1  0.99999666  0.50000309  -0.00000088  1
  V  V7  1  0.00000445  0.99999847  0.49999767  1
  O  O8  1  0.67071947  0.07928666  0.07928402  1
  O  O9  1  0.92069168  0.32929813  0.32931208  1
  O  O10  1  0.07929303  0.67071146  0.07928652  1
  O  O11  1  0.07928523  0.07928408  0.67071749  1
  O  O12  1  0.67070709  0.07929890  0.67069710  1
  O  O13  1  0.67070071  0.67070180  0.07929782  1
  O  O14  1  0.37499977  0.37498630  0.37498169  1
  O  O15  1  0.92071347  0.92071484  0.32928465  1
  O  O16  1  0.32929147  0.92070092  0.32930361  1
  O  O17  1  0.32929732  0.32929967  0.92070435  1
  O  O18  1  0.92070526  0.32928995  0.92071517  1
  O  O19  1  0.62500153  0.62501608  0.62501541  1
  O  O20  1  0.07930674  0.67070115  0.67068859  1
  O  O21  1  0.32927922  0.92071287  0.92071847  1
