# generated using pymatgen
data_MnCo3O8
_symmetry_space_group_name_H-M   'P 1'
_cell_length_a   5.72165711
_cell_length_b   5.72165750
_cell_length_c   5.75216685
_cell_angle_alpha   60.17530346
_cell_angle_beta   60.17530185
_cell_angle_gamma   59.99999498
_symmetry_Int_Tables_number   1
_chemical_formula_structural   MnCo3O8
_chemical_formula_sum   'Mn1 Co3 O8'
_cell_volume   133.50755042
_cell_formula_units_Z   1
loop_
 _symmetry_equiv_pos_site_id
 _symmetry_equiv_pos_as_xyz
  1  'x, y, z'
loop_
 _atom_site_type_symbol
 _atom_site_label
 _atom_site_symmetry_multiplicity
 _atom_site_fract_x
 _atom_site_fract_y
 _atom_site_fract_z
 _atom_site_occupancy
  Mn  Mn0  1  0.00000000  0.00000000  0.00000000  1
  Co  Co1  1  0.50000000  0.00000000  0.00000000  1
  Co  Co2  1  0.00000000  0.50000000  0.00000000  1
  Co  Co3  1  0.50000000  0.50000000  0.00000000  1
  O  O4  1  0.23664655  0.23664655  0.79955798  1
  O  O5  1  0.72714792  0.23664655  0.79955798  1
  O  O6  1  0.23664655  0.72714792  0.79955798  1
  O  O7  1  0.73273948  0.73273948  0.80178056  1
  O  O8  1  0.26726052  0.26726052  0.19821944  1
  O  O9  1  0.76335345  0.27285208  0.20044202  1
  O  O10  1  0.27285208  0.76335345  0.20044202  1
  O  O11  1  0.76335345  0.76335345  0.20044202  1
