# generated using pymatgen
data_Li4Ti5O12
_symmetry_space_group_name_H-M   'P 1'
_cell_length_a   5.28815821
_cell_length_b   9.53193901
_cell_length_c   9.93178570
_cell_angle_alpha   73.12225335
_cell_angle_beta   78.04218421
_cell_angle_gamma   78.91340261
_symmetry_Int_Tables_number   1
_chemical_formula_structural   Li4Ti5O12
_chemical_formula_sum   'Li8 Ti10 O24'
_cell_volume   463.97426928
_cell_formula_units_Z   2
loop_
 _symmetry_equiv_pos_site_id
 _symmetry_equiv_pos_as_xyz
  1  'x, y, z'
loop_
 _atom_site_type_symbol
 _atom_site_label
 _atom_site_symmetry_multiplicity
 _atom_site_fract_x
 _atom_site_fract_y
 _atom_site_fract_z
 _atom_site_occupancy
  Li  Li0  1  0.13212454  0.40806010  0.40437355  1
  Li  Li1  1  0.33845505  0.57680780  0.11092987  1
  Li  Li2  1  0.27327212  0.90707444  0.02262145  1
  Li  Li3  1  0.31033421  0.76998291  0.55579007  1
  Li  Li4  1  0.68966579  0.23001709  0.44420993  1
  Li  Li5  1  0.72672788  0.09292556  0.97737855  1
  Li  Li6  1  0.66154495  0.42319220  0.88907013  1
  Li  Li7  1  0.86787546  0.59193990  0.59562645  1
  Ti  Ti8  1  0.27312376  0.09941407  0.27540335  1
  Ti  Ti9  1  0.17682128  0.09918186  0.67499474  1
  Ti  Ti10  1  0.18825899  0.25902766  0.93212457  1
  Ti  Ti11  1  0.13704810  0.59423610  0.85061172  1
  Ti  Ti12  1  0.43305920  0.41233573  0.64600797  1
  Ti  Ti13  1  0.56694080  0.58766427  0.35399203  1
  Ti  Ti14  1  0.86295190  0.40576390  0.14938828  1
  Ti  Ti15  1  0.81174101  0.74097234  0.06787543  1
  Ti  Ti16  1  0.82317872  0.90081814  0.32500526  1
  Ti  Ti17  1  0.72687624  0.90058593  0.72459665  1
  O  O18  1  0.04668092  0.26304458  0.30311784  1
  O  O19  1  0.23592112  0.42277519  0.01086885  1
  O  O20  1  0.34340012  0.10240469  0.08798972  1
  O  O21  1  0.10417742  0.10174280  0.86154841  1
  O  O22  1  0.05858427  0.42570014  0.77853951  1
  O  O23  1  0.12016503  0.93042041  0.37774276  1
  O  O24  1  0.32245382  0.26183200  0.56756805  1
  O  O25  1  0.26246088  0.56697257  0.48593820  1
  O  O26  1  0.58465023  0.06892364  0.34279824  1
  O  O27  1  0.16111629  0.72734225  0.95191422  1
  O  O28  1  0.54276086  0.42526041  0.27094264  1
  O  O29  1  0.47401089  0.72883424  0.18613856  1
  O  O30  1  0.52598911  0.27116576  0.81386144  1
  O  O31  1  0.45723914  0.57473959  0.72905736  1
  O  O32  1  0.83888371  0.27265775  0.04808578  1
  O  O33  1  0.41534977  0.93107636  0.65720176  1
  O  O34  1  0.73753912  0.43302743  0.51406180  1
  O  O35  1  0.67754618  0.73816800  0.43243195  1
  O  O36  1  0.87983497  0.06957959  0.62225724  1
  O  O37  1  0.94141573  0.57429986  0.22146049  1
  O  O38  1  0.89582258  0.89825720  0.13845159  1
  O  O39  1  0.65659988  0.89759531  0.91201028  1
  O  O40  1  0.76407888  0.57722481  0.98913115  1
  O  O41  1  0.95331908  0.73695542  0.69688216  1
