# generated using pymatgen
data_Na2CoO3
_symmetry_space_group_name_H-M   'P 1'
_cell_length_a   5.40455048
_cell_length_b   9.47395310
_cell_length_c   5.40707502
_cell_angle_alpha   101.21578025
_cell_angle_beta   71.50853525
_cell_angle_gamma   78.70215260
_symmetry_Int_Tables_number   1
_chemical_formula_structural   Na2CoO3
_chemical_formula_sum   'Na8 Co4 O12'
_cell_volume   247.47597738
_cell_formula_units_Z   4
loop_
 _symmetry_equiv_pos_site_id
 _symmetry_equiv_pos_as_xyz
  1  'x, y, z'
loop_
 _atom_site_type_symbol
 _atom_site_label
 _atom_site_symmetry_multiplicity
 _atom_site_fract_x
 _atom_site_fract_y
 _atom_site_fract_z
 _atom_site_occupancy
  Na  Na0  1  0.00433571  0.98851199  0.49342519  1
  Na  Na1  1  0.57419340  0.84503427  0.42150420  1
  Na  Na2  1  0.17306807  0.65547481  0.33031817  1
  Na  Na3  1  0.74379868  0.51226985  0.25786457  1
  Na  Na4  1  0.25372093  0.48851244  0.74861713  1
  Na  Na5  1  0.32710735  0.34503966  0.17629948  1
  Na  Na6  1  0.42308046  0.15571227  0.57986159  1
  Na  Na7  1  0.49179868  0.01193966  0.00575793  1
  Co  Co8  1  0.08316574  0.82797825  0.91448819  1
  Co  Co9  1  0.66142842  0.67254054  0.83700767  1
  Co  Co10  1  0.83555455  0.32764306  0.66420861  1
  Co  Co11  1  0.91220664  0.17281737  0.08650562  1
  O  O12  1  0.34539951  0.81032754  0.10596659  1
  O  O13  1  0.84149037  0.80984817  0.70516959  1
  O  O14  1  0.40167651  0.69033874  0.64591924  1
  O  O15  1  0.90580226  0.69057727  0.04666957  1
  O  O16  1  0.55810099  0.50056995  0.94366657  1
  O  O17  1  0.94319732  0.49973245  0.55798085  1
  O  O18  1  0.04438604  0.30941444  0.90856273  1
  O  O19  1  0.64348204  0.31037662  0.40259194  1
  O  O20  1  0.70246109  0.19102335  0.84273240  1
  O  O21  1  0.10383658  0.19029038  0.34858668  1
  O  O22  1  0.19068366  0.00027369  0.80645190  1
  O  O23  1  0.80611699  0.00041524  0.19209258  1
