# generated using pymatgen
data_Li2Fe3BiO8
_symmetry_space_group_name_H-M   'P 1'
_cell_length_a   8.70283970
_cell_length_b   8.72205678
_cell_length_c   8.71450094
_cell_angle_alpha   90.43501513
_cell_angle_beta   90.54446156
_cell_angle_gamma   89.86831342
_symmetry_Int_Tables_number   1
_chemical_formula_structural   Li2Fe3BiO8
_chemical_formula_sum   'Li8 Fe12 Bi4 O32'
_cell_volume   661.43810696
_cell_formula_units_Z   4
loop_
 _symmetry_equiv_pos_site_id
 _symmetry_equiv_pos_as_xyz
  1  'x, y, z'
loop_
 _atom_site_type_symbol
 _atom_site_label
 _atom_site_symmetry_multiplicity
 _atom_site_fract_x
 _atom_site_fract_y
 _atom_site_fract_z
 _atom_site_occupancy
  Li  Li0  1  0.99832382  0.00165985  0.00066005  1
  Li  Li1  1  0.25163578  0.24923611  0.24944943  1
  Li  Li2  1  0.25503236  0.75179026  0.75079825  1
  Li  Li3  1  0.49787787  0.99876218  0.50134414  1
  Li  Li4  1  0.49707525  0.49665855  0.99871273  1
  Li  Li5  1  0.74993006  0.25057026  0.74972454  1
  Li  Li6  1  0.75242467  0.75171932  0.25313202  1
  Li  Li7  1  0.99552045  0.49823425  0.49834760  1
  Fe  Fe8  1  0.10983201  0.14022933  0.62611754  1
  Fe  Fe9  1  0.12573391  0.39181989  0.86355469  1
  Fe  Fe10  1  0.13428126  0.62705310  0.11545305  1
  Fe  Fe11  1  0.35987150  0.37518191  0.61142964  1
  Fe  Fe12  1  0.37478913  0.60905364  0.36180392  1
  Fe  Fe13  1  0.38882765  0.86107482  0.12225764  1
  Fe  Fe14  1  0.61075988  0.35833187  0.37469227  1
  Fe  Fe15  1  0.62509406  0.11063252  0.14097644  1
  Fe  Fe16  1  0.64133614  0.87571243  0.88872406  1
  Fe  Fe17  1  0.85938754  0.12577101  0.38823068  1
  Fe  Fe18  1  0.87617316  0.88793931  0.63696335  1
  Fe  Fe19  1  0.89356414  0.64022040  0.87336148  1
  Bi  Bi20  1  0.12537605  0.87616626  0.37421267  1
  Bi  Bi21  1  0.37569613  0.12518901  0.87510053  1
  Bi  Bi22  1  0.62555769  0.62339282  0.62528791  1
  Bi  Bi23  1  0.87297629  0.37401436  0.12511348  1
  O  O24  1  0.10497211  0.12124314  0.38725422  1
  O  O25  1  0.11454766  0.89383866  0.62017467  1
  O  O26  1  0.12470502  0.62227396  0.89208468  1
  O  O27  1  0.12872266  0.14767967  0.86424850  1
  O  O28  1  0.13191373  0.40406828  0.10173664  1
  O  O29  1  0.13143910  0.36939519  0.63235258  1
  O  O30  1  0.13559546  0.62734400  0.34293878  1
  O  O31  1  0.14474268  0.85293554  0.12619383  1
  O  O32  1  0.35272114  0.13758987  0.62903069  1
  O  O33  1  0.36334947  0.37070550  0.85356192  1
  O  O34  1  0.35488369  0.63112851  0.12951329  1
  O  O35  1  0.37761807  0.61290648  0.60333388  1
  O  O36  1  0.37077380  0.85234678  0.36021592  1
  O  O37  1  0.37920352  0.38228948  0.38329401  1
  O  O38  1  0.38408850  0.09990495  0.12067320  1
  O  O39  1  0.39707293  0.87915488  0.88623600  1
  O  O40  1  0.60222532  0.37959349  0.61401763  1
  O  O41  1  0.61017252  0.60414271  0.37788842  1
  O  O42  1  0.61650651  0.87800526  0.11769422  1
  O  O43  1  0.61820514  0.34998212  0.14163534  1
  O  O44  1  0.62148348  0.11185271  0.89676667  1
  O  O45  1  0.62922009  0.12883263  0.36979046  1
  O  O46  1  0.63791038  0.86900112  0.64477753  1
  O  O47  1  0.64914533  0.63857451  0.87275549  1
  O  O48  1  0.84878116  0.35805256  0.38002607  1
  O  O49  1  0.85879074  0.12093952  0.14920681  1
  O  O50  1  0.86988735  0.86985130  0.86554516  1
  O  O51  1  0.87960230  0.88618855  0.39598948  1
  O  O52  1  0.87336398  0.64659557  0.63637505  1
  O  O53  1  0.88273089  0.11555073  0.61886088  1
  O  O54  1  0.89371074  0.40316471  0.87076055  1
  O  O55  1  0.91483371  0.63459313  0.10975831  1
