# generated using pymatgen
data_Na2LiMnPCO7
_symmetry_space_group_name_H-M   'P 1'
_cell_length_a   8.84796740
_cell_length_b   6.84940530
_cell_length_c   10.23115891
_cell_angle_alpha   90.14373795
_cell_angle_beta   89.26714746
_cell_angle_gamma   89.66291234
_symmetry_Int_Tables_number   1
_chemical_formula_structural   Na2LiMnPCO7
_chemical_formula_sum   'Na8 Li4 Mn4 P4 C4 O28'
_cell_volume   619.97862480
_cell_formula_units_Z   4
loop_
 _symmetry_equiv_pos_site_id
 _symmetry_equiv_pos_as_xyz
  1  'x, y, z'
loop_
 _atom_site_type_symbol
 _atom_site_label
 _atom_site_symmetry_multiplicity
 _atom_site_fract_x
 _atom_site_fract_y
 _atom_site_fract_z
 _atom_site_occupancy
  Na  Na0  1  0.08294152  0.24650118  0.87903906  1
  Na  Na1  1  0.25687039  0.99968586  0.62291362  1
  Na  Na2  1  0.25739517  0.50003341  0.62260959  1
  Na  Na3  1  0.25712254  0.99974379  0.12628079  1
  Na  Na4  1  0.25715317  0.50040877  0.12576859  1
  Na  Na5  1  0.74427619  0.50168247  0.87481401  1
  Na  Na6  1  0.74294685  0.49972240  0.37671418  1
  Na  Na7  1  0.74378537  0.00083371  0.37608146  1
  Li  Li8  1  0.08442031  0.24981806  0.37704705  1
  Li  Li9  1  0.72918337  0.98037131  0.88311444  1
  Li  Li10  1  0.91133770  0.75648480  0.62507016  1
  Li  Li11  1  0.90961605  0.75343873  0.12442090  1
  Mn  Mn12  1  0.36176734  0.74878882  0.88652131  1
  Mn  Mn13  1  0.36103917  0.75049112  0.38809038  1
  Mn  Mn14  1  0.64321357  0.24806737  0.61336422  1
  Mn  Mn15  1  0.64254808  0.24691928  0.10994364  1
  P  P16  1  0.41420859  0.24437399  0.85170826  1
  P  P17  1  0.40469211  0.25028557  0.35245843  1
  P  P18  1  0.59822419  0.75385800  0.64844600  1
  P  P19  1  0.59541933  0.74923726  0.14513497  1
  C  C20  1  0.04629213  0.75835734  0.86814650  1
  C  C21  1  0.05211936  0.75022072  0.36605054  1
  C  C22  1  0.94755443  0.24918942  0.62875955  1
  C  C23  1  0.94189567  0.24935775  0.13813924  1
  O  O24  1  0.09053334  0.25124549  0.64921988  1
  O  O25  1  0.08597479  0.25121830  0.15586811  1
  O  O26  1  0.09043737  0.75071182  0.98919054  1
  O  O27  1  0.09401159  0.75121089  0.48806496  1
  O  O28  1  0.14679263  0.74834530  0.77321250  1
  O  O29  1  0.15405983  0.75103459  0.27250656  1
  O  O30  1  0.31742991  0.06549978  0.89325176  1
  O  O31  1  0.32666791  0.43116198  0.89648866  1
  O  O32  1  0.30826861  0.06953241  0.39175058  1
  O  O33  1  0.30786938  0.43250753  0.39149544  1
  O  O34  1  0.42951212  0.24802936  0.69962233  1
  O  O35  1  0.43754517  0.74966301  0.58772519  1
  O  O36  1  0.42989924  0.24912398  0.20079084  1
  O  O37  1  0.43564418  0.74983986  0.08396132  1
  O  O38  1  0.57683349  0.23251928  0.90830904  1
  O  O39  1  0.57766286  0.76605684  0.80081523  1
  O  O40  1  0.56263192  0.25086568  0.41654228  1
  O  O41  1  0.57244560  0.75422612  0.29684182  1
  O  O42  1  0.69290223  0.56903568  0.61225919  1
  O  O43  1  0.69344205  0.93074537  0.60236192  1
  O  O44  1  0.69068261  0.56600622  0.10677661  1
  O  O45  1  0.69234579  0.92714372  0.10045062  1
  O  O46  1  0.85250088  0.24709341  0.72784507  1
  O  O47  1  0.85054771  0.24689303  0.23883574  1
  O  O48  1  0.89661720  0.24928817  0.50959694  1
  O  O49  1  0.88462244  0.24964410  0.02123903  1
  O  O50  1  0.90475102  0.77484146  0.83935592  1
  O  O51  1  0.91134749  0.74864646  0.33498503  1
