# generated using pymatgen
data_Li4Mn2(PO4)3
_symmetry_space_group_name_H-M   'P 1'
_cell_length_a   9.23860998
_cell_length_b   8.56226944
_cell_length_c   8.37664082
_cell_angle_alpha   60.37916270
_cell_angle_beta   64.51513075
_cell_angle_gamma   62.55985350
_symmetry_Int_Tables_number   1
_chemical_formula_structural   Li4Mn2(PO4)3
_chemical_formula_sum   'Li8 Mn4 P6 O24'
_cell_volume   493.29463498
_cell_formula_units_Z   2
loop_
 _symmetry_equiv_pos_site_id
 _symmetry_equiv_pos_as_xyz
  1  'x, y, z'
loop_
 _atom_site_type_symbol
 _atom_site_label
 _atom_site_symmetry_multiplicity
 _atom_site_fract_x
 _atom_site_fract_y
 _atom_site_fract_z
 _atom_site_occupancy
  Li  Li0  1  0.14563000  0.66213886  0.26929331  1
  Li  Li1  1  0.13568186  0.26760999  0.92729687  1
  Li  Li2  1  0.09813997  0.94175058  0.69074032  1
  Li  Li3  1  0.59144775  0.20532017  0.46337491  1
  Li  Li4  1  0.40855225  0.79467983  0.53662509  1
  Li  Li5  1  0.90186003  0.05824942  0.30925968  1
  Li  Li6  1  0.86431814  0.73239001  0.07270313  1
  Li  Li7  1  0.85437000  0.33786114  0.73070669  1
  Mn  Mn8  1  0.03399322  0.65027876  0.66103455  1
  Mn  Mn9  1  0.56276682  0.14701120  0.13667487  1
  Mn  Mn10  1  0.43723318  0.85298880  0.86332513  1
  Mn  Mn11  1  0.96600678  0.34972124  0.33896545  1
  P  P12  1  0.23934986  0.25311500  0.55239787  1
  P  P13  1  0.24843169  0.95189774  0.26261581  1
  P  P14  1  0.24744682  0.55010846  0.94654915  1
  P  P15  1  0.75255318  0.44989154  0.05345085  1
  P  P16  1  0.75156831  0.04810226  0.73738419  1
  P  P17  1  0.76065014  0.74688500  0.44760213  1
  O  O18  1  0.10228218  0.15057255  0.20872322  1
  O  O19  1  0.10223770  0.56418583  0.13222696  1
  O  O20  1  0.09458430  0.21196388  0.53671454  1
  O  O21  1  0.18084833  0.46753644  0.51572056  1
  O  O22  1  0.25057838  0.12934023  0.75906722  1
  O  O23  1  0.40724129  0.20244122  0.40979996  1
  O  O24  1  0.25626850  0.85200888  0.14698565  1
  O  O25  1  0.19247640  0.83889413  0.48140664  1
  O  O26  1  0.18492835  0.50440198  0.83029357  1
  O  O27  1  0.59207271  0.60565856  0.01122143  1
  O  O28  1  0.72596897  0.25216165  0.17714515  1
  O  O29  1  0.58521380  0.02573928  0.77398937  1
  O  O30  1  0.41478620  0.97426072  0.22601063  1
  O  O31  1  0.27403103  0.74783835  0.82285485  1
  O  O32  1  0.40792729  0.39434144  0.98877857  1
  O  O33  1  0.81507165  0.49559802  0.16970643  1
  O  O34  1  0.80752360  0.16110587  0.51859336  1
  O  O35  1  0.74373150  0.14799112  0.85301435  1
  O  O36  1  0.59275871  0.79755878  0.59020004  1
  O  O37  1  0.74942162  0.87065977  0.24093278  1
  O  O38  1  0.81915167  0.53246256  0.48427944  1
  O  O39  1  0.90541570  0.78803612  0.46328546  1
  O  O40  1  0.89776230  0.43581417  0.86777304  1
  O  O41  1  0.89771782  0.84942745  0.79127678  1
