# generated using pymatgen
data_Li2V(Si2O5)3
_symmetry_space_group_name_H-M   'P 1'
_cell_length_a   11.06981436
_cell_length_b   11.06981402
_cell_length_c   10.01758900
_cell_angle_alpha   90.00000000
_cell_angle_beta   90.00000000
_cell_angle_gamma   80.43826895
_symmetry_Int_Tables_number   1
_chemical_formula_structural   Li2V(Si2O5)3
_chemical_formula_sum   'Li8 V4 Si24 O60'
_cell_volume   1210.50894794
_cell_formula_units_Z   4
loop_
 _symmetry_equiv_pos_site_id
 _symmetry_equiv_pos_as_xyz
  1  'x, y, z'
loop_
 _atom_site_type_symbol
 _atom_site_label
 _atom_site_symmetry_multiplicity
 _atom_site_fract_x
 _atom_site_fract_y
 _atom_site_fract_z
 _atom_site_occupancy
  Li  Li0  1  0.01994835  0.51994835  0.75000000  1
  Li  Li1  1  0.24144596  0.75855404  0.00000000  1
  Li  Li2  1  0.25855404  0.74144596  0.50000000  1
  Li  Li3  1  0.51994835  0.01994835  0.75000000  1
  Li  Li4  1  0.48005165  0.98005165  0.25000000  1
  Li  Li5  1  0.74144596  0.25855404  0.50000000  1
  Li  Li6  1  0.75855404  0.24144596  0.00000000  1
  Li  Li7  1  0.98005165  0.48005165  0.25000000  1
  V  V8  1  0.15799433  0.65799433  0.25000000  1
  V  V9  1  0.34200567  0.84200567  0.75000000  1
  V  V10  1  0.65799433  0.15799433  0.25000000  1
  V  V11  1  0.84200567  0.34200567  0.75000000  1
  Si  Si12  1  0.02155380  0.23692687  0.48842671  1
  Si  Si13  1  0.07807778  0.29380293  0.95317513  1
  Si  Si14  1  0.04375501  0.81829638  0.80519404  1
  Si  Si15  1  0.23692687  0.02155380  0.48842671  1
  Si  Si16  1  0.20619707  0.42192222  0.45317513  1
  Si  Si17  1  0.29380293  0.07807778  0.95317513  1
  Si  Si18  1  0.26307313  0.47844620  0.98842671  1
  Si  Si19  1  0.18170362  0.95624499  0.19480596  1
  Si  Si20  1  0.31829638  0.54375501  0.69480596  1
  Si  Si21  1  0.42192222  0.20619707  0.45317513  1
  Si  Si22  1  0.47844620  0.26307313  0.98842671  1
  Si  Si23  1  0.45624499  0.68170362  0.30519404  1
  Si  Si24  1  0.54375501  0.31829638  0.69480596  1
  Si  Si25  1  0.52155380  0.73692687  0.01157329  1
  Si  Si26  1  0.57807778  0.79380293  0.54682487  1
  Si  Si27  1  0.68170362  0.45624499  0.30519404  1
  Si  Si28  1  0.81829638  0.04375501  0.80519404  1
  Si  Si29  1  0.73692687  0.52155380  0.01157329  1
  Si  Si30  1  0.70619707  0.92192222  0.04682487  1
  Si  Si31  1  0.79380293  0.57807778  0.54682487  1
  Si  Si32  1  0.76307313  0.97844620  0.51157329  1
  Si  Si33  1  0.95624499  0.18170362  0.19480596  1
  Si  Si34  1  0.92192222  0.70619707  0.04682487  1
  Si  Si35  1  0.97844620  0.76307313  0.51157329  1
  O  O36  1  0.00347880  0.35763260  0.82557771  1
  O  O37  1  0.05754665  0.05754665  0.19353695  1
  O  O38  1  0.09830072  0.09830072  0.50271018  1
  O  O39  1  0.01326415  0.72370442  0.92227465  1
  O  O40  1  0.03145559  0.74187844  0.66555441  1
  O  O41  1  0.11169512  0.33642754  0.51383023  1
  O  O42  1  0.16325877  0.16325877  0.91462381  1
  O  O43  1  0.14236740  0.49652120  0.32557771  1
  O  O44  1  0.09302626  0.74186910  0.40967590  1
  O  O45  1  0.16357246  0.38830488  0.01383023  1
  O  O46  1  0.15602299  0.81975249  0.16608188  1
  O  O47  1  0.22370442  0.51326415  0.57772535  1
  O  O48  1  0.18024751  0.84397701  0.83391812  1
  O  O49  1  0.24187844  0.53145559  0.83444559  1
  O  O50  1  0.24186910  0.59302626  0.09032410  1
  O  O51  1  0.33642754  0.11169512  0.51383023  1
  O  O52  1  0.35763260  0.00347880  0.82557771  1
  O  O53  1  0.33674123  0.33674123  0.41462381  1
  O  O54  1  0.25813090  0.90697374  0.59032410  1
  O  O55  1  0.38830488  0.16357246  0.01383023  1
  O  O56  1  0.25812156  0.96854441  0.33444559  1
  O  O57  1  0.31975249  0.65602299  0.33391812  1
  O  O58  1  0.27629558  0.98673585  0.07772535  1
  O  O59  1  0.34397701  0.68024751  0.66608188  1
  O  O60  1  0.40169928  0.40169928  0.00271018  1
  O  O61  1  0.44245335  0.44245335  0.69353695  1
  O  O62  1  0.49652120  0.14236740  0.32557771  1
  O  O63  1  0.40697374  0.75813090  0.90967590  1
  O  O64  1  0.51326415  0.22370442  0.57772535  1
  O  O65  1  0.53145559  0.24187844  0.83444559  1
  O  O66  1  0.46854441  0.75812156  0.16555441  1
  O  O67  1  0.48673585  0.77629558  0.42227465  1
  O  O68  1  0.59302626  0.24186910  0.09032410  1
  O  O69  1  0.50347880  0.85763260  0.67442229  1
  O  O70  1  0.55754665  0.55754665  0.30646305  1
  O  O71  1  0.59830072  0.59830072  0.99728982  1
  O  O72  1  0.65602299  0.31975249  0.33391812  1
  O  O73  1  0.72370442  0.01326415  0.92227465  1
  O  O74  1  0.68024751  0.34397701  0.66608188  1
  O  O75  1  0.74187844  0.03145559  0.66555441  1
  O  O76  1  0.61169512  0.83642754  0.98616977  1
  O  O77  1  0.74186910  0.09302626  0.40967590  1
  O  O78  1  0.66325877  0.66325877  0.58537619  1
  O  O79  1  0.64236740  0.99652120  0.17442229  1
  O  O80  1  0.66357246  0.88830488  0.48616977  1
  O  O81  1  0.75813090  0.40697374  0.90967590  1
  O  O82  1  0.75812156  0.46854441  0.16555441  1
  O  O83  1  0.81975249  0.15602299  0.16608188  1
  O  O84  1  0.77629558  0.48673585  0.42227465  1
  O  O85  1  0.84397701  0.18024751  0.83391812  1
  O  O86  1  0.83642754  0.61169512  0.98616977  1
  O  O87  1  0.90697374  0.25813090  0.59032410  1
  O  O88  1  0.85763260  0.50347880  0.67442229  1
  O  O89  1  0.83674123  0.83674123  0.08537619  1
  O  O90  1  0.88830488  0.66357246  0.48616977  1
  O  O91  1  0.96854441  0.25812156  0.33444559  1
  O  O92  1  0.98673585  0.27629558  0.07772535  1
  O  O93  1  0.90169928  0.90169928  0.49728982  1
  O  O94  1  0.94245335  0.94245335  0.80646305  1
  O  O95  1  0.99652120  0.64236740  0.17442229  1
