# generated using pymatgen
data_Na2LiMnPCO7
_symmetry_space_group_name_H-M   'P 1'
_cell_length_a   8.86920465
_cell_length_b   6.77743446
_cell_length_c   10.23184952
_cell_angle_alpha   90.04826086
_cell_angle_beta   89.12510483
_cell_angle_gamma   90.09284419
_symmetry_Int_Tables_number   1
_chemical_formula_structural   Na2LiMnPCO7
_chemical_formula_sum   'Na8 Li4 Mn4 P4 C4 O28'
_cell_volume   614.96839757
_cell_formula_units_Z   4
loop_
 _symmetry_equiv_pos_site_id
 _symmetry_equiv_pos_as_xyz
  1  'x, y, z'
loop_
 _atom_site_type_symbol
 _atom_site_label
 _atom_site_symmetry_multiplicity
 _atom_site_fract_x
 _atom_site_fract_y
 _atom_site_fract_z
 _atom_site_occupancy
  Na  Na0  1  0.08405948  0.24942098  0.87944996  1
  Na  Na1  1  0.08225671  0.25599389  0.37834517  1
  Na  Na2  1  0.25652735  0.99942123  0.62345694  1
  Na  Na3  1  0.25602856  0.50066692  0.62361680  1
  Na  Na4  1  0.25514669  0.00013559  0.12594822  1
  Na  Na5  1  0.74514141  0.50181170  0.87483146  1
  Na  Na6  1  0.74424502  0.50172420  0.37713040  1
  Na  Na7  1  0.74469302  0.99926049  0.37662296  1
  Li  Li8  1  0.27364341  0.47680745  0.11605751  1
  Li  Li9  1  0.72877602  0.97941464  0.88411076  1
  Li  Li10  1  0.90963817  0.75761781  0.62704859  1
  Li  Li11  1  0.91181130  0.74573419  0.12464119  1
  Mn  Mn12  1  0.35961627  0.74555018  0.88973173  1
  Mn  Mn13  1  0.36214806  0.74907842  0.38722616  1
  Mn  Mn14  1  0.64189533  0.24871143  0.61279363  1
  Mn  Mn15  1  0.64356728  0.24589955  0.11013685  1
  P  P16  1  0.41366190  0.24310650  0.85425984  1
  P  P17  1  0.40867261  0.25455799  0.35029984  1
  P  P18  1  0.59740455  0.75434461  0.65038413  1
  P  P19  1  0.59226354  0.74421711  0.14598066  1
  C  C20  1  0.04455637  0.75893038  0.86815145  1
  C  C21  1  0.05200784  0.74900347  0.36395141  1
  C  C22  1  0.94166965  0.24894724  0.63409606  1
  C  C23  1  0.94722012  0.25865718  0.13111700  1
  O  O24  1  0.08632734  0.24875975  0.64480923  1
  O  O25  1  0.09250466  0.27650436  0.14017512  1
  O  O26  1  0.08589801  0.75270599  0.98906901  1
  O  O27  1  0.08942460  0.75039513  0.48687880  1
  O  O28  1  0.14591453  0.74395900  0.77399039  1
  O  O29  1  0.15566764  0.74669235  0.27221708  1
  O  O30  1  0.31678488  0.06115738  0.89535174  1
  O  O31  1  0.32660923  0.42854091  0.90533539  1
  O  O32  1  0.31648266  0.06666017  0.38779562  1
  O  O33  1  0.31656388  0.43475183  0.40023016  1
  O  O34  1  0.42575723  0.25152173  0.70186922  1
  O  O35  1  0.43769044  0.75055163  0.58962209  1
  O  O36  1  0.42369418  0.26676227  0.19743273  1
  O  O37  1  0.42997930  0.73257961  0.09002335  1
  O  O38  1  0.57641680  0.23192011  0.90789644  1
  O  O39  1  0.57738635  0.76699528  0.80256412  1
  O  O40  1  0.56915487  0.25058369  0.40841267  1
  O  O41  1  0.57585500  0.75223181  0.29793604  1
  O  O42  1  0.69241025  0.56821330  0.61462274  1
  O  O43  1  0.69355904  0.93224947  0.60199410  1
  O  O44  1  0.69196824  0.56422113  0.10657148  1
  O  O45  1  0.68203312  0.92835411  0.09639324  1
  O  O46  1  0.85453089  0.24695570  0.73792213  1
  O  O47  1  0.86234220  0.24642968  0.23668707  1
  O  O48  1  0.88007999  0.25140514  0.51922513  1
  O  O49  1  0.88294013  0.25136857  0.01845532  1
  O  O50  1  0.90364377  0.77858917  0.83699674  1
  O  O51  1  0.91173312  0.74992856  0.33013315  1
