# generated using pymatgen
data_LiTiFeO4
_symmetry_space_group_name_H-M   'P 1'
_cell_length_a   5.99014703
_cell_length_b   5.99014703
_cell_length_c   8.33597416
_cell_angle_alpha   90.00000000
_cell_angle_beta   90.00000000
_cell_angle_gamma   90.00000000
_symmetry_Int_Tables_number   1
_chemical_formula_structural   LiTiFeO4
_chemical_formula_sum   'Li4 Ti4 Fe4 O16'
_cell_volume   299.11026979
_cell_formula_units_Z   4
loop_
 _symmetry_equiv_pos_site_id
 _symmetry_equiv_pos_as_xyz
  1  'x, y, z'
loop_
 _atom_site_type_symbol
 _atom_site_label
 _atom_site_symmetry_multiplicity
 _atom_site_fract_x
 _atom_site_fract_y
 _atom_site_fract_z
 _atom_site_occupancy
  Li  Li0  1  0.00000000  0.22696796  0.00000000  1
  Li  Li1  1  0.00000000  0.77303204  0.50000000  1
  Li  Li2  1  0.22696796  0.00000000  0.25000000  1
  Li  Li3  1  0.77303204  0.00000000  0.75000000  1
  Ti  Ti4  1  0.22081014  0.50000000  0.25000000  1
  Ti  Ti5  1  0.50000000  0.22081014  0.00000000  1
  Ti  Ti6  1  0.50000000  0.77918986  0.50000000  1
  Ti  Ti7  1  0.77918986  0.50000000  0.75000000  1
  Fe  Fe8  1  0.25860486  0.25860486  0.62500000  1
  Fe  Fe9  1  0.25860486  0.74139514  0.87500000  1
  Fe  Fe10  1  0.74139514  0.25860486  0.37500000  1
  Fe  Fe11  1  0.74139514  0.74139514  0.12500000  1
  O  O12  1  0.01330208  0.26612454  0.25693053  1
  O  O13  1  0.01330208  0.73387546  0.24306947  1
  O  O14  1  0.26612454  0.01330208  0.99306947  1
  O  O15  1  0.26612454  0.98669792  0.50693053  1
  O  O16  1  0.26469370  0.48512056  0.01465141  1
  O  O17  1  0.26469370  0.51487944  0.48534859  1
  O  O18  1  0.48512056  0.26469370  0.23534859  1
  O  O19  1  0.48512056  0.73530630  0.26465141  1
  O  O20  1  0.51487944  0.26469370  0.76465141  1
  O  O21  1  0.51487944  0.73530630  0.73534859  1
  O  O22  1  0.73530630  0.51487944  0.51465141  1
  O  O23  1  0.73530630  0.48512056  0.98534859  1
  O  O24  1  0.73387546  0.01330208  0.00693053  1
  O  O25  1  0.73387546  0.98669792  0.49306947  1
  O  O26  1  0.98669792  0.26612454  0.74306947  1
  O  O27  1  0.98669792  0.73387546  0.75693053  1
