# generated using pymatgen
data_Mn3OF5
_symmetry_space_group_name_H-M   'P 1'
_cell_length_a   10.77480464
_cell_length_b   7.07651376
_cell_length_c   3.24586011
_cell_angle_alpha   90.00000000
_cell_angle_beta   90.00000000
_cell_angle_gamma   109.17930932
_symmetry_Int_Tables_number   1
_chemical_formula_structural   Mn3OF5
_chemical_formula_sum   'Mn6 O2 F10'
_cell_volume   233.75357083
_cell_formula_units_Z   2
loop_
 _symmetry_equiv_pos_site_id
 _symmetry_equiv_pos_as_xyz
  1  'x, y, z'
loop_
 _atom_site_type_symbol
 _atom_site_label
 _atom_site_symmetry_multiplicity
 _atom_site_fract_x
 _atom_site_fract_y
 _atom_site_fract_z
 _atom_site_occupancy
  Mn  Mn0  1  0.00000000  0.00000000  0.00000000  1
  Mn  Mn1  1  0.34521382  0.17262533  0.50000000  1
  Mn  Mn2  1  0.00000000  0.50000000  0.50000000  1
  Mn  Mn3  1  0.69596900  0.34800576  0.00000000  1
  Mn  Mn4  1  0.30403100  0.65199424  0.00000000  1
  Mn  Mn5  1  0.65478618  0.82737467  0.50000000  1
  O  O6  1  0.18807688  0.59416981  0.50000000  1
  O  O7  1  0.81192312  0.40583019  0.50000000  1
  F  F8  1  0.13344060  0.06660616  0.50000000  1
  F  F9  1  0.00018256  0.30820502  0.00000000  1
  F  F10  1  0.33740509  0.36457588  0.00000000  1
  F  F11  1  0.99981744  0.69179498  0.00000000  1
  F  F12  1  0.66261149  0.02713816  0.00000000  1
  F  F13  1  0.55616139  0.27816450  0.50000000  1
  F  F14  1  0.44383861  0.72183550  0.50000000  1
  F  F15  1  0.66259491  0.63542412  0.00000000  1
  F  F16  1  0.33738851  0.97286184  0.00000000  1
  F  F17  1  0.86655940  0.93339384  0.50000000  1
