# generated using pymatgen
data_Li3Ti6Co3O16
_symmetry_space_group_name_H-M   'P 1'
_cell_length_a   8.45390077
_cell_length_b   8.45530123
_cell_length_c   8.45631183
_cell_angle_alpha   90.00000000
_cell_angle_beta   89.95463519
_cell_angle_gamma   90.00000000
_symmetry_Int_Tables_number   1
_chemical_formula_structural   Li3Ti6Co3O16
_chemical_formula_sum   'Li6 Ti12 Co6 O32'
_cell_volume   604.45932780
_cell_formula_units_Z   2
loop_
 _symmetry_equiv_pos_site_id
 _symmetry_equiv_pos_as_xyz
  1  'x, y, z'
loop_
 _atom_site_type_symbol
 _atom_site_label
 _atom_site_symmetry_multiplicity
 _atom_site_fract_x
 _atom_site_fract_y
 _atom_site_fract_z
 _atom_site_occupancy
  Li  Li0  1  0.99817602  0.99778716  0.99852511  1
  Li  Li1  1  0.12495461  0.87505528  0.37533047  1
  Li  Li2  1  0.37511655  0.12500174  0.87514621  1
  Li  Li3  1  0.62488345  0.62500174  0.62485379  1
  Li  Li4  1  0.87504539  0.37505528  0.12466953  1
  Li  Li5  1  0.00182398  0.49778716  0.50147489  1
  Ti  Ti6  1  0.13004296  0.12163102  0.63031244  1
  Ti  Ti7  1  0.11585712  0.62739277  0.13520632  1
  Ti  Ti8  1  0.12404744  0.36600397  0.88007114  1
  Ti  Ti9  1  0.37860437  0.37636838  0.62949071  1
  Ti  Ti10  1  0.37240399  0.63044369  0.38092297  1
  Ti  Ti11  1  0.36451818  0.88103597  0.12428055  1
  Ti  Ti12  1  0.62759601  0.13044369  0.11907703  1
  Ti  Ti13  1  0.63548182  0.38103597  0.37571945  1
  Ti  Ti14  1  0.62139563  0.87636838  0.87050929  1
  Ti  Ti15  1  0.88414288  0.12739277  0.36479368  1
  Ti  Ti16  1  0.86995704  0.62163102  0.86968756  1
  Ti  Ti17  1  0.87595256  0.86600397  0.61992886  1
  Co  Co18  1  0.25185879  0.25200585  0.25081139  1
  Co  Co19  1  0.24871320  0.74913511  0.75230316  1
  Co  Co20  1  0.49890725  0.50037041  0.00144164  1
  Co  Co21  1  0.50109275  0.00037041  0.49855836  1
  Co  Co22  1  0.75128680  0.24913511  0.74769684  1
  Co  Co23  1  0.74814121  0.75200585  0.24918861  1
  O  O24  1  0.12792247  0.39060998  0.10717216  1
  O  O25  1  0.13951378  0.36044029  0.63998689  1
  O  O26  1  0.14390722  0.85725475  0.12407647  1
  O  O27  1  0.10989045  0.89237598  0.62750869  1
  O  O28  1  0.14197951  0.62342191  0.35511608  1
  O  O29  1  0.10768518  0.12740435  0.38965419  1
  O  O30  1  0.12380057  0.14387715  0.85904303  1
  O  O31  1  0.11134846  0.61249511  0.88767868  1
  O  O32  1  0.38953945  0.10738802  0.12771132  1
  O  O33  1  0.35709855  0.13850080  0.62161524  1
  O  O34  1  0.38620027  0.38690460  0.38722923  1
  O  O35  1  0.36053971  0.37783717  0.85831620  1
  O  O36  1  0.36322616  0.63740011  0.13645583  1
  O  O37  1  0.37878758  0.85854910  0.36019292  1
  O  O38  1  0.37126610  0.61113317  0.60926839  1
  O  O39  1  0.39243625  0.87217716  0.88967364  1
  O  O40  1  0.63677384  0.13740011  0.36354417  1
  O  O41  1  0.62121242  0.35854910  0.13980708  1
  O  O42  1  0.60756375  0.37217716  0.61032636  1
  O  O43  1  0.61046055  0.60738802  0.37228868  1
  O  O44  1  0.62873390  0.11113317  0.89073161  1
  O  O45  1  0.64290145  0.63850080  0.87838476  1
  O  O46  1  0.61379973  0.88690460  0.11277077  1
  O  O47  1  0.63946029  0.87783717  0.64168380  1
  O  O48  1  0.85802049  0.12342191  0.14488392  1
  O  O49  1  0.88865154  0.11249511  0.61232132  1
  O  O50  1  0.85609278  0.35725475  0.37592353  1
  O  O51  1  0.89231482  0.62740435  0.11034581  1
  O  O52  1  0.87619943  0.64387715  0.64095697  1
  O  O53  1  0.89010855  0.39237598  0.87249131  1
  O  O54  1  0.87207753  0.89060998  0.39282784  1
  O  O55  1  0.86048622  0.86044029  0.86001311  1
