# generated using pymatgen
data_Zn2Co3O8
_symmetry_space_group_name_H-M   'P 1'
_cell_length_a   5.83241032
_cell_length_b   5.83240981
_cell_length_c   9.47125423
_cell_angle_alpha   90.00000000
_cell_angle_beta   90.00000000
_cell_angle_gamma   120.00000291
_symmetry_Int_Tables_number   1
_chemical_formula_structural   Zn2Co3O8
_chemical_formula_sum   'Zn4 Co6 O16'
_cell_volume   279.01928049
_cell_formula_units_Z   2
loop_
 _symmetry_equiv_pos_site_id
 _symmetry_equiv_pos_as_xyz
  1  'x, y, z'
loop_
 _atom_site_type_symbol
 _atom_site_label
 _atom_site_symmetry_multiplicity
 _atom_site_fract_x
 _atom_site_fract_y
 _atom_site_fract_z
 _atom_site_occupancy
  Zn  Zn0  1  0.66666700  0.33333400  0.02614996  1
  Zn  Zn1  1  0.33333300  0.66666600  0.52615096  1
  Zn  Zn2  1  0.66666700  0.33333400  0.42477309  1
  Zn  Zn3  1  0.33333300  0.66666600  0.92477409  1
  Co  Co4  1  0.67333815  0.83667007  0.24314113  1
  Co  Co5  1  0.83667107  0.16333093  0.74314113  1
  Co  Co6  1  0.16333093  0.32666285  0.24314113  1
  Co  Co7  1  0.83666907  0.67333815  0.74314113  1
  Co  Co8  1  0.32666285  0.16333093  0.74314113  1
  Co  Co9  1  0.16333093  0.83667007  0.24314113  1
  O  O10  1  0.83832607  0.16167493  0.14489805  1
  O  O11  1  0.67665215  0.83832607  0.64489705  1
  O  O12  1  0.16167493  0.32334885  0.64489705  1
  O  O13  1  0.83832507  0.67665215  0.14489805  1
  O  O14  1  0.32334785  0.16167493  0.14489805  1
  O  O15  1  0.16167493  0.83832607  0.64489705  1
  O  O16  1  0.51853957  0.48145943  0.86347895  1
  O  O17  1  0.03708114  0.51853957  0.36347795  1
  O  O18  1  0.48146043  0.96291986  0.36347795  1
  O  O19  1  0.51853957  0.03708114  0.86347895  1
  O  O20  1  -0.00000000  -0.00000000  0.35510835  1
  O  O21  1  -0.00000000  -0.00000000  0.85510835  1
  O  O22  1  0.33333300  0.66666600  0.13291722  1
  O  O23  1  0.96291786  0.48145943  0.86347895  1
  O  O24  1  0.48145943  0.51853957  0.36347795  1
  O  O25  1  0.66666700  0.33333400  0.63291722  1
