# generated using pymatgen
data_CrPHO5
_symmetry_space_group_name_H-M   'P 1'
_cell_length_a   5.21479835
_cell_length_b   7.25486574
_cell_length_c   5.14377062
_cell_angle_alpha   108.60819767
_cell_angle_beta   98.60891875
_cell_angle_gamma   106.57531295
_symmetry_Int_Tables_number   1
_chemical_formula_structural   CrPHO5
_chemical_formula_sum   'Cr2 P2 H2 O10'
_cell_volume   170.44528146
_cell_formula_units_Z   2
loop_
 _symmetry_equiv_pos_site_id
 _symmetry_equiv_pos_as_xyz
  1  'x, y, z'
loop_
 _atom_site_type_symbol
 _atom_site_label
 _atom_site_symmetry_multiplicity
 _atom_site_fract_x
 _atom_site_fract_y
 _atom_site_fract_z
 _atom_site_occupancy
  Cr  Cr0  1  0.00000000  0.50000000  0.00000000  1
  Cr  Cr1  1  0.00000000  0.00000000  0.00000000  1
  P  P2  1  0.34651924  0.22885176  0.67431671  1
  P  P3  1  0.65348076  0.77114824  0.32568329  1
  H  H4  1  0.02114090  0.33161682  0.35088898  1
  H  H5  1  0.97885910  0.66838318  0.64911102  1
  O  O6  1  0.03296249  0.72437029  0.86072979  1
  O  O7  1  0.18794558  0.38357127  0.71382741  1
  O  O8  1  0.34286294  0.65242551  0.28531442  1
  O  O9  1  0.23463356  0.06586973  0.36868894  1
  O  O10  1  0.32042422  0.11841068  0.88663047  1
  O  O11  1  0.67957578  0.88158932  0.11336953  1
  O  O12  1  0.76536644  0.93413027  0.63131106  1
  O  O13  1  0.65713706  0.34757549  0.71468558  1
  O  O14  1  0.81205442  0.61642873  0.28617259  1
  O  O15  1  0.96703751  0.27562971  0.13927021  1
