# generated using pymatgen
data_Li5Sm3(SbO6)2
_symmetry_space_group_name_H-M   'P 1'
_cell_length_a   11.04645192
_cell_length_b   11.03405753
_cell_length_c   11.04874509
_cell_angle_alpha   109.65639555
_cell_angle_beta   109.62729473
_cell_angle_gamma   109.20356250
_symmetry_Int_Tables_number   1
_chemical_formula_structural   Li5Sm3(SbO6)2
_chemical_formula_sum   'Li20 Sm12 Sb8 O48'
_cell_volume   1035.73270602
_cell_formula_units_Z   4
loop_
 _symmetry_equiv_pos_site_id
 _symmetry_equiv_pos_as_xyz
  1  'x, y, z'
loop_
 _atom_site_type_symbol
 _atom_site_label
 _atom_site_symmetry_multiplicity
 _atom_site_fract_x
 _atom_site_fract_y
 _atom_site_fract_z
 _atom_site_occupancy
  Li  Li0  1  0.78924443  0.01702736  0.62805095  1
  Li  Li1  1  0.74276908  0.31751857  0.21187887  1
  Li  Li2  1  0.74609665  0.37165949  0.61341582  1
  Li  Li3  1  0.61156391  0.42703678  0.25821346  1
  Li  Li4  1  0.88636237  0.16784829  0.88897372  1
  Li  Li5  1  0.84901985  0.88694492  0.15018437  1
  Li  Li6  1  0.58121332  0.76753284  0.97676824  1
  Li  Li7  1  0.65909911  0.78469319  0.29256376  1
  Li  Li8  1  0.47563926  0.26970449  0.60536075  1
  Li  Li9  1  0.32739481  0.22163892  0.72361174  1
  Li  Li10  1  0.89346092  0.26468681  0.13123290  1
  Li  Li11  1  0.47775098  0.71238422  0.38186286  1
  Li  Li12  1  0.37466448  0.48615500  0.70519259  1
  Li  Li13  1  0.12353059  0.88287378  0.24283097  1
  Li  Li14  1  0.27247102  0.61272104  0.48830157  1
  Li  Li15  1  0.21342881  0.72370741  0.32541865  1
  Li  Li16  1  0.24448377  0.13116069  0.87603249  1
  Li  Li17  1  0.27913933  0.67127845  0.78083481  1
  Li  Li18  1  0.00592554  0.62957842  0.78734633  1
  Li  Li19  1  0.16369963  0.89408367  0.88557179  1
  Sm  Sm20  1  0.74890647  0.12646948  0.37096533  1
  Sm  Sm21  1  0.88072867  0.63454869  0.24782190  1
  Sm  Sm22  1  0.37221107  0.12796645  0.24500939  1
  Sm  Sm23  1  0.24235217  0.37450458  0.12018782  1
  Sm  Sm24  1  0.11984038  0.24342130  0.36596708  1
  Sm  Sm25  1  0.36006463  0.75421709  0.11603983  1
  Sm  Sm26  1  0.62916980  0.25430048  0.87916705  1
  Sm  Sm27  1  0.85898145  0.74630656  0.60618829  1
  Sm  Sm28  1  0.74697523  0.61996246  0.86230009  1
  Sm  Sm29  1  0.10690297  0.36379696  0.74504904  1
  Sm  Sm30  1  0.61710418  0.86558229  0.74746848  1
  Sm  Sm31  1  0.25049980  0.88732428  0.62691190  1
  Sb  Sb32  1  0.50239828  0.01225428  0.00484525  1
  Sb  Sb33  1  0.99168536  0.99412921  0.98816204  1
  Sb  Sb34  1  0.49888894  0.00292800  0.50151000  1
  Sb  Sb35  1  0.49842223  0.50397667  0.99894487  1
  Sb  Sb36  1  0.49642481  0.49711316  0.49230096  1
  Sb  Sb37  1  0.99813326  0.50161790  0.99534324  1
  Sb  Sb38  1  0.00460307  0.00569460  0.49725650  1
  Sb  Sb39  1  0.00037870  0.50553824  0.49708948  1
  O  O40  1  0.87952820  0.40781855  0.07569750  1
  O  O41  1  0.91638494  0.30504257  0.32153617  1
  O  O42  1  0.91423814  0.11982633  0.58203868  1
  O  O43  1  0.58174031  0.18373351  0.20609619  1
  O  O44  1  0.97506886  0.67714034  0.09238899  1
  O  O45  1  0.62623596  0.42911799  0.09179369  1
  O  O46  1  0.19181657  0.10291903  0.01319945  1
  O  O47  1  0.69358804  0.68252680  0.07338995  1
  O  O48  1  0.58291483  0.17479567  0.47421569  1
  O  O49  1  0.90975404  0.38933942  0.58043895  1
  O  O50  1  0.10469741  0.02461650  0.19117303  1
  O  O51  1  0.66982460  0.07454155  0.70293554  1
  O  O52  1  0.82436277  0.52381812  0.39177293  1
  O  O53  1  0.45699326  0.37374103  0.28748980  1
  O  O54  1  0.02600874  0.32805292  0.90613555  1
  O  O55  1  0.01991424  0.19812595  0.09999244  1
  O  O56  1  0.47262664  0.60252430  0.17168592  1
  O  O57  1  0.42056162  0.09796058  0.62611872  1
  O  O58  1  0.90907958  0.03608138  0.32768310  1
  O  O59  1  0.58733881  0.92300202  0.12193663  1
  O  O60  1  0.83300984  0.80394565  0.41553751  1
  O  O61  1  0.68063673  0.11741076  0.99167334  1
  O  O62  1  0.69725655  0.52402200  0.61004837  1
  O  O63  1  0.79894264  0.42388618  0.82048477  1
  O  O64  1  0.37068771  0.29974774  0.46449652  1
  O  O65  1  0.17241409  0.21226077  0.58108516  1
  O  O66  1  0.40098964  0.08404859  0.87835350  1
  O  O67  1  0.61517775  0.70163510  0.52596497  1
  O  O68  1  0.29883602  0.47516871  0.37212508  1
  O  O69  1  0.20296596  0.58420548  0.16688483  1
  O  O70  1  0.51496749  0.40388194  0.81488953  1
  O  O71  1  0.96584458  0.79468640  0.86174769  1
  O  O72  1  0.58312216  0.90569202  0.38734709  1
  O  O73  1  0.52503613  0.61592709  0.69549955  1
  O  O74  1  0.86768828  0.97285294  0.79059995  1
  O  O75  1  0.18141718  0.48773958  0.59135549  1
  O  O76  1  0.32147454  0.91251019  0.29953323  1
  O  O77  1  0.29932054  0.32748598  0.91077453  1
  O  O78  1  0.39868682  0.81763936  0.51331651  1
  O  O79  1  0.09891352  0.63282656  0.42353192  1
  O  O80  1  0.79094284  0.87198622  0.96211609  1
  O  O81  1  0.38334968  0.58640962  0.89700103  1
  O  O82  1  0.42754081  0.83755275  0.80564589  1
  O  O83  1  0.08393615  0.88560127  0.40222629  1
  O  O84  1  0.08266599  0.70397638  0.67811299  1
  O  O85  1  0.11935779  0.58757803  0.91064077  1
  O  O86  1  0.32688860  0.91254840  0.02585295  1
  O  O87  1  0.09762208  0.98056069  0.67166335  1
