# generated using pymatgen
data_V3Fe2Ni(PO4)6
_symmetry_space_group_name_H-M   'P 1'
_cell_length_a   8.48744158
_cell_length_b   8.63736232
_cell_length_c   8.63736257
_cell_angle_alpha   59.99999642
_cell_angle_beta   59.41394518
_cell_angle_gamma   59.41394071
_symmetry_Int_Tables_number   1
_chemical_formula_structural   V3Fe2Ni(PO4)6
_chemical_formula_sum   'V3 Fe2 Ni1 P6 O24'
_cell_volume   443.73087201
_cell_formula_units_Z   1
loop_
 _symmetry_equiv_pos_site_id
 _symmetry_equiv_pos_as_xyz
  1  'x, y, z'
loop_
 _atom_site_type_symbol
 _atom_site_label
 _atom_site_symmetry_multiplicity
 _atom_site_fract_x
 _atom_site_fract_y
 _atom_site_fract_z
 _atom_site_occupancy
  V  V0  1  0.07015350  0.64328183  0.64328183  1
  V  V1  1  0.42441077  0.85852974  0.85852974  1
  V  V2  1  0.93118277  0.35627208  0.35627208  1
  Fe  Fe3  1  0.99040103  0.00319932  0.00319932  1
  Fe  Fe4  1  0.49691864  0.50102679  0.50102679  1
  Ni  Ni5  1  0.57452122  0.14182593  0.14182593  1
  P  P6  1  0.25413864  0.24783892  0.54143158  1
  P  P7  1  0.25413864  0.95659086  0.24783892  1
  P  P8  1  0.25413864  0.54143158  0.95659086  1
  P  P9  1  0.75088281  0.45812139  0.04216087  1
  P  P10  1  0.75088281  0.04216087  0.74883492  1
  P  P11  1  0.75088281  0.74883492  0.45812139  1
  O  O12  1  0.06453787  0.12021649  0.31099152  1
  O  O13  1  0.06453787  0.50425311  0.12021649  1
  O  O14  1  0.06453787  0.31099152  0.50425311  1
  O  O15  1  0.22808094  0.08836209  0.74222811  1
  O  O16  1  0.43837017  0.18947341  0.38791502  1
  O  O17  1  0.26082227  0.41239376  0.56747073  1
  O  O18  1  0.22808094  0.94132986  0.08836209  1
  O  O19  1  0.26082227  0.75931324  0.41239376  1
  O  O20  1  0.56423390  0.62047869  0.00243606  1
  O  O21  1  0.26082227  0.56747073  0.75931324  1
  O  O22  1  0.77955653  0.26446883  0.05157398  1
  O  O23  1  0.56423390  0.00243606  0.81285135  1
  O  O24  1  0.43837017  0.98424140  0.18947341  1
  O  O25  1  0.22808094  0.74222811  0.94132986  1
  O  O26  1  0.73019409  0.44784861  0.23810260  1
  O  O27  1  0.43837017  0.38791502  0.98424140  1
  O  O28  1  0.73019409  0.23810260  0.58385470  1
  O  O29  1  0.77955653  0.05157398  0.90440066  1
  O  O30  1  0.73019409  0.58385470  0.44784861  1
  O  O31  1  0.56423390  0.81285135  0.62047869  1
  O  O32  1  0.77955653  0.90440066  0.26446883  1
  O  O33  1  0.93332147  0.67413217  0.50788197  1
  O  O34  1  0.93332147  0.50788197  0.88466439  1
  O  O35  1  0.93332147  0.88466439  0.67413217  1
