# generated using pymatgen
data_Li2Fe3TeO8
_symmetry_space_group_name_H-M   'P 1'
_cell_length_a   6.02815192
_cell_length_b   6.02781834
_cell_length_c   9.88862443
_cell_angle_alpha   89.99815443
_cell_angle_beta   89.99716823
_cell_angle_gamma   119.99384572
_symmetry_Int_Tables_number   1
_chemical_formula_structural   Li2Fe3TeO8
_chemical_formula_sum   'Li4 Fe6 Te2 O16'
_cell_volume   311.19870874
_cell_formula_units_Z   2
loop_
 _symmetry_equiv_pos_site_id
 _symmetry_equiv_pos_as_xyz
  1  'x, y, z'
loop_
 _atom_site_type_symbol
 _atom_site_label
 _atom_site_symmetry_multiplicity
 _atom_site_fract_x
 _atom_site_fract_y
 _atom_site_fract_z
 _atom_site_occupancy
  Li  Li0  1  0.33330808  0.66666984  0.90839209  1
  Li  Li1  1  0.00005590  0.00003123  0.98793619  1
  Li  Li2  1  0.00001790  0.00005335  0.48814570  1
  Li  Li3  1  0.66669661  0.33332554  0.40869140  1
  Fe  Fe4  1  0.16924240  0.83075424  0.21296126  1
  Fe  Fe5  1  0.16924976  0.33848078  0.21294784  1
  Fe  Fe6  1  0.66152206  0.83077114  0.21292003  1
  Fe  Fe7  1  0.33852204  0.16928611  0.71297115  1
  Fe  Fe8  1  0.83073668  0.66150683  0.71294865  1
  Fe  Fe9  1  0.83074722  0.16926471  0.71297839  1
  Te  Te10  1  0.33334274  0.66668501  0.48483959  1
  Te  Te11  1  0.66665426  0.33336251  0.98476707  1
  O  O12  1  0.16402348  0.83599496  0.59522301  1
  O  O13  1  0.03585130  0.51795192  0.34512086  1
  O  O14  1  0.33335776  0.66667909  0.10920181  1
  O  O15  1  0.99994481  0.00000221  0.30337608  1
  O  O16  1  0.00000613  0.00001018  0.80327411  1
  O  O17  1  0.16402339  0.32803979  0.59521848  1
  O  O18  1  0.48202732  0.96418161  0.34508470  1
  O  O19  1  0.48207755  0.51787163  0.34508241  1
  O  O20  1  0.32791236  0.16396262  0.09523723  1
  O  O21  1  0.67197349  0.83598357  0.59521509  1
  O  O22  1  0.51793887  0.48208960  0.84517168  1
  O  O23  1  0.51796645  0.03590153  0.84520009  1
  O  O24  1  0.66666894  0.33333758  0.60923220  1
  O  O25  1  0.83602906  0.67204907  0.09525413  1
  O  O26  1  0.96409325  0.48204855  0.84518731  1
  O  O27  1  0.83600821  0.16400582  0.09526244  1
