# generated using pymatgen
data_SiSnO3
_symmetry_space_group_name_H-M   'P 1'
_cell_length_a   11.39476287
_cell_length_b   7.04916913
_cell_length_c   12.34524951
_cell_angle_alpha   90.00000000
_cell_angle_beta   113.16627289
_cell_angle_gamma   90.00000000
_symmetry_Int_Tables_number   1
_chemical_formula_structural   SiSnO3
_chemical_formula_sum   'Si12 Sn12 O36'
_cell_volume   911.65819471
_cell_formula_units_Z   12
loop_
 _symmetry_equiv_pos_site_id
 _symmetry_equiv_pos_as_xyz
  1  'x, y, z'
loop_
 _atom_site_type_symbol
 _atom_site_label
 _atom_site_symmetry_multiplicity
 _atom_site_fract_x
 _atom_site_fract_y
 _atom_site_fract_z
 _atom_site_occupancy
  Si  Si0  1  0.03136664  0.59429146  0.89286497  1
  Si  Si1  1  0.11699586  0.87538063  0.65496180  1
  Si  Si2  1  0.20856899  0.81476656  0.45995492  1
  Si  Si3  1  0.38300414  0.87538063  0.84503820  1
  Si  Si4  1  0.46863336  0.59429146  0.60713503  1
  Si  Si5  1  0.29143101  0.81476656  0.04004508  1
  Si  Si6  1  0.70856899  0.18523344  0.95995492  1
  Si  Si7  1  0.53136664  0.40570754  0.39286497  1
  Si  Si8  1  0.61699586  0.12461937  0.15496180  1
  Si  Si9  1  0.79143101  0.18523344  0.54004508  1
  Si  Si10  1  0.88300414  0.12461937  0.34503820  1
  Si  Si11  1  0.96863336  0.40570754  0.10713503  1
  Sn  Sn12  1  0.08905302  0.38676484  0.66325844  1
  Sn  Sn13  1  0.04644473  0.94801659  0.18023367  1
  Sn  Sn14  1  0.18742389  0.30926591  0.39737643  1
  Sn  Sn15  1  0.41094698  0.38676484  0.83674156  1
  Sn  Sn16  1  0.54644473  0.05198341  0.68023367  1
  Sn  Sn17  1  0.31257611  0.30926591  0.10262357  1
  Sn  Sn18  1  0.68742389  0.69073409  0.89737643  1
  Sn  Sn19  1  0.45355527  0.94801659  0.31976633  1
  Sn  Sn20  1  0.58905302  0.61323516  0.16325844  1
  Sn  Sn21  1  0.81257611  0.69073409  0.60262357  1
  Sn  Sn22  1  0.95355527  0.05198341  0.81976633  1
  Sn  Sn23  1  0.91094698  0.61323516  0.33674156  1
  O  O24  1  0.07260711  0.42510398  0.82651588  1
  O  O25  1  0.14332075  0.75624235  0.95639131  1
  O  O26  1  0.00972196  0.70574066  0.61635424  1
  O  O27  1  0.07128052  0.05715350  0.71072951  1
  O  O28  1  0.15179047  0.94022219  0.54211422  1
  O  O29  1  0.25000000  0.77744181  0.75000000  1
  O  O30  1  0.34820953  0.94022219  0.95788578  1
  O  O31  1  0.12247215  0.62347955  0.40827435  1
  O  O32  1  0.00000000  0.50000000  0.00000000  1
  O  O33  1  0.08950487  0.27753335  0.19896896  1
  O  O34  1  0.20631465  0.95312102  0.35234281  1
  O  O35  1  0.42871948  0.05715350  0.78927049  1
  O  O36  1  0.49027804  0.70574066  0.88364576  1
  O  O37  1  0.35667925  0.75624235  0.54360869  1
  O  O38  1  0.42739289  0.42510398  0.67348412  1
  O  O39  1  0.29368535  0.95312102  0.14765719  1
  O  O40  1  0.62247215  0.37652045  0.90827435  1
  O  O41  1  0.41049513  0.27753335  0.30103104  1
  O  O42  1  0.50000000  0.50000000  0.50000000  1
  O  O43  1  0.58950487  0.72246665  0.69896896  1
  O  O44  1  0.37752785  0.62347955  0.09172565  1
  O  O45  1  0.70631465  0.04687898  0.85234281  1
  O  O46  1  0.57260711  0.57489602  0.32651588  1
  O  O47  1  0.64332075  0.24375765  0.45639131  1
  O  O48  1  0.50972196  0.29425934  0.11635424  1
  O  O49  1  0.57128052  0.94284650  0.21072951  1
  O  O50  1  0.79368535  0.04687898  0.64765719  1
  O  O51  1  0.91049513  0.72246665  0.80103104  1
  O  O52  1  0.87752785  0.37652045  0.59172565  1
  O  O53  1  0.65179047  0.05977781  0.04211422  1
  O  O54  1  0.75000000  0.22255819  0.25000000  1
  O  O55  1  0.84820953  0.05977781  0.45788578  1
  O  O56  1  0.92871948  0.94284650  0.28927049  1
  O  O57  1  0.99027804  0.29425934  0.38364576  1
  O  O58  1  0.85667925  0.24375765  0.04360869  1
  O  O59  1  0.92739289  0.57489602  0.17348412  1
