# generated using pymatgen
data_LaTa2NO5
_symmetry_space_group_name_H-M   'P 1'
_cell_length_a   11.31642565
_cell_length_b   7.72976550
_cell_length_c   5.53326804
_cell_angle_alpha   89.88278753
_cell_angle_beta   90.00000000
_cell_angle_gamma   90.00000000
_symmetry_Int_Tables_number   1
_chemical_formula_structural   LaTa2NO5
_chemical_formula_sum   'La4 Ta8 N4 O20'
_cell_volume   484.01229454
_cell_formula_units_Z   4
loop_
 _symmetry_equiv_pos_site_id
 _symmetry_equiv_pos_as_xyz
  1  'x, y, z'
loop_
 _atom_site_type_symbol
 _atom_site_label
 _atom_site_symmetry_multiplicity
 _atom_site_fract_x
 _atom_site_fract_y
 _atom_site_fract_z
 _atom_site_occupancy
  La  La0  1  0.03592547  0.75029690  0.54735329  1
  La  La1  1  0.45592265  0.24837135  0.04558686  1
  La  La2  1  0.53592547  0.74970310  0.95264671  1
  La  La3  1  0.95592265  0.25162865  0.45441314  1
  Ta  Ta4  1  0.14940464  0.00618447  0.03828149  1
  Ta  Ta5  1  0.14203448  0.49736704  0.04393677  1
  Ta  Ta6  1  0.35340381  0.00250917  0.54718080  1
  Ta  Ta7  1  0.35951450  0.49645296  0.53177018  1
  Ta  Ta8  1  0.64203448  0.00263296  0.45606323  1
  Ta  Ta9  1  0.64940464  0.49381553  0.46171851  1
  Ta  Ta10  1  0.85340381  0.49749083  0.95281920  1
  Ta  Ta11  1  0.85951450  0.00354704  0.96822982  1
  N  N12  1  0.29110653  0.05379130  0.87331430  1
  N  N13  1  0.35606718  0.25061895  0.45066089  1
  N  N14  1  0.79110653  0.44620870  0.62668570  1
  N  N15  1  0.85606718  0.24938105  0.04933911  1
  O  O16  1  0.02392592  0.03323023  0.77583723  1
  O  O17  1  0.02686727  0.46617916  0.77307963  1
  O  O18  1  0.12234494  0.25123633  0.14974855  1
  O  O19  1  0.14229878  0.74915747  0.95499954  1
  O  O20  1  0.21145101  0.55890446  0.36710002  1
  O  O21  1  0.20931559  0.94117100  0.36941463  1
  O  O22  1  0.28676747  0.44887380  0.86961801  1
  O  O23  1  0.37991121  0.74938994  0.64878379  1
  O  O24  1  0.47256396  0.53792748  0.26245149  1
  O  O25  1  0.48117360  0.96315431  0.27130230  1
  O  O26  1  0.52686727  0.03382084  0.72692037  1
  O  O27  1  0.52392592  0.46676977  0.72416277  1
  O  O28  1  0.62234494  0.24876367  0.35025145  1
  O  O29  1  0.64229878  0.75084253  0.54500046  1
  O  O30  1  0.70931559  0.55882900  0.13058537  1
  O  O31  1  0.71145101  0.94109554  0.13289998  1
  O  O32  1  0.78676747  0.05112620  0.63038199  1
  O  O33  1  0.87991121  0.75061006  0.85121621  1
  O  O34  1  0.98117360  0.53684569  0.22869770  1
  O  O35  1  0.97256396  0.96207252  0.23754851  1
