# generated using pymatgen
data_LiFeCuO4
_symmetry_space_group_name_H-M   'P 1'
_cell_length_a   5.65360403
_cell_length_b   6.25301483
_cell_length_c   6.25301502
_cell_angle_alpha   52.64907595
_cell_angle_beta   63.12341375
_cell_angle_gamma   63.12341283
_symmetry_Int_Tables_number   1
_chemical_formula_structural   LiFeCuO4
_chemical_formula_sum   'Li2 Fe2 Cu2 O8'
_cell_volume   151.73652844
_cell_formula_units_Z   2
loop_
 _symmetry_equiv_pos_site_id
 _symmetry_equiv_pos_as_xyz
  1  'x, y, z'
loop_
 _atom_site_type_symbol
 _atom_site_label
 _atom_site_symmetry_multiplicity
 _atom_site_fract_x
 _atom_site_fract_y
 _atom_site_fract_z
 _atom_site_occupancy
  Li  Li0  1  0.10506378  0.14493622  0.14493622  1
  Li  Li1  1  0.89493622  0.85506378  0.85506378  1
  Fe  Fe2  1  0.00000000  0.50000000  0.50000000  1
  Fe  Fe3  1  0.50000000  0.50000000  0.50000000  1
  Cu  Cu4  1  0.50000000  0.00000000  0.50000000  1
  Cu  Cu5  1  0.50000000  0.50000000  0.00000000  1
  O  O6  1  0.25584681  0.27584856  0.27584856  1
  O  O7  1  0.23782086  0.28654041  0.73781888  1
  O  O8  1  0.23782086  0.73781888  0.28654041  1
  O  O9  1  0.69245706  0.27584856  0.27584856  1
  O  O10  1  0.30754294  0.72415144  0.72415144  1
  O  O11  1  0.76217914  0.71345959  0.26218112  1
  O  O12  1  0.76217914  0.26218112  0.71345959  1
  O  O13  1  0.74415319  0.72415144  0.72415144  1
