# generated using pymatgen
data_V2O5
_symmetry_space_group_name_H-M   'P 1'
_cell_length_a   5.68515660
_cell_length_b   10.32726857
_cell_length_c   5.71496854
_cell_angle_alpha   98.44275313
_cell_angle_beta   61.38174299
_cell_angle_gamma   81.66033689
_symmetry_Int_Tables_number   1
_chemical_formula_structural   V2O5
_chemical_formula_sum   'V4 O10'
_cell_volume   282.24977522
_cell_formula_units_Z   2
loop_
 _symmetry_equiv_pos_site_id
 _symmetry_equiv_pos_as_xyz
  1  'x, y, z'
loop_
 _atom_site_type_symbol
 _atom_site_label
 _atom_site_symmetry_multiplicity
 _atom_site_fract_x
 _atom_site_fract_y
 _atom_site_fract_z
 _atom_site_occupancy
  V  V0  1  0.58147612  0.15172686  0.25856282  1
  V  V1  1  0.98258400  0.34861305  0.35518927  1
  V  V2  1  0.98889206  0.65145158  0.66407778  1
  V  V3  1  0.89005457  0.84875826  0.26422992  1
  O  O4  1  0.62381604  0.00089248  0.37381002  1
  O  O5  1  0.76451334  0.11623531  0.92639776  1
  O  O6  1  0.22517075  0.22395261  0.37224645  1
  O  O7  1  0.69774176  0.27675890  0.40079673  1
  O  O8  1  0.12720109  0.38363995  0.05837597  1
  O  O9  1  0.87567454  0.49952209  0.62164021  1
  O  O10  1  0.32304072  0.61668295  0.48604768  1
  O  O11  1  0.87411321  0.72729729  0.01695767  1
  O  O12  1  0.84732267  0.77314651  0.54208464  1
  O  O13  1  0.18899212  0.88311316  0.12269407  1
