# generated using pymatgen
data_Na2NiPCO7
_symmetry_space_group_name_H-M   'P 1'
_cell_length_a   8.97295662
_cell_length_b   5.15825381
_cell_length_c   6.60390807
_cell_angle_alpha   90.25575930
_cell_angle_beta   91.02521533
_cell_angle_gamma   88.27593218
_symmetry_Int_Tables_number   1
_chemical_formula_structural   Na2NiPCO7
_chemical_formula_sum   'Na4 Ni2 P2 C2 O14'
_cell_volume   305.47084812
_cell_formula_units_Z   2
loop_
 _symmetry_equiv_pos_site_id
 _symmetry_equiv_pos_as_xyz
  1  'x, y, z'
loop_
 _atom_site_type_symbol
 _atom_site_label
 _atom_site_symmetry_multiplicity
 _atom_site_fract_x
 _atom_site_fract_y
 _atom_site_fract_z
 _atom_site_occupancy
  Na  Na0  1  0.26349571  0.24997741  0.01514152  1
  Na  Na1  1  0.26346653  0.25047218  0.48142995  1
  Na  Na2  1  0.73327099  0.75158415  0.98054968  1
  Na  Na3  1  0.91297418  0.21291393  0.72645402  1
  Ni  Ni4  1  0.34742540  0.77584300  0.75064738  1
  Ni  Ni5  1  0.65749797  0.22038408  0.25864360  1
  P  P6  1  0.42744272  0.72080090  0.25192798  1
  P  P7  1  0.57897214  0.28494556  0.75238608  1
  C  C8  1  0.07038876  0.71016336  0.75291221  1
  C  C9  1  0.92710368  0.28877522  0.24865611  1
  O  O10  1  0.06555657  0.31956466  0.24383856  1
  O  O11  1  0.13357713  0.93581308  0.74761042  1
  O  O12  1  0.16191588  0.50870686  0.74621363  1
  O  O13  1  0.32532487  0.78339536  0.06365962  1
  O  O14  1  0.32990516  0.78736169  0.43775336  1
  O  O15  1  0.43042886  0.14155418  0.75205099  1
  O  O16  1  0.46467378  0.42120411  0.25045951  1
  O  O17  1  0.53914391  0.58229628  0.76059508  1
  O  O18  1  0.57256858  0.86990099  0.24588210  1
  O  O19  1  0.67551965  0.22305440  0.56615870  1
  O  O20  1  0.68253533  0.21476800  0.93718776  1
  O  O21  1  0.82775936  0.47787998  0.25193507  1
  O  O22  1  0.86804116  0.06161096  0.25421618  1
  O  O23  1  0.93068769  0.69109666  0.76384650  1
