# generated using pymatgen
data_Fe2(WO4)3
_symmetry_space_group_name_H-M   'P 1'
_cell_length_a   6.98593836
_cell_length_b   8.70285924
_cell_length_c   10.40406928
_cell_angle_alpha   108.21124170
_cell_angle_beta   103.56792830
_cell_angle_gamma   103.98079848
_symmetry_Int_Tables_number   1
_chemical_formula_structural   Fe2(WO4)3
_chemical_formula_sum   'Fe4 W6 O24'
_cell_volume   549.07451507
_cell_formula_units_Z   2
loop_
 _symmetry_equiv_pos_site_id
 _symmetry_equiv_pos_as_xyz
  1  'x, y, z'
loop_
 _atom_site_type_symbol
 _atom_site_label
 _atom_site_symmetry_multiplicity
 _atom_site_fract_x
 _atom_site_fract_y
 _atom_site_fract_z
 _atom_site_occupancy
  Fe  Fe0  1  0.37632080  0.95912473  0.60808462  1
  Fe  Fe1  1  0.62367920  0.04087527  0.39191538  1
  Fe  Fe2  1  0.04785179  0.20423683  0.01537605  1
  Fe  Fe3  1  0.95214821  0.79576317  0.98462395  1
  W  W4  1  0.88313890  0.90253549  0.66545101  1
  W  W5  1  0.11686110  0.09746451  0.33454899  1
  W  W6  1  0.21118696  0.66952719  0.26177884  1
  W  W7  1  0.78881304  0.33047281  0.73822116  1
  W  W8  1  0.59752724  0.25763661  0.13329434  1
  W  W9  1  0.40247276  0.74236339  0.86670566  1
  O  O10  1  0.06812988  0.05563672  0.13974869  1
  O  O11  1  0.93187012  0.94436328  0.86025131  1
  O  O12  1  0.56802160  0.13340784  0.24645617  1
  O  O13  1  0.43197840  0.86659216  0.75354383  1
  O  O14  1  0.16098182  0.44199185  0.16735501  1
  O  O15  1  0.83901818  0.55800815  0.83264499  1
  O  O16  1  0.97593058  0.25585321  0.83689397  1
  O  O17  1  0.02406942  0.74414679  0.16310603  1
  O  O18  1  0.23410391  0.80689618  0.96960570  1
  O  O19  1  0.76589609  0.19310382  0.03039430  1
  O  O20  1  0.87841527  0.00282069  0.36422197  1
  O  O21  1  0.12158473  0.99717931  0.63577803  1
  O  O22  1  0.53405992  0.21239091  0.73317284  1
  O  O23  1  0.46594008  0.78760909  0.26682716  1
  O  O24  1  0.33455789  0.22181219  0.01708946  1
  O  O25  1  0.66544211  0.77818781  0.98291054  1
  O  O26  1  0.33976547  0.04031824  0.42804227  1
  O  O27  1  0.66023453  0.95968176  0.57195773  1
  O  O28  1  0.22498449  0.72558065  0.44804911  1
  O  O29  1  0.77501551  0.27441935  0.55195089  1
  O  O30  1  0.72080900  0.47671911  0.24418319  1
  O  O31  1  0.27919100  0.52328089  0.75581681  1
  O  O32  1  0.18038649  0.31861722  0.41587519  1
  O  O33  1  0.81961351  0.68138278  0.58412481  1
