# generated using pymatgen
data_CaZrO3
_symmetry_space_group_name_H-M   'P 1'
_cell_length_a   5.83183526
_cell_length_b   11.45709201
_cell_length_c   8.12360446
_cell_angle_alpha   90.00000000
_cell_angle_beta   90.00000000
_cell_angle_gamma   90.00000000
_symmetry_Int_Tables_number   1
_chemical_formula_structural   CaZrO3
_chemical_formula_sum   'Ca8 Zr8 O24'
_cell_volume   542.78572521
_cell_formula_units_Z   8
loop_
 _symmetry_equiv_pos_site_id
 _symmetry_equiv_pos_as_xyz
  1  'x, y, z'
loop_
 _atom_site_type_symbol
 _atom_site_label
 _atom_site_symmetry_multiplicity
 _atom_site_fract_x
 _atom_site_fract_y
 _atom_site_fract_z
 _atom_site_occupancy
  Ca  Ca0  1  0.24936117  0.36187752  0.50465662  1
  Ca  Ca1  1  0.23578036  0.38789111  0.00512572  1
  Ca  Ca2  1  0.25063883  0.86187752  0.50465662  1
  Ca  Ca3  1  0.26421964  0.88789111  0.00512572  1
  Ca  Ca4  1  0.73578036  0.11210889  0.00512572  1
  Ca  Ca5  1  0.74936117  0.13812248  0.50465662  1
  Ca  Ca6  1  0.76421964  0.61210889  0.00512572  1
  Ca  Ca7  1  0.75063883  0.63812248  0.50465662  1
  Zr  Zr8  1  0.24748992  0.12524612  0.25533089  1
  Zr  Zr9  1  0.24991341  0.12494306  0.75541607  1
  Zr  Zr10  1  0.25251008  0.62524612  0.25533089  1
  Zr  Zr11  1  0.25008659  0.62494306  0.75541607  1
  Zr  Zr12  1  0.74991341  0.37505694  0.75541607  1
  Zr  Zr13  1  0.74748992  0.37475388  0.25533089  1
  Zr  Zr14  1  0.75008659  0.87505694  0.75541607  1
  Zr  Zr15  1  0.75251008  0.87475388  0.25533089  1
  O  O16  1  0.00000000  0.00000000  0.18671039  1
  O  O17  1  0.00000000  0.00000000  0.82235626  1
  O  O18  1  0.00000000  0.50000000  0.19422683  1
  O  O19  1  0.00000000  0.50000000  0.82224758  1
  O  O20  1  0.99875797  0.24953143  0.32270294  1
  O  O21  1  0.01206339  0.25459801  0.69115927  1
  O  O22  1  0.25011731  0.56596351  0.50629749  1
  O  O23  1  0.23179417  0.68445121  0.00654047  1
  O  O24  1  0.26820583  0.18445121  0.00654047  1
  O  O25  1  0.24988269  0.06596351  0.50629749  1
  O  O26  1  0.50124203  0.74953143  0.32270294  1
  O  O27  1  0.48793661  0.75459801  0.69115927  1
  O  O28  1  0.50000000  0.00000000  0.19422683  1
  O  O29  1  0.50000000  0.00000000  0.82224758  1
  O  O30  1  0.50000000  0.50000000  0.82235626  1
  O  O31  1  0.50000000  0.50000000  0.18671039  1
  O  O32  1  0.51206339  0.24540199  0.69115927  1
  O  O33  1  0.49875797  0.25046857  0.32270294  1
  O  O34  1  0.75011731  0.93403649  0.50629749  1
  O  O35  1  0.73179417  0.81554879  0.00654047  1
  O  O36  1  0.74988269  0.43403649  0.50629749  1
  O  O37  1  0.76820583  0.31554879  0.00654047  1
  O  O38  1  0.98793661  0.74540199  0.69115927  1
  O  O39  1  0.00124203  0.75046857  0.32270294  1
