# generated using pymatgen
data_V2O5
_symmetry_space_group_name_H-M   'P 1'
_cell_length_a   10.13865446
_cell_length_b   8.53193896
_cell_length_c   5.91742517
_cell_angle_alpha   90.00000000
_cell_angle_beta   90.00000000
_cell_angle_gamma   90.00000000
_symmetry_Int_Tables_number   1
_chemical_formula_structural   V2O5
_chemical_formula_sum   'V8 O20'
_cell_volume   511.87136653
_cell_formula_units_Z   4
loop_
 _symmetry_equiv_pos_site_id
 _symmetry_equiv_pos_as_xyz
  1  'x, y, z'
loop_
 _atom_site_type_symbol
 _atom_site_label
 _atom_site_symmetry_multiplicity
 _atom_site_fract_x
 _atom_site_fract_y
 _atom_site_fract_z
 _atom_site_occupancy
  V  V0  1  0.09874154  0.15833630  0.75000000  1
  V  V1  1  0.22789514  0.29785353  0.25000000  1
  V  V2  1  0.27210486  0.79785353  0.75000000  1
  V  V3  1  0.40125846  0.65833630  0.25000000  1
  V  V4  1  0.59874154  0.34166370  0.75000000  1
  V  V5  1  0.72789514  0.20214647  0.25000000  1
  V  V6  1  0.77210486  0.70214647  0.75000000  1
  V  V7  1  0.90125846  0.84166370  0.25000000  1
  O  O8  1  0.05353977  0.90100062  0.25000000  1
  O  O9  1  0.15421371  0.67081722  0.75000000  1
  O  O10  1  0.12883183  0.27145558  0.49900492  1
  O  O11  1  0.12883183  0.27145558  0.00099508  1
  O  O12  1  0.20828836  0.99497828  0.75000000  1
  O  O13  1  0.29171164  0.49497828  0.25000000  1
  O  O14  1  0.37116817  0.77145558  0.99900492  1
  O  O15  1  0.37116817  0.77145558  0.50099508  1
  O  O16  1  0.34578629  0.17081722  0.25000000  1
  O  O17  1  0.44646023  0.40100062  0.75000000  1
  O  O18  1  0.55353977  0.59899938  0.25000000  1
  O  O19  1  0.65421371  0.82918278  0.75000000  1
  O  O20  1  0.62883183  0.22854442  0.00099508  1
  O  O21  1  0.62883183  0.22854442  0.49900492  1
  O  O22  1  0.70828836  0.50502172  0.75000000  1
  O  O23  1  0.79171164  0.00502172  0.25000000  1
  O  O24  1  0.87116817  0.72854442  0.99900492  1
  O  O25  1  0.87116817  0.72854442  0.50099508  1
  O  O26  1  0.84578629  0.32918278  0.25000000  1
  O  O27  1  0.94646023  0.09899938  0.75000000  1
