# generated using pymatgen
data_Li9P8W3O29
_symmetry_space_group_name_H-M   'P 1'
_cell_length_a   10.05595928
_cell_length_b   10.05603616
_cell_length_c   14.03603339
_cell_angle_alpha   90.00115044
_cell_angle_beta   90.00076063
_cell_angle_gamma   60.00034782
_symmetry_Int_Tables_number   1
_chemical_formula_structural   Li9P8W3O29
_chemical_formula_sum   'Li18 P16 W6 O58'
_cell_volume   1229.21224797
_cell_formula_units_Z   2
loop_
 _symmetry_equiv_pos_site_id
 _symmetry_equiv_pos_as_xyz
  1  'x, y, z'
loop_
 _atom_site_type_symbol
 _atom_site_label
 _atom_site_symmetry_multiplicity
 _atom_site_fract_x
 _atom_site_fract_y
 _atom_site_fract_z
 _atom_site_occupancy
  Li  Li0  1  0.99999894  0.99999952  0.50000008  1
  Li  Li1  1  0.00000049  0.00000008  0.99999998  1
  Li  Li2  1  0.10044637  0.23214793  0.56322248  1
  Li  Li3  1  0.23215386  0.10044845  0.06322091  1
  Li  Li4  1  0.10044352  0.66740004  0.06322098  1
  Li  Li5  1  0.33332373  0.33331573  0.38107334  1
  Li  Li6  1  0.33336022  0.33331816  0.88107345  1
  Li  Li7  1  0.23215659  0.66739661  0.56322234  1
  Li  Li8  1  0.66739601  0.10044868  0.56321958  1
  Li  Li9  1  0.33259663  0.76785406  0.93677945  1
  Li  Li10  1  0.66740175  0.23214823  0.06322320  1
  Li  Li11  1  0.33259844  0.89955535  0.43677865  1
  Li  Li12  1  0.76784593  0.33259949  0.43677955  1
  Li  Li13  1  0.66668435  0.66668413  0.61892720  1
  Li  Li14  1  0.66668359  0.66668306  0.11892660  1
  Li  Li15  1  0.89955862  0.33260175  0.93677686  1
  Li  Li16  1  0.76784775  0.89955175  0.93677950  1
  Li  Li17  1  0.89954824  0.76784995  0.43677802  1
  P  P18  1  0.08674741  0.22604078  0.34575515  1
  P  P19  1  0.22603933  0.08675098  0.84575263  1
  P  P20  1  0.08675039  0.68721254  0.84575315  1
  P  P21  1  0.33332994  0.33332195  0.11842120  1
  P  P22  1  0.33335068  0.33332628  0.61842067  1
  P  P23  1  0.22604113  0.68721115  0.34575410  1
  P  P24  1  0.31278986  0.77395686  0.15424527  1
  P  P25  1  0.68721270  0.08675091  0.34575255  1
  P  P26  1  0.31278745  0.91325070  0.65424561  1
  P  P27  1  0.68721524  0.22604263  0.84575550  1
  P  P28  1  0.77396097  0.31278884  0.65424719  1
  P  P29  1  0.66667987  0.66667385  0.88157986  1
  P  P30  1  0.66667307  0.66667301  0.38157953  1
  P  P31  1  0.91325004  0.31278725  0.15424597  1
  P  P32  1  0.77396041  0.91325066  0.15424607  1
  P  P33  1  0.91325419  0.77396011  0.65424528  1
  W  W34  1  0.00000863  0.43279945  0.74999655  1
  W  W35  1  0.00000581  0.56719526  0.24999734  1
  W  W36  1  0.43280141  0.99999463  0.25000240  1
  W  W37  1  0.56720252  0.00000025  0.75000011  1
  W  W38  1  0.43280707  0.56720302  0.75000347  1
  W  W39  1  0.56719830  0.43280298  0.24999932  1
  O  O40  1  0.99999703  0.21825797  0.25000119  1
  O  O41  1  0.00633595  0.22173936  0.06778444  1
  O  O42  1  0.07712597  0.24312179  0.84755075  1
  O  O43  1  0.21825475  -0.00000008  0.74999873  1
  O  O44  1  0.22174244  0.00633188  0.56778286  1
  O  O45  1  0.24311775  0.07712729  0.34755569  1
  O  O46  1  0.11235833  0.36425375  0.33833857  1
  O  O47  1  0.19518795  0.31805687  0.65625946  1
  O  O48  1  0.11236462  0.52338972  0.83833354  1
  O  O49  1  0.00633894  0.77191684  0.56778234  1
  O  O50  1  0.00000392  0.78174544  0.74999904  1
  O  O51  1  0.07712765  0.67975372  0.34755474  1
  O  O52  1  0.31804632  0.19518245  0.15628778  1
  O  O53  1  0.36425388  0.11235952  0.83833391  1
  O  O54  1  0.19518302  0.48675895  0.15626753  1
  O  O55  1  0.33331867  0.33329125  0.01073791  1
  O  O56  1  0.33338924  0.33330445  0.51073805  1
  O  O57  1  0.31806494  0.48675941  0.65627390  1
  O  O58  1  0.52338981  0.11235941  0.33833315  1
  O  O59  1  0.48677221  0.19518341  0.65628479  1
  O  O60  1  0.24312398  0.67975662  0.84755563  1
  O  O61  1  0.21825618  0.78174174  0.24999956  1
  O  O62  1  0.22174548  0.77191496  0.06778232  1
  O  O63  1  0.22808206  0.77825683  0.43221753  1
  O  O64  1  0.36425364  0.52338955  0.33833550  1
  O  O65  1  0.48675955  0.31805604  0.15626426  1
  O  O66  1  0.32024790  0.75687809  0.65244649  1
  O  O67  1  0.52339284  0.36425715  0.83833855  1
  O  O68  1  0.67975472  0.07713102  0.84755648  1
  O  O69  1  0.22807686  0.99366957  0.93221526  1
  O  O70  1  0.77192176  0.00633234  0.06778310  1
  O  O71  1  0.78174680  0.00000115  0.24999929  1
  O  O72  1  0.32024365  0.92287169  0.15244550  1
  O  O73  1  0.47661398  0.63574651  0.16166320  1
  O  O74  1  0.67975467  0.24312203  0.34755238  1
  O  O75  1  0.51324559  0.68194628  0.84374021  1
  O  O76  1  0.63575109  0.47661208  0.66166526  1
  O  O77  1  0.77191966  0.22174295  0.56778424  1
  O  O78  1  0.77825940  0.22808329  0.93221857  1
  O  O79  1  0.78174773  0.21825777  0.75000159  1
  O  O80  1  0.75687864  0.32024445  0.15244572  1
  O  O81  1  0.51323783  0.80481657  0.34373033  1
  O  O82  1  0.47661094  0.88764247  0.66166334  1
  O  O83  1  0.68194047  0.51324217  0.34373895  1
  O  O84  1  0.66669932  0.66669236  0.98926239  1
  O  O85  1  0.66669728  0.66669160  0.48926266  1
  O  O86  1  0.80482582  0.51324002  0.84372576  1
  O  O87  1  0.63574613  0.88764314  0.16166438  1
  O  O88  1  0.68195864  0.80481652  0.84371692  1
  O  O89  1  0.92287764  0.32024351  0.65244526  1
  O  O90  1  0.99366317  0.22808220  0.43221759  1
  O  O91  1  0.88764067  0.47660912  0.16166369  1
  O  O92  1  0.80481639  0.68195233  0.34371369  1
  O  O93  1  0.88764580  0.63574535  0.66166397  1
  O  O94  1  0.75688220  0.92287066  0.65244358  1
  O  O95  1  0.77825680  0.99366834  0.43221538  1
  O  O96  1  0.92287314  0.75687807  0.15244516  1
  O  O97  1  0.99366572  0.77825700  0.93221588  1
