# generated using pymatgen
data_Li8Mn7Ni(PO4)12
_symmetry_space_group_name_H-M   'P 1'
_cell_length_a   8.56084099
_cell_length_b   8.77755774
_cell_length_c   11.97581474
_cell_angle_alpha   89.62093898
_cell_angle_beta   89.97260672
_cell_angle_gamma   90.09141172
_symmetry_Int_Tables_number   1
_chemical_formula_structural   Li8Mn7Ni(PO4)12
_chemical_formula_sum   'Li8 Mn7 Ni1 P12 O48'
_cell_volume   899.88100655
_cell_formula_units_Z   1
loop_
 _symmetry_equiv_pos_site_id
 _symmetry_equiv_pos_as_xyz
  1  'x, y, z'
loop_
 _atom_site_type_symbol
 _atom_site_label
 _atom_site_symmetry_multiplicity
 _atom_site_fract_x
 _atom_site_fract_y
 _atom_site_fract_z
 _atom_site_occupancy
  Li  Li0  1  0.21716475  0.72313268  0.18110402  1
  Li  Li1  1  0.21435616  0.77932267  0.81877153  1
  Li  Li2  1  0.28400920  0.22200886  0.31718434  1
  Li  Li3  1  0.28595442  0.27953940  0.68023846  1
  Li  Li4  1  0.71513687  0.71817286  0.32174079  1
  Li  Li5  1  0.71760612  0.77171615  0.68073466  1
  Li  Li6  1  0.78488882  0.22174139  0.18144234  1
  Li  Li7  1  0.78257192  0.27916305  0.81523390  1
  Mn  Mn8  1  0.24765527  0.96369865  0.61248176  1
  Mn  Mn9  1  0.24728305  0.53597255  0.38659144  1
  Mn  Mn10  1  0.25054131  0.03640305  0.11430786  1
  Mn  Mn11  1  0.25124326  0.46548431  0.88558338  1
  Mn  Mn12  1  0.74743387  0.53530559  0.11422423  1
  Mn  Mn13  1  0.74856387  0.96227759  0.88485378  1
  Mn  Mn14  1  0.75346993  0.03685833  0.38690975  1
  Ni  Ni15  1  0.75111891  0.46355281  0.61694458  1
  P  P16  1  0.03644631  0.24843882  0.50072799  1
  P  P17  1  0.46537544  0.74675469  -0.00000674  1
  P  P18  1  0.53585684  0.25119253  0.99948658  1
  P  P19  1  0.96490531  0.75227050  0.50064331  1
  P  P20  1  0.10530526  0.39677814  0.14749915  1
  P  P21  1  0.10512404  0.10685070  0.85320743  1
  P  P22  1  0.39318618  0.61062845  0.64654648  1
  P  P23  1  0.39454527  0.89481556  0.35355419  1
  P  P24  1  0.60623611  0.10380152  0.64734571  1
  P  P25  1  0.60395410  0.39239477  0.35357680  1
  P  P26  1  0.89417068  0.60419999  0.85656613  1
  P  P27  1  0.89353281  0.89226585  0.14631678  1
  O  O28  1  0.05970824  0.64702977  0.42345808  1
  O  O29  1  0.06021064  0.86271076  0.57396713  1
  O  O30  1  0.07396007  0.89443041  0.15716655  1
  O  O31  1  0.07672942  0.60634555  0.84659929  1
  O  O32  1  0.14750010  0.15684720  0.58226988  1
  O  O33  1  0.14690510  0.33283818  0.41734058  1
  O  O34  1  0.15606731  0.43890265  0.02810130  1
  O  O35  1  0.15510503  0.06122997  0.97088056  1
  O  O36  1  0.15571665  0.23670650  0.18214637  1
  O  O37  1  0.15965267  0.26978437  0.82020587  1
  O  O38  1  0.17622763  0.51962769  0.22625272  1
  O  O39  1  0.17840425  0.98667386  0.77291947  1
  O  O40  1  0.32142647  0.01540316  0.27397001  1
  O  O41  1  0.31537267  0.48897929  0.72656075  1
  O  O42  1  0.33146316  0.77239549  0.67743091  1
  O  O43  1  0.34365335  0.73236129  0.32052799  1
  O  O44  1  0.34332425  0.56151859  0.52864247  1
  O  O45  1  0.34556479  0.93764243  0.47255561  1
  O  O46  1  0.35832704  0.83016657  0.08154490  1
  O  O47  1  0.35873816  0.66060057  0.91476859  1
  O  O48  1  0.42366502  0.09890161  0.65637583  1
  O  O49  1  0.42283646  0.39532023  0.33927138  1
  O  O50  1  0.44274467  0.14307382  0.07480581  1
  O  O51  1  0.44224749  0.35967776  0.92376957  1
  O  O52  1  0.55982609  0.63766049  0.07515420  1
  O  O53  1  0.55848639  0.85668556  0.92469081  1
  O  O54  1  0.56949186  0.61035354  0.65957195  1
  O  O55  1  0.57576096  0.89690769  0.34274589  1
  O  O56  1  0.64566662  0.33954661  0.08202793  1
  O  O57  1  0.64454688  0.16471325  0.91795986  1
  O  O58  1  0.65513360  0.05870705  0.52803679  1
  O  O59  1  0.65633621  0.44118867  0.46739634  1
  O  O60  1  0.65719726  0.22799449  0.32033149  1
  O  O61  1  0.65585084  0.26313986  0.68107910  1
  O  O62  1  0.67742604  0.51141954  0.26947367  1
  O  O63  1  0.67739213  0.97899305  0.72647093  1
  O  O64  1  0.82094401  0.01362856  0.22621424  1
  O  O65  1  0.82395950  0.48415926  0.78081646  1
  O  O66  1  0.83792154  0.72967960  0.18025067  1
  O  O67  1  0.84486184  0.76808278  0.82148237  1
  O  O68  1  0.84828300  0.56987190  0.97821259  1
  O  O69  1  0.84330879  0.93858883  0.02831604  1
  O  O70  1  0.85770543  0.66681903  0.58074762  1
  O  O71  1  0.85727497  0.84198252  0.41596841  1
  O  O72  1  0.92430013  0.10433269  0.84181656  1
  O  O73  1  0.92330689  0.39860256  0.15744524  1
  O  O74  1  0.94530396  0.13994013  0.42283571  1
  O  O75  1  0.94653031  0.35309316  0.57561090  1
