# generated using pymatgen
data_Zn2Fe3O8
_symmetry_space_group_name_H-M   'P 1'
_cell_length_a   5.94454666
_cell_length_b   5.94454709
_cell_length_c   9.44058384
_cell_angle_alpha   90.00000000
_cell_angle_beta   90.00000000
_cell_angle_gamma   120.00000232
_symmetry_Int_Tables_number   1
_chemical_formula_structural   Zn2Fe3O8
_chemical_formula_sum   'Zn4 Fe6 O16'
_cell_volume   288.91293560
_cell_formula_units_Z   2
loop_
 _symmetry_equiv_pos_site_id
 _symmetry_equiv_pos_as_xyz
  1  'x, y, z'
loop_
 _atom_site_type_symbol
 _atom_site_label
 _atom_site_symmetry_multiplicity
 _atom_site_fract_x
 _atom_site_fract_y
 _atom_site_fract_z
 _atom_site_occupancy
  Zn  Zn0  1  0.66666700  0.33333400  0.02843128  1
  Zn  Zn1  1  0.33333300  0.66666600  0.52843228  1
  Zn  Zn2  1  0.66666700  0.33333400  0.42037128  1
  Zn  Zn3  1  0.33333300  0.66666600  0.92037228  1
  Fe  Fe4  1  0.67189765  0.83594932  0.24315147  1
  Fe  Fe5  1  0.83595032  0.16405168  0.74315147  1
  Fe  Fe6  1  0.16405168  0.32810335  0.24315147  1
  Fe  Fe7  1  0.83594832  0.67189765  0.74315147  1
  Fe  Fe8  1  0.32810335  0.16405168  0.74315147  1
  Fe  Fe9  1  0.16405168  0.83594932  0.24315147  1
  O  O10  1  0.83521921  0.16478179  0.14215566  1
  O  O11  1  0.67043642  0.83521921  0.64215466  1
  O  O12  1  0.16478179  0.32956458  0.64215466  1
  O  O13  1  0.83521821  0.67043642  0.14215566  1
  O  O14  1  0.32956358  0.16478179  0.14215566  1
  O  O15  1  0.16478179  0.83521921  0.64215466  1
  O  O16  1  0.51887492  0.48112408  0.86809932  1
  O  O17  1  0.03775184  0.51887492  0.36809832  1
  O  O18  1  0.48112508  0.96224916  0.36809832  1
  O  O19  1  0.51887492  0.03775184  0.86809932  1
  O  O20  1  0.00000000  0.00000000  0.35187524  1
  O  O21  1  0.00000000  0.00000000  0.85187524  1
  O  O22  1  0.33333300  0.66666600  0.13260584  1
  O  O23  1  0.96224716  0.48112408  0.86809932  1
  O  O24  1  0.48112408  0.51887492  0.36809832  1
  O  O25  1  0.66666700  0.33333400  0.63260584  1
