# generated using pymatgen
data_Li4NbFe(TeO6)2
_symmetry_space_group_name_H-M   'P 1'
_cell_length_a   5.44410979
_cell_length_b   10.88422235
_cell_length_c   9.59017525
_cell_angle_alpha   28.39761596
_cell_angle_beta   51.57503019
_cell_angle_gamma   56.82444048
_symmetry_Int_Tables_number   1
_chemical_formula_structural   Li4NbFe(TeO6)2
_chemical_formula_sum   'Li4 Nb1 Fe1 Te2 O12'
_cell_volume   211.72741758
_cell_formula_units_Z   1
loop_
 _symmetry_equiv_pos_site_id
 _symmetry_equiv_pos_as_xyz
  1  'x, y, z'
loop_
 _atom_site_type_symbol
 _atom_site_label
 _atom_site_symmetry_multiplicity
 _atom_site_fract_x
 _atom_site_fract_y
 _atom_site_fract_z
 _atom_site_occupancy
  Li  Li0  1  0.30848693  0.99850121  0.26408137  1
  Li  Li1  1  0.25305279  0.49912599  0.30131893  1
  Li  Li2  1  0.78146081  0.99580624  0.81025437  1
  Li  Li3  1  0.77023057  0.50350119  0.74530534  1
  Nb  Nb4  1  0.99413842  0.50121386  0.00466724  1
  Fe  Fe5  1  0.01255918  0.99912852  0.00254239  1
  Te  Te6  1  0.50330412  0.00148807  0.49891212  1
  Te  Te7  1  0.49797984  0.50050346  0.50234453  1
  O  O8  1  0.37953947  0.30631308  0.12370501  1
  O  O9  1  0.25037772  0.12550153  0.61339623  1
  O  O10  1  0.13814659  0.32581882  0.72335172  1
  O  O11  1  0.87892022  0.18192636  0.24719438  1
  O  O12  1  0.38083468  0.79302467  0.13590594  1
  O  O13  1  0.74317072  0.37264774  0.37693051  1
  O  O14  1  0.23932513  0.62410492  0.62466531  1
  O  O15  1  0.62809660  0.19305756  0.85756690  1
  O  O16  1  0.12446519  0.82136416  0.73781832  1
  O  O17  1  0.85783005  0.69355014  0.24277206  1
  O  O18  1  0.71429668  0.87841962  0.38238184  1
  O  O19  1  0.61498528  0.68500189  0.87608549  1
