# generated using pymatgen
data_LiFeF3
_symmetry_space_group_name_H-M   'P 1'
_cell_length_a   8.71973808
_cell_length_b   4.99072648
_cell_length_c   10.58953546
_cell_angle_alpha   90.05921057
_cell_angle_beta   90.05253654
_cell_angle_gamma   90.06125578
_symmetry_Int_Tables_number   1
_chemical_formula_structural   LiFeF3
_chemical_formula_sum   'Li8 Fe8 F24'
_cell_volume   460.83287612
_cell_formula_units_Z   8
loop_
 _symmetry_equiv_pos_site_id
 _symmetry_equiv_pos_as_xyz
  1  'x, y, z'
loop_
 _atom_site_type_symbol
 _atom_site_label
 _atom_site_symmetry_multiplicity
 _atom_site_fract_x
 _atom_site_fract_y
 _atom_site_fract_z
 _atom_site_occupancy
  Li  Li0  1  0.21475195  0.49646406  0.10010542  1
  Li  Li1  1  0.21448435  0.00396819  0.60029299  1
  Li  Li2  1  0.28537194  0.00365205  0.10012933  1
  Li  Li3  1  0.28547612  0.49620676  0.60012068  1
  Li  Li4  1  0.71447436  0.50389812  0.39978497  1
  Li  Li5  1  0.71473116  0.99630292  0.89966294  1
  Li  Li6  1  0.78540457  0.99591934  0.39981655  1
  Li  Li7  1  0.78532014  0.50353321  0.89981561  1
  Fe  Fe8  1  0.08618147  0.49320564  0.36286961  1
  Fe  Fe9  1  0.08610869  0.00709852  0.86286822  1
  Fe  Fe10  1  0.41384792  0.49286920  0.86292015  1
  Fe  Fe11  1  0.41367065  0.00725093  0.36296478  1
  Fe  Fe12  1  0.58621267  0.50708551  0.13710827  1
  Fe  Fe13  1  0.58622944  0.99295358  0.63707747  1
  Fe  Fe14  1  0.91371118  0.50710643  0.63706375  1
  Fe  Fe15  1  0.91394731  0.99312878  0.13718462  1
  F  F16  1  0.08395227  0.72642424  0.19635752  1
  F  F17  1  0.08421848  0.77393201  0.69682694  1
  F  F18  1  0.09527653  0.30378572  0.54424126  1
  F  F19  1  0.09578585  0.19612359  0.04403778  1
  F  F20  1  0.25024115  0.24972617  0.27639432  1
  F  F21  1  0.25013858  0.25003963  0.77605293  1
  F  F22  1  0.24988051  0.74982991  0.45331628  1
  F  F23  1  0.25004847  0.74997529  0.95306272  1
  F  F24  1  0.40458394  0.19616299  0.54440061  1
  F  F25  1  0.40440271  0.30380285  0.04412768  1
  F  F26  1  0.41595070  0.72631487  0.69669851  1
  F  F27  1  0.41597924  0.77360088  0.19639269  1
  F  F28  1  0.58419646  0.27377363  0.30316495  1
  F  F29  1  0.58416088  0.22637569  0.80352776  1
  F  F30  1  0.59513082  0.80379718  0.45558882  1
  F  F31  1  0.59561915  0.69613056  0.95583304  1
  F  F32  1  0.75007321  0.24989862  0.04705881  1
  F  F33  1  0.74993400  0.24993767  0.54676595  1
  F  F34  1  0.74974627  0.74989300  0.22414411  1
  F  F35  1  0.75006978  0.75002012  0.72372386  1
  F  F36  1  0.90444609  0.80382018  0.95591809  1
  F  F37  1  0.90455382  0.69612519  0.45576820  1
  F  F38  1  0.91598276  0.27359062  0.80354726  1
  F  F39  1  0.91570439  0.22627614  0.30326452  1
