# generated using pymatgen
data_Li4Mn3V3(SbO8)2
_symmetry_space_group_name_H-M   'P 1'
_cell_length_a   6.06822228
_cell_length_b   5.93637020
_cell_length_c   9.79082308
_cell_angle_alpha   90.06542379
_cell_angle_beta   91.61344067
_cell_angle_gamma   119.27948712
_symmetry_Int_Tables_number   1
_chemical_formula_structural   Li4Mn3V3(SbO8)2
_chemical_formula_sum   'Li4 Mn3 V3 Sb2 O16'
_cell_volume   307.47096964
_cell_formula_units_Z   1
loop_
 _symmetry_equiv_pos_site_id
 _symmetry_equiv_pos_as_xyz
  1  'x, y, z'
loop_
 _atom_site_type_symbol
 _atom_site_label
 _atom_site_symmetry_multiplicity
 _atom_site_fract_x
 _atom_site_fract_y
 _atom_site_fract_z
 _atom_site_occupancy
  Li  Li0  1  0.31930168  0.65900117  0.90224030  1
  Li  Li1  1  0.00541649  0.00508236  0.98903248  1
  Li  Li2  1  0.01305146  0.00744491  0.48775392  1
  Li  Li3  1  0.66221289  0.32931723  0.40303979  1
  Mn  Mn4  1  0.66714315  0.83401254  0.21012058  1
  Mn  Mn5  1  0.82921931  0.66154381  0.71196295  1
  Mn  Mn6  1  0.82892011  0.16775262  0.71197323  1
  V  V7  1  0.17445948  0.82824117  0.21355430  1
  V  V8  1  0.17455468  0.35027096  0.21746058  1
  V  V9  1  0.34107231  0.17077767  0.71717511  1
  Sb  Sb10  1  0.33737747  0.66881542  0.48823338  1
  Sb  Sb11  1  0.66185699  0.33235864  0.98808745  1
  O  O12  1  0.17910412  0.84034512  0.59230941  1
  O  O13  1  0.03439586  0.50863977  0.34490097  1
  O  O14  1  0.30772488  0.63832558  0.10631475  1
  O  O15  1  0.02796288  0.02375582  0.30025818  1
  O  O16  1  0.99886322  0.99963761  0.79958972  1
  O  O17  1  0.18082965  0.33973555  0.59332105  1
  O  O18  1  0.46661851  0.95972161  0.34864600  1
  O  O19  1  0.46603773  0.50424863  0.34928952  1
  O  O20  1  0.33835195  0.17345278  0.09844021  1
  O  O21  1  0.67972941  0.84010534  0.59024113  1
  O  O22  1  0.50136326  0.47341601  0.85227793  1
  O  O23  1  0.49939604  0.02794597  0.85343732  1
  O  O24  1  0.66373932  0.33191436  0.61511567  1
  O  O25  1  0.84692537  0.67112125  0.08969667  1
  O  O26  1  0.94929220  0.47440441  0.84266623  1
  O  O27  1  0.84508159  0.17891168  0.09070118  1
