# generated using pymatgen
data_Li3Mn(NiO3)2
_symmetry_space_group_name_H-M   'P 1'
_cell_length_a   15.37061714
_cell_length_b   9.78508179
_cell_length_c   9.78508180
_cell_angle_alpha   16.98281258
_cell_angle_beta   16.69186349
_cell_angle_gamma   16.69186193
_symmetry_Int_Tables_number   1
_chemical_formula_structural   Li3Mn(NiO3)2
_chemical_formula_sum   'Li3 Mn1 Ni2 O6'
_cell_volume   107.07535268
_cell_formula_units_Z   1
loop_
 _symmetry_equiv_pos_site_id
 _symmetry_equiv_pos_as_xyz
  1  'x, y, z'
loop_
 _atom_site_type_symbol
 _atom_site_label
 _atom_site_symmetry_multiplicity
 _atom_site_fract_x
 _atom_site_fract_y
 _atom_site_fract_z
 _atom_site_occupancy
  Li  Li0  1  0.16666700  0.50000000  0.50000000  1
  Li  Li1  1  0.50070250  0.49692623  0.49692623  1
  Li  Li2  1  0.83263050  0.50307377  0.50307377  1
  Mn  Mn3  1  0.66666700  0.00000000  0.00000000  1
  Ni  Ni4  1  0.99353341  0.00524575  0.00524575  1
  Ni  Ni5  1  0.33980059  0.99475425  0.99475425  1
  O  O6  1  0.26947522  0.24302706  0.24302706  1
  O  O7  1  0.57036640  0.26310585  0.26310585  1
  O  O8  1  0.06385878  0.75697294  0.75697294  1
  O  O9  1  0.88298767  0.28171491  0.28171491  1
  O  O10  1  0.45034533  0.71828509  0.71828509  1
  O  O11  1  0.76296760  0.73689415  0.73689415  1
