# generated using pymatgen
data_Co6OF11
_symmetry_space_group_name_H-M   'P 1'
_cell_length_a   10.50237736
_cell_length_b   6.75940021
_cell_length_c   3.20603133
_cell_angle_alpha   90.00000000
_cell_angle_beta   90.00000000
_cell_angle_gamma   71.23628746
_symmetry_Int_Tables_number   1
_chemical_formula_structural   Co6OF11
_chemical_formula_sum   'Co6 O1 F11'
_cell_volume   215.49945697
_cell_formula_units_Z   1
loop_
 _symmetry_equiv_pos_site_id
 _symmetry_equiv_pos_as_xyz
  1  'x, y, z'
loop_
 _atom_site_type_symbol
 _atom_site_label
 _atom_site_symmetry_multiplicity
 _atom_site_fract_x
 _atom_site_fract_y
 _atom_site_fract_z
 _atom_site_occupancy
  Co  Co0  1  0.00213553  0.99879664  0.00000000  1
  Co  Co1  1  0.98369937  0.50791439  0.50000000  1
  Co  Co2  1  0.32662989  0.33687082  0.00000000  1
  Co  Co3  1  0.66358018  0.16814611  0.50000000  1
  Co  Co4  1  0.33945917  0.83043740  0.50000000  1
  Co  Co5  1  0.68289000  0.65860192  0.00000000  1
  O  O6  1  0.80539939  0.59732449  0.50000000  1
  F  F7  1  0.00355186  0.30347210  0.00000000  1
  F  F8  1  0.00346155  0.69277673  0.00000000  1
  F  F9  1  0.33300650  0.03148051  0.00000000  1
  F  F10  1  0.18992709  0.40502689  0.50000000  1
  F  F11  1  0.45781792  0.27122310  0.50000000  1
  F  F12  1  0.13260777  0.93375868  0.50000000  1
  F  F13  1  0.33276934  0.63596205  0.00000000  1
  F  F14  1  0.66525827  0.36190690  0.00000000  1
  F  F15  1  0.87063456  0.06450416  0.50000000  1
  F  F16  1  0.54199457  0.72905162  0.50000000  1
  F  F17  1  0.66517701  0.97274350  0.00000000  1
