# generated using pymatgen
data_VOF3
_symmetry_space_group_name_H-M   'P 1'
_cell_length_a   5.63252276
_cell_length_b   10.89258919
_cell_length_c   5.46280959
_cell_angle_alpha   88.32235699
_cell_angle_beta   120.26212529
_cell_angle_gamma   93.35283748
_symmetry_Int_Tables_number   1
_chemical_formula_structural   VOF3
_chemical_formula_sum   'V4 O4 F12'
_cell_volume   288.99049225
_cell_formula_units_Z   4
loop_
 _symmetry_equiv_pos_site_id
 _symmetry_equiv_pos_as_xyz
  1  'x, y, z'
loop_
 _atom_site_type_symbol
 _atom_site_label
 _atom_site_symmetry_multiplicity
 _atom_site_fract_x
 _atom_site_fract_y
 _atom_site_fract_z
 _atom_site_occupancy
  V  V0  1  0.05922381  0.97377278  0.01649281  1
  V  V1  1  0.04296521  0.47900822  0.01935431  1
  V  V2  1  0.52443397  0.22215069  0.98481183  1
  V  V3  1  0.45617572  0.72751704  0.97991699  1
  O  O4  1  0.30442960  0.40482183  0.07861774  1
  O  O5  1  0.31629588  0.89114835  0.06779048  1
  O  O6  1  0.18236249  0.64114538  0.93007862  1
  O  O7  1  0.66830232  0.11228978  0.92773918  1
  F  F8  1  0.16976444  0.04966049  0.34156827  1
  F  F9  1  0.12790287  0.54785046  0.34615198  1
  F  F10  1  0.84992795  0.85948299  0.07772771  1
  F  F11  1  0.82447912  0.35201595  0.07891592  1
  F  F12  1  0.33169723  0.29806909  0.65547687  1
  F  F13  1  0.35018662  0.80543453  0.65506129  1
  F  F14  1  0.64555688  0.21750413  0.35363270  1
  F  F15  1  0.67076046  0.72620044  0.35172827  1
  F  F16  1  0.19162943  0.13722966  0.92137228  1
  F  F17  1  0.83481753  0.97027435  0.64586767  1
  F  F18  1  0.80845513  0.46764853  0.65052553  1
  F  F19  1  0.64063535  0.61677530  0.91716956  1
