# generated using pymatgen
data_Li6Ti3P8O29
_symmetry_space_group_name_H-M   'P 1'
_cell_length_a   9.84016422
_cell_length_b   9.84339411
_cell_length_c   13.89600716
_cell_angle_alpha   89.57860604
_cell_angle_beta   89.65853713
_cell_angle_gamma   60.28263105
_symmetry_Int_Tables_number   1
_chemical_formula_structural   Li6Ti3P8O29
_chemical_formula_sum   'Li12 Ti6 P16 O58'
_cell_volume   1168.91901382
_cell_formula_units_Z   2
loop_
 _symmetry_equiv_pos_site_id
 _symmetry_equiv_pos_as_xyz
  1  'x, y, z'
loop_
 _atom_site_type_symbol
 _atom_site_label
 _atom_site_symmetry_multiplicity
 _atom_site_fract_x
 _atom_site_fract_y
 _atom_site_fract_z
 _atom_site_occupancy
  Li  Li0  1  0.01444702  0.03154884  0.50305172  1
  Li  Li1  1  0.00030744  0.99992217  0.99991155  1
  Li  Li2  1  0.08846178  0.67603599  0.06237773  1
  Li  Li3  1  0.32894005  0.32841624  0.88616353  1
  Li  Li4  1  0.23637349  0.66396772  0.55994147  1
  Li  Li5  1  0.66162095  0.10014990  0.56128387  1
  Li  Li6  1  0.33757158  0.76584370  0.94176467  1
  Li  Li7  1  0.67288576  0.23346752  0.06233808  1
  Li  Li8  1  0.33553816  0.90636368  0.43647804  1
  Li  Li9  1  0.76580161  0.33635235  0.43911794  1
  Li  Li10  1  0.90209510  0.33614113  0.93802638  1
  Li  Li11  1  0.90057843  0.76645527  0.43967989  1
  Ti  Ti12  1  0.00332842  0.42994785  0.74439389  1
  Ti  Ti13  1  0.99630972  0.56105606  0.24981327  1
  Ti  Ti14  1  0.43475741  0.00421188  0.24367585  1
  Ti  Ti15  1  0.56811916  0.99303352  0.75342033  1
  Ti  Ti16  1  0.43523159  0.56731761  0.74841124  1
  Ti  Ti17  1  0.56333495  0.43719028  0.25159144  1
  P  P18  1  0.08419990  0.21876548  0.33943549  1
  P  P19  1  0.21972270  0.08500751  0.84060940  1
  P  P20  1  0.09103455  0.68477228  0.84640415  1
  P  P21  1  0.33296441  0.33784627  0.12724558  1
  P  P22  1  0.33787774  0.33297845  0.62678638  1
  P  P23  1  0.22369755  0.68666270  0.34308900  1
  P  P24  1  0.31230313  0.77496725  0.15842756  1
  P  P25  1  0.68790724  0.08405271  0.34555944  1
  P  P26  1  0.30858879  0.91771207  0.65300134  1
  P  P27  1  0.68238705  0.22467927  0.84277481  1
  P  P28  1  0.77425545  0.31119321  0.65776869  1
  P  P29  1  0.66984705  0.66035607  0.87291922  1
  P  P30  1  0.66382909  0.66954542  0.37257695  1
  P  P31  1  0.91347225  0.30929314  0.15306657  1
  P  P32  1  0.77984625  0.91709490  0.15828472  1
  P  P33  1  0.91659536  0.77441836  0.66015637  1
  O  O34  1  0.00990610  0.19645826  0.24100416  1
  O  O35  1  0.98631715  0.22937089  0.06013215  1
  O  O36  1  0.08021921  0.25405141  0.84273886  1
  O  O37  1  0.19661154  0.01395863  0.74122151  1
  O  O38  1  0.22503682  0.99032031  0.56032701  1
  O  O39  1  0.25358368  0.08250010  0.34047123  1
  O  O40  1  0.07941274  0.37758719  0.32949555  1
  O  O41  1  0.19366679  0.33062444  0.67538902  1
  O  O42  1  0.10248188  0.52374274  0.83271410  1
  O  O43  1  0.00522260  0.77326598  0.57032546  1
  O  O44  1  0.00214964  0.79280209  0.75346261  1
  O  O45  1  0.08121229  0.66151459  0.34296025  1
  O  O46  1  0.32918147  0.19402213  0.17170701  1
  O  O47  1  0.37184798  0.09570376  0.83212847  1
  O  O48  1  0.18630083  0.48956605  0.16605223  1
  O  O49  1  0.33584429  0.33937815  0.01885277  1
  O  O50  1  0.33640243  0.34078546  0.51954302  1
  O  O51  1  0.32987761  0.48672179  0.66871733  1
  O  O52  1  0.53364400  0.08522624  0.32959686  1
  O  O53  1  0.48878839  0.18720831  0.66760472  1
  O  O54  1  0.25883065  0.66201176  0.84129612  1
  O  O55  1  0.20141108  0.79456025  0.24995006  1
  O  O56  1  0.22538612  0.77384417  0.06896397  1
  O  O57  1  0.22627567  0.77402303  0.43182598  1
  O  O58  1  0.37678059  0.53126406  0.32903281  1
  O  O59  1  0.48599630  0.33108490  0.16607365  1
  O  O60  1  0.33440591  0.74880866  0.66106012  1
  O  O61  1  0.52116290  0.37391960  0.83029361  1
  O  O62  1  0.65754910  0.08303119  0.84045240  1
  O  O63  1  0.21430197  0.98682605  0.92194808  1
  O  O64  1  0.79173834  0.01088798  0.07625063  1
  O  O65  1  0.80208574  0.99186810  0.25709499  1
  O  O66  1  0.34041568  0.91395571  0.16200025  1
  O  O67  1  0.46690652  0.62060446  0.17274772  1
  O  O68  1  0.66299207  0.25199212  0.34295482  1
  O  O69  1  0.51902698  0.66358944  0.83028030  1
  O  O70  1  0.62074549  0.46542979  0.67111127  1
  O  O71  1  0.77571890  0.22281701  0.56829381  1
  O  O72  1  0.76954253  0.22955950  0.93092606  1
  O  O73  1  0.79124305  0.20458065  0.75049735  1
  O  O74  1  0.74483176  0.33658866  0.16226618  1
  O  O75  1  0.51322392  0.81318630  0.33122966  1
  O  O76  1  0.46233099  0.91806703  0.66970867  1
  O  O77  1  0.67293877  0.51482354  0.33206677  1
  O  O78  1  0.66284704  0.65945927  0.98007222  1
  O  O79  1  0.66736218  0.66618020  0.48023588  1
  O  O80  1  0.81754619  0.51185151  0.83250288  1
  O  O81  1  0.62258619  0.91940257  0.16811472  1
  O  O82  1  0.66659968  0.80789630  0.82548233  1
  O  O83  1  0.91519214  0.33723982  0.66110032  1
  O  O84  1  0.98883432  0.20937896  0.42168282  1
  O  O85  1  0.91201747  0.46548688  0.16976946  1
  O  O86  1  0.81063359  0.67590540  0.32992026  1
  O  O87  1  0.91288067  0.62122805  0.67397160  1
  O  O88  1  0.74989678  0.91724042  0.66032443  1
  O  O89  1  0.77258616  0.99922394  0.43686468  1
  O  O90  1  0.91700448  0.74692918  0.15908624  1
  O  O91  1  0.01080545  0.77147622  0.93628895  1
