# generated using pymatgen
data_LiNiPO4
_symmetry_space_group_name_H-M   'P 1'
_cell_length_a   10.27901413
_cell_length_b   6.11888514
_cell_length_c   4.65855625
_cell_angle_alpha   90.00000000
_cell_angle_beta   90.00000000
_cell_angle_gamma   89.99748553
_symmetry_Int_Tables_number   1
_chemical_formula_structural   LiNiPO4
_chemical_formula_sum   'Li4 Ni4 P4 O16'
_cell_volume   293.00505136
_cell_formula_units_Z   4
loop_
 _symmetry_equiv_pos_site_id
 _symmetry_equiv_pos_as_xyz
  1  'x, y, z'
loop_
 _atom_site_type_symbol
 _atom_site_label
 _atom_site_symmetry_multiplicity
 _atom_site_fract_x
 _atom_site_fract_y
 _atom_site_fract_z
 _atom_site_occupancy
  Li  Li0  1  0.21530540  0.74999865  0.48289857  1
  Li  Li1  1  0.28469460  0.25000135  0.98289857  1
  Li  Li2  1  0.71530540  0.74999865  0.01710143  1
  Li  Li3  1  0.78469460  0.25000135  0.51710143  1
  Ni  Ni4  1  0.00000000  0.00000000  0.00000000  1
  Ni  Ni5  1  0.00000000  0.50000000  0.00000000  1
  Ni  Ni6  1  0.50000000  0.00000000  0.50000000  1
  Ni  Ni7  1  0.50000000  0.50000000  0.50000000  1
  P  P8  1  0.09239652  0.24998869  0.41304852  1
  P  P9  1  0.40760348  0.75001131  0.91304852  1
  P  P10  1  0.59239652  0.24998869  0.08695148  1
  P  P11  1  0.90760348  0.75001131  0.58695148  1
  O  O12  1  0.04928050  0.74999993  0.72767148  1
  O  O13  1  0.08566326  0.24998892  0.74456350  1
  O  O14  1  0.15649569  0.04195309  0.28876388  1
  O  O15  1  0.15649023  0.45802240  0.28877402  1
  O  O16  1  0.34350977  0.54197760  0.78877402  1
  O  O17  1  0.34350431  0.95804691  0.78876388  1
  O  O18  1  0.41433574  0.75001108  0.24456350  1
  O  O19  1  0.45071950  0.25000007  0.22767148  1
  O  O20  1  0.54928050  0.74999993  0.77232852  1
  O  O21  1  0.58566326  0.24998892  0.75543650  1
  O  O22  1  0.65649569  0.04195309  0.21123612  1
  O  O23  1  0.65649023  0.45802240  0.21122598  1
  O  O24  1  0.84350977  0.54197760  0.71122598  1
  O  O25  1  0.84350431  0.95804691  0.71123612  1
  O  O26  1  0.91433674  0.75001108  0.25543650  1
  O  O27  1  0.95071950  0.25000007  0.27232852  1
