# generated using pymatgen
data_LiMnCo3O8
_symmetry_space_group_name_H-M   'P 1'
_cell_length_a   5.95000399
_cell_length_b   5.67341305
_cell_length_c   5.67341326
_cell_angle_alpha   59.78818918
_cell_angle_beta   62.35878880
_cell_angle_gamma   90.56003908
_symmetry_Int_Tables_number   1
_chemical_formula_structural   LiMnCo3O8
_chemical_formula_sum   'Li1 Mn1 Co3 O8'
_cell_volume   139.01750618
_cell_formula_units_Z   1
loop_
 _symmetry_equiv_pos_site_id
 _symmetry_equiv_pos_as_xyz
  1  'x, y, z'
loop_
 _atom_site_type_symbol
 _atom_site_label
 _atom_site_symmetry_multiplicity
 _atom_site_fract_x
 _atom_site_fract_y
 _atom_site_fract_z
 _atom_site_occupancy
  Li  Li0  1  0.50000000  0.00000000  0.50000000  1
  Mn  Mn1  1  0.00000000  0.00000000  0.00000000  1
  Co  Co2  1  0.00000000  0.50000000  0.00000000  1
  Co  Co3  1  0.00000000  0.50000000  0.50000000  1
  Co  Co4  1  0.00000000  0.00000000  0.50000000  1
  O  O5  1  0.19690559  0.73225811  0.03042198  1
  O  O6  1  0.19245235  0.23568177  0.04322942  1
  O  O7  1  0.19420799  0.73601295  0.54180596  1
  O  O8  1  0.19690559  0.22732757  0.53535253  1
  O  O9  1  0.80309441  0.77267343  0.46464747  1
  O  O10  1  0.80579201  0.26398705  0.45819404  1
  O  O11  1  0.80754765  0.76431823  0.95677058  1
  O  O12  1  0.80309441  0.26774189  0.96957802  1
