# generated using pymatgen
data_Tm3TaO7
_symmetry_space_group_name_H-M   'P 1'
_cell_length_a   7.38095436
_cell_length_b   10.45799852
_cell_length_c   7.48660518
_cell_angle_alpha   90.00000000
_cell_angle_beta   90.00000000
_cell_angle_gamma   90.00000000
_symmetry_Int_Tables_number   1
_chemical_formula_structural   Tm3TaO7
_chemical_formula_sum   'Tm12 Ta4 O28'
_cell_volume   577.89112701
_cell_formula_units_Z   4
loop_
 _symmetry_equiv_pos_site_id
 _symmetry_equiv_pos_as_xyz
  1  'x, y, z'
loop_
 _atom_site_type_symbol
 _atom_site_label
 _atom_site_symmetry_multiplicity
 _atom_site_fract_x
 _atom_site_fract_y
 _atom_site_fract_z
 _atom_site_occupancy
  Tm  Tm0  1  0.01490047  0.25000000  0.79714863  1
  Tm  Tm1  1  0.25244178  0.51975535  0.96991885  1
  Tm  Tm2  1  0.25244178  0.98024465  0.96991885  1
  Tm  Tm3  1  0.24755822  0.01975535  0.46991885  1
  Tm  Tm4  1  0.24755822  0.48024465  0.46991885  1
  Tm  Tm5  1  0.48509953  0.75000000  0.29714863  1
  Tm  Tm6  1  0.51490047  0.25000000  0.70285137  1
  Tm  Tm7  1  0.75244178  0.51975535  0.53008115  1
  Tm  Tm8  1  0.75244178  0.98024465  0.53008115  1
  Tm  Tm9  1  0.74755822  0.01975535  0.03008115  1
  Tm  Tm10  1  0.74755822  0.48024465  0.03008115  1
  Tm  Tm11  1  0.98509953  0.75000000  0.20285137  1
  Ta  Ta12  1  0.99829808  0.75000000  0.74857235  1
  Ta  Ta13  1  0.50170192  0.25000000  0.24857235  1
  Ta  Ta14  1  0.49829808  0.75000000  0.75142765  1
  Ta  Ta15  1  0.00170192  0.25000000  0.25142765  1
  O  O16  1  0.03755118  0.12371029  0.04484284  1
  O  O17  1  0.03755118  0.37628971  0.04484284  1
  O  O18  1  0.04003929  0.61056612  0.58320666  1
  O  O19  1  0.04003929  0.88943388  0.58320666  1
  O  O20  1  0.24931761  0.25000000  0.33982322  1
  O  O21  1  0.25630121  0.11580617  0.73250631  1
  O  O22  1  0.25630121  0.38419383  0.73250631  1
  O  O23  1  0.24369879  0.61580617  0.23250631  1
  O  O24  1  0.24369879  0.88419383  0.23250631  1
  O  O25  1  0.25068239  0.75000000  0.83982222  1
  O  O26  1  0.45996071  0.11056612  0.08320666  1
  O  O27  1  0.45996071  0.38943388  0.08320666  1
  O  O28  1  0.46244882  0.62371029  0.54484284  1
  O  O29  1  0.46244882  0.87628971  0.54484284  1
  O  O30  1  0.53755118  0.12371029  0.45515716  1
  O  O31  1  0.53755118  0.37628971  0.45515716  1
  O  O32  1  0.54003929  0.61056612  0.91679334  1
  O  O33  1  0.54003929  0.88943388  0.91679334  1
  O  O34  1  0.74931761  0.25000000  0.16017678  1
  O  O35  1  0.75630121  0.11580617  0.76749369  1
  O  O36  1  0.75630121  0.38419383  0.76749369  1
  O  O37  1  0.74369879  0.61580617  0.26749369  1
  O  O38  1  0.74369879  0.88419383  0.26749369  1
  O  O39  1  0.75068239  0.75000000  0.66017778  1
  O  O40  1  0.95996071  0.11056612  0.41679334  1
  O  O41  1  0.95996071  0.38943388  0.41679334  1
  O  O42  1  0.96244882  0.62371029  0.95515716  1
  O  O43  1  0.96244882  0.87628971  0.95515716  1
