# generated using pymatgen
data_VOF3
_symmetry_space_group_name_H-M   'P 1'
_cell_length_a   5.56106562
_cell_length_b   5.34303499
_cell_length_c   9.63472496
_cell_angle_alpha   92.26279410
_cell_angle_beta   88.77500834
_cell_angle_gamma   91.33527239
_symmetry_Int_Tables_number   1
_chemical_formula_structural   VOF3
_chemical_formula_sum   'V4 O4 F12'
_cell_volume   285.91539456
_cell_formula_units_Z   4
loop_
 _symmetry_equiv_pos_site_id
 _symmetry_equiv_pos_as_xyz
  1  'x, y, z'
loop_
 _atom_site_type_symbol
 _atom_site_label
 _atom_site_symmetry_multiplicity
 _atom_site_fract_x
 _atom_site_fract_y
 _atom_site_fract_z
 _atom_site_occupancy
  V  V0  1  0.78131821  0.52105568  0.77339964  1
  V  V1  1  0.53397051  0.96429773  0.52721780  1
  V  V2  1  0.26309013  0.45691444  0.27646021  1
  V  V3  1  0.03558386  0.97894452  0.02032705  1
  O  O4  1  0.94904074  0.71599279  0.87153099  1
  O  O5  1  0.69507086  0.78863558  0.62535332  1
  O  O6  1  0.29353057  0.21893864  0.37119218  1
  O  O7  1  0.19278574  0.80352330  0.11301162  1
  F  F8  1  0.99433300  0.59855652  0.33910904  1
  F  F9  1  0.78996415  0.23608470  0.86551973  1
  F  F10  1  0.74225151  0.06944022  0.39932019  1
  F  F11  1  0.73545935  0.94386227  0.08287896  1
  F  F12  1  0.53881026  0.26548010  0.62057471  1
  F  F13  1  0.50232846  0.43603092  0.15195938  1
  F  F14  1  0.48463183  0.58540544  0.83069819  1
  F  F15  1  0.45042190  0.70269216  0.37728554  1
  F  F16  1  0.24128897  0.11052825  0.89852688  1
  F  F17  1  0.23437758  0.90060931  0.58358139  1
  F  F18  1  0.05871427  0.28865658  0.13102066  1
  F  F19  1  0.98302913  0.41435286  0.64103450  1
