# generated using pymatgen
data_Li2AlFeO4
_symmetry_space_group_name_H-M   'P 1'
_cell_length_a   6.27552205
_cell_length_b   5.55062797
_cell_length_c   5.03221002
_cell_angle_alpha   89.99973092
_cell_angle_beta   90.00014133
_cell_angle_gamma   89.99979506
_symmetry_Int_Tables_number   1
_chemical_formula_structural   Li2AlFeO4
_chemical_formula_sum   'Li4 Al2 Fe2 O8'
_cell_volume   175.28741555
_cell_formula_units_Z   2
loop_
 _symmetry_equiv_pos_site_id
 _symmetry_equiv_pos_as_xyz
  1  'x, y, z'
loop_
 _atom_site_type_symbol
 _atom_site_label
 _atom_site_symmetry_multiplicity
 _atom_site_fract_x
 _atom_site_fract_y
 _atom_site_fract_z
 _atom_site_occupancy
  Li  Li0  1  0.25021732  0.33383673  0.99298286  1
  Li  Li1  1  0.24978268  0.66616042  0.49298171  1
  Li  Li2  1  0.74978295  0.33383753  0.99298181  1
  Li  Li3  1  0.75021788  0.66616172  0.49298299  1
  Al  Al4  1  -0.00000060  0.16718350  0.49897041  1
  Al  Al5  1  0.50000180  0.83281826  0.99896962  1
  Fe  Fe6  1  -0.00000507  0.83470656  0.99617751  1
  Fe  Fe7  1  0.49999932  0.16530354  0.49616832  1
  O  O8  1  0.00000116  0.15335263  0.85437902  1
  O  O9  1  0.99999982  0.86424681  0.37526177  1
  O  O10  1  0.26202879  0.68175090  0.89462664  1
  O  O11  1  0.23797237  0.31824486  0.39462797  1
  O  O12  1  0.49999943  0.13574858  0.87526290  1
  O  O13  1  0.49999931  0.84664572  0.35437583  1
  O  O14  1  0.76202981  0.31824695  0.39462485  1
  O  O15  1  0.73797304  0.68175529  0.89462577  1
