# generated using pymatgen
data_LiMn2(PO4)2
_symmetry_space_group_name_H-M   'P 1'
_cell_length_a   12.53307076
_cell_length_b   9.05059323
_cell_length_c   8.70266100
_cell_angle_alpha   104.95176104
_cell_angle_beta   80.64975343
_cell_angle_gamma   75.21580394
_symmetry_Int_Tables_number   1
_chemical_formula_structural   LiMn2(PO4)2
_chemical_formula_sum   'Li6 Mn12 P12 O48'
_cell_volume   894.19680619
_cell_formula_units_Z   6
loop_
 _symmetry_equiv_pos_site_id
 _symmetry_equiv_pos_as_xyz
  1  'x, y, z'
loop_
 _atom_site_type_symbol
 _atom_site_label
 _atom_site_symmetry_multiplicity
 _atom_site_fract_x
 _atom_site_fract_y
 _atom_site_fract_z
 _atom_site_occupancy
  Li  Li0  1  0.11736495  0.87165992  0.99805188  1
  Li  Li1  1  0.01891091  0.49342245  0.50255557  1
  Li  Li2  1  0.40132429  0.61550218  0.00703063  1
  Li  Li3  1  0.48028553  0.00466973  0.49545105  1
  Li  Li4  1  0.74945599  0.75199328  0.50340031  1
  Li  Li5  1  0.86329778  0.14144320  0.98794859  1
  Mn  Mn6  1  0.04127049  0.89324873  0.61914987  1
  Mn  Mn7  1  0.24199210  0.47712512  0.27969445  1
  Mn  Mn8  1  0.12813422  0.48749769  0.93807910  1
  Mn  Mn9  1  0.37393813  0.01187902  0.05986592  1
  Mn  Mn10  1  0.46171968  0.60273255  0.37582824  1
  Mn  Mn11  1  0.25970927  0.01868534  0.71837969  1
  Mn  Mn12  1  0.73525862  0.99371651  0.27647877  1
  Mn  Mn13  1  0.53670852  0.39607776  0.61456807  1
  Mn  Mn14  1  0.63182608  0.98991616  0.93618825  1
  Mn  Mn15  1  0.86698863  0.51656100  0.06449289  1
  Mn  Mn16  1  0.75891649  0.50625859  0.73256134  1
  Mn  Mn17  1  0.96517120  0.10142679  0.38379850  1
  P  P18  1  0.10757614  0.23345632  0.12061903  1
  P  P19  1  0.25591932  0.86956968  0.33301152  1
  P  P20  1  0.01947129  0.27735952  0.71154552  1
  P  P21  1  0.24452733  0.63036736  0.66536258  1
  P  P22  1  0.60560753  0.73990824  0.12484926  1
  P  P23  1  0.47976690  0.22277780  0.28840896  1
  P  P24  1  0.52185883  0.77166452  0.71138829  1
  P  P25  1  0.39160316  0.26589786  0.87518948  1
  P  P26  1  0.75135568  0.37921647  0.34279662  1
  P  P27  1  0.97882029  0.72802485  0.28814258  1
  P  P28  1  0.75363917  0.11581475  0.65512079  1
  P  P29  1  0.89088769  0.76789429  0.88054559  1
  O  O30  1  0.04714907  0.35562050  0.03681623  1
  O  O31  1  0.12412064  0.93117738  0.39097843  1
  O  O32  1  0.09653920  0.63501362  0.16491025  1
  O  O33  1  0.02946888  0.13116278  0.15928788  1
  O  O34  1  0.29220010  0.88200463  0.15533627  1
  O  O35  1  0.99860013  0.27924124  0.53972119  1
  O  O36  1  0.13175479  0.33157688  0.27513844  1
  O  O37  1  0.31016933  0.95780490  0.45793383  1
  O  O38  1  0.28389985  0.38616743  0.00605350  1
  O  O39  1  0.20084803  0.81559973  0.69305974  1
  O  O40  1  0.29779578  0.68527481  0.30786242  1
  O  O41  1  0.18879237  0.54320089  0.54292589  1
  O  O42  1  0.10890608  0.36664727  0.73327904  1
  O  O43  1  0.55110090  0.86233490  0.03634877  1
  O  O44  1  0.07019963  0.11026015  0.72987063  1
  O  O45  1  0.20745626  0.61851859  0.84352472  1
  O  O46  1  0.51685661  0.65687165  0.16368668  1
  O  O47  1  0.42750832  0.39095316  0.27410470  1
  O  O48  1  0.40368061  0.86531324  0.83429496  1
  O  O49  1  0.37592007  0.57020481  0.60642769  1
  O  O50  1  0.38875816  0.13534607  0.26559422  1
  O  O51  1  0.50559438  0.77129815  0.54039052  1
  O  O52  1  0.63398389  0.83313279  0.27918837  1
  O  O53  1  0.78407727  0.89203806  0.01070737  1
  O  O54  1  0.21585813  0.11196166  0.99190702  1
  O  O55  1  0.36554131  0.16512163  0.72307979  1
  O  O56  1  0.50017497  0.22031935  0.46039277  1
  O  O57  1  0.61878238  0.84996175  0.73021942  1
  O  O58  1  0.61803681  0.42817456  0.39491407  1
  O  O59  1  0.59980676  0.13515213  0.16808104  1
  O  O60  1  0.56632577  0.60237392  0.73446023  1
  O  O61  1  0.46485113  0.37050638  0.83122417  1
  O  O62  1  0.79254700  0.38619324  0.16535942  1
  O  O63  1  0.93419377  0.89766162  0.26570777  1
  O  O64  1  0.45476938  0.14610884  0.95918208  1
  O  O65  1  0.88120156  0.65050148  0.27033262  1
  O  O66  1  0.79145491  0.48941213  0.47151032  1
  O  O67  1  0.70079858  0.29475171  0.66929354  1
  O  O68  1  0.80028224  0.19757041  0.32475268  1
  O  O69  1  0.71366856  0.61495181  0.99905007  1
  O  O70  1  0.71186496  0.00390746  0.53053524  1
  O  O71  1  0.86232024  0.67383724  0.72747649  1
  O  O72  1  0.99480954  0.72566101  0.45859243  1
  O  O73  1  0.72896394  0.09489345  0.82815790  1
  O  O74  1  0.97274915  0.86481216  0.84623938  1
  O  O75  1  0.89918050  0.36241580  0.83498364  1
  O  O76  1  0.88728741  0.07058211  0.59684941  1
  O  O77  1  0.94858145  0.64337280  0.96428942  1
