# generated using pymatgen
data_Gd2P4O13
_symmetry_space_group_name_H-M   'P 1'
_cell_length_a   8.88112731
_cell_length_b   9.85657004
_cell_length_c   14.21061391
_cell_angle_alpha   90.00000000
_cell_angle_beta   105.38324501
_cell_angle_gamma   90.00000000
_symmetry_Int_Tables_number   1
_chemical_formula_structural   Gd2P4O13
_chemical_formula_sum   'Gd8 P16 O52'
_cell_volume   1199.39358710
_cell_formula_units_Z   4
loop_
 _symmetry_equiv_pos_site_id
 _symmetry_equiv_pos_as_xyz
  1  'x, y, z'
loop_
 _atom_site_type_symbol
 _atom_site_label
 _atom_site_symmetry_multiplicity
 _atom_site_fract_x
 _atom_site_fract_y
 _atom_site_fract_z
 _atom_site_occupancy
  Gd  Gd0  1  0.28179026  0.00085776  0.99132983  1
  Gd  Gd1  1  0.21721798  0.00611215  0.51371019  1
  Gd  Gd2  1  0.28179026  0.49914224  0.49132983  1
  Gd  Gd3  1  0.21721798  0.49388785  0.01371019  1
  Gd  Gd4  1  0.78278202  0.50611215  0.98628981  1
  Gd  Gd5  1  0.71820974  0.50085776  0.50867017  1
  Gd  Gd6  1  0.78278202  0.99388785  0.48628981  1
  Gd  Gd7  1  0.71820974  0.99914224  0.00867017  1
  P  P8  1  0.02825049  0.27839514  0.59657004  1
  P  P9  1  0.10972683  0.24569385  0.81265403  1
  P  P10  1  0.23274523  0.73257126  0.68614550  1
  P  P11  1  0.02825049  0.22160486  0.09657004  1
  P  P12  1  0.10972683  0.25430615  0.31265403  1
  P  P13  1  0.45776654  0.72073777  0.89963870  1
  P  P14  1  0.23274523  0.76742874  0.18614550  1
  P  P15  1  0.54223346  0.22073777  0.60036130  1
  P  P16  1  0.45776654  0.77926223  0.39963870  1
  P  P17  1  0.76725477  0.23257126  0.81385450  1
  P  P18  1  0.54223346  0.27926223  0.10036130  1
  P  P19  1  0.89027317  0.74569385  0.68734597  1
  P  P20  1  0.97175051  0.77839514  0.90342996  1
  P  P21  1  0.76725477  0.26742874  0.31385450  1
  P  P22  1  0.89027317  0.75430615  0.18734597  1
  P  P23  1  0.97175051  0.72160486  0.40342996  1
  O  O24  1  0.07005444  0.69489499  0.71063961  1
  O  O25  1  0.12546827  0.84354852  0.90104283  1
  O  O26  1  0.01041082  0.12875934  0.56140324  1
  O  O27  1  0.13489930  0.37383193  0.87186604  1
  O  O28  1  0.13581379  0.27626643  0.70825356  1
  O  O29  1  0.12046591  0.35974420  0.54043586  1
  O  O30  1  0.21528976  0.12834033  0.85419199  1
  O  O31  1  0.07005444  0.80510501  0.21063961  1
  O  O32  1  0.12546827  0.65645148  0.40104283  1
  O  O33  1  0.01041082  0.37124066  0.06140324  1
  O  O34  1  0.36803090  0.63396080  0.95482566  1
  O  O35  1  0.22623017  0.87394619  0.64511039  1
  O  O36  1  0.13489930  0.12616807  0.37186604  1
  O  O37  1  0.13581379  0.22373357  0.20825356  1
  O  O38  1  0.27153317  0.62079303  0.62468656  1
  O  O39  1  0.35747056  0.72987604  0.78786048  1
  O  O40  1  0.12046591  0.14025580  0.04043586  1
  O  O41  1  0.38769882  0.15678899  0.60278672  1
  O  O42  1  0.47958948  0.86984084  0.93813090  1
  O  O43  1  0.21528976  0.37165967  0.35419199  1
  O  O44  1  0.36803090  0.86603920  0.45482566  1
  O  O45  1  0.22623017  0.62605381  0.14511039  1
  O  O46  1  0.27153317  0.87920697  0.12468656  1
  O  O47  1  0.35747056  0.77012396  0.28786048  1
  O  O48  1  0.52041052  0.36984084  0.56186910  1
  O  O49  1  0.61230118  0.65678899  0.89721328  1
  O  O50  1  0.38769882  0.34321101  0.10278672  1
  O  O51  1  0.47958948  0.63015916  0.43813090  1
  O  O52  1  0.64252944  0.22987604  0.71213952  1
  O  O53  1  0.72846683  0.12079303  0.87531344  1
  O  O54  1  0.77376983  0.37394619  0.85488961  1
  O  O55  1  0.63196910  0.13396080  0.54517434  1
  O  O56  1  0.78471024  0.62834033  0.64580801  1
  O  O57  1  0.52041052  0.13015916  0.06186910  1
  O  O58  1  0.61230118  0.84321101  0.39721328  1
  O  O59  1  0.87953409  0.85974420  0.95956414  1
  O  O60  1  0.64252944  0.27012396  0.21213952  1
  O  O61  1  0.72846683  0.37920697  0.37531344  1
  O  O62  1  0.86418621  0.77626643  0.79174644  1
  O  O63  1  0.86510070  0.87383193  0.62813396  1
  O  O64  1  0.77376983  0.12605381  0.35488961  1
  O  O65  1  0.63196910  0.36603920  0.04517434  1
  O  O66  1  0.98958918  0.62875934  0.93859676  1
  O  O67  1  0.87453173  0.34354852  0.59895717  1
  O  O68  1  0.92994556  0.19489499  0.78936039  1
  O  O69  1  0.78471024  0.87165967  0.14580801  1
  O  O70  1  0.87953409  0.64025580  0.45956414  1
  O  O71  1  0.86418621  0.72373357  0.29174644  1
  O  O72  1  0.86510070  0.62616807  0.12813396  1
  O  O73  1  0.98958918  0.87124066  0.43859676  1
  O  O74  1  0.87453173  0.15645148  0.09895717  1
  O  O75  1  0.92994556  0.30510501  0.28936039  1
