# generated using pymatgen
data_HoTa3O9
_symmetry_space_group_name_H-M   'P 1'
_cell_length_a   6.46385227
_cell_length_b   7.63338849
_cell_length_c   12.58638428
_cell_angle_alpha   90.00000000
_cell_angle_beta   90.00000000
_cell_angle_gamma   90.00000000
_symmetry_Int_Tables_number   1
_chemical_formula_structural   HoTa3O9
_chemical_formula_sum   'Ho4 Ta12 O36'
_cell_volume   621.02598900
_cell_formula_units_Z   4
loop_
 _symmetry_equiv_pos_site_id
 _symmetry_equiv_pos_as_xyz
  1  'x, y, z'
loop_
 _atom_site_type_symbol
 _atom_site_label
 _atom_site_symmetry_multiplicity
 _atom_site_fract_x
 _atom_site_fract_y
 _atom_site_fract_z
 _atom_site_occupancy
  Ho  Ho0  1  0.05623868  0.25000000  0.46341588  1
  Ho  Ho1  1  0.44376132  0.75000000  0.96341588  1
  Ho  Ho2  1  0.55623868  0.25000000  0.03658412  1
  Ho  Ho3  1  0.94376132  0.75000000  0.53658412  1
  Ta  Ta4  1  0.00000000  0.00000000  0.00000000  1
  Ta  Ta5  1  0.00000000  0.50000000  0.00000000  1
  Ta  Ta6  1  0.20492552  0.00301343  0.71286101  1
  Ta  Ta7  1  0.20492552  0.49698657  0.71286101  1
  Ta  Ta8  1  0.29507448  0.50301343  0.21286101  1
  Ta  Ta9  1  0.29507448  0.99698657  0.21286101  1
  Ta  Ta10  1  0.50000000  0.00000000  0.50000000  1
  Ta  Ta11  1  0.50000000  0.50000000  0.50000000  1
  Ta  Ta12  1  0.70492552  0.00301343  0.78713899  1
  Ta  Ta13  1  0.70492552  0.49698657  0.78713899  1
  Ta  Ta14  1  0.79507448  0.50301343  0.28713899  1
  Ta  Ta15  1  0.79507448  0.99698657  0.28713899  1
  O  O16  1  0.01623172  0.04285277  0.84290091  1
  O  O17  1  0.01623172  0.45714723  0.84290091  1
  O  O18  1  0.07960866  0.75000000  0.97471385  1
  O  O19  1  0.10338031  0.03695693  0.33238137  1
  O  O20  1  0.10338031  0.46304307  0.33238137  1
  O  O21  1  0.16452501  0.25000000  0.67003174  1
  O  O22  1  0.20370951  0.75000000  0.69573881  1
  O  O23  1  0.20534932  0.53560986  0.53666785  1
  O  O24  1  0.20534932  0.96439014  0.53666785  1
  O  O25  1  0.29465068  0.03560986  0.03666785  1
  O  O26  1  0.29465068  0.46439014  0.03666785  1
  O  O27  1  0.29629049  0.25000000  0.19573881  1
  O  O28  1  0.33547499  0.75000000  0.17003174  1
  O  O29  1  0.39661969  0.53695693  0.83238137  1
  O  O30  1  0.39661969  0.96304307  0.83238137  1
  O  O31  1  0.42039134  0.25000000  0.47471385  1
  O  O32  1  0.48376828  0.54285277  0.34290091  1
  O  O33  1  0.48376828  0.95714723  0.34290091  1
  O  O34  1  0.51623172  0.04285277  0.65709909  1
  O  O35  1  0.51623172  0.45714723  0.65709909  1
  O  O36  1  0.57960866  0.75000000  0.52528615  1
  O  O37  1  0.60338031  0.03695693  0.16761863  1
  O  O38  1  0.60338031  0.46304307  0.16761863  1
  O  O39  1  0.66452601  0.25000000  0.82996826  1
  O  O40  1  0.70370951  0.75000000  0.80426119  1
  O  O41  1  0.70534932  0.53560986  0.96333215  1
  O  O42  1  0.70534932  0.96439014  0.96333215  1
  O  O43  1  0.79465068  0.03560986  0.46333215  1
  O  O44  1  0.79465068  0.46439014  0.46333215  1
  O  O45  1  0.79629049  0.25000000  0.30426119  1
  O  O46  1  0.83547399  0.75000000  0.32996826  1
  O  O47  1  0.89661969  0.53695693  0.66761863  1
  O  O48  1  0.89661969  0.96304307  0.66761863  1
  O  O49  1  0.92039134  0.25000000  0.02528615  1
  O  O50  1  0.98376828  0.54285277  0.15709909  1
  O  O51  1  0.98376828  0.95714723  0.15709909  1
