# generated using pymatgen
data_Ge2SbO6
_symmetry_space_group_name_H-M   'P 1'
_cell_length_a   5.71082665
_cell_length_b   9.38167633
_cell_length_c   10.40833368
_cell_angle_alpha   90.00000000
_cell_angle_beta   106.14855009
_cell_angle_gamma   90.00000000
_symmetry_Int_Tables_number   1
_chemical_formula_structural   Ge2SbO6
_chemical_formula_sum   'Ge8 Sb4 O24'
_cell_volume   535.64593565
_cell_formula_units_Z   4
loop_
 _symmetry_equiv_pos_site_id
 _symmetry_equiv_pos_as_xyz
  1  'x, y, z'
loop_
 _atom_site_type_symbol
 _atom_site_label
 _atom_site_symmetry_multiplicity
 _atom_site_fract_x
 _atom_site_fract_y
 _atom_site_fract_z
 _atom_site_occupancy
  Ge  Ge0  1  0.81360996  0.32728670  0.05154971  1
  Ge  Ge1  1  0.68639004  0.82728670  0.94845029  1
  Ge  Ge2  1  0.18639004  0.67271330  0.94845029  1
  Ge  Ge3  1  0.31360996  0.17271330  0.05154971  1
  Ge  Ge4  1  0.14287337  0.33440289  0.46612609  1
  Ge  Ge5  1  0.35712663  0.83440289  0.53387391  1
  Ge  Ge6  1  0.85712663  0.66559711  0.53387391  1
  Ge  Ge7  1  0.64287337  0.16559711  0.46612609  1
  Sb  Sb8  1  0.98876992  0.63316445  0.24151654  1
  Sb  Sb9  1  0.51123008  0.13316445  0.75848346  1
  Sb  Sb10  1  0.01123008  0.36683555  0.75848346  1
  Sb  Sb11  1  0.48876992  0.86683555  0.24151654  1
  O  O12  1  0.36216120  0.25149940  0.40028471  1
  O  O13  1  0.13783880  0.75149940  0.59971529  1
  O  O14  1  0.63783880  0.74850060  0.59971529  1
  O  O15  1  0.86216120  0.24850060  0.40028471  1
  O  O16  1  0.13311558  0.29838786  0.10869326  1
  O  O17  1  0.36688442  0.79838786  0.89130674  1
  O  O18  1  0.86688442  0.70161214  0.89130774  1
  O  O19  1  0.63311558  0.20161214  0.10869226  1
  O  O20  1  0.63258728  0.98792546  0.40812916  1
  O  O21  1  0.86741272  0.48792546  0.59187084  1
  O  O22  1  0.36741272  0.01207454  0.59187084  1
  O  O23  1  0.13258728  0.51207454  0.40812916  1
  O  O24  1  0.26791244  0.00402212  0.11188588  1
  O  O25  1  0.23208756  0.50402212  0.88811412  1
  O  O26  1  0.73208756  0.99597788  0.88811412  1
  O  O27  1  0.76791244  0.49597788  0.11188588  1
  O  O28  1  0.73606709  0.30938460  0.87020178  1
  O  O29  1  0.76393291  0.80938460  0.12979822  1
  O  O30  1  0.26393291  0.69061540  0.12979822  1
  O  O31  1  0.23606709  0.19061540  0.87020178  1
  O  O32  1  0.25081980  0.30715725  0.64806463  1
  O  O33  1  0.24918020  0.80715725  0.35193537  1
  O  O34  1  0.74918020  0.69284275  0.35193537  1
  O  O35  1  0.75081980  0.19284275  0.64806463  1
