# generated using pymatgen
data_V2(OF)3
_symmetry_space_group_name_H-M   'P 1'
_cell_length_a   5.24953482
_cell_length_b   5.34885220
_cell_length_c   5.18526381
_cell_angle_alpha   90.23008666
_cell_angle_beta   119.42559610
_cell_angle_gamma   60.80990829
_symmetry_Int_Tables_number   1
_chemical_formula_structural   V2(OF)3
_chemical_formula_sum   'V2 O3 F3'
_cell_volume   105.26163998
_cell_formula_units_Z   1
loop_
 _symmetry_equiv_pos_site_id
 _symmetry_equiv_pos_as_xyz
  1  'x, y, z'
loop_
 _atom_site_type_symbol
 _atom_site_label
 _atom_site_symmetry_multiplicity
 _atom_site_fract_x
 _atom_site_fract_y
 _atom_site_fract_z
 _atom_site_occupancy
  V  V0  1  0.99100758  0.97761286  0.01633493  1
  V  V1  1  0.99876464  0.45640420  0.50968280  1
  O  O2  1  0.06794616  0.26076608  0.81317284  1
  O  O3  1  0.92450918  0.26584087  0.25049961  1
  O  O4  1  0.93117025  0.75922479  0.17431473  1
  F  F5  1  0.49174021  0.26223954  0.66065374  1
  F  F6  1  0.08471793  0.75109396  0.73937096  1
  F  F7  1  0.51014405  0.76681770  0.33597240  1
