# generated using pymatgen
data_Li5Mn6(BO3)6
_symmetry_space_group_name_H-M   'P 1'
_cell_length_a   11.80934882
_cell_length_b   5.28214099
_cell_length_c   6.22034018
_cell_angle_alpha   87.78508987
_cell_angle_beta   94.32090413
_cell_angle_gamma   101.08966722
_symmetry_Int_Tables_number   1
_chemical_formula_structural   Li5Mn6(BO3)6
_chemical_formula_sum   'Li5 Mn6 B6 O18'
_cell_volume   379.57313823
_cell_formula_units_Z   1
loop_
 _symmetry_equiv_pos_site_id
 _symmetry_equiv_pos_as_xyz
  1  'x, y, z'
loop_
 _atom_site_type_symbol
 _atom_site_label
 _atom_site_symmetry_multiplicity
 _atom_site_fract_x
 _atom_site_fract_y
 _atom_site_fract_z
 _atom_site_occupancy
  Li  Li0  1  0.87189012  0.50401680  0.80929869  1
  Li  Li1  1  0.45908596  0.16163294  0.86074755  1
  Li  Li2  1  0.79650431  0.82898677  0.52623935  1
  Li  Li3  1  0.53763440  0.84366774  0.14144002  1
  Li  Li4  1  0.13688307  0.47995567  0.20946870  1
  Mn  Mn5  1  0.78326677  0.96663033  0.97764666  1
  Mn  Mn6  1  0.88389585  0.36613589  0.36053539  1
  Mn  Mn7  1  0.54929225  0.69961941  0.69041698  1
  Mn  Mn8  1  0.44712145  0.30670703  0.30993500  1
  Mn  Mn9  1  0.12267476  0.64045469  0.63874965  1
  Mn  Mn10  1  0.21017238  0.01775752  0.03707053  1
  B  B11  1  0.66397153  0.25839536  0.59555297  1
  B  B12  1  0.99800719  0.92307123  0.25909625  1
  B  B13  1  0.33174002  0.59420889  0.93042590  1
  B  B14  1  0.66754140  0.40823339  0.07152728  1
  B  B15  1  0.00334312  0.07537732  0.75590636  1
  B  B16  1  0.33572381  0.74371821  0.38318746  1
  O  O17  1  0.98707937  0.32265576  0.69491275  1
  O  O18  1  0.91033054  0.87864000  0.79098892  1
  O  O19  1  0.68456998  0.01007474  0.63845966  1
  O  O20  1  0.75339359  0.45620585  0.54280410  1
  O  O21  1  0.55258316  0.30858181  0.61659718  1
  O  O22  1  0.88838248  0.97653450  0.28707016  1
  O  O23  1  0.34455882  0.34121423  0.97452888  1
  O  O24  1  0.77818984  0.35484769  0.04992784  1
  O  O25  1  0.42209601  0.78626043  0.87628373  1
  O  O26  1  0.57754608  0.21378884  0.12506971  1
  O  O27  1  0.22273690  0.65539025  0.95658629  1
  O  O28  1  0.64848878  0.65822475  0.02885597  1
  O  O29  1  0.11480862  0.01341926  0.76498229  1
  O  O30  1  0.44880836  0.69824032  0.38118032  1
  O  O31  1  0.24961593  0.56181572  0.45738513  1
  O  O32  1  0.31598273  0.98288878  0.29498412  1
  O  O33  1  0.08133463  0.11860191  0.18277697  1
  O  O34  1  0.02081880  0.67797597  0.31077425  1
