# generated using pymatgen
data_Li4Ti3V2Cr3O16
_symmetry_space_group_name_H-M   'P 1'
_cell_length_a   5.91250063
_cell_length_b   5.93323814
_cell_length_c   9.55518995
_cell_angle_alpha   90.01602232
_cell_angle_beta   90.75089617
_cell_angle_gamma   120.11579536
_symmetry_Int_Tables_number   1
_chemical_formula_structural   Li4Ti3V2Cr3O16
_chemical_formula_sum   'Li4 Ti3 V2 Cr3 O16'
_cell_volume   289.91725694
_cell_formula_units_Z   1
loop_
 _symmetry_equiv_pos_site_id
 _symmetry_equiv_pos_as_xyz
  1  'x, y, z'
loop_
 _atom_site_type_symbol
 _atom_site_label
 _atom_site_symmetry_multiplicity
 _atom_site_fract_x
 _atom_site_fract_y
 _atom_site_fract_z
 _atom_site_occupancy
  Li  Li0  1  0.33250515  0.66650813  0.89130459  1
  Li  Li1  1  0.99226719  0.99578878  0.99315172  1
  Li  Li2  1  0.99571942  0.99776351  0.49791674  1
  Li  Li3  1  0.66852236  0.33442556  0.39794321  1
  Ti  Ti4  1  0.17081145  0.83447768  0.21452803  1
  Ti  Ti5  1  0.17013653  0.33630373  0.21460226  1
  Ti  Ti6  1  0.34642819  0.17367174  0.71910455  1
  V  V7  1  0.34286718  0.67144868  0.49307184  1
  V  V8  1  0.67529112  0.33766399  0.98636382  1
  Cr  Cr9  1  0.65867095  0.82915045  0.21246243  1
  Cr  Cr10  1  0.83556024  0.65937325  0.71313131  1
  Cr  Cr11  1  0.83524287  0.17603495  0.71320270  1
  O  O12  1  0.16854725  0.83410092  0.59622791  1
  O  O13  1  0.04444206  0.52216479  0.34035216  1
  O  O14  1  0.31846415  0.65909568  0.10352427  1
  O  O15  1  0.00260728  0.00123562  0.31168012  1
  O  O16  1  0.00719704  0.00366262  0.80699406  1
  O  O17  1  0.16851646  0.33439699  0.59629949  1
  O  O18  1  0.47520625  0.95837432  0.34085726  1
  O  O19  1  0.47508828  0.51673596  0.34083540  1
  O  O20  1  0.32423970  0.16196611  0.10738632  1
  O  O21  1  0.65283532  0.82634776  0.59379804  1
  O  O22  1  0.51669040  0.47717629  0.84015610  1
  O  O23  1  0.51652327  0.03987007  0.84014531  1
  O  O24  1  0.65485063  0.32741378  0.60353421  1
  O  O25  1  0.84184710  0.67371507  0.10115638  1
  O  O26  1  0.96715245  0.48362734  0.83701055  1
  O  O27  1  0.84176871  0.16780824  0.10110023  1
