# generated using pymatgen
data_Gd3NbO7
_symmetry_space_group_name_H-M   'P 1'
_cell_length_a   6.55239851
_cell_length_b   6.55239851
_cell_length_c   7.60520160
_cell_angle_alpha   90.00000000
_cell_angle_beta   90.00000000
_cell_angle_gamma   110.71412290
_symmetry_Int_Tables_number   1
_chemical_formula_structural   Gd3NbO7
_chemical_formula_sum   'Gd6 Nb2 O14'
_cell_volume   305.41381593
_cell_formula_units_Z   2
loop_
 _symmetry_equiv_pos_site_id
 _symmetry_equiv_pos_as_xyz
  1  'x, y, z'
loop_
 _atom_site_type_symbol
 _atom_site_label
 _atom_site_symmetry_multiplicity
 _atom_site_fract_x
 _atom_site_fract_y
 _atom_site_fract_z
 _atom_site_occupancy
  Gd  Gd0  1  0.06060383  0.51884022  0.25000000  1
  Gd  Gd1  1  0.48115978  0.93939617  0.75000000  1
  Gd  Gd2  1  0.00000000  0.00000000  0.00000000  1
  Gd  Gd3  1  0.00000000  0.00000000  0.50000000  1
  Gd  Gd4  1  0.51884022  0.06060383  0.25000000  1
  Gd  Gd5  1  0.93939617  0.48115978  0.75000000  1
  Nb  Nb6  1  0.50000000  0.50000000  0.00000000  1
  Nb  Nb7  1  0.50000000  0.50000000  0.50000000  1
  O  O8  1  0.10920192  0.84558990  0.75000000  1
  O  O9  1  0.15441010  0.89079808  0.25000000  1
  O  O10  1  0.17972166  0.43743704  0.53737566  1
  O  O11  1  0.56256296  0.82027834  0.03737566  1
  O  O12  1  0.56256296  0.82027834  0.46262434  1
  O  O13  1  0.17972166  0.43743704  0.96262434  1
  O  O14  1  0.58068681  0.58068681  0.75000000  1
  O  O15  1  0.41931319  0.41931319  0.25000000  1
  O  O16  1  0.43743704  0.17972166  0.96262434  1
  O  O17  1  0.82027834  0.56256296  0.03737566  1
  O  O18  1  0.43743704  0.17972166  0.53737566  1
  O  O19  1  0.82027834  0.56256296  0.46262434  1
  O  O20  1  0.84558990  0.10920192  0.75000000  1
  O  O21  1  0.89079808  0.15441010  0.25000000  1
