# generated using pymatgen
data_LiFePH2O5
_symmetry_space_group_name_H-M   'P 1'
_cell_length_a   10.30561681
_cell_length_b   16.89628816
_cell_length_c   5.08747097
_cell_angle_alpha   90.00000000
_cell_angle_beta   90.00000000
_cell_angle_gamma   90.00000000
_symmetry_Int_Tables_number   1
_chemical_formula_structural   LiFePH2O5
_chemical_formula_sum   'Li8 Fe8 P8 H16 O40'
_cell_volume   885.86438528
_cell_formula_units_Z   8
loop_
 _symmetry_equiv_pos_site_id
 _symmetry_equiv_pos_as_xyz
  1  'x, y, z'
loop_
 _atom_site_type_symbol
 _atom_site_label
 _atom_site_symmetry_multiplicity
 _atom_site_fract_x
 _atom_site_fract_y
 _atom_site_fract_z
 _atom_site_occupancy
  Li  Li0  1  0.17558473  0.49593195  0.47066831  1
  Li  Li1  1  0.17558473  0.99593195  0.52933169  1
  Li  Li2  1  0.39569508  0.24729423  0.91172474  1
  Li  Li3  1  0.39569508  0.74729423  0.08827526  1
  Li  Li4  1  0.67558473  0.00406805  0.47066831  1
  Li  Li5  1  0.67558473  0.50406805  0.52933169  1
  Li  Li6  1  0.89569508  0.75270577  0.08827526  1
  Li  Li7  1  0.89569508  0.25270577  0.91172474  1
  Fe  Fe8  1  0.14705429  0.68894993  0.45735752  1
  Fe  Fe9  1  0.14705429  0.18894993  0.54264248  1
  Fe  Fe10  1  0.42151134  0.94220104  0.11385558  1
  Fe  Fe11  1  0.42151134  0.44220104  0.88614442  1
  Fe  Fe12  1  0.64705429  0.31105007  0.54264248  1
  Fe  Fe13  1  0.64705429  0.81105007  0.45735752  1
  Fe  Fe14  1  0.92151134  0.55779896  0.11385558  1
  Fe  Fe15  1  0.92151134  0.05779896  0.88614442  1
  P  P16  1  0.22760634  0.09182890  0.01478443  1
  P  P17  1  0.22760634  0.59182890  0.98521557  1
  P  P18  1  0.34502762  0.34098328  0.41064055  1
  P  P19  1  0.34502762  0.84098328  0.58935945  1
  P  P20  1  0.72760634  0.40817110  0.01478443  1
  P  P21  1  0.72760634  0.90817110  0.98521557  1
  P  P22  1  0.84502762  0.65901672  0.58935945  1
  P  P23  1  0.84502762  0.15901672  0.41064055  1
  H  H24  1  0.00312426  0.37161138  0.09159094  1
  H  H25  1  0.00312426  0.87161138  0.90840906  1
  H  H26  1  0.05205695  0.38061027  0.63608650  1
  H  H27  1  0.05205695  0.88061027  0.36391350  1
  H  H28  1  0.11071948  0.30796169  0.13443868  1
  H  H29  1  0.11071948  0.80796169  0.86556132  1
  H  H30  1  0.44859786  0.05341891  0.62394911  1
  H  H31  1  0.44859786  0.55341891  0.37605089  1
  H  H32  1  0.50312426  0.12838862  0.09159094  1
  H  H33  1  0.50312426  0.62838862  0.90840906  1
  H  H34  1  0.55205695  0.61938973  0.36391350  1
  H  H35  1  0.55205695  0.11938973  0.63608650  1
  H  H36  1  0.61071948  0.69203831  0.86556132  1
  H  H37  1  0.61071948  0.19203831  0.13443868  1
  H  H38  1  0.94859786  0.44658109  0.62394911  1
  H  H39  1  0.94859786  0.94658109  0.37605089  1
  O  O40  1  0.02490800  0.42619450  0.52937654  1
  O  O41  1  0.02490800  0.92619450  0.47062346  1
  O  O42  1  0.03962252  0.32344258  0.01320431  1
  O  O43  1  0.03962252  0.82344258  0.98679569  1
  O  O44  1  0.11779507  0.04796582  0.86031761  1
  O  O45  1  0.11779507  0.54796582  0.13968239  1
  O  O46  1  0.19411742  0.09443798  0.31224212  1
  O  O47  1  0.19411742  0.59443798  0.68775788  1
  O  O48  1  0.21667875  0.79426919  0.57847089  1
  O  O49  1  0.21667875  0.29426919  0.42152911  1
  O  O50  1  0.24151764  0.17664020  0.89771328  1
  O  O51  1  0.24151764  0.67664020  0.10228672  1
  O  O52  1  0.32603390  0.92496858  0.46583112  1
  O  O53  1  0.32603390  0.42496858  0.53416888  1
  O  O54  1  0.35609555  0.04629323  0.96991459  1
  O  O55  1  0.35609555  0.54629323  0.03008541  1
  O  O56  1  0.38933404  0.34709403  0.12037429  1
  O  O57  1  0.38933404  0.84709403  0.87962571  1
  O  O58  1  0.45133018  0.29731129  0.57545943  1
  O  O59  1  0.45133018  0.79731129  0.42454057  1
  O  O60  1  0.52490800  0.57380550  0.47062346  1
  O  O61  1  0.52490800  0.07380550  0.52937654  1
  O  O62  1  0.53962252  0.67655742  0.98679569  1
  O  O63  1  0.53962252  0.17655742  0.01320431  1
  O  O64  1  0.61779507  0.95203418  0.13968239  1
  O  O65  1  0.61779507  0.45203418  0.86031761  1
  O  O66  1  0.69411742  0.90556202  0.68775788  1
  O  O67  1  0.69411742  0.40556202  0.31224212  1
  O  O68  1  0.71667875  0.20573081  0.42152911  1
  O  O69  1  0.71667875  0.70573081  0.57847089  1
  O  O70  1  0.74151764  0.82335980  0.10228672  1
  O  O71  1  0.74151764  0.32335980  0.89771328  1
  O  O72  1  0.82603390  0.57503142  0.46583112  1
  O  O73  1  0.82603390  0.07503142  0.53416888  1
  O  O74  1  0.85609555  0.45370677  0.96991459  1
  O  O75  1  0.85609555  0.95370677  0.03008541  1
  O  O76  1  0.88933404  0.65290597  0.87962571  1
  O  O77  1  0.88933404  0.15290597  0.12037429  1
  O  O78  1  0.95133018  0.70268871  0.42454057  1
  O  O79  1  0.95133018  0.20268871  0.57545943  1
