# generated using pymatgen
data_Li2Mn2P4H6O17
_symmetry_space_group_name_H-M   'P 1'
_cell_length_a   9.32940875
_cell_length_b   9.06539502
_cell_length_c   8.74086873
_cell_angle_alpha   90.04404357
_cell_angle_beta   100.11588843
_cell_angle_gamma   63.30066795
_symmetry_Int_Tables_number   1
_chemical_formula_structural   Li2Mn2P4H6O17
_chemical_formula_sum   'Li4 Mn4 P8 H12 O34'
_cell_volume   647.59640689
_cell_formula_units_Z   2
loop_
 _symmetry_equiv_pos_site_id
 _symmetry_equiv_pos_as_xyz
  1  'x, y, z'
loop_
 _atom_site_type_symbol
 _atom_site_label
 _atom_site_symmetry_multiplicity
 _atom_site_fract_x
 _atom_site_fract_y
 _atom_site_fract_z
 _atom_site_occupancy
  Li  Li0  1  0.88720625  0.19761292  0.24528799  1
  Li  Li1  1  0.48230203  0.73510708  0.67921564  1
  Li  Li2  1  0.51769797  0.26489292  0.32078436  1
  Li  Li3  1  0.11279375  0.80238708  0.75471201  1
  Mn  Mn4  1  0.75324965  0.70915688  0.13262043  1
  Mn  Mn5  1  0.73374802  0.22028583  0.62750068  1
  Mn  Mn6  1  0.26625198  0.77971417  0.37249932  1
  Mn  Mn7  1  0.24675035  0.29084312  0.86737957  1
  P  P8  1  0.85696949  0.91242345  0.41102405  1
  P  P9  1  0.83939325  0.41275734  0.89529328  1
  P  P10  1  0.69587832  0.55114567  0.42976343  1
  P  P11  1  0.35012073  0.99101197  0.13995794  1
  P  P12  1  0.64987927  0.00898803  0.86004206  1
  P  P13  1  0.30412168  0.44885433  0.57023657  1
  P  P14  1  0.16060675  0.58724266  0.10470672  1
  P  P15  1  0.14303051  0.08757655  0.58897595  1
  H  H16  1  0.95178450  0.80043228  0.97459782  1
  H  H17  1  0.89136111  0.71071501  0.57049640  1
  H  H18  1  0.89123352  0.49405694  0.65603321  1
  H  H19  1  0.44289436  0.01644226  0.70441365  1
  H  H20  1  0.60444526  0.40055633  0.11997144  1
  H  H21  1  0.59198872  0.24184948  0.05431490  1
  H  H22  1  0.40801128  0.75815052  0.94568510  1
  H  H23  1  0.39555474  0.59944367  0.88002856  1
  H  H24  1  0.55710564  0.98355774  0.29558635  1
  H  H25  1  0.10876648  0.50594306  0.34396679  1
  H  H26  1  0.10863889  0.28928499  0.42950360  1
  H  H27  1  0.04821550  0.19956772  0.02540218  1
  O  O28  1  0.98599805  0.92477731  0.33604248  1
  O  O29  1  0.94063115  0.79000400  0.56725852  1
  O  O30  1  0.74776428  0.84660670  0.30763808  1
  O  O31  1  0.97365125  0.41312570  0.81528388  1
  O  O32  1  0.92786653  0.26739913  0.03335314  1
  O  O33  1  0.77012945  0.87046035  0.99052353  1
  O  O34  1  0.82891665  0.57429433  0.55573792  1
  O  O35  1  0.74745574  0.54297948  0.26903584  1
  O  O36  1  0.55978278  0.92868673  0.74074257  1
  O  O37  1  0.48095199  0.84344996  0.07919251  1
  O  O38  1  0.73916359  0.57750079  0.95949851  1
  O  O39  1  0.70830550  0.37801822  0.46081984  1
  O  O40  1  0.53144159  0.69348552  0.44000338  1
  O  O41  1  0.71020709  0.38552057  0.77856571  1
  O  O42  1  0.63481045  0.28520559  0.14898987  1
  O  O43  1  0.73090902  0.08197476  0.45104862  1
  O  O44  1  0.76381299  0.05138124  0.78240601  1
  O  O45  1  0.23618701  0.94861876  0.21759399  1
  O  O46  1  0.26909098  0.91802524  0.54895138  1
  O  O47  1  0.36518955  0.71479441  0.85101013  1
  O  O48  1  0.28979291  0.61447943  0.22143429  1
  O  O49  1  0.46855841  0.30651448  0.55999662  1
  O  O50  1  0.29169450  0.62198178  0.53918016  1
  O  O51  1  0.26083641  0.42249921  0.04050149  1
  O  O52  1  0.51904801  0.15655004  0.92080749  1
  O  O53  1  0.44021722  0.07131327  0.25925743  1
  O  O54  1  0.25254426  0.45702052  0.73096416  1
  O  O55  1  0.17108335  0.42570567  0.44426208  1
  O  O56  1  0.22987055  0.12953965  0.00947647  1
  O  O57  1  0.07213347  0.73260087  0.96664686  1
  O  O58  1  0.02634875  0.58687430  0.18471612  1
  O  O59  1  0.25223572  0.15339330  0.69236192  1
  O  O60  1  0.05936885  0.20999600  0.43274148  1
  O  O61  1  0.01400195  0.07522269  0.66395752  1
