# generated using pymatgen
data_Cu3(NiO3)4
_symmetry_space_group_name_H-M   'P 1'
_cell_length_a   6.30234020
_cell_length_b   6.30613955
_cell_length_c   6.30363493
_cell_angle_alpha   109.46875345
_cell_angle_beta   109.46755481
_cell_angle_gamma   109.47474849
_symmetry_Int_Tables_number   1
_chemical_formula_structural   Cu3(NiO3)4
_chemical_formula_sum   'Cu3 Ni4 O12'
_cell_volume   192.86283367
_cell_formula_units_Z   1
loop_
 _symmetry_equiv_pos_site_id
 _symmetry_equiv_pos_as_xyz
  1  'x, y, z'
loop_
 _atom_site_type_symbol
 _atom_site_label
 _atom_site_symmetry_multiplicity
 _atom_site_fract_x
 _atom_site_fract_y
 _atom_site_fract_z
 _atom_site_occupancy
  Cu  Cu0  1  0.50002033  0.49999053  0.00002067  1
  Cu  Cu1  1  0.00001088  0.50002221  0.50003922  1
  Cu  Cu2  1  0.50010849  0.99999532  0.50008192  1
  Ni  Ni3  1  0.00000084  0.00000773  0.49999455  1
  Ni  Ni4  1  0.99999909  0.50000107  0.99999740  1
  Ni  Ni5  1  0.49998202  0.49999598  0.49999627  1
  Ni  Ni6  1  0.49998347  0.99999083  0.99998871  1
  O  O7  1  0.82572290  0.31918585  0.14520174  1
  O  O8  1  0.17423417  0.68075193  0.85469946  1
  O  O9  1  0.82579688  0.68052055  0.50658732  1
  O  O10  1  0.31955363  0.49371069  0.17435914  1
  O  O11  1  0.49356028  0.17409417  0.31934864  1
  O  O12  1  0.14513247  0.82583944  0.31947634  1
  O  O13  1  0.68056878  0.85467801  0.17420729  1
  O  O14  1  0.50647510  0.82597505  0.68062016  1
  O  O15  1  0.17420934  0.31950105  0.49344979  1
  O  O16  1  0.68044945  0.50631699  0.82567840  1
  O  O17  1  0.85474257  0.17409556  0.68046414  1
  O  O18  1  0.31944731  0.14532605  0.82578785  1
