# generated using pymatgen
data_Li5Mn6(BO3)6
_symmetry_space_group_name_H-M   'P 1'
_cell_length_a   12.92829344
_cell_length_b   5.26404260
_cell_length_c   6.21161320
_cell_angle_alpha   64.65526734
_cell_angle_beta   84.82911516
_cell_angle_gamma   88.89719824
_symmetry_Int_Tables_number   1
_chemical_formula_structural   Li5Mn6(BO3)6
_chemical_formula_sum   'Li5 Mn6 B6 O18'
_cell_volume   380.40077421
_cell_formula_units_Z   1
loop_
 _symmetry_equiv_pos_site_id
 _symmetry_equiv_pos_as_xyz
  1  'x, y, z'
loop_
 _atom_site_type_symbol
 _atom_site_label
 _atom_site_symmetry_multiplicity
 _atom_site_fract_x
 _atom_site_fract_y
 _atom_site_fract_z
 _atom_site_occupancy
  Li  Li0  1  0.25302681  0.12447237  0.06407051  1
  Li  Li1  1  0.07008294  0.54961141  0.58614248  1
  Li  Li2  1  0.41156324  0.21052957  0.26597326  1
  Li  Li3  1  0.59107108  0.79017087  0.72893997  1
  Li  Li4  1  0.74806917  0.86977924  0.93665219  1
  Mn  Mn5  1  0.12759596  0.62427878  0.10874224  1
  Mn  Mn6  1  0.19982700  0.04711579  0.55897174  1
  Mn  Mn7  1  0.53315256  0.71235413  0.22599711  1
  Mn  Mn8  1  0.46378240  0.28612390  0.77037712  1
  Mn  Mn9  1  0.81111126  0.96077914  0.43893608  1
  Mn  Mn10  1  0.86614832  0.37046552  0.88223438  1
  B  B11  1  0.02473043  0.06810183  0.21176645  1
  B  B12  1  0.30714534  0.61309284  0.42807452  1
  B  B13  1  0.64397006  0.28056612  0.09791700  1
  B  B14  1  0.35697930  0.71929124  0.90444835  1
  B  B15  1  0.69082436  0.38016835  0.59300091  1
  B  B16  1  0.97691770  0.93862650  0.76909943  1
  O  O17  1  0.01865079  0.78797786  0.27379057  1
  O  O18  1  0.11850459  0.20182512  0.19577566  1
  O  O19  1  0.06822129  0.79949176  0.75675060  1
  O  O20  1  0.21175776  0.47776176  0.46489909  1
  O  O21  1  0.31393264  0.89226759  0.38638322  1
  O  O22  1  0.39894017  0.46629330  0.42423690  1
  O  O23  1  0.54921485  0.14256412  0.13242290  1
  O  O24  1  0.26587255  0.86454966  0.90974715  1
  O  O25  1  0.64911399  0.55890428  0.05643944  1
  O  O26  1  0.35224439  0.44000288  0.94541091  1
  O  O27  1  0.73633333  0.13421535  0.09419928  1
  O  O28  1  0.45328945  0.85519789  0.86696174  1
  O  O29  1  0.59856971  0.52816557  0.57421183  1
  O  O30  1  0.69149359  0.10985914  0.61355247  1
  O  O31  1  0.78137144  0.51746677  0.60109844  1
  O  O32  1  0.93067930  0.22038007  0.18482757  1
  O  O33  1  0.88217926  0.80322548  0.79232028  1
  O  O34  1  0.98156197  0.21040282  0.74621223  1
