# generated using pymatgen
data_Na2Sb4O11
_symmetry_space_group_name_H-M   'P 1'
_cell_length_a   6.32597231
_cell_length_b   6.32119134
_cell_length_c   12.56611909
_cell_angle_alpha   75.42350899
_cell_angle_beta   90.00000000
_cell_angle_gamma   59.97497205
_symmetry_Int_Tables_number   1
_chemical_formula_structural   Na2Sb4O11
_chemical_formula_sum   'Na4 Sb8 O22'
_cell_volume   416.27364065
_cell_formula_units_Z   2
loop_
 _symmetry_equiv_pos_site_id
 _symmetry_equiv_pos_as_xyz
  1  'x, y, z'
loop_
 _atom_site_type_symbol
 _atom_site_label
 _atom_site_symmetry_multiplicity
 _atom_site_fract_x
 _atom_site_fract_y
 _atom_site_fract_z
 _atom_site_occupancy
  Na  Na0  1  0.33197443  0.83470412  0.99710054  1
  Na  Na1  1  0.83332145  0.83470412  0.49710054  1
  Na  Na2  1  0.16667855  0.16529588  0.50289946  1
  Na  Na3  1  0.66802557  0.16529588  0.00289946  1
  Sb  Sb4  1  0.61020678  0.64064965  0.74974972  1
  Sb  Sb5  1  0.25085543  0.35935035  0.75025028  1
  Sb  Sb6  1  0.50000000  0.50000000  0.50000000  1
  Sb  Sb7  1  0.74914457  0.64064965  0.24974972  1
  Sb  Sb8  1  0.38979322  0.35935035  0.25025028  1
  Sb  Sb9  1  0.00000000  0.50000000  0.00000000  1
  Sb  Sb10  1  0.89185926  0.00000000  0.75000000  1
  Sb  Sb11  1  0.10814074  0.00000000  0.25000000  1
  O  O12  1  0.95008855  0.84356078  0.91363593  1
  O  O13  1  0.25111520  0.74132029  0.75031656  1
  O  O14  1  0.90674320  0.68813650  0.71834667  1
  O  O15  1  0.70885152  0.53389712  0.91334043  1
  O  O16  1  0.20635067  0.84356078  0.41363593  1
  O  O17  1  0.55159001  0.70679548  0.58606888  1
  O  O18  1  0.00756551  0.74132029  0.25031756  1
  O  O19  1  0.25838650  0.29320452  0.91393112  1
  O  O20  1  0.24274864  0.46610288  0.58665957  1
  O  O21  1  0.59487970  0.31186350  0.78165333  1
  O  O22  1  0.40512030  0.68813650  0.21834667  1
  O  O23  1  0.75725136  0.53389712  0.41334043  1
  O  O24  1  0.74161350  0.70679548  0.08606888  1
  O  O25  1  0.99243449  0.25867971  0.74968344  1
  O  O26  1  0.44840999  0.29320452  0.41393112  1
  O  O27  1  0.79364933  0.15643922  0.58636407  1
  O  O28  1  0.29114848  0.46610288  0.08665957  1
  O  O29  1  0.09325680  0.31186350  0.28165333  1
  O  O30  1  0.50830306  1.00000000  0.75000000  1
  O  O31  1  0.74888480  0.25867971  0.24968344  1
  O  O32  1  0.04991145  0.15643922  0.08636407  1
  O  O33  1  0.49169694  0.00000000  0.25000000  1
