# generated using pymatgen
data_Al2(SeO4)3
_symmetry_space_group_name_H-M   'P 1'
_cell_length_a   12.20260047
_cell_length_b   8.70960925
_cell_length_c   8.78209279
_cell_angle_alpha   90.00000000
_cell_angle_beta   90.00000000
_cell_angle_gamma   90.00000000
_symmetry_Int_Tables_number   1
_chemical_formula_structural   Al2(SeO4)3
_chemical_formula_sum   'Al8 Se12 O48'
_cell_volume   933.35978480
_cell_formula_units_Z   4
loop_
 _symmetry_equiv_pos_site_id
 _symmetry_equiv_pos_as_xyz
  1  'x, y, z'
loop_
 _atom_site_type_symbol
 _atom_site_label
 _atom_site_symmetry_multiplicity
 _atom_site_fract_x
 _atom_site_fract_y
 _atom_site_fract_z
 _atom_site_occupancy
  Al  Al0  1  0.11556767  0.24872404  0.96418488  1
  Al  Al1  1  0.11556767  0.75127596  0.46418488  1
  Al  Al2  1  0.38443233  0.25127596  0.46418488  1
  Al  Al3  1  0.38443233  0.74872404  0.96418488  1
  Al  Al4  1  0.61556767  0.25127596  0.03581512  1
  Al  Al5  1  0.61556767  0.74872404  0.53581512  1
  Al  Al6  1  0.88443233  0.24872404  0.53581512  1
  Al  Al7  1  0.88443233  0.75127596  0.03581512  1
  Se  Se8  1  0.00000000  0.47615779  0.25000000  1
  Se  Se9  1  0.00000000  0.52384221  0.75000000  1
  Se  Se10  1  0.14799814  0.10367061  0.61748244  1
  Se  Se11  1  0.14799814  0.89632939  0.11748244  1
  Se  Se12  1  0.35200186  0.39632939  0.11748244  1
  Se  Se13  1  0.35200186  0.60367061  0.61748244  1
  Se  Se14  1  0.50000000  0.02384221  0.75000000  1
  Se  Se15  1  0.50000000  0.97615779  0.25000000  1
  Se  Se16  1  0.64799814  0.39632939  0.38251756  1
  Se  Se17  1  0.64799814  0.60367061  0.88251756  1
  Se  Se18  1  0.85200186  0.10367061  0.88251756  1
  Se  Se19  1  0.85200186  0.89632939  0.38251756  1
  O  O20  1  0.02982211  0.81782154  0.06917073  1
  O  O21  1  0.02982211  0.18217846  0.56917073  1
  O  O22  1  0.06893866  0.63236117  0.63089730  1
  O  O23  1  0.06893866  0.36763883  0.13089730  1
  O  O24  1  0.09871932  0.58013913  0.33092726  1
  O  O25  1  0.09871932  0.41986087  0.83092726  1
  O  O26  1  0.14433706  0.08637926  0.10377106  1
  O  O27  1  0.14433706  0.91362074  0.60377106  1
  O  O28  1  0.17619439  0.13081694  0.80159762  1
  O  O29  1  0.17619439  0.86918306  0.30159762  1
  O  O30  1  0.23690053  0.18289359  0.49821303  1
  O  O31  1  0.23690053  0.81710641  0.99821303  1
  O  O32  1  0.26309947  0.31710641  0.99821303  1
  O  O33  1  0.26309947  0.68289359  0.49821303  1
  O  O34  1  0.32380561  0.36918306  0.30159762  1
  O  O35  1  0.32380561  0.63081694  0.80159762  1
  O  O36  1  0.35566294  0.41362074  0.60377106  1
  O  O37  1  0.35566294  0.58637926  0.10377106  1
  O  O38  1  0.40128068  0.08013913  0.33092726  1
  O  O39  1  0.40128068  0.91986087  0.83092726  1
  O  O40  1  0.43106134  0.13236117  0.63089730  1
  O  O41  1  0.43106134  0.86763883  0.13089730  1
  O  O42  1  0.47017789  0.31782154  0.06917073  1
  O  O43  1  0.47017789  0.68217846  0.56917073  1
  O  O44  1  0.52982211  0.31782154  0.43082927  1
  O  O45  1  0.52982211  0.68217846  0.93082927  1
  O  O46  1  0.56893866  0.13236117  0.86910270  1
  O  O47  1  0.56893866  0.86763883  0.36910270  1
  O  O48  1  0.59871932  0.08013913  0.16907274  1
  O  O49  1  0.59871932  0.91986087  0.66907274  1
  O  O50  1  0.64433706  0.41362074  0.89622894  1
  O  O51  1  0.64433706  0.58637926  0.39622894  1
  O  O52  1  0.67619439  0.36918306  0.19840238  1
  O  O53  1  0.67619439  0.63081694  0.69840238  1
  O  O54  1  0.73690053  0.31710641  0.50178697  1
  O  O55  1  0.73690053  0.68289359  0.00178697  1
  O  O56  1  0.76309947  0.18289359  0.00178697  1
  O  O57  1  0.76309947  0.81710641  0.50178697  1
  O  O58  1  0.82380561  0.13081694  0.69840238  1
  O  O59  1  0.82380561  0.86918306  0.19840238  1
  O  O60  1  0.85566294  0.08637926  0.39622894  1
  O  O61  1  0.85566294  0.91362074  0.89622894  1
  O  O62  1  0.90128068  0.41986087  0.66907274  1
  O  O63  1  0.90128068  0.58013913  0.16907274  1
  O  O64  1  0.93106134  0.36763883  0.36910270  1
  O  O65  1  0.93106134  0.63236117  0.86910270  1
  O  O66  1  0.97017789  0.18217846  0.93082927  1
  O  O67  1  0.97017789  0.81782154  0.43082927  1
