# generated using pymatgen
data_V3(O2F)2
_symmetry_space_group_name_H-M   'P 1'
_cell_length_a   4.69413453
_cell_length_b   7.66450092
_cell_length_c   5.63377304
_cell_angle_alpha   94.40460113
_cell_angle_beta   92.83215416
_cell_angle_gamma   87.18235043
_symmetry_Int_Tables_number   1
_chemical_formula_structural   V3(O2F)2
_chemical_formula_sum   'V6 O8 F4'
_cell_volume   201.63799199
_cell_formula_units_Z   2
loop_
 _symmetry_equiv_pos_site_id
 _symmetry_equiv_pos_as_xyz
  1  'x, y, z'
loop_
 _atom_site_type_symbol
 _atom_site_label
 _atom_site_symmetry_multiplicity
 _atom_site_fract_x
 _atom_site_fract_y
 _atom_site_fract_z
 _atom_site_occupancy
  V  V0  1  0.49527703  0.66606283  0.17058569  1
  V  V1  1  0.52427534  0.00806197  0.48164200  1
  V  V2  1  0.51831115  0.33741060  0.81826809  1
  V  V3  1  0.99470167  0.65889322  0.67328224  1
  V  V4  1  0.96994004  0.32649857  0.34790249  1
  V  V5  1  0.99378405  0.00419836  0.00814946  1
  O  O6  1  0.80625034  0.43327939  0.62647133  1
  O  O7  1  0.79953988  0.10495781  0.29843980  1
  O  O8  1  0.69782222  0.09655324  0.78957724  1
  O  O9  1  0.69007834  0.77694696  0.47431061  1
  O  O10  1  0.71395179  0.43237587  0.14098165  1
  O  O11  1  0.30791564  0.56781397  0.87054702  1
  O  O12  1  0.29763979  0.22487741  0.51610069  1
  O  O13  1  0.30245903  0.90085893  0.20201746  1
  F  F14  1  0.80301909  0.76639689  0.97277714  1
  F  F15  1  0.19891489  0.23610666  0.03427683  1
  F  F16  1  0.19309590  0.89808675  0.70471831  1
  F  F17  1  0.19302681  0.56062256  0.36995194  1
