# generated using pymatgen
data_Na5GdO4
_symmetry_space_group_name_H-M   'P 1'
_cell_length_a   10.99416443
_cell_length_b   10.88045113
_cell_length_c   11.01851626
_cell_angle_alpha   90.00000000
_cell_angle_beta   90.00000000
_cell_angle_gamma   90.00000000
_symmetry_Int_Tables_number   1
_chemical_formula_structural   Na5GdO4
_chemical_formula_sum   'Na40 Gd8 O32'
_cell_volume   1318.05109897
_cell_formula_units_Z   8
loop_
 _symmetry_equiv_pos_site_id
 _symmetry_equiv_pos_as_xyz
  1  'x, y, z'
loop_
 _atom_site_type_symbol
 _atom_site_label
 _atom_site_symmetry_multiplicity
 _atom_site_fract_x
 _atom_site_fract_y
 _atom_site_fract_z
 _atom_site_occupancy
  Na  Na0  1  0.10642911  0.82941405  0.12014108  1
  Na  Na1  1  0.10642911  0.67058595  0.62014108  1
  Na  Na2  1  0.11079606  0.14076046  0.40005172  1
  Na  Na3  1  0.11079606  0.35923954  0.90005172  1
  Na  Na4  1  0.11682853  0.39896429  0.15975278  1
  Na  Na5  1  0.11682853  0.10103571  0.65975278  1
  Na  Na6  1  0.13039072  0.59907051  0.35456784  1
  Na  Na7  1  0.13039072  0.90092949  0.85456784  1
  Na  Na8  1  0.14723129  0.87017255  0.38065360  1
  Na  Na9  1  0.14723129  0.62982745  0.88065360  1
  Na  Na10  1  0.35276871  0.12982745  0.88065360  1
  Na  Na11  1  0.35276871  0.37017255  0.38065360  1
  Na  Na12  1  0.36960928  0.09907051  0.35456784  1
  Na  Na13  1  0.36960928  0.40092949  0.85456784  1
  Na  Na14  1  0.38317147  0.60103571  0.65975278  1
  Na  Na15  1  0.38317147  0.89896429  0.15975278  1
  Na  Na16  1  0.38920394  0.64076046  0.40005172  1
  Na  Na17  1  0.38920394  0.85923954  0.90005172  1
  Na  Na18  1  0.39357089  0.17058595  0.62014108  1
  Na  Na19  1  0.39357089  0.32941405  0.12014108  1
  Na  Na20  1  0.60642911  0.67058595  0.87985892  1
  Na  Na21  1  0.60642911  0.82941405  0.37985892  1
  Na  Na22  1  0.61079606  0.14076046  0.09994828  1
  Na  Na23  1  0.61079606  0.35923954  0.59994828  1
  Na  Na24  1  0.61682853  0.39896429  0.34024722  1
  Na  Na25  1  0.61682853  0.10103571  0.84024722  1
  Na  Na26  1  0.63039072  0.59907051  0.14543216  1
  Na  Na27  1  0.63039072  0.90092949  0.64543216  1
  Na  Na28  1  0.64723129  0.62982745  0.61934640  1
  Na  Na29  1  0.64723129  0.87017255  0.11934640  1
  Na  Na30  1  0.85276871  0.12982745  0.61934640  1
  Na  Na31  1  0.85276871  0.37017255  0.11934640  1
  Na  Na32  1  0.86960928  0.09907051  0.14543216  1
  Na  Na33  1  0.86960928  0.40092949  0.64543216  1
  Na  Na34  1  0.88317147  0.60103571  0.84024722  1
  Na  Na35  1  0.88317147  0.89896429  0.34024722  1
  Na  Na36  1  0.88920394  0.64076046  0.09994828  1
  Na  Na37  1  0.88920394  0.85923954  0.59994828  1
  Na  Na38  1  0.89357089  0.17058595  0.87985892  1
  Na  Na39  1  0.89357089  0.32941405  0.37985892  1
  Gd  Gd40  1  0.14651843  0.11606994  0.11927699  1
  Gd  Gd41  1  0.14651843  0.38393006  0.61927699  1
  Gd  Gd42  1  0.35348157  0.88393006  0.61927699  1
  Gd  Gd43  1  0.35348157  0.61606994  0.11927699  1
  Gd  Gd44  1  0.64651843  0.11606994  0.38072301  1
  Gd  Gd45  1  0.64651843  0.38393006  0.88072301  1
  Gd  Gd46  1  0.85348157  0.61606994  0.38072301  1
  Gd  Gd47  1  0.85348157  0.88393006  0.88072301  1
  O  O48  1  0.00961789  0.24013968  0.04070730  1
  O  O49  1  0.00961789  0.25986032  0.54070730  1
  O  O50  1  0.04021961  0.00159355  0.24111887  1
  O  O51  1  0.04021961  0.49840645  0.74111887  1
  O  O52  1  0.25140763  0.98416738  0.00885525  1
  O  O53  1  0.25140763  0.51583262  0.50885525  1
  O  O54  1  0.24652850  0.23413305  0.24517226  1
  O  O55  1  0.24652850  0.26586695  0.74517226  1
  O  O56  1  0.25347150  0.73413305  0.24517226  1
  O  O57  1  0.25347150  0.76586695  0.74517226  1
  O  O58  1  0.24859237  0.01583262  0.50885525  1
  O  O59  1  0.24859237  0.48416738  0.00885525  1
  O  O60  1  0.45978039  0.50159355  0.24111887  1
  O  O61  1  0.45978039  0.99840645  0.74111887  1
  O  O62  1  0.49038211  0.75986032  0.54070730  1
  O  O63  1  0.49038211  0.74013968  0.04070730  1
  O  O64  1  0.50961789  0.25986032  0.95929270  1
  O  O65  1  0.50961789  0.24013968  0.45929270  1
  O  O66  1  0.54021961  0.00159355  0.25888113  1
  O  O67  1  0.54021961  0.49840645  0.75888113  1
  O  O68  1  0.75140763  0.51583262  0.99114475  1
  O  O69  1  0.75140763  0.98416738  0.49114475  1
  O  O70  1  0.74652850  0.23413305  0.25482774  1
  O  O71  1  0.74652850  0.26586695  0.75482774  1
  O  O72  1  0.75347150  0.73413305  0.25482774  1
  O  O73  1  0.75347150  0.76586695  0.75482774  1
  O  O74  1  0.74859237  0.01583262  0.99114475  1
  O  O75  1  0.74859237  0.48416738  0.49114475  1
  O  O76  1  0.95978039  0.99840645  0.75888113  1
  O  O77  1  0.95978039  0.50159355  0.25888113  1
  O  O78  1  0.99038211  0.75986032  0.95929270  1
  O  O79  1  0.99038211  0.74013968  0.45929270  1
