# generated using pymatgen
data_LiFe(SO4)2
_symmetry_space_group_name_H-M   'P 1'
_cell_length_a   8.99068615
_cell_length_b   8.93003920
_cell_length_c   8.97607452
_cell_angle_alpha   55.99156805
_cell_angle_beta   55.96123455
_cell_angle_gamma   55.88161119
_symmetry_Int_Tables_number   1
_chemical_formula_structural   LiFe(SO4)2
_chemical_formula_sum   'Li3 Fe3 S6 O24'
_cell_volume   461.69917887
_cell_formula_units_Z   3
loop_
 _symmetry_equiv_pos_site_id
 _symmetry_equiv_pos_as_xyz
  1  'x, y, z'
loop_
 _atom_site_type_symbol
 _atom_site_label
 _atom_site_symmetry_multiplicity
 _atom_site_fract_x
 _atom_site_fract_y
 _atom_site_fract_z
 _atom_site_occupancy
  Li  Li0  1  0.35668571  0.35729080  0.35140959  1
  Li  Li1  1  0.17280592  0.43175808  0.76601280  1
  Li  Li2  1  0.76414163  0.17617942  0.43106372  1
  Fe  Fe3  1  0.16572875  0.13819228  0.15724912  1
  Fe  Fe4  1  0.64338681  0.64169999  0.64478486  1
  Fe  Fe5  1  0.84738388  0.85053187  0.85923018  1
  S  S6  1  0.04198289  0.74647481  0.46151547  1
  S  S7  1  0.45763493  0.04211932  0.75252987  1
  S  S8  1  0.75284769  0.46060152  0.04177539  1
  S  S9  1  0.25314671  0.54146194  0.95874754  1
  S  S10  1  0.54161155  0.95761980  0.25604559  1
  S  S11  1  0.95893981  0.25080608  0.54245634  1
  O  O12  1  0.10758482  0.29605793  0.51020721  1
  O  O13  1  0.29786285  0.50743720  0.10808981  1
  O  O14  1  0.00480053  0.95944728  0.33951513  1
  O  O15  1  0.51453014  0.10598550  0.29940011  1
  O  O16  1  0.02324051  0.71250434  0.65638534  1
  O  O17  1  0.23342029  0.62575663  0.37549218  1
  O  O18  1  0.36945348  0.24028064  0.63357577  1
  O  O19  1  0.33521751  0.00842437  0.95962840  1
  O  O20  1  0.64017478  0.36633550  0.23805494  1
  O  O21  1  0.04986007  0.67515883  0.97664372  1
  O  O22  1  0.27512029  0.35474245  0.96571909  1
  O  O23  1  0.35226459  0.97260471  0.28287103  1
  O  O24  1  0.65345960  0.02542987  0.71299657  1
  O  O25  1  0.72102478  0.65312274  0.02185607  1
  O  O26  1  0.96438536  0.33397628  0.00380670  1
  O  O27  1  0.38307948  0.62257957  0.76111324  1
  O  O28  1  0.67150031  0.97800487  0.05106743  1
  O  O29  1  0.62365231  0.75832617  0.38411274  1
  O  O30  1  0.76079405  0.38233989  0.62241740  1
  O  O31  1  0.96798702  0.27245995  0.35612451  1
  O  O32  1  0.48569115  0.89506262  0.70127084  1
  O  O33  1  0.97510992  0.04713127  0.67623427  1
  O  O34  1  0.70037330  0.48772843  0.89599104  1
  O  O35  1  0.88761760  0.70436606  0.49090600  1
