# generated using pymatgen
data_Li12Mn5V3(PO4)12
_symmetry_space_group_name_H-M   'P 1'
_cell_length_a   8.67749358
_cell_length_b   12.31973881
_cell_length_c   8.69191890
_cell_angle_alpha   89.77469209
_cell_angle_beta   90.02971571
_cell_angle_gamma   91.79644349
_symmetry_Int_Tables_number   1
_chemical_formula_structural   Li12Mn5V3(PO4)12
_chemical_formula_sum   'Li12 Mn5 V3 P12 O48'
_cell_volume   928.74089893
_cell_formula_units_Z   1
loop_
 _symmetry_equiv_pos_site_id
 _symmetry_equiv_pos_as_xyz
  1  'x, y, z'
loop_
 _atom_site_type_symbol
 _atom_site_label
 _atom_site_symmetry_multiplicity
 _atom_site_fract_x
 _atom_site_fract_y
 _atom_site_fract_z
 _atom_site_occupancy
  Li  Li0  1  0.07693682  0.69717835  0.08046071  1
  Li  Li1  1  0.08177759  0.76150375  0.69745887  1
  Li  Li2  1  0.20816310  0.17520510  0.78323018  1
  Li  Li3  1  0.29121760  0.32580826  0.28049860  1
  Li  Li4  1  0.41549490  0.73903370  0.19405563  1
  Li  Li5  1  0.42501176  0.80279336  0.58238640  1
  Li  Li6  1  0.57712064  0.19768774  0.41900804  1
  Li  Li7  1  0.58288175  0.26317128  0.80383351  1
  Li  Li8  1  0.70820928  0.67494651  0.71695295  1
  Li  Li9  1  0.79271040  0.82707739  0.21655641  1
  Li  Li10  1  0.91277158  0.23817959  0.30502731  1
  Li  Li11  1  0.92278014  0.30142161  0.92009399  1
  Mn  Mn12  1  0.25231402  0.89670413  0.03457541  1
  Mn  Mn13  1  0.25236468  0.39078749  0.95941824  1
  Mn  Mn14  1  0.75278100  0.89075906  0.54095577  1
  Mn  Mn15  1  0.74647938  0.10418042  0.96484517  1
  Mn  Mn16  1  0.75145995  0.39650610  0.46596322  1
  V  V17  1  0.24753995  0.60843344  0.53094373  1
  V  V18  1  0.24748979  0.11113659  0.45982450  1
  V  V19  1  0.74720438  0.61004645  0.03773643  1
  P  P20  1  0.03627959  0.49385242  0.25075960  1
  P  P21  1  0.10519627  0.85227840  0.38293035  1
  P  P22  1  0.10162534  0.15237148  0.10322551  1
  P  P23  1  0.39691848  0.35124502  0.60059193  1
  P  P24  1  0.39624830  0.64287346  0.88360453  1
  P  P25  1  0.46045107  0.00713225  0.74808210  1
  P  P26  1  0.53712042  0.99472987  0.24820100  1
  P  P27  1  0.60393855  0.35551857  0.11717982  1
  P  P28  1  0.60422176  0.65341217  0.39610307  1
  P  P29  1  0.89952284  0.84731147  0.89856119  1
  P  P30  1  0.89597563  0.14198498  0.61671774  1
  P  P31  1  0.96092624  0.50702016  0.75212095  1
  O  O32  1  0.04440883  0.43394134  0.86821034  1
  O  O33  1  0.08039449  0.85148159  0.88840596  1
  O  O34  1  0.06809563  0.59654131  0.68184495  1
  O  O35  1  0.07145018  0.16529456  0.59434264  1
  O  O36  1  0.10571177  0.57297350  0.36951819  1
  O  O37  1  0.14413953  0.82026977  0.21231867  1
  O  O38  1  0.14883944  0.97128482  0.41079753  1
  O  O39  1  0.14253746  0.24417013  0.98202253  1
  O  O40  1  0.15682255  0.18754604  0.26684272  1
  O  O41  1  0.16863182  0.43316334  0.17594418  1
  O  O42  1  0.17060142  0.04911649  0.04657065  1
  O  O43  1  0.19592867  0.78131688  0.50020614  1
  O  O44  1  0.30289573  0.70680952  0.00296610  1
  O  O45  1  0.32834671  0.45677594  0.54966950  1
  O  O46  1  0.32906889  0.06814176  0.66790619  1
  O  O47  1  0.34509228  0.30944573  0.76144550  1
  O  O48  1  0.36428123  0.51964569  0.90167339  1
  O  O49  1  0.35828901  0.67810912  0.71428883  1
  O  O50  1  0.35669715  0.26151035  0.47797493  1
  O  O51  1  0.39136918  0.92694628  0.86690784  1
  O  O52  1  0.42912136  0.90373230  0.17796141  1
  O  O53  1  0.42472999  0.65061608  0.38753680  1
  O  O54  1  0.42917216  0.33146306  0.09885422  1
  O  O55  1  0.45072434  0.06578562  0.36496383  1
  O  O56  1  0.54524326  0.93478790  0.63317198  1
  O  O57  1  0.57137670  0.66723714  0.90491676  1
  O  O58  1  0.57821919  0.35405008  0.61050854  1
  O  O59  1  0.56756787  0.09860880  0.81779941  1
  O  O60  1  0.60170266  0.07771879  0.12920421  1
  O  O61  1  0.64314945  0.74540165  0.51821621  1
  O  O62  1  0.64312242  0.32171139  0.28762561  1
  O  O63  1  0.64401206  0.47651165  0.09390740  1
  O  O64  1  0.65792754  0.68924008  0.23261201  1
  O  O65  1  0.66920208  0.93395055  0.32390722  1
  O  O66  1  0.67363573  0.55025908  0.45431338  1
  O  O67  1  0.69691232  0.29123700  0.99740298  1
  O  O68  1  0.80229435  0.20695958  0.49824280  1
  O  O69  1  0.82871978  0.95085431  0.95352705  1
  O  O70  1  0.82776789  0.56720986  0.83269469  1
  O  O71  1  0.84716182  0.80744277  0.73727427  1
  O  O72  1  0.86052011  0.75601814  0.02034441  1
  O  O73  1  0.86366113  0.01919354  0.59904869  1
  O  O74  1  0.85874782  0.17778160  0.78634600  1
  O  O75  1  0.89083158  0.42686595  0.63310561  1
  O  O76  1  0.92979511  0.82991882  0.40179555  1
  O  O77  1  0.92781881  0.40321247  0.32313458  1
  O  O78  1  0.92113778  0.15009016  0.11450793  1
  O  O79  1  0.95099056  0.56536792  0.13531779  1
