# generated using pymatgen
data_LiCr(SO4)2
_symmetry_space_group_name_H-M   'P 1'
_cell_length_a   8.91717449
_cell_length_b   8.87790700
_cell_length_c   8.89956183
_cell_angle_alpha   55.96886145
_cell_angle_beta   55.89660727
_cell_angle_gamma   55.73332682
_symmetry_Int_Tables_number   1
_chemical_formula_structural   LiCr(SO4)2
_chemical_formula_sum   'Li3 Cr3 S6 O24'
_cell_volume   450.44324140
_cell_formula_units_Z   3
loop_
 _symmetry_equiv_pos_site_id
 _symmetry_equiv_pos_as_xyz
  1  'x, y, z'
loop_
 _atom_site_type_symbol
 _atom_site_label
 _atom_site_symmetry_multiplicity
 _atom_site_fract_x
 _atom_site_fract_y
 _atom_site_fract_z
 _atom_site_occupancy
  Li  Li0  1  0.35758523  0.35549995  0.35064886  1
  Li  Li1  1  0.17759753  0.43159145  0.76153873  1
  Li  Li2  1  0.76058123  0.17912442  0.43163145  1
  Cr  Cr3  1  0.16080430  0.14638430  0.15641773  1
  Cr  Cr4  1  0.64231608  0.64410981  0.64461163  1
  Cr  Cr5  1  0.84665506  0.84885703  0.85397038  1
  S  S6  1  0.04264777  0.74807462  0.45956114  1
  S  S7  1  0.45608631  0.04047568  0.75590748  1
  S  S8  1  0.75349177  0.46006004  0.04149991  1
  S  S9  1  0.25237202  0.54280175  0.95895166  1
  S  S10  1  0.54184839  0.95709249  0.25510499  1
  S  S11  1  0.95897009  0.25074510  0.54455952  1
  O  O12  1  0.10748604  0.29732474  0.51096358  1
  O  O13  1  0.29874509  0.50765323  0.10820586  1
  O  O14  1  0.00374995  0.96249591  0.33807919  1
  O  O15  1  0.51538328  0.10506537  0.29982832  1
  O  O16  1  0.02355843  0.71194838  0.65822909  1
  O  O17  1  0.23604254  0.62513496  0.37600110  1
  O  O18  1  0.37012786  0.24019693  0.63453588  1
  O  O19  1  0.33467619  0.00287940  0.96495119  1
  O  O20  1  0.64056635  0.36494028  0.23904665  1
  O  O21  1  0.04626261  0.67649401  0.98081760  1
  O  O22  1  0.27901468  0.35340562  0.96245597  1
  O  O23  1  0.35073452  0.96786297  0.28634519  1
  O  O24  1  0.65508576  0.02433498  0.71378413  1
  O  O25  1  0.71801581  0.65366010  0.02534434  1
  O  O26  1  0.96831199  0.33316833  0.00092330  1
  O  O27  1  0.38151718  0.62523025  0.75739734  1
  O  O28  1  0.67411832  0.97986421  0.04806745  1
  O  O29  1  0.62645510  0.75435857  0.38351350  1
  O  O30  1  0.75664028  0.38201001  0.62505341  1
  O  O31  1  0.96524532  0.27543483  0.35538418  1
  O  O32  1  0.48326247  0.89514556  0.70179569  1
  O  O33  1  0.97872080  0.04507512  0.67845380  1
  O  O34  1  0.70195241  0.48499511  0.89528461  1
  O  O35  1  0.88787124  0.70650451  0.48743414  1
