# generated using pymatgen
data_Li2FeF4
_symmetry_space_group_name_H-M   'P 1'
_cell_length_a   5.88713521
_cell_length_b   5.37266913
_cell_length_c   5.86708696
_cell_angle_alpha   90.00000000
_cell_angle_beta   122.73350992
_cell_angle_gamma   90.00000000
_symmetry_Int_Tables_number   1
_chemical_formula_structural   Li2FeF4
_chemical_formula_sum   'Li4 Fe2 F8'
_cell_volume   156.10368176
_cell_formula_units_Z   2
loop_
 _symmetry_equiv_pos_site_id
 _symmetry_equiv_pos_as_xyz
  1  'x, y, z'
loop_
 _atom_site_type_symbol
 _atom_site_label
 _atom_site_symmetry_multiplicity
 _atom_site_fract_x
 _atom_site_fract_y
 _atom_site_fract_z
 _atom_site_occupancy
  Li  Li0  1  0.34715424  0.65290182  0.52468099  1
  Li  Li1  1  0.12760341  0.70294713  0.94706349  1
  Li  Li2  1  0.87239659  0.20294713  0.05293651  1
  Li  Li3  1  0.65284576  0.15290182  0.47531901  1
  Fe  Fe4  1  0.25495476  0.17216161  0.75183938  1
  Fe  Fe5  1  0.74504524  0.67216161  0.24816062  1
  F  F6  1  0.98935086  0.99980120  0.36821912  1
  F  F7  1  0.01517776  0.53447115  0.16008958  1
  F  F8  1  0.50669009  0.32219813  0.65388314  1
  F  F9  1  0.45902010  0.82439896  0.86207092  1
  F  F10  1  0.54097990  0.32439896  0.13792908  1
  F  F11  1  0.49330991  0.82219813  0.34611686  1
  F  F12  1  0.98482224  0.03447115  0.83991042  1
  F  F13  1  0.01064914  0.49980120  0.63178088  1
