# generated using pymatgen
data_AsS2NF6
_symmetry_space_group_name_H-M   'P 1'
_cell_length_a   5.45920714
_cell_length_b   5.86867996
_cell_length_c   5.86867997
_cell_angle_alpha   70.19729026
_cell_angle_beta   88.00347225
_cell_angle_gamma   88.00347229
_symmetry_Int_Tables_number   1
_chemical_formula_structural   AsS2NF6
_chemical_formula_sum   'As1 S2 N1 F6'
_cell_volume   176.74353278
_cell_formula_units_Z   1
loop_
 _symmetry_equiv_pos_site_id
 _symmetry_equiv_pos_as_xyz
  1  'x, y, z'
loop_
 _atom_site_type_symbol
 _atom_site_label
 _atom_site_symmetry_multiplicity
 _atom_site_fract_x
 _atom_site_fract_y
 _atom_site_fract_z
 _atom_site_occupancy
  N  N0  1  0.50000000  0.50000000  0.50000000  1
  F  F1  1  0.14169287  0.07909790  0.70659171  1
  F  F2  1  0.85830713  0.92090210  0.29340829  1
  F  F3  1  0.14169287  0.70659171  0.07909790  1
  F  F4  1  0.25598179  0.10732221  0.10732221  1
  F  F5  1  0.74401821  0.89267779  0.89267779  1
  F  F6  1  0.85830713  0.29340829  0.92090210  1
  S  S7  1  0.37525031  0.64151385  0.64151385  1
  S  S8  1  0.62474969  0.35848615  0.35848615  1
  As  As9  1  0.00000000  0.00000000  0.00000000  1
