# generated using pymatgen
data_Li4Ti3Ni3(SnO8)2
_symmetry_space_group_name_H-M   'P 1'
_cell_length_a   5.96470850
_cell_length_b   5.95465996
_cell_length_c   9.75763101
_cell_angle_alpha   90.39598125
_cell_angle_beta   90.10658308
_cell_angle_gamma   120.44737475
_symmetry_Int_Tables_number   1
_chemical_formula_structural   Li4Ti3Ni3(SnO8)2
_chemical_formula_sum   'Li4 Ti3 Ni3 Sn2 O16'
_cell_volume   298.76307072
_cell_formula_units_Z   1
loop_
 _symmetry_equiv_pos_site_id
 _symmetry_equiv_pos_as_xyz
  1  'x, y, z'
loop_
 _atom_site_type_symbol
 _atom_site_label
 _atom_site_symmetry_multiplicity
 _atom_site_fract_x
 _atom_site_fract_y
 _atom_site_fract_z
 _atom_site_occupancy
  Li  Li0  1  0.33340703  0.66546583  0.89252704  1
  Li  Li1  1  0.98720213  0.98981027  0.99262009  1
  Li  Li2  1  0.99738585  0.99730761  0.49437301  1
  Li  Li3  1  0.66515165  0.33744698  0.39889539  1
  Ti  Ti4  1  0.17614034  0.83569039  0.21646347  1
  Ti  Ti5  1  0.17039337  0.34059608  0.21431675  1
  Ti  Ti6  1  0.33886904  0.17612090  0.71485647  1
  Ni  Ni7  1  0.65737940  0.82812714  0.21308397  1
  Ni  Ni8  1  0.82942598  0.66084967  0.71126274  1
  Ni  Ni9  1  0.82918558  0.16974196  0.71549348  1
  Sn  Sn10  1  0.34149239  0.67198326  0.49416648  1
  Sn  Sn11  1  0.67975882  0.33936812  0.98849876  1
  O  O12  1  0.17957315  0.85445202  0.59787826  1
  O  O13  1  0.03340858  0.51596082  0.33485449  1
  O  O14  1  0.30894570  0.65422585  0.10349222  1
  O  O15  1  0.01190788  0.00598969  0.30729228  1
  O  O16  1  0.00401517  0.97897587  0.80733803  1
  O  O17  1  0.15518679  0.32221985  0.60601515  1
  O  O18  1  0.47094217  0.96696375  0.34160447  1
  O  O19  1  0.46711952  0.50545575  0.34343491  1
  O  O20  1  0.33163032  0.16387899  0.10311837  1
  O  O21  1  0.68730376  0.84364559  0.60359993  1
  O  O22  1  0.49636589  0.46240504  0.84418339  1
  O  O23  1  0.52765280  0.03508465  0.83361975  1
  O  O24  1  0.65593194  0.34844444  0.60654145  1
  O  O25  1  0.85011803  0.67723879  0.10055941  1
  O  O26  1  0.96388170  0.48264239  0.82922256  1
  O  O27  1  0.85022601  0.17020630  0.09852969  1
