# generated using pymatgen
data_Li2MnVP2(HO5)2
_symmetry_space_group_name_H-M   'P 1'
_cell_length_a   5.39757842
_cell_length_b   7.46963097
_cell_length_c   10.47209197
_cell_angle_alpha   108.64639914
_cell_angle_beta   98.39141398
_cell_angle_gamma   106.06801650
_symmetry_Int_Tables_number   1
_chemical_formula_structural   Li2MnVP2(HO5)2
_chemical_formula_sum   'Li4 Mn2 V2 P4 H4 O20'
_cell_volume   371.46177442
_cell_formula_units_Z   2
loop_
 _symmetry_equiv_pos_site_id
 _symmetry_equiv_pos_as_xyz
  1  'x, y, z'
loop_
 _atom_site_type_symbol
 _atom_site_label
 _atom_site_symmetry_multiplicity
 _atom_site_fract_x
 _atom_site_fract_y
 _atom_site_fract_z
 _atom_site_occupancy
  Li  Li0  1  0.39796766  0.82211170  0.87390198  1
  Li  Li1  1  0.39778600  0.83175078  0.37248683  1
  Li  Li2  1  0.60221400  0.16824922  0.62751317  1
  Li  Li3  1  0.60203234  0.17788830  0.12609802  1
  Mn  Mn4  1  0.00000000  0.50000000  0.00000000  1
  Mn  Mn5  1  0.00000000  0.00000000  0.50000000  1
  V  V6  1  0.00000000  0.50000000  0.50000000  1
  V  V7  1  0.00000000  0.00000000  0.00000000  1
  P  P8  1  0.36753683  0.23571808  0.84105047  1
  P  P9  1  0.63261553  0.77108622  0.65749730  1
  P  P10  1  0.36738447  0.22891378  0.34250270  1
  P  P11  1  0.63246317  0.76428192  0.15894953  1
  H  H12  1  0.06553473  0.35082557  0.67833697  1
  H  H13  1  0.06149896  0.33370271  0.17908562  1
  H  H14  1  0.93850104  0.66629729  0.82091438  1
  H  H15  1  0.93446527  0.64917443  0.32166303  1
  O  O16  1  0.04943442  0.72959795  0.91701190  1
  O  O17  1  0.04991737  0.70477052  0.41776520  1
  O  O18  1  0.21265390  0.38326904  0.86036981  1
  O  O19  1  0.33755176  0.64869006  0.64669840  1
  O  O20  1  0.20034511  0.37131878  0.37176163  1
  O  O21  1  0.33029215  0.65681860  0.14565479  1
  O  O22  1  0.26854669  0.07787584  0.69143676  1
  O  O23  1  0.33986810  0.12682249  0.94726896  1
  O  O24  1  0.26367112  0.07998053  0.18925671  1
  O  O25  1  0.36071543  0.11727011  0.44303151  1
  O  O26  1  0.63928457  0.88272989  0.55696849  1
  O  O27  1  0.73632888  0.92001947  0.81074329  1
  O  O28  1  0.66013190  0.87317751  0.05273104  1
  O  O29  1  0.73145331  0.92212416  0.30856324  1
  O  O30  1  0.66970785  0.34318140  0.85434521  1
  O  O31  1  0.79965489  0.62868122  0.62823837  1
  O  O32  1  0.66244824  0.35130994  0.35330160  1
  O  O33  1  0.78734610  0.61673096  0.13963019  1
  O  O34  1  0.95008263  0.29522948  0.58223480  1
  O  O35  1  0.95056558  0.27040205  0.08298810  1
