# generated using pymatgen
data_La3H15I10O37
_symmetry_space_group_name_H-M   'P 1'
_cell_length_a   13.29989074
_cell_length_b   12.54921979
_cell_length_c   12.42277473
_cell_angle_alpha   60.33275305
_cell_angle_beta   90.00000000
_cell_angle_gamma   90.00000000
_symmetry_Int_Tables_number   1
_chemical_formula_structural   La3H15I10O37
_chemical_formula_sum   'La6 H30 I20 O74'
_cell_volume   1801.60883797
_cell_formula_units_Z   2
loop_
 _symmetry_equiv_pos_site_id
 _symmetry_equiv_pos_as_xyz
  1  'x, y, z'
loop_
 _atom_site_type_symbol
 _atom_site_label
 _atom_site_symmetry_multiplicity
 _atom_site_fract_x
 _atom_site_fract_y
 _atom_site_fract_z
 _atom_site_occupancy
  La  La0  1  0.00000000  0.00000000  0.00939376  1
  La  La1  1  0.16296321  0.52399960  0.96167153  1
  La  La2  1  0.33703679  0.52399960  0.46167153  1
  La  La3  1  0.50000000  0.00000000  0.50939376  1
  La  La4  1  0.66296321  0.47600040  0.98567013  1
  La  La5  1  0.83703679  0.47600040  0.48567013  1
  H  H6  1  0.00000000  0.00000000  0.28786603  1
  H  H7  1  0.06874145  0.93666975  0.42892572  1
  H  H8  1  0.04728862  0.23698073  0.73465882  1
  H  H9  1  0.10787594  0.02687260  0.63548743  1
  H  H10  1  0.12025373  0.81504231  0.73292965  1
  H  H11  1  0.02360765  0.73584066  0.75879218  1
  H  H12  1  0.14335957  0.14958920  0.77349332  1
  H  H13  1  0.17832493  0.97424406  0.57480774  1
  H  H14  1  0.32167507  0.97424406  0.07480774  1
  H  H15  1  0.35664043  0.14958920  0.27349332  1
  H  H16  1  0.47639235  0.73584066  0.25879218  1
  H  H17  1  0.37974627  0.81504231  0.23292965  1
  H  H18  1  0.39212406  0.02687260  0.13548743  1
  H  H19  1  0.45271138  0.23698073  0.23465882  1
  H  H20  1  0.43125855  0.93666975  0.92892572  1
  H  H21  1  0.50000000  0.00000000  0.78786603  1
  H  H22  1  0.56874145  0.06333025  0.86559448  1
  H  H23  1  0.54728862  0.76301927  0.47163955  1
  H  H24  1  0.60787594  0.97312740  0.16236002  1
  H  H25  1  0.62025373  0.18495769  0.04797196  1
  H  H26  1  0.52360765  0.26415934  0.99463284  1
  H  H27  1  0.64335957  0.85041080  0.42308252  1
  H  H28  1  0.67832493  0.02575594  0.04905180  1
  H  H29  1  0.82167507  0.02575594  0.54905180  1
  H  H30  1  0.85664043  0.85041080  0.92308252  1
  H  H31  1  0.97639235  0.26415934  0.49463284  1
  H  H32  1  0.87974627  0.18495769  0.54797196  1
  H  H33  1  0.89212406  0.97312740  0.66236002  1
  H  H34  1  0.95271138  0.76301927  0.97163955  1
  H  H35  1  0.93125855  0.06333025  0.36559448  1
  I  I36  1  0.07949799  0.52381271  0.63037837  1
  I  I37  1  0.08702637  0.64598952  0.27109903  1
  I  I38  1  0.12092663  0.17858266  0.16154576  1
  I  I39  1  0.19263232  0.31168800  0.34821531  1
  I  I40  1  0.24797666  0.84905411  0.91735583  1
  I  I41  1  0.25202334  0.84905411  0.41735583  1
  I  I42  1  0.30736768  0.31168800  0.84821531  1
  I  I43  1  0.37907337  0.17858266  0.66154576  1
  I  I44  1  0.41297363  0.64598952  0.77109903  1
  I  I45  1  0.42050201  0.52381271  0.13037837  1
  I  I46  1  0.57949799  0.47618729  0.65419008  1
  I  I47  1  0.58702637  0.35401048  0.41708855  1
  I  I48  1  0.62092663  0.82141734  0.84012843  1
  I  I49  1  0.69263232  0.68831200  0.15990331  1
  I  I50  1  0.74797666  0.15094589  0.26640994  1
  I  I51  1  0.75202334  0.15094589  0.76640994  1
  I  I52  1  0.80736768  0.68831200  0.65990331  1
  I  I53  1  0.87907337  0.82141734  0.34012843  1
  I  I54  1  0.91297363  0.35401048  0.91708855  1
  I  I55  1  0.92050201  0.47618729  0.15419008  1
  O  O56  1  0.00000000  0.00000000  0.36665749  1
  O  O57  1  0.01233596  0.59547998  0.05882295  1
  O  O58  1  0.01645202  0.58784525  0.41818223  1
  O  O59  1  0.02919122  0.79938365  0.19792000  1
  O  O60  1  0.09164368  0.73160228  0.79152886  1
  O  O61  1  0.07117896  0.15272418  0.79127196  1
  O  O62  1  0.09041335  0.47997795  0.79563863  1
  O  O63  1  0.11212063  0.36459899  0.20693407  1
  O  O64  1  0.11899522  0.04083782  0.14375439  1
  O  O65  1  0.10235971  0.21066142  0.46158275  1
  O  O66  1  0.13514422  0.86533637  0.49089083  1
  O  O67  1  0.15855181  0.92331426  0.96907495  1
  O  O68  1  0.15526210  0.95992104  0.65549799  1
  O  O69  1  0.18800416  0.29313883  0.02328145  1
  O  O70  1  0.18324026  0.45290548  0.36026268  1
  O  O71  1  0.20273281  0.68311709  0.32621772  1
  O  O72  1  0.22146557  0.69042107  0.03367492  1
  O  O73  1  0.22156367  0.12729378  0.27792169  1
  O  O74  1  0.19332223  0.44879113  0.61629487  1
  O  O75  1  0.30667777  0.44879113  0.11629487  1
  O  O76  1  0.27843633  0.12729378  0.77792169  1
  O  O77  1  0.27853443  0.69042107  0.53367492  1
  O  O78  1  0.29726719  0.68311709  0.82621772  1
  O  O79  1  0.31675974  0.45290548  0.86026268  1
  O  O80  1  0.31199584  0.29313883  0.52328145  1
  O  O81  1  0.34473790  0.95992104  0.15549799  1
  O  O82  1  0.34144819  0.92331426  0.46907495  1
  O  O83  1  0.36485578  0.86533637  0.99089083  1
  O  O84  1  0.39764029  0.21066142  0.96158275  1
  O  O85  1  0.38100478  0.04083782  0.64375439  1
  O  O86  1  0.38787937  0.36459899  0.70693407  1
  O  O87  1  0.40958665  0.47997795  0.29563863  1
  O  O88  1  0.42882104  0.15272418  0.29127196  1
  O  O89  1  0.40835632  0.73160228  0.29152886  1
  O  O90  1  0.47080878  0.79938365  0.69792000  1
  O  O91  1  0.48354798  0.58784525  0.91818223  1
  O  O92  1  0.48766404  0.59547998  0.55882295  1
  O  O93  1  0.50000000  0.00000000  0.86665749  1
  O  O94  1  0.51233596  0.40452002  0.15430392  1
  O  O95  1  0.51645202  0.41215475  0.50602748  1
  O  O96  1  0.52919122  0.20061635  0.49730365  1
  O  O97  1  0.59164368  0.26839672  0.02313213  1
  O  O98  1  0.57117896  0.84727582  0.44399614  1
  O  O99  1  0.59041335  0.52002205  0.77561658  1
  O  O100  1  0.61212063  0.63540101  0.07153305  1
  O  O101  1  0.61899522  0.95916218  0.68459121  1
  O  O102  1  0.60235971  0.78933858  0.17224417  1
  O  O103  1  0.63514422  0.13466363  0.85622621  1
  O  O104  1  0.65855181  0.07668574  0.39238921  1
  O  O105  1  0.65526210  0.04007896  0.11541903  1
  O  O106  1  0.68800416  0.70686117  0.81642128  1
  O  O107  1  0.68324026  0.54709452  0.31316716  1
  O  O108  1  0.70273281  0.31688291  0.50933581  1
  O  O109  1  0.72146557  0.30957893  0.22409499  1
  O  O110  1  0.72156367  0.87270622  0.90521547  1
  O  O111  1  0.69332223  0.55120887  0.56508600  1
  O  O112  1  0.80667777  0.55120887  0.06508600  1
  O  O113  1  0.77843633  0.87270622  0.40521547  1
  O  O114  1  0.77853443  0.30957893  0.72409499  1
  O  O115  1  0.79726719  0.31688291  0.00933581  1
  O  O116  1  0.81675974  0.54709452  0.81316716  1
  O  O117  1  0.81199584  0.70686117  0.31642128  1
  O  O118  1  0.84473790  0.04007896  0.61541903  1
  O  O119  1  0.84144819  0.07668574  0.89238921  1
  O  O120  1  0.86485578  0.13466363  0.35622621  1
  O  O121  1  0.89764029  0.78933858  0.67224417  1
  O  O122  1  0.88100478  0.95916218  0.18459121  1
  O  O123  1  0.88787937  0.63540101  0.57153305  1
  O  O124  1  0.90958665  0.52002205  0.27561658  1
  O  O125  1  0.92882104  0.84727582  0.94399614  1
  O  O126  1  0.90835632  0.26839672  0.52313213  1
  O  O127  1  0.97080878  0.20061635  0.99730365  1
  O  O128  1  0.98354798  0.41215475  0.00602748  1
  O  O129  1  0.98766404  0.40452002  0.65430392  1
