# generated using pymatgen
data_CaTi(Si2O5)2
_symmetry_space_group_name_H-M   'P 1'
_cell_length_a   7.48449642
_cell_length_b   7.48449642
_cell_length_c   15.53227921
_cell_angle_alpha   90.00000000
_cell_angle_beta   90.00000000
_cell_angle_gamma   90.00000000
_symmetry_Int_Tables_number   1
_chemical_formula_structural   CaTi(Si2O5)2
_chemical_formula_sum   'Ca4 Ti4 Si16 O40'
_cell_volume   870.08234992
_cell_formula_units_Z   4
loop_
 _symmetry_equiv_pos_site_id
 _symmetry_equiv_pos_as_xyz
  1  'x, y, z'
loop_
 _atom_site_type_symbol
 _atom_site_label
 _atom_site_symmetry_multiplicity
 _atom_site_fract_x
 _atom_site_fract_y
 _atom_site_fract_z
 _atom_site_occupancy
  Ca  Ca0  1  0.25000000  0.75000000  0.50000000  1
  Ca  Ca1  1  0.75000000  0.25000000  0.50000000  1
  Ca  Ca2  1  0.75000000  0.25000000  -0.00000000  1
  Ca  Ca3  1  0.25000000  0.75000000  -0.00000000  1
  Ti  Ti4  1  0.25000000  0.25000000  0.58047908  1
  Ti  Ti5  1  0.75000000  0.75000000  0.91952092  1
  Ti  Ti6  1  0.75000000  0.75000000  0.41952092  1
  Ti  Ti7  1  0.25000000  0.25000000  0.08047908  1
  Si  Si8  1  0.92018965  0.50289860  0.64954200  1
  Si  Si9  1  0.57981035  0.99710140  0.64954200  1
  Si  Si10  1  0.00289860  0.42018965  0.85045800  1
  Si  Si11  1  0.50289860  0.57981035  0.64954200  1
  Si  Si12  1  0.99710140  0.92018965  0.64954200  1
  Si  Si13  1  0.07981035  0.00289860  0.85045800  1
  Si  Si14  1  0.42018965  0.49710140  0.85045800  1
  Si  Si15  1  0.49710140  0.07981035  0.85045800  1
  Si  Si16  1  0.07981035  0.49710140  0.35045800  1
  Si  Si17  1  0.42018965  0.00289860  0.35045800  1
  Si  Si18  1  0.99710140  0.57981035  0.14954200  1
  Si  Si19  1  0.49710140  0.42018965  0.35045800  1
  Si  Si20  1  0.00289860  0.07981035  0.35045800  1
  Si  Si21  1  0.92018965  0.99710140  0.14954200  1
  Si  Si22  1  0.57981035  0.50289860  0.14954200  1
  Si  Si23  1  0.50289860  0.92018965  0.14954200  1
  O  O24  1  0.99875639  0.35695140  0.58295912  1
  O  O25  1  0.50124361  0.14304860  0.58295912  1
  O  O26  1  0.85695140  0.49875639  0.91704088  1
  O  O27  1  0.35695140  0.50124361  0.58295912  1
  O  O28  1  0.14304860  0.99875639  0.58295912  1
  O  O29  1  0.00124361  0.85695140  0.91704088  1
  O  O30  1  0.49875639  0.64304860  0.91704088  1
  O  O31  1  0.64304860  0.00124361  0.91704088  1
  O  O32  1  0.00124361  0.64304860  0.41704088  1
  O  O33  1  0.49875639  0.85695140  0.41704088  1
  O  O34  1  0.14304860  0.50124361  0.08295912  1
  O  O35  1  0.64304860  0.49875639  0.41704088  1
  O  O36  1  0.85695140  0.00124361  0.41704088  1
  O  O37  1  0.99875639  0.14304860  0.08295912  1
  O  O38  1  0.50124361  0.35695140  0.08295912  1
  O  O39  1  0.00025925  0.29657584  0.37017077  1
  O  O40  1  0.35695140  0.99875639  0.08295912  1
  O  O41  1  0.50025925  0.79657584  0.62982923  1
  O  O42  1  0.20342416  0.49974075  0.87017077  1
  O  O43  1  0.70342416  0.50025925  0.62982923  1
  O  O44  1  0.79657584  0.99974075  0.62982923  1
  O  O45  1  0.00025925  0.20342416  0.87017077  1
  O  O46  1  0.49974075  0.29657584  0.87017077  1
  O  O47  1  0.29657584  0.00025925  0.87017077  1
  O  O48  1  0.45611259  0.95611259  0.25000000  1
  O  O49  1  0.54388741  0.45611259  0.25000000  1
  O  O50  1  0.95611259  0.04388841  0.25000000  1
  O  O51  1  0.04388841  0.54388741  0.25000000  1
  O  O52  1  0.54388741  0.04388841  0.75000000  1
  O  O53  1  0.45611259  0.54388741  0.75000000  1
  O  O54  1  0.04388841  0.95611259  0.75000000  1
  O  O55  1  0.95611259  0.45611259  0.75000000  1
  O  O56  1  0.70342416  0.99974075  0.12982923  1
  O  O57  1  0.50025925  0.70342416  0.12982923  1
  O  O58  1  0.99974075  0.79657584  0.12982923  1
  O  O59  1  0.20342416  0.00025925  0.37017077  1
  O  O60  1  0.29657584  0.49974075  0.37017077  1
  O  O61  1  0.79657584  0.50025925  0.12982923  1
  O  O62  1  0.49974075  0.20342416  0.37017077  1
  O  O63  1  0.99974075  0.70342416  0.62982923  1
