# generated using pymatgen
data_CrFe3Ni2(PO4)6
_symmetry_space_group_name_H-M   'P 1'
_cell_length_a   8.46520821
_cell_length_b   8.46520825
_cell_length_c   8.46520758
_cell_angle_alpha   61.16523577
_cell_angle_beta   61.16523547
_cell_angle_gamma   61.16523484
_symmetry_Int_Tables_number   1
_chemical_formula_structural   CrFe3Ni2(PO4)6
_chemical_formula_sum   'Cr1 Fe3 Ni2 P6 O24'
_cell_volume   440.18701318
_cell_formula_units_Z   1
loop_
 _symmetry_equiv_pos_site_id
 _symmetry_equiv_pos_as_xyz
  1  'x, y, z'
loop_
 _atom_site_type_symbol
 _atom_site_label
 _atom_site_symmetry_multiplicity
 _atom_site_fract_x
 _atom_site_fract_y
 _atom_site_fract_z
 _atom_site_occupancy
  Cr  Cr0  1  0.85796231  0.85796231  0.85796231  1
  Fe  Fe1  1  0.14400645  0.14400645  0.14400645  1
  Fe  Fe2  1  0.35557949  0.35557949  0.35557949  1
  Fe  Fe3  1  0.64400578  0.64400578  0.64400578  1
  Ni  Ni4  1  0.00109571  0.00109571  0.00109571  1
  Ni  Ni5  1  0.50033048  0.50033048  0.50033048  1
  P  P6  1  0.04517054  0.74969754  0.45464380  1
  P  P7  1  0.45464380  0.04517054  0.74969754  1
  P  P8  1  0.74969754  0.45464380  0.04517054  1
  P  P9  1  0.24913467  0.54648023  0.95229117  1
  P  P10  1  0.54648023  0.95229117  0.24913467  1
  P  P11  1  0.95229117  0.24913467  0.54648023  1
  O  O12  1  0.10960705  0.31431422  0.50968890  1
  O  O13  1  0.31431422  0.50968890  0.10960705  1
  O  O14  1  0.06026036  0.90835376  0.25652572  1
  O  O15  1  0.50968890  0.10960705  0.31431422  1
  O  O16  1  0.99946204  0.82136782  0.61552764  1
  O  O17  1  0.24330534  0.59200056  0.44699736  1
  O  O18  1  0.25652572  0.06026036  0.90835376  1
  O  O19  1  0.44699736  0.24330534  0.59200056  1
  O  O20  1  0.17652932  0.39215702  0.99483034  1
  O  O21  1  0.59200056  0.44699736  0.24330534  1
  O  O22  1  0.08658710  0.74737351  0.93629706  1
  O  O23  1  0.39215702  0.99483034  0.17652932  1
  O  O24  1  0.61552764  0.99946204  0.82136782  1
  O  O25  1  0.90835376  0.25652572  0.06026036  1
  O  O26  1  0.40510143  0.56403717  0.75258078  1
  O  O27  1  0.82136782  0.61552764  0.99946204  1
  O  O28  1  0.56403717  0.75258078  0.40510143  1
  O  O29  1  0.74737351  0.93629706  0.08658710  1
  O  O30  1  0.75258078  0.40510143  0.56403717  1
  O  O31  1  0.99483034  0.17652932  0.39215702  1
  O  O32  1  0.49723259  0.89002979  0.67943695  1
  O  O33  1  0.93629706  0.08658710  0.74737351  1
  O  O34  1  0.67943695  0.49723259  0.89002979  1
  O  O35  1  0.89002979  0.67943695  0.49723259  1
