# generated using pymatgen
data_Rb2Al2Si3O10
_symmetry_space_group_name_H-M   'P 1'
_cell_length_a   10.00076875
_cell_length_b   9.33266605
_cell_length_c   12.86497490
_cell_angle_alpha   50.54636373
_cell_angle_beta   46.10041984
_cell_angle_gamma   83.35321643
_symmetry_Int_Tables_number   1
_chemical_formula_structural   Rb2Al2Si3O10
_chemical_formula_sum   'Rb4 Al4 Si6 O20'
_cell_volume   542.33544546
_cell_formula_units_Z   2
loop_
 _symmetry_equiv_pos_site_id
 _symmetry_equiv_pos_as_xyz
  1  'x, y, z'
loop_
 _atom_site_type_symbol
 _atom_site_label
 _atom_site_symmetry_multiplicity
 _atom_site_fract_x
 _atom_site_fract_y
 _atom_site_fract_z
 _atom_site_occupancy
  Rb  Rb0  1  0.25761870  0.98778487  0.11208965  1
  Rb  Rb1  1  0.98778387  0.25761970  0.64250678  1
  Rb  Rb2  1  0.60749322  0.13791035  0.26221413  1
  Rb  Rb3  1  0.13791035  0.60749322  0.99238130  1
  Al  Al4  1  0.66719971  0.56537744  0.51618981  1
  Al  Al5  1  0.56537644  0.66719971  0.25123404  1
  Al  Al6  1  0.99876696  0.73380919  0.68462256  1
  Al  Al7  1  0.73380919  0.99876696  0.58279929  1
  Si  Si8  1  0.69419563  0.55779029  0.73861818  1
  Si  Si9  1  0.55779029  0.69419563  0.00939590  1
  Si  Si10  1  0.24060410  0.51138182  0.69220871  1
  Si  Si11  1  0.51138082  0.24060510  0.55580437  1
  Si  Si12  1  -0.00023340  -0.00023440  0.00023440  1
  Si  Si13  1  0.24976860  0.24976960  0.25023140  1
  O  O14  1  0.41685548  0.37418856  0.00045129  1
  O  O15  1  0.37418856  0.41685548  0.20850467  1
  O  O16  1  0.04149533  0.24954871  0.87581144  1
  O  O17  1  0.24954871  0.04149433  0.83314452  1
  O  O18  1  0.76595305  0.81678899  0.57369929  1
  O  O19  1  0.81678899  0.76595305  0.84355866  1
  O  O20  1  0.40644134  0.67629971  0.43321201  1
  O  O21  1  0.67630071  0.40644134  0.48404595  1
  O  O22  1  0.38705959  0.49480182  0.71261585  1
  O  O23  1  0.49480082  0.38706059  0.40552273  1
  O  O24  1  0.84447627  0.53738315  0.75520018  1
  O  O25  1  0.53738315  0.84447527  0.86294041  1
  O  O26  1  0.73172307  0.48671219  0.63611199  1
  O  O27  1  0.48671219  0.73172207  0.14545376  1
  O  O28  1  0.10454824  0.61389001  0.76328681  1
  O  O29  1  0.61388901  0.10454824  0.51827593  1
  O  O30  1  0.87977648  0.85460853  0.23741471  1
  O  O31  1  0.85460753  0.87977648  0.02820029  1
  O  O32  1  0.22179771  0.01258329  0.39539447  1
  O  O33  1  0.01258429  0.22179771  0.37022452  1
