# generated using pymatgen
data_Li2SiNiO4
_symmetry_space_group_name_H-M   'P 1'
_cell_length_a   6.22173117
_cell_length_b   10.92235871
_cell_length_c   4.96235091
_cell_angle_alpha   90.00054334
_cell_angle_beta   90.00058671
_cell_angle_gamma   89.99747371
_symmetry_Int_Tables_number   1
_chemical_formula_structural   Li2SiNiO4
_chemical_formula_sum   'Li8 Si4 Ni4 O16'
_cell_volume   337.22141721
_cell_formula_units_Z   4
loop_
 _symmetry_equiv_pos_site_id
 _symmetry_equiv_pos_as_xyz
  1  'x, y, z'
loop_
 _atom_site_type_symbol
 _atom_site_label
 _atom_site_symmetry_multiplicity
 _atom_site_fract_x
 _atom_site_fract_y
 _atom_site_fract_z
 _atom_site_occupancy
  Li  Li0  1  0.99807343  0.82515600  0.75578002  1
  Li  Li1  1  0.25691418  0.08815057  0.75601289  1
  Li  Li2  1  0.24309909  0.58814335  0.75601746  1
  Li  Li3  1  0.50192330  0.32515607  0.75577960  1
  Li  Li4  1  0.49806680  0.67484367  0.25579785  1
  Li  Li5  1  0.75691283  0.41184774  0.25603431  1
  Li  Li6  1  0.74307049  0.91184711  0.25601115  1
  Li  Li7  1  0.00191565  0.17484931  0.25577148  1
  Si  Si8  1  0.99758424  0.66458589  0.26438057  1
  Si  Si9  1  0.50244210  0.16464172  0.26436105  1
  Si  Si10  1  0.49754130  0.83535273  0.76436459  1
  Si  Si11  1  0.00241957  0.33542059  0.76437690  1
  Ni  Ni12  1  0.25618592  0.41797878  0.25351303  1
  Ni  Ni13  1  0.24383947  0.91800292  0.25348666  1
  Ni  Ni14  1  0.75617402  0.08198571  0.75343214  1
  Ni  Ni15  1  0.74385429  0.58203255  0.75357581  1
  O  O16  1  0.00605242  0.33614940  0.09722132  1
  O  O17  1  0.00134319  0.80842069  0.15944328  1
  O  O18  1  0.28230329  0.09300418  0.16139578  1
  O  O19  1  0.22230418  0.40655276  0.65536497  1
  O  O20  1  0.27765423  0.90656779  0.65532328  1
  O  O21  1  0.21764379  0.59301506  0.16143001  1
  O  O22  1  0.49864681  0.30838202  0.15946411  1
  O  O23  1  0.49393989  0.83615961  0.09722541  1
  O  O24  1  0.50604549  0.16383486  0.59721776  1
  O  O25  1  0.50136760  0.69160708  0.65947912  1
  O  O26  1  0.78233934  0.40700821  0.66144314  1
  O  O27  1  0.72232769  0.09342370  0.15531758  1
  O  O28  1  0.77769526  0.59345039  0.15542384  1
  O  O29  1  0.71768524  0.90699243  0.66139311  1
  O  O30  1  0.99863820  0.19157033  0.65943447  1
  O  O31  1  0.99399671  0.66386679  0.59722730  1
