# generated using pymatgen
data_MnNiP2O9
_symmetry_space_group_name_H-M   'P 1'
_cell_length_a   6.23257423
_cell_length_b   7.74396779
_cell_length_c   13.86968448
_cell_angle_alpha   90.05062037
_cell_angle_beta   89.81176772
_cell_angle_gamma   90.10046280
_symmetry_Int_Tables_number   1
_chemical_formula_structural   MnNiP2O9
_chemical_formula_sum   'Mn4 Ni4 P8 O36'
_cell_volume   669.41339762
_cell_formula_units_Z   4
loop_
 _symmetry_equiv_pos_site_id
 _symmetry_equiv_pos_as_xyz
  1  'x, y, z'
loop_
 _atom_site_type_symbol
 _atom_site_label
 _atom_site_symmetry_multiplicity
 _atom_site_fract_x
 _atom_site_fract_y
 _atom_site_fract_z
 _atom_site_occupancy
  Mn  Mn0  1  0.74971628  0.35245765  0.88012798  1
  Mn  Mn1  1  0.25028907  0.64767474  0.11984576  1
  Mn  Mn2  1  0.24950199  0.85388186  0.62021847  1
  Mn  Mn3  1  0.75049277  0.14625431  0.37986854  1
  Ni  Ni4  1  0.49983034  0.00024992  0.00020490  1
  Ni  Ni5  1  0.50017215  0.49968805  0.50000382  1
  Ni  Ni6  1  0.99987580  0.49968041  0.50001158  1
  Ni  Ni7  1  0.99991877  0.00019307  0.00014938  1
  P  P8  1  0.24928996  0.34981060  0.93795356  1
  P  P9  1  0.75067987  0.65058105  0.06187302  1
  P  P10  1  0.74979822  0.84941034  0.56169888  1
  P  P11  1  0.25021599  0.15030562  0.43799525  1
  P  P12  1  0.74975404  0.39097907  0.69159473  1
  P  P13  1  0.25036827  0.60889832  0.30849047  1
  P  P14  1  0.24955417  0.89273517  0.80881877  1
  P  P15  1  0.75040245  0.10724147  0.19151264  1
  O  O16  1  0.04595812  0.60113478  0.37015180  1
  O  O17  1  0.54593018  0.39845439  0.63032997  1
  O  O18  1  0.95519595  0.09924204  0.13007655  1
  O  O19  1  0.45347627  0.89978201  0.87006807  1
  O  O20  1  0.95412155  0.39845241  0.62997252  1
  O  O21  1  0.45424626  0.60124802  0.36979243  1
  O  O22  1  0.04497298  0.90019649  0.87048296  1
  O  O23  1  0.54644034  0.10074970  0.13034267  1
  O  O24  1  0.24991859  0.33604431  0.48123094  1
  O  O25  1  0.75013842  0.66352089  0.51871298  1
  O  O26  1  0.75102329  0.83622085  0.01859325  1
  O  O27  1  0.24867844  0.16423053  0.98137904  1
  O  O28  1  0.74892331  0.14859795  0.95256879  1
  O  O29  1  0.25091868  0.85181952  0.04766016  1
  O  O30  1  0.24993005  0.64923439  0.54827450  1
  O  O31  1  0.75006822  0.35054695  0.45167462  1
  O  O32  1  0.75007729  0.22590421  0.75797498  1
  O  O33  1  0.24990517  0.77406281  0.24216202  1
  O  O34  1  0.24801892  0.72754439  0.74236722  1
  O  O35  1  0.75211294  0.27247483  0.25787643  1
  O  O36  1  0.44672676  0.13411008  0.37062567  1
  O  O37  1  0.94553601  0.86694133  0.62885241  1
  O  O38  1  0.55370724  0.63514477  0.12917082  1
  O  O39  1  0.05375830  0.36577119  0.87059605  1
  O  O40  1  0.55333885  0.86644612  0.62900658  1
  O  O41  1  0.05439814  0.13369138  0.37078874  1
  O  O42  1  0.44627958  0.36510196  0.87070720  1
  O  O43  1  0.94632113  0.63453120  0.12918244  1
  O  O44  1  0.75005959  0.96625797  0.27280434  1
  O  O45  1  0.24984465  0.03366097  0.72750858  1
  O  O46  1  0.25030103  0.46773169  0.22695120  1
  O  O47  1  0.74983927  0.53205584  0.77296353  1
  O  O48  1  0.74988593  0.98583204  0.48319142  1
  O  O49  1  0.25007031  0.01270527  0.51583872  1
  O  O50  1  0.24978226  0.48744178  0.01597583  1
  O  O51  1  0.75023486  0.51307431  0.98377783  1
