# generated using pymatgen
data_Ca2AgGe
_symmetry_space_group_name_H-M   'P 1'
_cell_length_a   5.18116727
_cell_length_b   5.18116709
_cell_length_c   5.18116672
_cell_angle_alpha   59.99998659
_cell_angle_beta   60.00005472
_cell_angle_gamma   60.00004176
_symmetry_Int_Tables_number   1
_chemical_formula_structural   Ca2AgGe
_chemical_formula_sum   'Ca2 Ag1 Ge1'
_cell_volume   98.34857088
_cell_formula_units_Z   1
loop_
 _symmetry_equiv_pos_site_id
 _symmetry_equiv_pos_as_xyz
  1  'x, y, z'
loop_
 _atom_site_type_symbol
 _atom_site_label
 _atom_site_symmetry_multiplicity
 _atom_site_fract_x
 _atom_site_fract_y
 _atom_site_fract_z
 _atom_site_occupancy
  Ca  Ca0  1  0.50000005  0.49999994  0.50000007  1
  Ca  Ca1  1  0.00000001  0.00000000  0.99999996  1
  Ag  Ag2  1  0.25000006  0.25000000  0.24999996  1
  Ge  Ge3  1  0.74999988  0.75000006  0.75000001  1
