# generated using pymatgen
data_MgSnBiO5
_symmetry_space_group_name_H-M   'P 1'
_cell_length_a   5.44274808
_cell_length_b   8.44905069
_cell_length_c   11.05484457
_cell_angle_alpha   90.00000000
_cell_angle_beta   90.00000000
_cell_angle_gamma   105.75512596
_symmetry_Int_Tables_number   1
_chemical_formula_structural   MgSnBiO5
_chemical_formula_sum   'Mg4 Sn4 Bi4 O20'
_cell_volume   489.26975464
_cell_formula_units_Z   4
loop_
 _symmetry_equiv_pos_site_id
 _symmetry_equiv_pos_as_xyz
  1  'x, y, z'
loop_
 _atom_site_type_symbol
 _atom_site_label
 _atom_site_symmetry_multiplicity
 _atom_site_fract_x
 _atom_site_fract_y
 _atom_site_fract_z
 _atom_site_occupancy
  Mg  Mg0  1  0.61919822  0.16403640  0.91054902  1
  Mg  Mg1  1  0.38080178  0.83596360  0.08945098  1
  Mg  Mg2  1  0.88080178  0.33596360  0.41054902  1
  Mg  Mg3  1  0.11919822  0.66403640  0.58945098  1
  Sn  Sn4  1  0.79104875  0.95059884  0.61256312  1
  Sn  Sn5  1  0.20895125  0.04940116  0.38743688  1
  Sn  Sn6  1  0.70895125  0.54940116  0.11256312  1
  Sn  Sn7  1  0.29104875  0.45059884  0.88743688  1
  Bi  Bi8  1  0.10507781  0.14959584  0.10786179  1
  Bi  Bi9  1  0.89492219  0.85040416  0.89213821  1
  Bi  Bi10  1  0.60507781  0.64959584  0.39213821  1
  Bi  Bi11  1  0.39492219  0.35040416  0.60786179  1
  O  O12  1  0.47654212  0.34092023  0.04017392  1
  O  O13  1  0.97421352  0.31734954  0.96861720  1
  O  O14  1  0.50442562  0.68460138  0.20082256  1
  O  O15  1  0.75426468  0.51066963  0.53440025  1
  O  O16  1  0.78267371  0.48221914  0.28157375  1
  O  O17  1  0.28267371  0.98221914  0.21842625  1
  O  O18  1  0.47421352  0.81734954  0.53138280  1
  O  O19  1  0.52578648  0.18265046  0.46861720  1
  O  O20  1  0.24573532  0.48933037  0.46559975  1
  O  O21  1  0.02345788  0.15907977  0.54017392  1
  O  O22  1  0.21732629  0.51778086  0.71842625  1
  O  O23  1  0.52345788  0.65907977  0.95982608  1
  O  O24  1  0.97654212  0.84092023  0.45982608  1
  O  O25  1  0.71732629  0.01778086  0.78157375  1
  O  O26  1  0.74573532  0.98933037  0.03440025  1
  O  O27  1  0.25426468  0.01066963  0.96559975  1
  O  O28  1  0.49557438  0.31539862  0.79917744  1
  O  O29  1  0.02578648  0.68265046  0.03138280  1
  O  O30  1  0.99557438  0.81539862  0.70082256  1
  O  O31  1  0.00442562  0.18460138  0.29917744  1
