# generated using pymatgen
data_Sm3Dy
_symmetry_space_group_name_H-M   'P 1'
_cell_length_a   7.30213910
_cell_length_b   7.30213828
_cell_length_c   5.81128625
_cell_angle_alpha   90.00000000
_cell_angle_beta   90.00000000
_cell_angle_gamma   119.99999456
_symmetry_Int_Tables_number   1
_chemical_formula_structural   Sm3Dy
_chemical_formula_sum   'Sm6 Dy2'
_cell_volume   268.35091373
_cell_formula_units_Z   2
loop_
 _symmetry_equiv_pos_site_id
 _symmetry_equiv_pos_as_xyz
  1  'x, y, z'
loop_
 _atom_site_type_symbol
 _atom_site_label
 _atom_site_symmetry_multiplicity
 _atom_site_fract_x
 _atom_site_fract_y
 _atom_site_fract_z
 _atom_site_occupancy
  Sm  Sm0  1  0.16667595  0.33335189  0.25000100  1
  Sm  Sm1  1  0.66664911  0.83332605  0.25000100  1
  Sm  Sm2  1  0.16667595  0.83332605  0.25000100  1
  Sm  Sm3  1  0.83332405  0.66664811  0.74999900  1
  Sm  Sm4  1  0.33335189  0.16667595  0.74999900  1
  Sm  Sm5  1  0.83332405  0.16667595  0.74999900  1
  Dy  Dy6  1  0.33333400  0.66666800  0.74999900  1
  Dy  Dy7  1  0.66666800  0.33333400  0.25000100  1
