# generated using pymatgen
data_Ce4GdO9
_symmetry_space_group_name_H-M   'P 1'
_cell_length_a   3.81454077
_cell_length_b   10.36920514
_cell_length_c   5.53465394
_cell_angle_alpha   105.43158378
_cell_angle_beta   89.96574248
_cell_angle_gamma   79.37698137
_symmetry_Int_Tables_number   1
_chemical_formula_structural   Ce4GdO9
_chemical_formula_sum   'Ce4 Gd1 O9'
_cell_volume   207.12250529
_cell_formula_units_Z   1
loop_
 _symmetry_equiv_pos_site_id
 _symmetry_equiv_pos_as_xyz
  1  'x, y, z'
loop_
 _atom_site_type_symbol
 _atom_site_label
 _atom_site_symmetry_multiplicity
 _atom_site_fract_x
 _atom_site_fract_y
 _atom_site_fract_z
 _atom_site_occupancy
  Ce  Ce0  1  0.61010152  0.78711886  0.40648665  1
  Ce  Ce1  1  0.80379789  0.39681583  0.20453172  1
  Ce  Ce2  1  0.19948858  0.60190079  0.80578414  1
  Ce  Ce3  1  0.39897291  0.21292525  0.61889614  1
  Gd  Gd4  1  0.00511742  0.00023413  0.95189761  1
  O  O5  1  0.69831390  0.60714000  0.05955157  1
  O  O6  1  0.08550827  0.83404971  0.17601628  1
  O  O7  1  0.10715905  0.79054088  0.64800032  1
  O  O8  1  0.70382455  0.59507463  0.55241496  1
  O  O9  1  0.30368680  0.39336778  0.45667013  1
  O  O10  1  0.92169430  0.16949092  0.33836893  1
  O  O11  1  0.90104775  0.20926288  0.85322176  1
  O  O12  1  0.50503515  0.00029487  0.73377584  1
  O  O13  1  0.30186290  0.40393248  0.96082293  1
