# generated using pymatgen
data_CaMoN3
_symmetry_space_group_name_H-M   'P 1'
_cell_length_a   3.58152449
_cell_length_b   4.40380753
_cell_length_c   10.17818437
_cell_angle_alpha   79.05024432
_cell_angle_beta   90.00000000
_cell_angle_gamma   90.00000000
_symmetry_Int_Tables_number   1
_chemical_formula_structural   CaMoN3
_chemical_formula_sum   'Ca2 Mo2 N6'
_cell_volume   157.61117267
_cell_formula_units_Z   2
loop_
 _symmetry_equiv_pos_site_id
 _symmetry_equiv_pos_as_xyz
  1  'x, y, z'
loop_
 _atom_site_type_symbol
 _atom_site_label
 _atom_site_symmetry_multiplicity
 _atom_site_fract_x
 _atom_site_fract_y
 _atom_site_fract_z
 _atom_site_occupancy
  Ca  Ca0  1  0.50000000  0.11267708  0.75794046  1
  Ca  Ca1  1  0.50000000  0.88732292  0.24205954  1
  Mo  Mo2  1  0.00000000  0.67579845  0.59319906  1
  Mo  Mo3  1  0.00000000  0.32420155  0.40680094  1
  N  N4  1  0.00000000  0.02717486  0.94031347  1
  N  N5  1  -0.00000000  0.18204543  0.59920817  1
  N  N6  1  0.00000000  0.97282514  0.05968653  1
  N  N7  1  0.50000000  0.65134970  0.67328588  1
  N  N8  1  0.50000000  0.34865030  0.32671412  1
  N  N9  1  0.00000000  0.81795457  0.40079183  1
