# generated using pymatgen
data_CdAgO2
_symmetry_space_group_name_H-M   'P 1'
_cell_length_a   3.44813481
_cell_length_b   5.77441801
_cell_length_c   5.77441807
_cell_angle_alpha   107.48800683
_cell_angle_beta   91.31357182
_cell_angle_gamma   91.31357909
_symmetry_Int_Tables_number   1
_chemical_formula_structural   CdAgO2
_chemical_formula_sum   'Cd2 Ag2 O4'
_cell_volume   109.57773240
_cell_formula_units_Z   2
loop_
 _symmetry_equiv_pos_site_id
 _symmetry_equiv_pos_as_xyz
  1  'x, y, z'
loop_
 _atom_site_type_symbol
 _atom_site_label
 _atom_site_symmetry_multiplicity
 _atom_site_fract_x
 _atom_site_fract_y
 _atom_site_fract_z
 _atom_site_occupancy
  Cd  Cd0  1  0.50000000  -0.00000000  0.50000000  1
  Cd  Cd1  1  0.50000000  0.50000000  -0.00000000  1
  Ag  Ag2  1  -0.00000000  -0.00000000  -0.00000000  1
  Ag  Ag3  1  0.00000000  0.50000000  0.50000000  1
  O  O4  1  -0.00000000  0.22831639  0.77168361  1
  O  O5  1  0.63014710  0.74773692  0.74773692  1
  O  O6  1  0.00000000  0.77168361  0.22831639  1
  O  O7  1  0.36985290  0.25226308  0.25226308  1
