# generated using pymatgen
data_Ca2Nb2CuO8
_symmetry_space_group_name_H-M   'P 1'
_cell_length_a   5.46923199
_cell_length_b   6.73510911
_cell_length_c   10.14614063
_cell_angle_alpha   109.62984032
_cell_angle_beta   93.07221273
_cell_angle_gamma   89.82166365
_symmetry_Int_Tables_number   1
_chemical_formula_structural   Ca2Nb2CuO8
_chemical_formula_sum   'Ca4 Nb4 Cu2 O16'
_cell_volume   351.47105697
_cell_formula_units_Z   2
loop_
 _symmetry_equiv_pos_site_id
 _symmetry_equiv_pos_as_xyz
  1  'x, y, z'
loop_
 _atom_site_type_symbol
 _atom_site_label
 _atom_site_symmetry_multiplicity
 _atom_site_fract_x
 _atom_site_fract_y
 _atom_site_fract_z
 _atom_site_occupancy
  Ca  Ca0  1  0.75810575  0.46555931  0.58691241  1
  Ca  Ca1  1  0.74458835  0.87904738  0.41321908  1
  Ca  Ca2  1  0.24525846  0.53445943  0.41447183  1
  Ca  Ca3  1  0.25837037  0.12096122  0.58751558  1
  Nb  Nb4  1  0.73701653  0.26121767  0.23606612  1
  Nb  Nb5  1  0.76595723  0.02986263  0.76595821  1
  Nb  Nb6  1  0.26583547  0.73876150  0.76526336  1
  Nb  Nb7  1  0.23672448  0.96960771  0.23497908  1
  Cu  Cu8  1  0.75208719  0.73567229  0.00073429  1
  Cu  Cu9  1  0.25007350  0.26374897  0.00054703  1
  O  O10  1  0.06815839  0.19826120  0.15272561  1
  O  O11  1  0.43230718  0.05229053  0.84629597  1
  O  O12  1  0.93439042  0.80078182  0.84817136  1
  O  O13  1  0.57053789  0.94705370  0.15500886  1
  O  O14  1  0.53306190  0.35994807  0.11996862  1
  O  O15  1  0.96619476  0.24801101  0.88223833  1
  O  O16  1  0.46905176  0.63940288  0.88139674  1
  O  O17  1  0.03591622  0.75147518  0.11918496  1
  O  O18  1  0.49057109  0.24819738  0.37688455  1
  O  O19  1  0.01299522  0.87390342  0.62464193  1
  O  O20  1  0.33121915  0.83834319  0.37218694  1
  O  O21  1  0.17144941  0.46840396  0.62913928  1
  O  O22  1  0.67163005  0.16149766  0.62895546  1
  O  O23  1  0.83184724  0.53161419  0.37180568  1
  O  O24  1  0.99023157  0.12623388  0.37653869  1
  O  O25  1  0.51276941  0.75152081  0.62436302  1
