# generated using pymatgen
data_LaZnFeNiO6
_symmetry_space_group_name_H-M   'P 1'
_cell_length_a   5.46406126
_cell_length_b   5.30349525
_cell_length_c   7.65781960
_cell_angle_alpha   90.19700919
_cell_angle_beta   90.00000000
_cell_angle_gamma   90.00000000
_symmetry_Int_Tables_number   1
_chemical_formula_structural   LaZnFeNiO6
_chemical_formula_sum   'La2 Zn2 Fe2 Ni2 O12'
_cell_volume   221.91175481
_cell_formula_units_Z   2
loop_
 _symmetry_equiv_pos_site_id
 _symmetry_equiv_pos_as_xyz
  1  'x, y, z'
loop_
 _atom_site_type_symbol
 _atom_site_label
 _atom_site_symmetry_multiplicity
 _atom_site_fract_x
 _atom_site_fract_y
 _atom_site_fract_z
 _atom_site_occupancy
  La  La0  1  0.03174659  0.99158269  0.24978616  1
  La  La1  1  0.46825341  0.49158269  0.74978616  1
  Zn  Zn2  1  0.53905308  0.52402520  0.24830796  1
  Zn  Zn3  1  0.96094692  0.02402520  0.74830796  1
  Fe  Fe4  1  0.50438831  0.00196995  0.00149676  1
  Fe  Fe5  1  0.99561169  0.50196995  0.50149676  1
  Ni  Ni6  1  0.50024999  0.00041228  0.49929743  1
  Ni  Ni7  1  -0.00024999  0.50041228  0.99929743  1
  O  O8  1  0.01827471  0.63409529  0.74582646  1
  O  O9  1  0.20469157  0.19329172  0.94190317  1
  O  O10  1  0.19985389  0.19782198  0.55644443  1
  O  O11  1  0.30014611  0.69782198  0.05644443  1
  O  O12  1  0.29530843  0.69329172  0.44190317  1
  O  O13  1  0.48172529  0.13409529  0.24582546  1
  O  O14  1  0.54159783  0.92795279  0.75361739  1
  O  O15  1  0.74007601  0.26423072  0.55654279  1
  O  O16  1  0.73839833  0.26461638  0.94677845  1
  O  O17  1  0.76160167  0.76461638  0.44677845  1
  O  O18  1  0.75992399  0.76423072  0.05654279  1
  O  O19  1  0.95840217  0.42795279  0.25361739  1
