# generated using pymatgen
data_CrSe2
_symmetry_space_group_name_H-M   'P 1'
_cell_length_a   7.15031248
_cell_length_b   7.13765483
_cell_length_c   7.17994971
_cell_angle_alpha   59.66442024
_cell_angle_beta   59.72182608
_cell_angle_gamma   59.90728406
_symmetry_Int_Tables_number   1
_chemical_formula_structural   CrSe2
_chemical_formula_sum   'Cr4 Se8'
_cell_volume   257.72364645
_cell_formula_units_Z   4
loop_
 _symmetry_equiv_pos_site_id
 _symmetry_equiv_pos_as_xyz
  1  'x, y, z'
loop_
 _atom_site_type_symbol
 _atom_site_label
 _atom_site_symmetry_multiplicity
 _atom_site_fract_x
 _atom_site_fract_y
 _atom_site_fract_z
 _atom_site_occupancy
  Cr  Cr0  1  0.49748567  0.00578020  0.49840994  1
  Cr  Cr1  1  0.00435066  0.49760276  0.49900368  1
  Cr  Cr2  1  0.49938266  0.49868136  0.49911751  1
  Cr  Cr3  1  0.49921821  0.49861659  0.00318120  1
  Se  Se4  1  0.24996952  0.25151425  0.25238051  1
  Se  Se5  1  0.74816933  0.74770271  0.25956037  1
  Se  Se6  1  0.25685931  0.74575169  0.74873458  1
  Se  Se7  1  0.74687892  0.25555881  0.74881582  1
  Se  Se8  1  0.74653142  0.25382845  0.24971147  1
  Se  Se9  1  0.25298196  0.74554691  0.25076297  1
  Se  Se10  1  0.25002584  0.25162856  0.74570486  1
  Se  Se11  1  0.74814852  0.74778770  0.74461708  1
