# generated using pymatgen
data_Ca3Mn2(IrO6)2
_symmetry_space_group_name_H-M   'P 1'
_cell_length_a   5.37089101
_cell_length_b   5.50616196
_cell_length_c   7.70823162
_cell_angle_alpha   90.06035903
_cell_angle_beta   90.07060023
_cell_angle_gamma   90.99572631
_symmetry_Int_Tables_number   1
_chemical_formula_structural   Ca3Mn2(IrO6)2
_chemical_formula_sum   'Ca3 Mn2 Ir2 O12'
_cell_volume   227.92077363
_cell_formula_units_Z   1
loop_
 _symmetry_equiv_pos_site_id
 _symmetry_equiv_pos_as_xyz
  1  'x, y, z'
loop_
 _atom_site_type_symbol
 _atom_site_label
 _atom_site_symmetry_multiplicity
 _atom_site_fract_x
 _atom_site_fract_y
 _atom_site_fract_z
 _atom_site_occupancy
  Ca  Ca0  1  0.00936179  0.94790298  0.24944007  1
  Ca  Ca1  1  0.48278142  0.44483474  0.25084956  1
  Ca  Ca2  1  0.98796812  0.05212990  0.75088986  1
  Mn  Mn3  1  0.99676127  0.49948018  0.99263446  1
  Mn  Mn4  1  0.50129114  0.98952893  0.50697677  1
  Ir  Ir5  1  0.99742227  0.50010827  0.50681304  1
  Ir  Ir6  1  0.50131009  0.99382825  0.99356872  1
  O  O7  1  0.09193853  0.48247913  0.74453038  1
  O  O8  1  0.20755439  0.19794771  0.04308300  1
  O  O9  1  0.19705999  0.20844424  0.45625688  1
  O  O10  1  0.29324478  0.71051790  0.05446428  1
  O  O11  1  0.28552785  0.70831284  0.44428983  1
  O  O12  1  0.40944354  0.96684714  0.75471971  1
  O  O13  1  0.58296251  0.02370134  0.24536596  1
  O  O14  1  0.70882900  0.29367128  0.54729494  1
  O  O15  1  0.70103746  0.28920637  0.95341488  1
  O  O16  1  0.80528833  0.81060408  0.96488789  1
  O  O17  1  0.81645014  0.80332506  0.53543167  1
  O  O18  1  0.90867338  0.51581867  0.25494512  1
