# generated using pymatgen
data_Ca3Ti2(SiO4)3
_symmetry_space_group_name_H-M   'P 1'
_cell_length_a   10.61563510
_cell_length_b   10.61563540
_cell_length_c   10.61563504
_cell_angle_alpha   109.47122188
_cell_angle_beta   109.47122245
_cell_angle_gamma   109.47121825
_symmetry_Int_Tables_number   1
_chemical_formula_structural   Ca3Ti2(SiO4)3
_chemical_formula_sum   'Ca12 Ti8 Si12 O48'
_cell_volume   920.90760706
_cell_formula_units_Z   4
loop_
 _symmetry_equiv_pos_site_id
 _symmetry_equiv_pos_as_xyz
  1  'x, y, z'
loop_
 _atom_site_type_symbol
 _atom_site_label
 _atom_site_symmetry_multiplicity
 _atom_site_fract_x
 _atom_site_fract_y
 _atom_site_fract_z
 _atom_site_occupancy
  Ca  Ca0  1  0.37500000  0.75000000  0.12500000  1
  Ca  Ca1  1  0.12500000  0.25000000  0.37500000  1
  Ca  Ca2  1  0.37500000  0.12500000  0.25000000  1
  Ca  Ca3  1  0.12500000  0.37500000  0.75000000  1
  Ca  Ca4  1  0.87500000  0.75000000  0.62500000  1
  Ca  Ca5  1  0.75000000  0.12500000  0.37500000  1
  Ca  Ca6  1  0.75000000  0.62500000  0.87500000  1
  Ca  Ca7  1  0.62500000  0.25000000  0.87500000  1
  Ca  Ca8  1  0.25000000  0.87500000  0.62500000  1
  Ca  Ca9  1  0.87500000  0.62500000  0.25000000  1
  Ca  Ca10  1  0.62500000  0.87500000  0.75000000  1
  Ca  Ca11  1  0.25000000  0.37500000  0.12500000  1
  Ti  Ti12  1  0.00000000  0.00000000  0.00000000  1
  Ti  Ti13  1  0.00000000  0.50000000  0.00000000  1
  Ti  Ti14  1  0.00000000  0.00000000  0.50000000  1
  Ti  Ti15  1  0.00000000  0.50000000  0.50000000  1
  Ti  Ti16  1  0.50000000  0.00000000  0.50000000  1
  Ti  Ti17  1  0.50000000  0.50000000  0.00000000  1
  Ti  Ti18  1  0.50000000  0.50000000  0.50000000  1
  Ti  Ti19  1  0.50000000  0.00000000  0.00000000  1
  Si  Si20  1  0.25000000  0.12500000  0.87500000  1
  Si  Si21  1  0.75000000  0.87500000  0.12500000  1
  Si  Si22  1  0.37500000  0.25000000  0.62500000  1
  Si  Si23  1  0.62500000  0.37500000  0.25000000  1
  Si  Si24  1  0.12500000  0.75000000  0.87500000  1
  Si  Si25  1  0.87500000  0.12500000  0.75000000  1
  Si  Si26  1  0.75000000  0.37500000  0.62500000  1
  Si  Si27  1  0.37500000  0.62500000  0.75000000  1
  Si  Si28  1  0.12500000  0.87500000  0.25000000  1
  Si  Si29  1  0.87500000  0.25000000  0.12500000  1
  Si  Si30  1  0.62500000  0.75000000  0.37500000  1
  Si  Si31  1  0.25000000  0.62500000  0.37500000  1
  O  O32  1  0.29572280  0.49191830  0.38372203  1
  O  O33  1  0.00808170  0.30380449  0.89180373  1
  O  O34  1  0.11627797  0.60819627  0.91200077  1
  O  O35  1  0.20427720  0.58799923  0.19619551  1
  O  O36  1  0.20427720  0.11627797  0.00808170  1
  O  O37  1  0.58799923  0.19619551  0.20427720  1
  O  O38  1  0.60819627  0.19619551  0.49191830  1
  O  O39  1  0.19619551  0.20427720  0.58799923  1
  O  O40  1  0.89180373  0.38372203  0.58799923  1
  O  O41  1  0.30380449  0.91200077  0.29572280  1
  O  O42  1  0.91200077  0.29572280  0.30380449  1
  O  O43  1  0.00808170  0.20427720  0.11627797  1
  O  O44  1  0.19619551  0.49191830  0.60819627  1
  O  O45  1  0.58799923  0.89180373  0.38372203  1
  O  O46  1  0.11627797  0.00808170  0.20427720  1
  O  O47  1  0.49191830  0.60819627  0.19619551  1
  O  O48  1  0.38372203  0.58799923  0.89180373  1
  O  O49  1  0.89180373  0.00808170  0.30380449  1
  O  O50  1  0.60819627  0.91200077  0.11627797  1
  O  O51  1  0.10819627  0.61627797  0.41200077  1
  O  O52  1  0.91200077  0.11627797  0.60819627  1
  O  O53  1  0.38372203  0.29572280  0.49191830  1
  O  O54  1  0.30380449  0.89180373  0.00808170  1
  O  O55  1  0.29572280  0.30380449  0.91200077  1
  O  O56  1  0.70427720  0.50808170  0.61627797  1
  O  O57  1  0.99191830  0.69619551  0.10819627  1
  O  O58  1  0.88372203  0.39180373  0.08799923  1
  O  O59  1  0.79572280  0.41200077  0.80380449  1
  O  O60  1  0.79572280  0.88372203  0.99191830  1
  O  O61  1  0.41200077  0.80380449  0.79572280  1
  O  O62  1  0.39180373  0.80380449  0.50808170  1
  O  O63  1  0.80380449  0.79572280  0.41200077  1
  O  O64  1  0.70427720  0.69619551  0.08799923  1
  O  O65  1  0.69619551  0.10819627  0.99191830  1
  O  O66  1  0.61627797  0.70427720  0.50808170  1
  O  O67  1  0.50808170  0.61627797  0.70427720  1
  O  O68  1  0.08799923  0.88372203  0.39180373  1
  O  O69  1  0.39180373  0.08799923  0.88372203  1
  O  O70  1  0.10819627  0.99191830  0.69619551  1
  O  O71  1  0.61627797  0.41200077  0.10819627  1
  O  O72  1  0.50808170  0.39180373  0.80380449  1
  O  O73  1  0.88372203  0.99191830  0.79572280  1
  O  O74  1  0.41200077  0.10819627  0.61627797  1
  O  O75  1  0.80380449  0.50808170  0.39180373  1
  O  O76  1  0.99191830  0.79572280  0.88372203  1
  O  O77  1  0.08799923  0.70427720  0.69619551  1
  O  O78  1  0.69619551  0.08799923  0.70427720  1
  O  O79  1  0.49191830  0.38372203  0.29572280  1
