# generated using pymatgen
data_Ca5La10Mn14(NiO24)2
_symmetry_space_group_name_H-M   'P 1'
_cell_length_a   10.97420881
_cell_length_b   10.92968859
_cell_length_c   7.75200569
_cell_angle_alpha   90.01721171
_cell_angle_beta   90.03482301
_cell_angle_gamma   89.89895220
_symmetry_Int_Tables_number   1
_chemical_formula_structural   Ca5La10Mn14(NiO24)2
_chemical_formula_sum   'Ca5 La10 Mn14 Ni2 O48'
_cell_volume   929.81021923
_cell_formula_units_Z   1
loop_
 _symmetry_equiv_pos_site_id
 _symmetry_equiv_pos_as_xyz
  1  'x, y, z'
loop_
 _atom_site_type_symbol
 _atom_site_label
 _atom_site_symmetry_multiplicity
 _atom_site_fract_x
 _atom_site_fract_y
 _atom_site_fract_z
 _atom_site_occupancy
  Ca  Ca0  1  0.26813042  0.75718877  0.24823747  1
  Ca  Ca1  1  0.48446226  0.00489777  0.74975999  1
  Ca  Ca2  1  0.48259878  0.50127441  0.74984591  1
  Ca  Ca3  1  0.72524299  0.24414563  0.75157147  1
  Ca  Ca4  1  0.72831899  0.74305361  0.75137249  1
  La  La5  1  0.02102376  0.49227705  0.24648127  1
  La  La6  1  0.02125473  0.00160436  0.24617999  1
  La  La7  1  0.24001202  0.24822375  0.75390422  1
  La  La8  1  0.23965255  0.74782248  0.75253750  1
  La  La9  1  0.50455529  0.49484377  0.24990774  1
  La  La10  1  0.50484041  0.00246753  0.24993419  1
  La  La11  1  0.75983574  0.25282393  0.24811950  1
  La  La12  1  0.76374050  0.75301399  0.24760897  1
  La  La13  1  0.98483097  0.00187068  0.75390179  1
  La  La14  1  0.98881224  0.49868566  0.75454245  1
  Mn  Mn15  1  0.25303731  0.00198158  0.49659916  1
  Mn  Mn16  1  0.25285337  0.49705216  0.49628494  1
  Mn  Mn17  1  0.49626867  0.24996969  0.50166505  1
  Mn  Mn18  1  0.50016873  0.74958602  0.50387809  1
  Mn  Mn19  1  0.74716191  0.00024743  0.50567071  1
  Mn  Mn20  1  0.74729845  0.50043416  0.50609523  1
  Mn  Mn21  1  0.25124864  0.49640615  0.00191184  1
  Mn  Mn22  1  0.25197122  0.00040433  0.00276936  1
  Mn  Mn23  1  0.49646355  0.24983189  0.99854168  1
  Mn  Mn24  1  0.50036508  0.74937526  0.99630403  1
  Mn  Mn25  1  0.74783480  0.00115690  0.99574675  1
  Mn  Mn26  1  0.74785101  0.50131132  0.99486453  1
  Mn  Mn27  1  0.00088080  0.24997368  0.49968825  1
  Mn  Mn28  1  0.00039790  0.74951861  0.49951276  1
  Ni  Ni29  1  0.00064230  0.24926443  0.00146117  1
  Ni  Ni30  1  0.99970181  0.74988826  0.99992384  1
  O  O31  1  0.01085477  0.27675417  0.74329013  1
  O  O32  1  0.01137996  0.78075039  0.74212154  1
  O  O33  1  0.11464166  0.10511262  0.96729266  1
  O  O34  1  0.11642005  0.60825736  0.96835977  1
  O  O35  1  0.10982024  0.10811961  0.53247344  1
  O  O36  1  0.11104239  0.61112273  0.53271214  1
  O  O37  1  0.13268218  0.36909136  0.47582630  1
  O  O38  1  0.13959549  0.86015883  0.46115510  1
  O  O39  1  0.13757326  0.37164371  0.01828991  1
  O  O40  1  0.14453947  0.86432352  0.03378427  1
  O  O41  1  0.25280760  0.02502990  0.24900583  1
  O  O42  1  0.25260616  0.53627810  0.24875806  1
  O  O43  1  0.25456437  0.47252168  0.74959831  1
  O  O44  1  0.25211574  0.96945735  0.74970828  1
  O  O45  1  0.36900247  0.13313154  0.95543790  1
  O  O46  1  0.36306359  0.64098012  0.96736631  1
  O  O47  1  0.36820548  0.13238481  0.54336592  1
  O  O48  1  0.36219635  0.64026634  0.53125080  1
  O  O49  1  0.39467366  0.39476663  0.48324775  1
  O  O50  1  0.38840034  0.88678487  0.46737703  1
  O  O51  1  0.39649518  0.39427039  0.01666008  1
  O  O52  1  0.39106384  0.88670853  0.03386083  1
  O  O53  1  0.51222818  0.22292497  0.24941734  1
  O  O54  1  0.50011818  0.71854035  0.24941300  1
  O  O55  1  0.50340900  0.28377967  0.75069981  1
  O  O56  1  0.50195102  0.78682884  0.75090727  1
  O  O57  1  0.61048100  0.10957232  0.53628967  1
  O  O58  1  0.60976691  0.61014243  0.53870648  1
  O  O59  1  0.60756286  0.10890940  0.96331023  1
  O  O60  1  0.60677533  0.60943762  0.96053184  1
  O  O61  1  0.63848577  0.36232457  0.46755271  1
  O  O62  1  0.63821525  0.86100227  0.46417336  1
  O  O63  1  0.63756537  0.36069142  0.03395141  1
  O  O64  1  0.63767165  0.85970598  0.03685887  1
  O  O65  1  0.74120191  0.02988164  0.25000595  1
  O  O66  1  0.74049111  0.53094902  0.24994451  1
  O  O67  1  0.75708098  0.46074409  0.75095101  1
  O  O68  1  0.75592526  0.96003175  0.75097308  1
  O  O69  1  0.85380739  0.13604588  0.96362535  1
  O  O70  1  0.85358252  0.63673649  0.96333569  1
  O  O71  1  0.85771876  0.13813339  0.54100273  1
  O  O72  1  0.85810106  0.64005586  0.54077459  1
  O  O73  1  0.88791304  0.39124198  0.46586534  1
  O  O74  1  0.89059613  0.89125981  0.46354778  1
  O  O75  1  0.88444749  0.39448498  0.03372535  1
  O  O76  1  0.88598870  0.89513253  0.03527003  1
  O  O77  1  0.98403855  0.22040345  0.25800149  1
  O  O78  1  0.98973709  0.71572549  0.25746539  1
