# generated using pymatgen
data_CoO2
_symmetry_space_group_name_H-M   'P 1'
_cell_length_a   2.86916968
_cell_length_b   8.30860101
_cell_length_c   9.92563427
_cell_angle_alpha   90.00250926
_cell_angle_beta   90.00002660
_cell_angle_gamma   90.00003478
_symmetry_Int_Tables_number   1
_chemical_formula_structural   CoO2
_chemical_formula_sum   'Co8 O16'
_cell_volume   236.61507219
_cell_formula_units_Z   8
loop_
 _symmetry_equiv_pos_site_id
 _symmetry_equiv_pos_as_xyz
  1  'x, y, z'
loop_
 _atom_site_type_symbol
 _atom_site_label
 _atom_site_symmetry_multiplicity
 _atom_site_fract_x
 _atom_site_fract_y
 _atom_site_fract_z
 _atom_site_occupancy
  Co  Co0  1  0.24999900  0.41216641  0.10136024  1
  Co  Co1  1  0.75000000  0.08783392  0.60135228  1
  Co  Co2  1  0.25000000  0.91218242  0.39863508  1
  Co  Co3  1  0.75000000  0.58781980  0.89866552  1
  Co  Co4  1  0.74999900  0.55255852  0.38417847  1
  Co  Co5  1  0.25000000  0.44745970  0.61580350  1
  Co  Co6  1  0.75000000  0.05255661  0.11580463  1
  Co  Co7  1  0.25000000  0.94744979  0.88418101  1
  O  O8  1  0.24999900  0.91395004  0.06889522  1
  O  O9  1  0.75000000  0.08605744  0.93110955  1
  O  O10  1  0.24999900  0.41396795  0.43111621  1
  O  O11  1  0.75000000  0.58605181  0.56889041  1
  O  O12  1  0.25000000  0.03665005  0.71401758  1
  O  O13  1  0.74999900  0.96333112  0.28595472  1
  O  O14  1  0.24999900  0.53665890  0.78598697  1
  O  O15  1  0.74999900  0.46331840  0.21403723  1
  O  O16  1  0.25000000  0.61572364  0.02216907  1
  O  O17  1  0.74999900  0.38427908  0.97785846  1
  O  O18  1  0.25000000  0.11571792  0.47785234  1
  O  O19  1  0.74999900  0.88427424  0.52213154  1
  O  O20  1  0.74999900  0.80595968  0.85192884  1
  O  O21  1  0.25000000  0.19403126  0.14809482  1
  O  O22  1  0.25000000  0.69402796  0.35189733  1
  O  O23  1  0.74999900  0.30597333  0.64807798  1
