# generated using pymatgen
data_CaMnO2
_symmetry_space_group_name_H-M   'P 1'
_cell_length_a   3.32281617
_cell_length_b   8.09899910
_cell_length_c   8.71596195
_cell_angle_alpha   108.08779373
_cell_angle_beta   67.47665731
_cell_angle_gamma   90.07550058
_symmetry_Int_Tables_number   1
_chemical_formula_structural   CaMnO2
_chemical_formula_sum   'Ca4 Mn4 O8'
_cell_volume   204.10487227
_cell_formula_units_Z   4
loop_
 _symmetry_equiv_pos_site_id
 _symmetry_equiv_pos_as_xyz
  1  'x, y, z'
loop_
 _atom_site_type_symbol
 _atom_site_label
 _atom_site_symmetry_multiplicity
 _atom_site_fract_x
 _atom_site_fract_y
 _atom_site_fract_z
 _atom_site_occupancy
  Ca  Ca0  1  0.55008176  0.05930886  0.21212977  1
  Ca  Ca1  1  0.44588959  0.92058250  0.81609392  1
  Ca  Ca2  1  0.18186886  0.67675472  0.07921378  1
  Ca  Ca3  1  0.81420724  0.30312403  0.94894963  1
  Mn  Mn4  1  0.68756217  0.17902806  0.57722822  1
  Mn  Mn5  1  0.92846189  0.43187097  0.33207210  1
  Mn  Mn6  1  0.06774566  0.54799573  0.69607028  1
  Mn  Mn7  1  0.30817980  0.80091804  0.45100410  1
  O  O8  1  0.69100717  0.67039456  0.56846957  1
  O  O9  1  0.44816569  0.42760976  0.81590811  1
  O  O10  1  0.54793333  0.55230236  0.21228739  1
  O  O11  1  0.30526054  0.30952666  0.45974530  1
  O  O12  1  0.07175329  0.05265961  0.68919789  1
  O  O13  1  0.18125336  0.18189483  0.08099287  1
  O  O14  1  0.92407166  0.92731479  0.33903525  1
  O  O15  1  0.81483299  0.79805151  0.94721782  1
