# generated using pymatgen
data_Mn2HO4
_symmetry_space_group_name_H-M   'P 1'
_cell_length_a   5.47281254
_cell_length_b   5.47187658
_cell_length_c   14.56496663
_cell_angle_alpha   88.97126638
_cell_angle_beta   88.96039421
_cell_angle_gamma   66.71446865
_symmetry_Int_Tables_number   1
_chemical_formula_structural   Mn2HO4
_chemical_formula_sum   'Mn12 H6 O24'
_cell_volume   400.54928394
_cell_formula_units_Z   6
loop_
 _symmetry_equiv_pos_site_id
 _symmetry_equiv_pos_as_xyz
  1  'x, y, z'
loop_
 _atom_site_type_symbol
 _atom_site_label
 _atom_site_symmetry_multiplicity
 _atom_site_fract_x
 _atom_site_fract_y
 _atom_site_fract_z
 _atom_site_occupancy
  Mn  Mn0  1  0.74587411  0.24497453  0.50095372  1
  Mn  Mn1  1  0.25273527  0.74804315  0.50204184  1
  Mn  Mn2  1  0.50860650  0.00499453  0.84952874  1
  Mn  Mn3  1  0.00364489  0.51335183  0.85018007  1
  Mn  Mn4  1  0.48875936  0.98576703  0.15033857  1
  Mn  Mn5  1  0.99910628  0.50077901  0.15645724  1
  Mn  Mn6  1  0.49478065  0.49581701  0.00082339  1
  Mn  Mn7  1  0.99788966  0.00272665  0.00191845  1
  Mn  Mn8  1  0.76359448  0.75334061  0.35049905  1
  Mn  Mn9  1  0.25479545  0.25877596  0.34982558  1
  Mn  Mn10  1  0.75087553  0.74926093  0.65639636  1
  Mn  Mn11  1  0.23577647  0.23875651  0.65033784  1
  H  H12  1  0.68988773  0.23963711  0.69566868  1
  H  H13  1  0.23596758  0.69379181  0.68858085  1
  H  H14  1  0.03836489  0.03902727  0.81350728  1
  H  H15  1  0.48970423  0.43978702  0.19566221  1
  H  H16  1  0.94382364  0.98571433  0.18840427  1
  H  H17  1  0.28893643  0.78823285  0.31378232  1
  O  O18  1  0.63737981  0.13800128  0.05189517  1
  O  O19  1  0.13167938  0.63594081  0.05210138  1
  O  O20  1  0.36325036  0.85902148  0.94847016  1
  O  O21  1  0.85285181  0.36040067  0.95093411  1
  O  O22  1  0.38804579  0.38745470  0.55200495  1
  O  O23  1  0.88618611  0.88192722  0.55219740  1
  O  O24  1  0.61044114  0.60292069  0.45122673  1
  O  O25  1  0.10911730  0.11357414  0.44869441  1
  O  O26  1  0.12122174  0.12136251  0.11456727  1
  O  O27  1  0.61393433  0.61936937  0.11407726  1
  O  O28  1  0.36648385  0.36575430  0.89341711  1
  O  O29  1  0.87875770  0.88819421  0.88752446  1
  O  O30  1  0.37133849  0.87146679  0.61444869  1
  O  O31  1  0.86938745  0.36426570  0.61406263  1
  O  O32  1  0.61567707  0.11648534  0.39377220  1
  O  O33  1  0.13812880  0.62840695  0.38786636  1
  O  O34  1  0.37716294  0.34150155  0.21599871  1
  O  O35  1  0.84663746  0.87382453  0.21073428  1
  O  O36  1  0.14376378  0.14037819  0.78860352  1
  O  O37  1  0.66291663  0.66258225  0.78309301  1
  O  O38  1  0.59170922  0.12698246  0.71579909  1
  O  O39  1  0.12410267  0.59659446  0.71070779  1
  O  O40  1  0.39040881  0.89379670  0.28899912  1
  O  O41  1  0.91273822  0.41289357  0.28341472  1
