# generated using pymatgen
data_LaZnFeCuO6
_symmetry_space_group_name_H-M   'P 1'
_cell_length_a   5.43436493
_cell_length_b   5.23596556
_cell_length_c   7.89844263
_cell_angle_alpha   92.10370223
_cell_angle_beta   90.00000000
_cell_angle_gamma   90.00000000
_symmetry_Int_Tables_number   1
_chemical_formula_structural   LaZnFeCuO6
_chemical_formula_sum   'La2 Zn2 Fe2 Cu2 O12'
_cell_volume   224.59198075
_cell_formula_units_Z   2
loop_
 _symmetry_equiv_pos_site_id
 _symmetry_equiv_pos_as_xyz
  1  'x, y, z'
loop_
 _atom_site_type_symbol
 _atom_site_label
 _atom_site_symmetry_multiplicity
 _atom_site_fract_x
 _atom_site_fract_y
 _atom_site_fract_z
 _atom_site_occupancy
  La  La0  1  0.03578374  0.98648684  0.25396397  1
  La  La1  1  0.46421626  0.48648684  0.75396397  1
  Zn  Zn2  1  0.54496485  0.52876632  0.24845159  1
  Zn  Zn3  1  0.95503515  0.02876632  0.74845159  1
  Fe  Fe4  1  0.50455388  0.00473452  0.00462022  1
  Fe  Fe5  1  0.99544612  0.50473452  0.50462022  1
  Cu  Cu6  1  0.50135731  0.99376082  0.50283726  1
  Cu  Cu7  1  0.99864269  0.49376082  0.00283726  1
  O  O8  1  0.01950334  0.64447988  0.73525750  1
  O  O9  1  0.19979043  0.20083377  0.93573642  1
  O  O10  1  0.20781691  0.18881226  0.55671923  1
  O  O11  1  0.29218309  0.68881226  0.05671923  1
  O  O12  1  0.30020957  0.70083377  0.43573642  1
  O  O13  1  0.48049666  0.14447988  0.23525650  1
  O  O14  1  0.54323727  0.92903257  0.76424913  1
  O  O15  1  0.73859086  0.25407039  0.56130287  1
  O  O16  1  0.74622588  0.26902063  0.93686080  1
  O  O17  1  0.75377412  0.76902063  0.43686080  1
  O  O18  1  0.76140914  0.75407039  0.06130287  1
  O  O19  1  0.95676273  0.42903257  0.26424913  1
