# generated using pymatgen
data_MgMnO2
_symmetry_space_group_name_H-M   'P 1'
_cell_length_a   6.20988448
_cell_length_b   6.20996608
_cell_length_c   6.21017326
_cell_angle_alpha   119.95416711
_cell_angle_beta   90.07698472
_cell_angle_gamma   119.95512043
_symmetry_Int_Tables_number   1
_chemical_formula_structural   MgMnO2
_chemical_formula_sum   'Mg4 Mn4 O8'
_cell_volume   169.45902426
_cell_formula_units_Z   4
loop_
 _symmetry_equiv_pos_site_id
 _symmetry_equiv_pos_as_xyz
  1  'x, y, z'
loop_
 _atom_site_type_symbol
 _atom_site_label
 _atom_site_symmetry_multiplicity
 _atom_site_fract_x
 _atom_site_fract_y
 _atom_site_fract_z
 _atom_site_occupancy
  Mg  Mg0  1  0.99977966  0.00003860  0.00034685  1
  Mg  Mg1  1  0.49979395  0.50004072  0.50033010  1
  Mg  Mg2  1  0.99978242  0.00003766  0.50031179  1
  Mg  Mg3  1  0.99976041  0.50003253  0.50034289  1
  Mn  Mn4  1  0.99970627  0.49998642  0.00031456  1
  Mn  Mn5  1  0.49974421  0.99998618  0.00031461  1
  Mn  Mn6  1  0.49973844  0.50002916  0.00033246  1
  Mn  Mn7  1  0.49975333  0.00001171  0.50032173  1
  O  O8  1  0.24469050  0.48992819  0.73520836  1
  O  O9  1  0.24470868  0.01004096  0.25527675  1
  O  O10  1  0.24481893  0.49002988  0.25543569  1
  O  O11  1  0.76486470  0.01012433  0.25538383  1
  O  O12  1  0.75486694  0.99003581  0.74538219  1
  O  O13  1  0.75485601  0.51016468  0.26546202  1
  O  O14  1  0.23468905  0.98996810  0.74529151  1
  O  O15  1  0.75470950  0.51005405  0.74525865  1
