# generated using pymatgen
data_CaGe2
_symmetry_space_group_name_H-M   'P 1'
_cell_length_a   4.06623568
_cell_length_b   4.06650141
_cell_length_c   4.97074751
_cell_angle_alpha   89.99999999
_cell_angle_beta   90.00266797
_cell_angle_gamma   120.00216294
_symmetry_Int_Tables_number   1
_chemical_formula_structural   CaGe2
_chemical_formula_sum   'Ca1 Ge2'
_cell_volume   71.17973108
_cell_formula_units_Z   1
loop_
 _symmetry_equiv_pos_site_id
 _symmetry_equiv_pos_as_xyz
  1  'x, y, z'
loop_
 _atom_site_type_symbol
 _atom_site_label
 _atom_site_symmetry_multiplicity
 _atom_site_fract_x
 _atom_site_fract_y
 _atom_site_fract_z
 _atom_site_occupancy
  Ca  Ca0  1  0.00000000  0.00000000  -0.00000000  1
  Ge  Ge1  1  0.66662126  0.33331063  0.60638495  1
  Ge  Ge2  1  0.33337874  0.66668937  0.39361505  1
