# generated using pymatgen
data_AlPO4
_symmetry_space_group_name_H-M   'P 1'
_cell_length_a   8.85697778
_cell_length_b   8.88534701
_cell_length_c   12.94871659
_cell_angle_alpha   110.34289064
_cell_angle_beta   98.07650517
_cell_angle_gamma   105.08974747
_symmetry_Int_Tables_number   1
_chemical_formula_structural   AlPO4
_chemical_formula_sum   'Al8 P8 O32'
_cell_volume   891.98923817
_cell_formula_units_Z   8
loop_
 _symmetry_equiv_pos_site_id
 _symmetry_equiv_pos_as_xyz
  1  'x, y, z'
loop_
 _atom_site_type_symbol
 _atom_site_label
 _atom_site_symmetry_multiplicity
 _atom_site_fract_x
 _atom_site_fract_y
 _atom_site_fract_z
 _atom_site_occupancy
  Al  Al0  1  0.30212509  0.78630773  0.36916311  1
  Al  Al1  1  0.69787491  0.21369227  0.63083689  1
  Al  Al2  1  0.68094863  0.80003255  0.18546554  1
  Al  Al3  1  0.31905137  0.19996745  0.81453446  1
  Al  Al4  1  0.02180921  0.32092910  0.05832657  1
  Al  Al5  1  0.97819079  0.67907090  0.94167343  1
  Al  Al6  1  0.48646165  0.79732504  0.82413744  1
  Al  Al7  1  0.51353835  0.20267496  0.17586256  1
  P  P8  1  0.60353621  0.48607752  0.81265843  1
  P  P9  1  0.39646379  0.51392248  0.18734157  1
  P  P10  1  0.60078658  0.08028995  0.37162552  1
  P  P11  1  0.39921342  0.91971005  0.62837448  1
  P  P12  1  0.74049186  0.03649719  0.04403434  1
  P  P13  1  0.25950814  0.96350281  0.95596566  1
  P  P14  1  0.98137554  0.66721202  0.18066684  1
  P  P15  1  0.01862446  0.33278798  0.81933316  1
  O  O16  1  0.70383254  0.19909893  0.49311220  1
  O  O17  1  0.29616746  0.80090107  0.50688780  1
  O  O18  1  0.57195829  0.18886029  0.30591554  1
  O  O19  1  0.42804171  0.81113971  0.69408446  1
  O  O20  1  0.11380813  0.76545980  0.29269788  1
  O  O21  1  0.88619187  0.23454020  0.70730212  1
  O  O22  1  0.69269823  0.96292760  0.31420592  1
  O  O23  1  0.30730177  0.03707240  0.68579408  1
  O  O24  1  0.50227489  0.59511451  0.79377376  1
  O  O25  1  0.49772511  0.40488549  0.20622624  1
  O  O26  1  0.51058184  0.36004458  0.85818938  1
  O  O27  1  0.48941816  0.63995542  0.14181062  1
  O  O28  1  0.43574108  0.97484396  0.37572926  1
  O  O29  1  0.56425892  0.02515604  0.62427074  1
  O  O30  1  0.63511447  0.38744788  0.69837923  1
  O  O31  1  0.36488553  0.61255212  0.30162077  1
  O  O32  1  0.94892593  0.47449858  0.14298213  1
  O  O33  1  0.05107407  0.52550142  0.85701787  1
  O  O34  1  0.76581246  0.60168833  0.90044468  1
  O  O35  1  0.23418754  0.39831167  0.09955532  1
  O  O36  1  0.82735979  0.70645501  0.20196544  1
  O  O37  1  0.17264021  0.29354499  0.79803456  1
  O  O38  1  0.65841665  0.16564194  0.09976629  1
  O  O39  1  0.34158335  0.83435806  0.90023371  1
  O  O40  1  0.92342405  0.13201186  0.07247105  1
  O  O41  1  0.07657595  0.86798814  0.92752895  1
  O  O42  1  0.71189741  0.89405577  0.08819048  1
  O  O43  1  0.28810259  0.10594423  0.91180952  1
  O  O44  1  0.67133322  0.95499254  0.91331228  1
  O  O45  1  0.32866678  0.04500746  0.08668772  1
  O  O46  1  0.03639855  0.72156634  0.08721708  1
  O  O47  1  0.96360145  0.27843366  0.91278292  1
